Measurement: Raman, 514 nm, ccw, Raman Data Processed
Mineral: Actinolite
Rruff sample: R050336
Ideal chemistry: Ca_2_(Mg_4.5-2.5_Fe^2+^_0.5-2.5_)_=5_Si_8_O_22_(OH)_2_
Locality: Kragerø, Norway
Source: California Institute of Technology
Description: Dark green prismatic fragment
Measured chemistry: ([box]_0.62_Na_0.34_K_0.04_)(Ca_1.60_Na_0.40_)_Σ=2_(Mg_3.90_Fe^2+^_0.70_Al_0.20_Ti_0.10_Fe^3+^_0.10_)_Σ=5_(Si_7.52_Al_0.48_)_Σ=8_O_22_((OH)_0.97_F_0.03_)_2_
Pin_id: M00198
Orientation: Laser parallel to c* (0 0 1). Fiducial mark perpendicular to laser is parallel to a [1 0 0]
Raman shift (cm-1)	intensity
144.817	0
149.732	457.187
154.644	2631.63
159.554	5082.43
164.461	4150.6
169.366	4060.68
174.269	6410.6
179.168	6651.74
184.066	4175.56
188.961	1863.26
193.853	1299.59
198.743	1508.42
203.631	2371.98
208.516	4771.94
213.398	8865.1
218.278	13591.5
223.156	14748
228.031	9205.44
232.903	4250.24
237.773	1733.19
242.641	727.738
247.506	344.553
252.368	234.792
257.228	63.5645
262.086	141.819
266.941	317.715
271.793	270.737
276.643	185.19
281.491	76.5884
286.336	344.013
291.178	832.886
296.018	1303.21
300.856	1524.74
305.691	1204.54
310.523	915.806
315.353	822.797
320.181	989.985
325.006	1193.44
329.828	1438.77
334.648	1221.33
339.465	1077.19
344.28	1074.16
349.093	1220.05
353.903	1272.08
358.71	1490.79
363.515	1929.61
368.317	2303.2
373.117	2057.47
377.914	1591.36
382.709	1630.78
387.501	1738.71
392.291	1733.1
397.078	1170.92
401.863	690.162
406.645	452.478
411.425	398.906
416.202	322.57
420.977	167.314
425.749	50.1472
430.518	7.11987
435.285	73.9761
440.05	0.185547
444.812	32.9824
449.571	35.76
454.328	88.1973
459.083	172.857
463.835	210.936
468.584	256.697
473.331	227.46
478.075	199.763
482.817	300.184
487.556	160.783
492.293	226.55
497.027	285.513
501.758	405.474
506.488	584.363
511.214	647.306
515.938	762.595
520.66	879.232
525.379	1077.22
530.095	1241.62
534.809	1279.45
539.52	1196.69
544.229	1014.31
548.935	842.426
553.639	788.5
558.34	616.006
563.039	570.943
567.735	451.711
572.428	354.046
577.119	324.783
581.808	265.779
586.494	126.714
591.177	26.3645
595.858	86.0654
600.536	4.68481
605.212	16.1731
609.885	132.408
614.556	167.56
619.224	373.269
623.889	528.807
628.552	781.583
633.213	1164.77
637.871	1710.46
642.526	2609.89
647.179	3668.07
651.829	5267.02
656.477	7852.75
661.122	13115.3
665.764	22594.8
670.404	31611
675.042	26128.4
679.677	12969.2
684.309	6353.93
688.939	3529.09
693.566	2292.93
698.191	1417.24
702.813	1049.43
707.432	793.654
712.049	661.128
716.664	687.836
721.276	553.902
725.885	438.758
730.492	459.33
735.096	483.378
739.697	391.07
744.297	312.141
748.893	240.398
753.487	111.777
758.078	140.742
762.667	33.7471
767.253	71.2481
771.837	15.3154
776.418	5.67969
780.997	102.746
785.573	123.893
790.146	125.13
794.717	21.4683
799.285	57.916
803.851	35.48
808.414	76.0127
812.975	80.582
817.533	79.2285
822.088	55.0264
826.641	204.984
831.192	127.107
835.739	227.598
840.284	125.88
844.827	159.541
849.367	161.386
853.904	126.415
858.439	111.382
862.972	93.2471
867.501	62.2295
872.029	70.1528
876.553	60.1191
881.075	62.7012
885.595	140.792
890.111	250.761
894.626	480.229
899.137	547.575
903.647	666.631
908.153	883.435
912.657	1218.28
917.158	1480.39
921.657	2301.83
926.154	2787.6
930.647	2662.64
935.138	1875.96
939.627	1558.38
944.113	1496.11
948.596	1402.84
953.077	1173.23
957.555	898.882
962.031	1071.77
966.504	894.886
970.974	822.205
975.442	885.731
979.907	774.451
984.37	693.369
988.83	758.489
993.288	842.295
997.742	988.023
1002.2	1179.86
1006.64	1317.93
1011.09	1412.52
1015.54	1655.94
1019.98	1845.77
1024.42	2254
1028.86	2493.74
1033.29	3108.82
1037.72	3789.4
1042.15	4928.36
1046.58	6802.16
1051	9590.94
1055.42	11712.1
1059.84	10771.7
1064.26	7937.45
1068.67	5185.04
1073.08	3127.71
1077.49	2084.18
1081.89	1621.53
1086.3	1215
1090.7	903.23
1095.1	735.969
1099.49	691.684
1103.88	562.832
1108.28	587.005
1112.66	485.756
1117.05	384.212
1121.43	272.377
1125.81	324.813
1130.19	249.262
1134.56	226.916
1138.93	54.6675
1143.3	68.3115
1147.67	64.9302
1152.04	81.6401
1156.4	38.3613
1160.76	32.8286
1165.11	15.5752
1169.47	18.2939
1173.82	1.54297
1178.17	22.5083
1182.51	35.8066
1186.86	12.374
1191.2	18.8076
1195.54	1.68311
1199.87	106.797
1204.2	62.627
1208.54	14.1841
1212.86	16.6182
1217.19	38.1743
1221.51	25.6792
1225.83	112.894
1230.15	150.901
1234.46	44.6138
1238.78	93.0757
1243.09	31.8477
1247.39	134.925
1251.7	174.718
1256	199.152
1260.3	94.4976
1264.6	129.504
1268.89	149.339
1273.18	205.671
1277.47	204.981
1281.76	321.474
1286.04	272.916
1290.32	192.999
1294.6	318.512
1298.88	267.74
1303.15	156.462
1307.42	288.391
1311.69	263.555
1315.96	219.918
1320.22	185.166
1324.48	96.1694
1328.74	190.075
1332.99	128.578
1337.24	166.858
1341.49	181.963
1345.74	120.671
1349.99	208.186
1354.23	108.778
1358.47	106.564
1362.71	149.485
1366.94	60.7217
1371.17	29.4136
1375.4	32.0454
1379.63	119.454
1383.85	96.2188
1388.07	97.0503
1392.29	83.208
1396.51	46.1289
1400.72	24.5674
1404.93	10.0508
1409.14	68.7334
1413.35	47.3369
1417.55	28.8325
1421.75	31.5283
1425.95	178.241
1430.14	163.98
1434.34	271.344
1438.53	263.7
1442.71	284.065
1446.9	320.576
1451.08	226.172
1455.26	265.014
1459.44	176.996
1463.61	130.967
1467.78	99.1953
1471.95	161.213
1476.12	121.256
1480.28	206.019
1484.45	193.476
1488.61	3.09375
1492.76	47.436
1496.91	57.1719
1501.07	98.9644
1505.21	71.8184
1509.36	113.66
1513.5	53.4277
1517.64	32.1284
1521.78	137.754
1525.92	74.8208
1530.05	30.2456
1534.18	53.1382
1538.31	89.0147
1542.43	86.5713
1546.56	33.7002
1550.67	151.153
1554.79	135.52
1558.91	157.668
