Measurement: Raman, 514 nm, ccw, Raman Data Processed
Mineral: Actinolite
Rruff sample: R040064
Ideal chemistry: Ca_2_(Mg_4.5-2.5_Fe^2+^_0.5-2.5_)_=5_Si_8_O_22_(OH)_2_
Locality: Ehime Perfecture, Uma Gun, Japan
Source: University of Arizona Mineral Museum
Description: Aggregate of green acicular crystals associated with chlorite
Measured chemistry: (Ca_0.95_Na_0.04_Mn_0.01_)_2_(Mg_0.88_Fe_0.12_)_5_(Si_0.98_Al_0.02_)_8_O_22_(OH)_2_
Pin_id: M00235
Orientation: Laser parallel to b* (0 1 0). Fiducial mark perpendicular to laser is parallel to -c [0 0 -1]
Raman shift (cm-1)	intensity
107.907	0
112.063	470.275
116.218	2199.25
120.371	5387.1
124.522	8672.99
128.671	6284.5
132.818	2555.1
136.963	885.339
141.107	391.611
145.248	22.273
149.388	102.894
153.526	84.085
157.662	647.607
161.796	2136.3
165.929	1346.96
170.059	612.586
174.188	1708.06
178.315	5956.8
182.44	9104.39
186.563	3696.72
190.684	1139.84
194.803	687.548
198.921	465.455
203.037	382.627
207.15	535.167
211.262	921.18
215.373	1771.42
219.481	4061.25
223.588	8855.49
227.692	9582
231.795	5224.66
235.896	2957.78
239.995	1534.87
244.093	731.189
248.188	597.948
252.282	754.166
256.374	549.859
260.464	258.015
264.552	47.595
268.638	32.62
272.723	113.691
276.806	142.828
280.887	68.126
284.966	185.804
289.043	748.589
293.118	1146.2
297.192	847.954
301.264	798.046
305.334	1054.36
309.402	744.863
313.469	466.03
317.533	329.716
321.596	368.316
325.657	404.766
329.716	799.979
333.774	1526.93
337.829	1859.17
341.883	2272.57
345.935	2718.06
349.985	2454.88
354.034	2405.1
358.08	2102.12
362.125	2269.09
366.168	3853.11
370.209	7379.04
374.249	6872.12
378.286	3634.98
382.322	2304.38
386.356	2409.46
390.388	3599.24
394.419	5876.7
398.447	5205.06
402.474	2760.39
406.499	1622.48
410.523	1567.11
414.544	2117.7
418.564	2448.63
422.582	1711.02
426.598	989.458
430.613	617.963
434.625	696.495
438.636	1046.34
442.646	556
446.653	224.464
450.658	52.24
454.662	28.818
458.664	53.108
462.665	63.693
466.663	32.34
470.66	35.274
474.655	1.193
478.648	27.721
482.64	71.618
486.629	347.371
490.617	270.749
494.603	47.728
498.588	27.596
502.571	56.279
506.552	4.601
510.531	25.163
514.508	163.486
518.484	472.625
522.458	665.69
526.43	614.899
530.4	594.562
534.369	457.349
538.336	316
542.301	224.459
546.265	245.728
550.226	258.812
554.186	230.713
558.145	195.43
562.101	127.958
566.056	36.296
570.009	5.528
573.96	108.466
577.91	189.292
581.858	228.012
585.804	208.718
589.748	127.482
593.691	98.614
597.632	20.233
601.571	2.775
605.508	11.476
609.444	13.147
613.378	78.246
617.311	135.875
621.241	154.568
625.17	254.169
629.097	402.872
633.023	598.111
636.946	788.183
640.868	1170.41
644.789	1831.73
648.707	3148.84
652.624	5108.84
656.539	6529.02
660.453	6624.98
664.364	8487.9
668.274	15230.6
672.183	31346.1
676.089	41429.6
679.994	24543.9
683.898	11094.8
687.799	5784.66
691.699	3560.04
695.597	2346.59
699.493	1630.63
703.388	1188.73
707.281	845.462
711.172	737.893
715.062	632.517
718.95	518.418
722.836	401.96
726.721	390.832
730.604	370.378
734.485	452.234
738.364	549.395
742.242	543.64
746.118	810.811
749.993	1319.52
753.866	1371.3
757.737	856.323
761.606	439.433
765.474	252.127
769.34	142.256
773.204	197.701
777.067	133.491
780.928	49.278
784.787	24.044
788.645	82.807
792.501	60.607
796.355	89.311
800.208	70.79
804.059	43.911
807.908	50.765
811.756	3.555
815.602	42.939
819.446	34.264
823.289	76.789
827.13	7.453
830.969	60.448
834.807	18.439
838.643	26.241
842.477	55.041
846.31	9.449
850.141	64.845
853.971	80.321
857.798	20.503
861.624	78.78
865.449	53.02
869.272	88.238
873.093	146.443
876.912	158.669
880.73	261.952
884.546	269.309
888.361	243.685
892.174	287.083
895.985	258.473
899.795	317.85
903.603	318.238
907.409	378.651
911.214	333.126
915.017	498.694
918.818	635.328
922.618	1027
926.416	1718.7
930.213	2683.37
934.008	3286.89
937.801	2325.25
941.593	1574.72
945.383	1695.26
949.171	2147.83
952.958	1763.54
956.743	1105.55
960.526	750.835
964.308	610.69
968.089	524.311
971.867	487.089
975.644	551.794
979.42	460.226
983.193	428.157
986.966	377.97
990.736	292.406
994.505	386.888
998.272	454.058
1002.04	479.934
1005.8	537.733
1009.57	621.666
1013.33	795.682
1017.09	1155.33
1020.84	1575.81
1024.6	2167.14
1028.35	3884.4
1032.11	5169.2
1035.86	3912.69
1039.61	2406.25
1043.36	2095.1
1047.1	2256.9
1050.85	2916.76
1054.59	4754.63
1058.33	7971.65
1062.07	10016.4
1065.81	7588.42
1069.55	6137.86
1073.28	5086.34
1077.02	3205.27
1080.75	2022.97
1084.48	1438.01
1088.21	1081.59
1091.93	749.203
1095.66	586.006
1099.38	608.68
1103.11	545.799
1106.83	508.239
1110.55	329.888
1114.26	337.076
1117.98	236.15
1121.69	215.074
1125.41	274.226
1129.12	206.554
1132.83	243.413
1136.54	243.829
1140.24	106.473
1143.95	57.415
1147.65	33.793
1151.36	170.046
1155.06	160.644
1158.76	182.45
1162.45	109.666
1166.15	62.591
1169.84	86.971
1173.53	74.403
1177.22	77.931
1180.91	104.213
1184.6	42.888
1188.29	150.65
1191.97	88.413
1195.66	66.7
1199.34	32.176
1203.02	27.277
1206.7	86.009
1210.37	37.816
1214.05	8.393
1217.72	137.821
1221.4	144.786
1225.07	147.034
1228.74	121.728
1232.4	137.331
1236.07	94.656
1239.73	73.79
1243.4	153.391
1247.06	177.115
1250.72	248.822
1254.38	136.939
1258.03	144.039
1261.69	189.816
1265.34	27.274
1268.99	160.007
1272.65	130.376
1276.3	181.421
1279.94	214.613
1283.59	142.555
1287.23	152.438
1290.88	224.693
1294.52	16.292
1298.16	161.604
1301.8	60.091
1305.43	105.289
1309.07	155.917
1312.7	170.373
1316.33	205.098
1319.96	239.197
1323.59	256.648
1327.22	126.779
1330.85	53.271
1334.47	49.085
1338.1	21.726
1341.72	127.186
1345.34	91.278
1348.96	231.072
1352.57	233.016
1356.19	238.264
1359.8	237.666
1363.41	87.729
1367.03	74.397
1370.63	59.736
1374.24	61.472
1377.85	70.747
1381.45	17.556
1385.06	110.913
1388.66	332.439
1392.26	361.248
1395.86	232.913
1399.46	164.408
1403.05	113.222
1406.65	127.014
1410.24	20.601
1413.83	36.333
1417.42	122.045
1421.01	240.34
1424.6	270.528
1428.18	270.923
1431.77	325.793
1435.35	170.033
1438.93	187.268
1442.51	191.849
1446.09	97.405
1449.66	85.761
1453.24	100.15
1456.81	226.899
1460.38	236.412
1463.95	304.22
1467.52	359.164
1471.09	397.665
1474.65	385.249
1478.22	261.13
1481.78	291.664
1485.34	187.282
1488.9	148.971
1492.46	21.371
1496.02	167.33
1499.58	179.536
1503.13	169.103
1506.68	279.042
1510.23	288.095
1513.78	339.355
1517.33	358.126
1520.88	339.159
1524.42	263.388
1527.97	71.655
