Measurement: Raman, 514 nm, ccw, Raman Data Processed
Mineral: Actinolite
Rruff sample: R050025
Ideal chemistry: Ca_2_(Mg_4.5-2.5_Fe^2+^_0.5-2.5_)_=5_Si_8_O_22_(OH)_2_
Locality: Tyrol, Austria
Source: Eugene Schlepp
Description: Green colored bladed single crystals
Measured chemistry: (Ca_.930_Na_.056_Mn_.010_K_.004_)_2_(Mg_.883_Fe_.117_)_5_(Si_.978_Al_.022_)_8_O_22_(OH)_2_
Pin_id: L00400
Orientation: Laser parallel to c* (0 0 1). Fiducial mark perpendicular to laser is parallel to a [1 0 0]
Raman shift (cm-1)	intensity
102.428	0
106.604	160.391
110.777	178.495
114.949	517.505
119.119	872.102
123.286	694.947
127.452	282.412
131.615	43.899
135.777	2.407
139.937	51.116
144.094	21.735
148.25	31.977
152.403	708.24
156.555	4990.56
160.705	9517.87
164.853	4130.2
168.998	3515.53
173.142	8454.81
177.284	21107
181.424	16399.1
185.562	6090.79
189.698	3142.45
193.831	2332.3
197.963	2148.89
202.093	2375.26
206.221	3001.45
210.347	4568.15
214.472	8348.83
218.594	18491.6
222.714	29934.5
226.832	19227.3
230.948	7749.91
235.063	3081.28
239.175	1384.43
243.286	777.347
247.394	721.047
251.501	799.529
255.605	506.796
259.708	314.849
263.808	153.691
267.907	63.806
272.004	14.171
276.099	33.638
280.192	57.722
284.283	369.678
288.372	976.048
292.459	1116.21
296.544	1374.62
300.627	2334.3
304.709	2290.6
308.788	1052.04
312.865	485.782
316.941	279.416
321.015	241.073
325.086	475.725
329.156	1151.14
333.224	1758.06
337.29	1098.2
341.354	913.696
345.416	1257.46
349.476	1799.32
353.534	1978.72
357.591	1569.85
361.645	1656.83
365.698	3298.67
369.748	5383.37
373.797	3233.92
377.844	1665.33
381.889	1215.6
385.932	1362.72
389.973	2067.7
394.012	2805.52
398.049	1506.19
402.084	578.72
406.118	330.101
410.15	250.337
414.179	444.429
418.207	394.377
422.233	210.182
426.257	36.719
430.279	73.923
434.299	132.491
438.318	49.428
442.334	8.803
446.349	42.675
450.361	29.761
454.372	63.307
458.381	18.353
462.388	5.263
466.394	18.656
470.397	14.927
474.398	17.08
478.398	44.033
482.396	7.784
486.391	23.354
490.385	11.239
494.377	18.072
498.368	32.854
502.356	57.623
506.342	141.276
510.327	228.796
514.31	445.239
518.291	641.593
522.27	615.878
526.247	625.07
530.222	799.184
534.196	659.199
538.167	559.095
542.137	402.873
546.105	352.539
550.071	313.069
554.035	289.459
557.998	283.712
561.958	260.826
565.917	199.804
569.874	197.646
573.829	230.353
577.782	225.927
581.733	228.366
585.683	185.199
589.63	153.478
593.576	86.647
597.52	114.523
601.462	190.174
605.402	158.826
609.341	255.28
613.277	328.707
617.212	383.466
621.145	501.223
625.076	578.063
629.006	855.518
632.933	1079.74
636.859	1428.12
640.783	1936.56
644.705	2871.1
648.625	4646.96
652.543	6775.47
656.46	8270.18
660.375	10261.9
664.288	16322.4
668.199	32845.1
672.108	60256.3
676.016	48269.1
679.921	22050.4
683.825	10531.2
687.727	5995.88
691.628	3838.93
695.526	2633.1
699.423	1887.33
703.318	1415.9
707.211	1112.7
711.102	866.412
714.992	703.057
718.879	549.632
722.765	447.141
726.649	425.585
730.532	422.966
734.412	360.287
738.291	418.549
742.168	345.765
746.043	336.954
749.916	336.903
753.788	200.955
757.658	122.054
761.526	108.214
765.392	120.471
769.257	98.86
773.119	96.361
776.98	117.928
780.839	70.505
784.697	34.073
788.552	13.65
792.406	14.218
796.258	28.228
800.108	11.236
803.957	11.388
807.804	7.094
811.649	64.909
815.492	45.868
819.333	9.944
823.173	17.103
827.011	9.408
830.847	10.145
834.681	11.45
838.514	48.154
842.345	28.996
846.174	12.079
850.001	1.119
853.827	12.899
857.651	44.042
861.473	59.986
865.293	72.937
869.112	84.895
872.928	71.865
876.744	162.862
880.557	229.874
884.369	286.904
888.178	388.961
891.987	535.085
895.793	597.32
899.598	601.604
903.401	678.931
907.202	772.316
911.001	1025.75
914.799	1318.22
918.595	1850.76
922.389	2758.35
926.182	4234.97
929.972	5982.7
933.761	5160.48
937.549	3123.26
941.334	2601.03
945.118	2967.69
948.9	3121.03
952.681	2335.49
956.459	1740.7
960.236	1313.43
964.012	1155.72
967.785	968.783
971.557	899.973
975.327	837.882
979.095	771.069
982.862	748.85
986.627	708.603
990.39	730.515
994.152	724.664
997.912	704.409
1001.67	875.967
1005.43	998.888
1009.18	1114.8
1012.93	1330.8
1016.68	1589.87
1020.43	1941.08
1024.18	2538.22
1027.93	3416.62
1031.67	3581.01
1035.42	3251.7
1039.16	3620.74
1042.9	4602.27
1046.63	6756.8
1050.37	11188.5
1054.11	19368.4
1057.84	28467
1061.57	24396.2
1065.3	13945.2
1069.03	8926.42
1072.75	5518.78
1076.47	3465.54
1080.2	2532.65
1083.92	1969.23
1087.64	1476.58
1091.36	1238.44
1095.07	1003.03
1098.79	857.158
1102.5	714.583
1106.21	680.181
1109.92	633.811
1113.62	554.441
1117.33	494.477
1121.04	400.136
1124.74	352.697
1128.44	371.247
1132.14	247.836
1135.83	199.552
1139.53	183.742
1143.22	150.651
1146.92	137.85
1150.61	137.669
1154.3	57.79
1157.98	54.053
1161.67	29.05
1165.35	41.636
1169.04	29.129
1172.72	20.76
1176.4	68.25
1180.07	33.23
1183.75	46.697
1187.42	57.292
1191.1	42.422
1194.77	6.471
1198.44	1.646
1202.1	59.951
1205.77	31.897
1209.43	9.347
1213.1	45.422
1216.76	12.782
1220.42	68.459
1224.07	46.634
1227.73	3.702
1231.38	1.502
1235.04	33.301
1238.69	0.478
1242.34	31.145
1245.99	40.322
1249.63	17.731
1253.28	30.361
1256.92	50.978
1260.56	48.399
1264.2	75.82
1267.84	85.154
1271.48	88.248
1275.11	70.086
1278.74	62.043
1282.38	29.77
1286.01	64.06
1289.63	20.173
1293.26	50.968
1296.89	88.756
1300.51	79.436
1304.13	11.66
1307.75	80.689
1311.37	32.952
1314.99	95.569
1318.6	44.284
1322.22	68.645
1325.83	61.73
1329.44	98.385
1333.05	110.987
1336.66	18.375
1340.26	91.395
1343.87	73.545
1347.47	59.552
1351.07	79.059
1354.67	48.703
1358.27	81.724
1361.86	58.628
1365.46	91.704
1369.05	48.584
1372.64	65.091
1376.23	42.733
1379.82	79.861
1383.41	28.384
1386.99	4.941
1390.57	51.137
1394.16	68.823
1397.74	56.047
1401.32	67.321
1404.89	53.391
1408.47	22.079
1412.04	25.815
1415.61	12.814
1419.18	0.884
1422.75	0.671
1426.32	21.631
1429.89	35.313
1433.45	51.474
1437.01	113.876
1440.58	78.46
1444.13	71.273
1447.69	57.505
1451.25	92.508
1454.81	60.924
1458.36	25.19
1461.91	68.194
1465.46	38.142
1469.01	70.563
1472.56	84.167
1476.1	103.065
1479.64	133.762
1483.19	79.926
1486.73	84.038
1490.27	45.488
1493.81	1.155
1497.34	21.346
1500.88	19.328
1504.41	46.99
1507.94	14.274
1511.47	36.438
1515	54.988
1518.53	69.043
1522.05	17.535
