Measurement: Raman, 514 nm, ccw, Raman Data Processed
Mineral: Actinolite
Rruff sample: R060041
Ideal chemistry: Ca_2_(Mg_4.5-2.5_Fe^2+^_0.5-2.5_)_=5_Si_8_O_22_(OH)_2_
Locality: Prince of Wales Island, Alaska, USA
Source: University of Arizona Mineral Museum
Description: Green acicular crystals forming parallel groups in cylindrical or bladed forms
Measured chemistry: (Ca_0.97_Na_0.03_)_2_(Mg_0.65_Fe^2+^_0.29_Fe^3+^_0.04_Al_0.01_Mn_0.01_)_5_(Si_0.98_Al_0.02_)_8_O_22_(OH)_2_
Raman shift (cm-1)	intensity
95.948	0
100.883	68.0459
105.815	143.559
110.744	987.013
115.671	647.557
120.596	391.339
125.519	206.231
130.439	125.257
135.356	449.567
140.271	1426.5
145.184	4779.7
150.094	10401
155.002	8579.07
159.908	3848.16
164.811	4212.66
169.711	9533.82
174.61	14556.1
179.505	7288.46
184.399	2728.62
189.29	2101.03
194.178	2066.16
199.064	2566.23
203.948	4422.37
208.829	7287.76
213.708	13892
218.585	18205.3
223.459	12826.6
228.33	6296.9
233.199	2792.28
238.066	1434.62
242.93	873.32
247.792	941.4
252.651	684.519
257.508	354.972
262.363	614.188
267.215	376.435
272.064	355.196
276.912	452.922
281.756	750.099
286.598	1076.36
291.438	1234.14
296.276	1174.12
301.111	801.651
305.943	384.74
310.773	327.479
315.601	390.594
320.426	424.979
325.248	667.165
330.068	794.359
334.886	898.201
339.701	1019.01
344.514	1306.92
349.324	1323.64
354.132	1181.23
358.938	1415.39
363.741	1630.76
368.541	1371.3
373.339	1064.98
378.135	1332.85
382.928	1650.61
387.718	1833.57
392.506	1319.1
397.292	779.164
402.075	775.651
406.856	493.474
411.634	512.564
416.41	334.867
421.183	93.6641
425.954	197.764
430.722	109.079
435.488	85.793
440.251	81.5205
445.012	52.9941
449.77	165.39
454.526	85.7969
459.28	68.8428
464.03	20.9395
468.779	55.5967
473.525	23.2432
478.268	18.5088
483.009	58.8047
487.747	69.5879
492.483	5.77344
497.217	236.235
501.948	282.332
506.676	357.144
511.402	503.791
516.125	414.254
520.846	778.45
525.565	875.706
530.281	839.185
534.994	693.565
539.705	527.871
544.413	464.84
549.119	631.51
553.822	380.97
558.523	448.07
563.222	427.97
567.917	302.941
572.611	428.082
577.302	440.701
581.99	271.371
586.676	9.59766
591.359	145.447
596.04	100.787
600.718	109.508
605.394	417.305
610.067	395.688
614.737	574.928
619.406	627.326
624.071	908.713
628.734	1327.99
633.395	1613.96
638.053	2355.03
642.708	3520.7
647.361	4808.51
652.012	6939.09
656.66	11745.5
661.305	23214.6
665.948	40250.8
670.588	39722.2
675.226	20657.8
679.861	9294.48
684.494	4898.55
689.124	2960.98
693.752	1939.49
698.377	1179.28
702.999	1173.54
707.619	699.807
712.237	653.244
716.852	600.961
721.464	348.012
726.074	437.572
730.681	436.365
735.286	456.522
739.888	584.926
744.488	437.164
749.085	550.34
753.68	382.262
758.272	74.8672
762.861	348.217
767.448	234.301
772.033	288.244
776.614	151.949
781.194	198.301
785.77	23.3027
790.345	148.6
794.916	25.4395
799.485	28.2266
804.052	168.772
808.616	188.264
813.177	13.6934
817.736	128.992
822.292	75.0117
826.846	85.5586
831.397	114.275
835.945	78.1934
840.491	53.7383
845.035	24.3262
849.576	82.8301
854.114	1.88086
858.65	175.736
863.183	164.227
867.713	292.828
872.241	6.61914
876.767	439.836
881.29	324.203
885.81	426.441
890.328	397.734
894.843	482.379
899.356	793.662
903.866	594.512
908.373	1186.13
912.878	1603.17
917.38	2298.27
921.88	3554.36
926.377	4871.06
930.872	4261.44
935.364	2645.3
939.853	2159.37
944.34	1960.56
948.824	1519.35
953.306	1278.14
957.785	972.514
962.261	1046.56
966.735	1067.01
971.207	927.162
975.675	746.322
980.141	754.068
984.605	758.947
989.066	682.65
993.524	955.715
997.98	1022.4
1002.43	1086.66
1006.88	1609.61
1011.33	1780.93
1015.78	2188.7
1020.22	2544.62
1024.66	2737.97
1029.1	3503.51
1033.53	3837.46
1037.97	4831.4
1042.4	7999.89
1046.82	12949.7
1051.25	17405.8
1055.67	16224.1
1060.09	10986.2
1064.51	8558.61
1068.92	5393.1
1073.33	2821.84
1077.74	1783.01
1082.15	1361.42
1086.55	908.318
1090.95	665.102
1095.35	694.133
1099.75	611.018
1104.14	419.754
1108.53	632.537
1112.92	346.217
1117.31	244.705
1121.69	416.473
1126.07	163.977
1130.45	262.522
1134.82	167.305
1139.19	148.023
1143.57	251.301
1147.93	315.475
1152.3	0.492188
1156.66	279.144
1161.02	68.6562
1165.38	123.846
1169.73	132.281
1174.08	10.1875
1178.43	152.506
1182.78	63.6543
1187.12	58.5723
1191.46	30.5918
1195.8	110.672
1200.14	85.3867
1204.47	14.8027
1208.8	238.635
1213.13	3.83594
1217.46	209.644
1221.78	158.15
1226.1	14.543
1230.42	222.465
1234.73	260.289
1239.04	263.828
1243.35	214.789
1247.66	74.4981
1251.97	515.912
1256.27	182.17
1260.57	98.1934
1264.86	302.981
1269.16	490.65
1273.45	248.231
1277.74	274.668
1282.03	242.529
1286.31	195.394
1290.59	337.592
1294.87	441.391
1299.14	421.705
1303.42	361.44
1307.69	306.562
1311.95	290.244
1316.22	560.406
1320.48	577.008
1324.74	324.328
1329	384.756
1333.26	261.432
1337.51	443.824
1341.76	576.93
1346	418.166
1350.25	474.406
1354.49	518.293
1358.73	340.893
1362.96	214.32
1367.2	256.082
1371.43	219.185
1375.66	236.742
1379.88	191.734
1384.11	218.012
1388.33	230.24
1392.54	110.613
1396.76	225.67
1400.97	103.469
1405.18	222.678
1409.39	129.205
1413.59	172.57
1417.8	271.449
1421.99	177.664
1426.19	153.402
1430.38	7.41992
1434.58	343.356
1438.77	43.0508
1442.95	333.125
1447.13	242.43
1451.32	201.797
1455.49	407.438
1459.67	140.328
1463.84	194.164
1468.01	56.4492
1472.18	284.688
1476.35	153.141
1480.51	79.2812
1484.67	267.102
1488.83	160.285
1492.98	89.5781
1497.13	129.578
1501.28	209.144
1505.43	212.293
1509.57	292.391
1513.71	445.098
1517.85	176.047
1521.99	55.4531
1526.12	204.328
1530.25	331.812
1534.38	244.781
1538.5	389.359
1542.62	297.769
1546.74	45.3008
1550.86	267.988
1554.98	459.824
1559.09	158.887
1563.2	222.379
1567.31	174.875
