Measurement: Raman, 514 nm, ccw, Raman Data Processed
Mineral: Actinolite
Rruff sample: R060045
Ideal chemistry: Ca_2_(Mg_4.5-2.5_Fe^2+^_0.5-2.5_)_=5_Si_8_O_22_(OH)_2_
Locality: Colorado, USA
Source: University of Arizona Mineral Museum
Description: Green prismatic crystals in a radial arrangement
Measured chemistry: (Ca_1.99_Na_0.01_)_Σ=2_(Mg_4.20_Fe^2+^_0.59_Al_0.09_Fe^3+^_0.08_Mn_0.02_Ti_0.01_)_Σ=5_(Si_7.82_Al_0.18_)_Σ=8_O_22_(OH)_2_
Pin_id: M00155
Orientation: Laser parallel to b* (0 1 0). Fiducial mark perpendicular to laser is parallel to c [0 0 1]
Raman shift (cm-1)	intensity
137.814	0
142.728	169.03
147.639	86.501
152.549	185.927
157.455	448.169
162.359	366.431
167.261	1103.4
172.161	2973.27
177.058	8063.96
181.952	2247.75
186.845	676.277
191.734	315.383
196.622	306.662
201.507	511.963
206.389	519.615
211.269	1135.21
216.147	3046.62
221.022	6345.57
225.895	3340.63
230.765	2135.91
235.633	938.553
240.498	422.492
245.361	465.81
250.222	240.539
255.08	327.379
259.936	522.324
264.789	15.6406
269.64	2.46484
274.488	55.6289
279.334	194.812
284.178	532.742
289.019	788.867
293.857	406.127
298.693	430.736
303.527	400.412
308.358	74.1816
313.187	308.035
318.013	332.529
322.837	575.824
327.659	949.344
332.478	1112.86
337.294	1009.08
342.108	1317.48
346.92	1466.51
351.729	1531.9
356.535	1667.55
361.34	3111.26
366.141	5762.03
370.94	4515.84
375.737	2315.65
380.531	2167.44
385.323	2799.17
390.113	4226.84
394.9	2854.43
399.684	1456.95
404.466	1136.38
409.245	1248.61
414.022	1272.83
418.797	776.971
423.569	485.537
428.338	224.424
433.105	170.463
437.87	59.4766
442.632	30.3867
447.391	62.7109
452.149	62.332
456.903	81.1074
461.655	17.1465
466.405	2.98438
471.152	55.8242
475.897	76.1309
480.639	168.93
485.378	16.6895
490.116	302.234
494.85	335.494
499.582	131.426
504.312	327.24
509.039	316.965
513.764	462.615
518.486	452.258
523.206	549.928
527.923	731.549
532.638	701.209
537.35	500.967
542.059	289.631
546.766	422.09
551.471	394.393
556.173	354.502
560.873	235.404
565.57	32.1777
570.264	461.693
574.957	294.975
579.646	432.018
584.333	256.148
589.018	220.203
593.7	128.514
598.379	224.695
603.056	130.238
607.73	104.361
612.402	254.043
617.072	348.928
621.739	416.824
626.403	612.465
631.065	566.227
635.724	838.529
640.381	1187.91
645.035	2043.88
649.687	3320.1
654.336	4194.69
658.983	5610.35
663.627	10254.4
668.268	20789.3
672.907	26029.7
677.544	11969.5
682.178	4858.21
686.809	2552.11
691.438	1338.72
696.065	933.307
700.688	681.086
705.31	371.363
709.929	544.162
714.545	382.639
719.158	195.977
723.77	335.148
728.378	318.547
732.984	255.9
737.588	407.682
742.189	612.674
746.787	1008.75
751.383	726.545
755.976	533.939
760.567	310.547
765.155	133.434
769.741	193.162
774.324	111.856
778.904	97.2793
783.482	72.4297
788.058	14.2363
792.631	169.551
797.201	19.3652
801.769	14.3145
806.334	135.615
810.897	135.434
815.457	119.807
820.014	126.91
824.569	60.1152
829.122	228.584
833.671	205.164
838.219	98.7539
842.763	126.982
847.306	245.125
851.845	432.184
856.382	506.158
860.917	530.473
865.448	306.809
869.978	195.613
874.505	563.449
879.029	274.268
883.55	128.207
888.069	391.459
892.586	370.654
897.1	190.848
901.611	179.184
906.12	220.219
910.626	469.44
915.129	320.141
919.63	422.031
924.129	845.258
928.625	1381.09
933.118	1341.54
937.609	784.404
942.097	769.373
946.582	889.979
951.065	688.354
955.546	257.611
960.023	215.088
964.499	251.935
968.971	238.982
973.441	2.86719
977.909	41.0039
982.374	36.4023
986.836	220.885
991.295	156.445
995.753	256.102
1000.21	739.613
1004.66	825.773
1009.11	1302.61
1013.55	1447.68
1018	1519.31
1022.44	1987.44
1026.88	3626.64
1031.32	3207.61
1035.75	1551.65
1040.18	1036.2
1044.61	1332.98
1049.04	1636.06
1053.46	2863.67
1057.88	3677.32
1062.3	3484.55
1066.71	3879.69
1071.13	2554.65
1075.54	1345.51
1079.94	974.168
1084.35	1159.31
1088.75	842.426
1093.15	629.086
1097.55	321.473
1101.94	667.684
1106.34	168.777
1110.73	423.059
1115.11	231.316
1119.5	252.543
1123.88	45.7539
1128.26	187.926
1132.63	25.0898
1137.01	54.8008
1141.38	161.184
1145.75	60.9531
1150.12	146.477
1154.48	517.633
1158.84	294.742
1163.2	194.59
1167.55	165.086
1171.91	316.473
1176.26	156.766
1180.61	80.0078
1184.95	163.078
1189.29	20.8203
1193.63	9.45703
1197.97	32.1641
1202.31	195.918
1206.64	10.1406
1210.97	181.656
1215.29	144.379
1219.62	21.207
1223.94	80.0391
1228.26	55.8438
1232.57	254.652
1236.89	268.883
1241.2	564.617
1245.51	203.277
1249.81	102.984
1254.12	284.66
1258.42	428.738
1262.72	391.262
1267.01	362.746
1271.3	386.184
1275.59	645.027
1279.88	408.309
1284.17	181.68
1288.45	488.93
1292.73	591.535
1297.01	406.109
1301.28	323.254
1305.55	337.594
1309.82	494.949
1314.09	717.309
1318.35	572.606
1322.61	364.387
1326.87	369.285
1331.13	397.375
1335.38	144.848
1339.63	206.457
1343.88	318.117
1348.12	187.414
1352.37	328.078
1356.61	277.957
1360.85	48.2852
1365.08	170.555
1369.31	353.484
1373.54	270.512
1377.77	400.742
1381.99	336.008
1386.22	170.41
1390.43	152.941
1394.65	178.598
1398.87	131.41
1403.08	248.473
1407.29	181.156
1411.49	33.8281
1415.69	275.606
1419.89	275.414
1424.09	58.2812
1428.29	83.5078
1432.48	297.789
1436.67	601.356
1440.86	494.207
1445.04	855.996
1449.23	975.633
1453.4	882.332
1457.58	953.387
1461.76	748.992
1465.93	351.25
1470.1	621.086
1474.26	421.91
1478.43	391.246
1482.59	602.504
1486.75	133.488
1490.9	249.742
1495.06	209.801
1499.21	164.414
1503.35	78.6992
1507.5	177.156
1511.64	164.926
1515.78	234.203
1519.92	289.992
1524.05	323.328
1528.18	522.789
1532.31	0.074219
1536.44	719.914
1540.56	271.293
1544.69	197.09
1548.8	178.141
1552.92	415.957
1557.03	77.8984
1561.14	438.152
1565.25	146.566
1569.36	158.422
