Measurement: Raman, 514 nm, ccw, Raman Data Processed
Mineral: Actinolite
Rruff sample: R060041
Ideal chemistry: Ca_2_(Mg_4.5-2.5_Fe^2+^_0.5-2.5_)_=5_Si_8_O_22_(OH)_2_
Locality: Prince of Wales Island, Alaska, USA
Source: University of Arizona Mineral Museum
Description: Green acicular crystals forming parallel groups in cylindrical or bladed forms
Measured chemistry: (Ca_0.97_Na_0.03_)_2_(Mg_0.65_Fe^2+^_0.29_Fe^3+^_0.04_Al_0.01_Mn_0.01_)_5_(Si_0.98_Al_0.02_)_8_O_22_(OH)_2_
Raman shift (cm-1)	intensity
95.948	0
100.883	118.548
105.815	1346.59
110.744	3398.08
115.671	4863.15
120.596	2846.37
125.519	1098.45
130.439	633.494
135.356	740.344
140.271	2323.67
145.184	7378.1
150.094	14789.8
155.002	8868.02
159.908	2750.38
164.811	4375.81
169.711	9852.28
174.61	12958.1
179.505	5806.89
184.399	1704.22
189.29	1225.32
194.178	1685.25
199.064	2604.86
203.948	4618.6
208.829	8392.11
213.708	14747.2
218.585	16974.7
223.459	11480.3
228.33	5665.17
233.199	2947.84
238.066	1635.26
242.93	1421.04
247.792	935.538
252.651	508.299
257.508	377.199
262.363	66.8047
267.215	254.409
272.064	310.731
276.912	93.8018
281.756	200.164
286.598	543.997
291.438	645.312
296.276	754.898
301.111	317.056
305.943	342.71
310.773	415.81
315.601	486.384
320.426	811.029
325.248	1449.18
330.068	2473.28
334.886	3253.74
339.701	3309.63
344.514	3180.49
349.324	3157.23
354.132	3506.5
358.938	4138.64
363.741	4093.72
368.541	3372.69
373.339	3017.54
378.135	3897.24
382.928	5272.77
387.718	5163.19
392.506	3906.15
397.292	3090.55
402.075	2930.19
406.856	2511.94
411.634	1734.36
416.41	1127.29
421.183	516.222
425.954	812.139
430.722	1039.45
435.488	833.541
440.251	14.4815
445.012	168.78
449.77	269.897
454.526	117.212
459.28	202.804
464.03	289.099
468.779	77.7236
473.525	19.1396
478.268	163.669
483.009	400.691
487.747	238.237
492.483	277.216
497.217	443.658
501.948	726.645
506.676	937.208
511.402	1237.41
516.125	1606.76
520.846	2118.98
525.565	2465.11
530.281	1471.46
534.994	953.568
539.705	798.666
544.413	534.42
549.119	548.688
553.822	476.782
558.523	564.893
563.222	511.908
567.917	693.638
572.611	596.835
577.302	460.494
581.99	368.702
586.676	283.359
591.359	132.643
596.04	238.803
600.718	112.324
605.394	461.109
610.067	586.184
614.737	726.176
619.406	1116.85
624.071	1499.89
628.734	2264.07
633.395	3003.1
638.053	4318.61
642.708	6025.28
647.361	7456.83
652.012	10482.3
656.66	17650.6
661.305	35301.5
665.948	55896.9
670.588	53169
675.226	26987.9
679.861	12956.2
684.494	7899.78
689.124	5104.88
693.752	3280.47
698.377	2392.49
702.999	1764.55
707.619	1235.61
712.237	1055.06
716.852	910.205
721.464	784.727
726.074	715.56
730.681	937.935
735.286	1369.86
739.888	1206.12
744.488	1337.05
749.085	1185.81
753.68	643.556
758.272	359.081
762.861	266.246
767.448	342.053
772.033	253.56
776.614	222.696
781.194	44.458
785.77	58.7773
790.345	263.659
794.916	104.684
799.485	11.3076
804.052	149.91
808.616	52.3447
813.177	9.32617
817.736	47.1416
822.292	30.4736
826.846	58.2647
831.397	23.5684
835.945	83.7353
840.491	47.6982
845.035	32.209
849.576	42.1719
854.114	128.426
858.65	109.161
863.183	146.213
867.713	150.765
872.241	364.317
876.767	450.326
881.29	455.138
885.81	547.762
890.328	821.203
894.843	1027.51
899.356	1287.88
903.866	1481.2
908.373	1966.65
912.878	2535.8
917.38	3496.72
921.88	6009.51
926.377	7766.06
930.872	6635.54
935.364	4510.08
939.853	3656.74
944.34	3132.32
948.824	2221.11
953.306	1774.58
957.785	1595.28
962.261	1393.93
966.735	1323.99
971.207	1229.76
975.675	1112.44
980.141	1052.95
984.605	1032.95
989.066	1216.22
993.524	1468.59
997.98	1764.22
1002.43	2106.06
1006.88	2962.11
1011.33	3974.39
1015.78	4899.9
1020.22	5619.63
1024.66	5863.6
1029.1	5705.12
1033.53	5088.19
1037.97	6074.2
1042.4	9441.06
1046.82	16317.6
1051.25	22114.6
1055.67	19105.5
1060.09	13401.6
1064.51	10489.8
1068.92	6221.63
1073.33	3170.31
1077.74	2209.45
1082.15	1552.37
1086.55	1280.08
1090.95	947.733
1095.35	756.26
1099.75	507.718
1104.14	920.818
1108.53	498.317
1112.92	334.411
1117.31	398.496
1121.69	397.648
1126.07	149.242
1130.45	329.103
1134.82	129.972
1139.19	63.5068
1143.57	91.6924
1147.93	155.677
1152.3	188.852
1156.66	57.248
1161.02	113.214
1165.38	36.1543
1169.73	65.6269
1174.08	7.71191
1178.43	21.6816
1182.78	10.1953
1187.12	50.3359
1191.46	40.9707
1195.8	45.0137
1200.14	20.8115
1204.47	23.9551
1208.8	55.4834
1213.13	19.6191
1217.46	169.593
1221.78	92.5156
1226.1	23.1289
1230.42	21.4727
1234.73	242.423
1239.04	92.001
1243.35	0.386719
1247.66	127.473
1251.97	376.357
1256.27	259.919
1260.57	199.268
1264.86	313.261
1269.16	402.993
1273.45	293.452
1277.74	350.877
1282.03	309.798
1286.31	412.444
1290.59	480.478
1294.87	218.469
1299.14	361.846
1303.42	346.854
1307.69	428.451
1311.95	264.375
1316.22	334.248
1320.48	311.09
1324.74	413.997
1329	293.815
1333.26	227.316
1337.51	229.192
1341.76	394.612
1346	141.817
1350.25	361.1
1354.49	337.81
1358.73	374.425
1362.96	269.187
1367.2	249.139
1371.43	224.672
1375.66	183.19
1379.88	102.515
1384.11	252.336
1388.33	145.689
1392.54	238.949
1396.76	209.866
1400.97	308.705
1405.18	142.798
1409.39	165.727
1413.59	240.902
1417.8	158.718
1421.99	42.5586
1426.19	230.202
1430.38	52.5322
1434.58	106.57
1438.77	138.731
1442.95	279.508
1447.13	157.819
1451.32	258.758
1455.49	99.9971
1459.67	86.8633
1463.84	16.9307
1468.01	59.169
1472.18	83.5078
1476.35	1.31641
1480.51	57.7393
1484.67	35.958
1488.83	287.891
1492.98	68.7627
1497.13	11.2012
1501.28	262.553
1505.43	4.68945
1509.57	113.539
1513.71	263.004
1517.85	145.697
1521.99	164.152
1526.12	27.1797
1530.25	189.107
1534.38	183.244
1538.5	159.715
1542.62	170.465
1546.74	83.4141
1550.86	243.893
1554.98	355.648
1559.09	11.8516
1563.2	39.3887
1567.31	20.7715
