Measurement: Raman, 514 nm, ccw, Raman Data Processed
Mineral: Actinolite
Rruff sample: R050025
Ideal chemistry: Ca_2_(Mg_4.5-2.5_Fe^2+^_0.5-2.5_)_=5_Si_8_O_22_(OH)_2_
Locality: Tyrol, Austria
Source: Eugene Schlepp
Description: Green colored bladed single crystals
Measured chemistry: (Ca_.930_Na_.056_Mn_.010_K_.004_)_2_(Mg_.883_Fe_.117_)_5_(Si_.978_Al_.022_)_8_O_22_(OH)_2_
Pin_id: L00067
Orientation: Laser parallel to (1 0 1). Fiducial mark perpendicular to laser is parallel to -b [0 -1 0]
Raman shift (cm-1)	intensity
82.916	0
87.101	130.409
91.284	484.611
95.465	318.526
99.644	200.044
103.82	398.477
107.995	813.618
112.168	2015.14
116.339	3123.49
120.508	1448.47
124.675	533.957
128.84	241.212
133.003	151.472
137.164	84.131
141.323	121.803
145.48	171.108
149.635	161.059
153.788	1549.71
157.939	4463.15
162.088	4511.47
166.235	2138.68
170.38	2579.52
174.523	5758.19
178.664	8322.8
182.803	4416.96
186.94	1987.33
191.076	1235.23
195.209	1008.8
199.34	1016.91
203.47	1331.16
207.597	2055.99
211.722	3556.23
215.846	7233.8
219.967	13148.6
224.087	14318.5
228.204	10804.7
232.32	8795.95
236.434	4755.39
240.545	2426.96
244.655	2092.65
248.763	2546.78
252.869	2255.4
256.973	1442.31
261.075	1061.47
265.175	665.531
269.273	226.264
273.369	94.388
277.463	169.096
281.556	154.621
285.646	70.726
289.734	310.762
293.821	294.244
297.905	718.243
301.988	1053.38
306.069	752.123
310.147	399.095
314.224	184.607
318.299	135.418
322.372	36.25
326.443	236.908
330.512	557.543
334.579	747.092
338.645	816.415
342.708	1478.46
346.769	2637.64
350.829	3673.25
354.887	3361.92
358.942	2954.63
362.996	4133.38
367.048	6861.12
371.098	7440.85
375.146	4742.6
379.192	3038.35
383.236	2596.11
387.279	3421.86
391.319	4913.61
395.358	4651.34
399.394	2294.06
403.429	1303.75
407.462	1623.42
411.493	2443.06
415.522	3403.73
419.549	2731.41
423.575	1517.71
427.598	951.511
431.619	1089.56
435.639	1251.01
439.657	849.504
443.673	300.853
447.687	157.233
451.699	69.779
455.709	16.896
459.717	24.375
463.724	25.595
467.728	118.201
471.731	45.384
475.732	61.394
479.731	136.245
483.728	158.518
487.723	73.035
491.716	68.456
495.708	124.761
499.697	226.962
503.685	510.106
507.671	1138.2
511.655	1897.21
515.637	2324.19
519.617	2468.07
523.596	2666.44
527.572	2884.54
531.547	2479.06
535.52	1679.4
539.491	1072.58
543.46	845.615
547.427	583.842
551.393	457.079
555.356	573.501
559.318	335.71
563.278	272.703
567.236	306.476
571.192	355.028
575.147	364.353
579.099	185.448
583.05	142.297
586.999	96.882
590.946	57.883
594.891	56.127
598.834	138.919
602.776	135.422
606.715	11.535
610.653	8.292
614.589	83.125
618.523	176.933
622.456	250.163
626.386	271.505
630.315	592.078
634.242	792.44
638.167	1126.46
642.09	1780.38
646.012	2723.24
649.931	3944.08
653.849	5213.57
657.765	6358.47
661.679	9008.19
665.592	16386
669.502	32597.5
673.411	40186.3
677.318	22846.6
681.223	11492.3
685.126	7431.2
689.028	6144.97
692.927	4580.19
696.825	3192.34
700.721	2232.64
704.616	1524.48
708.508	1238.01
712.399	890.381
716.288	681.35
720.175	728.054
724.06	599.494
727.944	738.677
731.825	843.602
735.705	1114.01
739.584	1367.58
743.46	1450.25
747.334	1440.35
751.207	1445.03
755.078	834.466
758.947	451.163
762.815	276.822
766.68	220.483
770.544	220.953
774.406	150.676
778.267	114.675
782.125	140.938
785.982	114.119
789.837	15.146
793.69	162.993
797.542	638.7
801.391	125.734
805.239	10.437
809.085	24.62
812.93	25.647
816.772	39.207
820.613	101.861
824.452	112.266
828.29	70.911
832.125	54.878
835.959	9.422
839.791	25.067
843.621	0.563
847.45	36.322
851.277	79.742
855.102	56.678
858.925	165.6
862.746	27.489
866.566	115.354
870.384	223.205
874.2	98.065
878.015	117.943
881.828	402.807
885.639	563.688
889.448	701.614
893.256	797.575
897.061	1001.61
900.865	1194.83
904.668	1130.36
908.468	1148.96
912.267	1334.75
916.064	1581.41
919.86	2049.23
923.653	3073.18
927.445	4117.98
931.236	4378.63
935.024	3004.49
938.811	2354.24
942.596	2303.82
946.379	2629.79
950.161	2335.99
953.94	2075.94
957.719	1700.76
961.495	1766.93
965.27	1639.49
969.043	1637.89
972.814	1511.3
976.583	1575.37
980.351	1307.35
984.117	1269.38
987.882	1236.35
991.644	1371.95
995.405	1190.88
999.165	1521
1002.92	1730.46
1006.68	1947.78
1010.43	2301.32
1014.18	2929.01
1017.93	4223.38
1021.68	5300.19
1025.43	6676.57
1029.18	7555.03
1032.92	5983.28
1036.66	4039.24
1040.4	3865.82
1044.14	4348.55
1047.88	5798.94
1051.62	8602.88
1055.35	11832.4
1059.08	12401.4
1062.81	8772.85
1066.54	6556.23
1070.27	5216.53
1073.99	3425.67
1077.72	2462.68
1081.44	1939.53
1085.16	1626.76
1088.88	1417.42
1092.59	1274.35
1096.31	1082.75
1100.02	961.535
1103.73	736.587
1107.44	702.605
1111.15	716.079
1114.86	549.14
1118.57	496.736
1122.27	647.204
1125.97	390.643
1129.67	438.568
1133.37	403.998
1137.07	395.622
1140.76	92.44
1144.45	36.825
1148.15	0.151
1151.84	195.442
1155.53	189.845
1159.21	42.929
1162.9	49.906
1166.58	93.346
1170.26	8.02
1173.94	104.96
1177.62	24.624
1181.3	35.877
1184.97	87.656
1188.65	39.263
1192.32	43.195
1195.99	53.694
1199.66	120.4
1203.33	43.314
1206.99	108.448
1210.65	7.225
1214.32	174.786
1217.98	207.97
1221.64	272.493
1225.29	11.357
1228.95	138.911
1232.6	68.757
1236.26	30.026
1239.91	161.154
1243.56	203.16
1247.2	247.181
1250.85	83.581
1254.49	90.277
1258.13	111.069
1261.78	246.475
1265.41	213.909
1269.05	206.78
1272.69	275.141
1276.32	248.537
1279.95	320.428
1283.59	71.535
1287.21	200.521
1290.84	78.965
1294.47	189.676
1298.09	128.697
1301.72	95.41
1305.34	23.593
1308.96	54.299
1312.58	275.037
1316.19	126.284
1319.81	119.613
1323.42	88.474
1327.03	154.185
1330.64	119.058
1334.25	32.548
1337.86	206.736
1341.46	144.91
1345.07	96.43
1348.67	274.676
1352.27	292.042
1355.87	229.58
1359.46	104.302
1363.06	106.2
1366.65	106.863
1370.25	19.486
1373.84	48.633
1377.43	58.849
1381.02	156.369
1384.6	250.505
1388.18	262.02
1391.77	173.618
1395.35	171.258
1398.93	146.688
1402.51	8.411
1406.08	204.969
1409.66	96.92
1413.23	257.137
1416.8	334.168
1420.37	329.963
1423.94	323.389
1427.51	357.277
1431.08	294.416
1434.64	236.344
1438.2	12.074
1441.76	51.773
1445.32	157.594
1448.88	194.014
1452.43	239.297
1455.99	249.461
1459.54	120.137
1463.09	359.586
1466.64	474.305
1470.19	365.926
1473.74	357.553
1477.28	105.463
1480.83	154.354
1484.37	152.934
1487.91	34.455
1491.45	201.383
1494.98	232.539
1498.52	220.6
1502.05	253.426
1505.59	381.988
1509.12	439.395
1512.65	413.379
1516.17	325.852
1519.7	0
