Measurement: Raman, 514 nm, ccw, Raman Data Processed
Mineral: Actinolite
Rruff sample: R060045
Ideal chemistry: Ca_2_(Mg_4.5-2.5_Fe^2+^_0.5-2.5_)_=5_Si_8_O_22_(OH)_2_
Locality: Colorado, USA
Source: University of Arizona Mineral Museum
Description: Green prismatic crystals in a radial arrangement
Measured chemistry: (Ca_1.99_Na_0.01_)_Σ=2_(Mg_4.20_Fe^2+^_0.59_Al_0.09_Fe^3+^_0.08_Mn_0.02_Ti_0.01_)_Σ=5_(Si_7.82_Al_0.18_)_Σ=8_O_22_(OH)_2_
Pin_id: M00340
Orientation: Laser parallel to -a* (-1 0 0). Fiducial mark perpendicular to laser is parallel to -b [0 -1 0]
Raman shift (cm-1)	intensity
134.127	0
139.043	2.48535
143.956	96.8301
148.867	246.232
153.775	193.799
158.681	335.908
163.585	680.447
168.486	2568.25
173.385	2751.37
178.282	1854.85
183.176	719.514
188.067	278.07
192.956	301.185
197.843	347.572
202.727	523.252
207.609	662.332
212.489	1452.7
217.366	2275.8
222.24	1893.71
227.112	1271.72
231.982	821.537
236.849	577.625
241.714	478.941
246.577	194.754
251.437	434.707
256.294	189.644
261.149	318.551
266.002	125.422
270.852	97.2461
275.7	281.982
280.545	312.287
285.388	253.156
290.229	282.523
295.067	314.789
299.902	114.133
304.735	152.691
309.566	340.043
314.394	101.85
319.22	254.041
324.043	583.643
328.864	493.934
333.682	257.435
338.498	458.338
343.311	460.129
348.122	866.42
352.931	740.287
357.737	1598.67
362.54	2429.72
367.341	2395.47
372.14	1592.14
376.936	1471.74
381.73	2254.25
386.521	2857.66
391.31	2340.98
396.096	1413.17
400.88	903.25
405.661	1230.21
410.44	1114.18
415.216	665.727
419.99	393.367
424.761	159.777
429.53	268.109
434.297	10.6816
439.061	220.924
443.822	162.082
448.581	30.2109
453.337	109.699
458.091	171.367
462.843	68.8809
467.592	48.0059
472.338	135.432
477.082	145.303
481.824	62.8945
486.563	212.32
491.3	53.4414
496.034	103.221
500.765	215.725
505.494	261.125
510.221	255.522
514.945	293.746
519.666	464.756
524.385	610.92
529.102	620.252
533.816	379.691
538.527	460.935
543.236	243.18
547.943	473.383
552.647	280.385
557.348	162.154
562.047	389.678
566.744	335.492
571.438	242.92
576.129	269.068
580.818	115.375
585.504	363.867
590.188	344.553
594.87	133.307
599.549	238.312
604.225	116.174
608.899	172.779
613.57	458.568
618.239	656.734
622.905	416.295
627.569	363.256
632.23	451.68
636.889	736.072
641.545	1120.75
646.198	1388.77
650.849	1936.94
655.498	3083.96
660.144	5818.09
664.787	12036.7
669.428	14670.6
674.067	9084.85
678.703	4148.15
683.336	1940.07
687.967	1032.36
692.595	684.812
697.221	578.91
701.844	328.92
706.465	37.7852
711.083	182.447
715.698	11.5938
720.311	136.705
724.922	242.82
729.53	184.475
734.135	456.578
738.738	562.291
743.338	829.644
747.936	614.508
752.531	307.359
757.124	182.303
761.714	161.008
766.302	42.4531
770.887	100.723
775.469	46.2422
780.049	20.5293
784.626	84.3652
789.201	143.24
793.773	206.629
798.343	25.8359
802.91	85.6836
807.475	367.379
812.037	101.856
816.596	247.834
821.153	107.559
825.707	288.568
830.259	448.441
834.808	313.809
839.355	292.846
843.899	650.199
848.441	704.928
852.98	445.301
857.516	570.977
862.05	698.949
866.581	325.861
871.11	602.775
875.636	223.791
880.159	379.869
884.68	158.277
889.199	354.326
893.714	219.432
898.228	445.258
902.738	216.832
907.246	347.402
911.752	310.008
916.255	526.981
920.755	448.078
925.253	1094.92
929.748	897.356
934.241	619.711
938.731	375.379
943.218	132.34
947.703	138.293
952.186	129.371
956.665	110.266
961.142	194.82
965.617	205.84
970.089	3.17969
974.558	80.0898
979.025	201.625
983.489	34.9844
987.951	58.9023
992.41	369.754
996.866	522.961
1001.32	665.07
1005.77	503.406
1010.22	337.715
1014.67	471.969
1019.11	1105.3
1023.55	1806.62
1027.99	1701.94
1032.42	1426.67
1036.86	646.43
1041.29	499.672
1045.72	799.18
1050.14	839.762
1054.56	1262.14
1058.98	1613.5
1063.4	1567.98
1067.82	1711.89
1072.23	1121.9
1076.64	738.887
1081.05	425.871
1085.45	510.668
1089.85	354.016
1094.25	467.473
1098.65	127.652
1103.04	202.379
1107.43	514.699
1111.82	469.879
1116.21	209.262
1120.59	244.246
1124.97	438.426
1129.35	57.6523
1133.73	65.9805
1138.1	176.055
1142.47	249.941
1146.84	19.4648
1151.21	166.668
1155.57	257.769
1159.93	63.8711
1164.29	57.2344
1168.64	531.379
1172.99	101.773
1177.34	296.957
1181.69	394.144
1186.04	172.344
1190.38	27.543
1194.72	255.715
1199.05	55.8281
1203.39	44.9531
1207.72	314.094
1212.05	145.246
1216.37	231.238
1220.7	457.227
1225.02	174.199
1229.34	290.18
1233.65	596.223
1237.97	387.16
1242.28	390.481
1246.59	510.031
1250.89	263.691
1255.19	235.324
1259.49	199.684
1263.79	526.074
1268.09	260.973
1272.38	520.262
1276.67	239.953
1280.95	18.8242
1285.24	674.785
1289.52	636.879
1293.8	470.406
1298.08	366.785
1302.35	770.551
1306.62	242.273
1310.89	695.121
1315.15	523.07
1319.42	412.086
1323.68	614.598
1327.94	479.797
1332.19	148.309
1336.44	182.652
1340.69	366.285
1344.94	154.414
1349.19	354.398
1353.43	427.559
1357.67	333.16
1361.9	2.71094
1366.14	473.469
1370.37	254.176
1374.6	202.461
1378.83	1886.14
1383.05	364.125
1387.27	99.4023
1391.49	300.293
1395.7	268.141
1399.92	307.273
1404.13	157.621
1408.34	446.523
1412.54	270.316
1416.74	46.8008
1420.94	630.582
1425.14	118.797
1429.34	29.3281
1433.53	891.777
1437.72	719.719
1441.9	1103.29
1446.09	750.035
1450.27	931.621
1454.45	1253.28
1458.63	1318.39
1462.8	847.848
1466.97	714.871
1471.14	422.238
1475.31	647.496
1479.47	303.418
1483.63	674.957
1487.79	398.734
1491.94	122.762
1496.09	279.035
1500.24	163.356
1504.39	493.945
1508.54	366.281
1512.68	610.684
1516.82	420.828
1520.95	22.2344
1525.09	458.531
1529.22	350.152
1533.35	42.2539
1537.47	437.469
1541.6	352.144
1545.72	44.875
1549.83	199.469
1553.95	319.871
1558.06	252.715
1562.17	98.5078
1566.28	138.234
1570.38	0
