Measurement: Raman, 514 nm, ccw, Raman Data Processed
Mineral: Actinolite
Rruff sample: R060045
Ideal chemistry: Ca_2_(Mg_4.5-2.5_Fe^2+^_0.5-2.5_)_=5_Si_8_O_22_(OH)_2_
Locality: Colorado, USA
Source: University of Arizona Mineral Museum
Description: Green prismatic crystals in a radial arrangement
Measured chemistry: (Ca_1.99_Na_0.01_)_Σ=2_(Mg_4.20_Fe^2+^_0.59_Al_0.09_Fe^3+^_0.08_Mn_0.02_Ti_0.01_)_Σ=5_(Si_7.82_Al_0.18_)_Σ=8_O_22_(OH)_2_
Pin_id: M00155
Orientation: Laser parallel to b* (0 1 0). Fiducial mark perpendicular to laser is parallel to c [0 0 1]
Raman shift (cm-1)	intensity
137.814	0
142.728	24.9521
147.639	664.964
152.549	3336.06
157.455	10544.2
162.359	2029
167.261	1784.53
172.161	5304.52
177.058	13537.6
181.952	3062.77
186.845	669.995
191.734	179.451
196.622	204.103
201.507	611.363
206.389	1107.68
211.269	2610.51
216.147	7760.37
221.022	14731.8
225.895	6832.08
230.765	2355.01
235.633	1000.42
240.498	387.792
245.361	349.635
250.222	385.262
255.08	160.033
259.936	252.806
264.789	34.4492
269.64	73.7471
274.488	116.106
279.334	91.8272
284.178	2.04394
289.019	370.376
293.857	477.477
298.693	1176.07
303.527	693.612
308.358	210.788
313.187	21.833
318.013	174.905
322.837	353.244
327.659	892.088
332.478	1321.37
337.294	1856.53
342.108	1956.36
346.92	1056.88
351.729	999.573
356.535	895.357
361.34	880.957
366.141	1614.11
370.94	1325.77
375.737	820.628
380.531	1072.17
385.323	2002.56
390.113	3543.77
394.9	2413.78
399.684	1208.6
404.466	1059.41
409.245	1348.58
414.022	1247.16
418.797	610.832
423.569	226.137
428.338	169.51
433.105	498.707
437.87	267.685
442.632	180.457
447.391	50.9785
452.149	15.9512
456.903	81.75
461.655	57.8008
466.405	103.9
471.152	114.654
475.897	7.49414
480.639	183.578
485.378	154.914
490.116	152.928
494.85	15.6504
499.582	9.91797
504.312	255.943
509.039	165.736
513.764	233.272
518.486	465.82
523.206	490.127
527.923	462.174
532.638	359.053
537.35	274.74
542.059	362.17
546.766	216.342
551.471	92.1992
556.173	304.969
560.873	197.769
565.57	302.549
570.264	20.0742
574.957	150.764
579.646	94.2246
584.333	173.295
589.018	82.4336
593.7	107.92
598.379	325.516
603.056	85.1641
607.73	183.397
612.402	292.246
617.072	472.182
621.739	803.791
626.403	1043.45
631.065	1086.41
635.724	1196.87
640.381	1751.75
645.035	2945.45
649.687	4150.9
654.336	4953.41
658.983	7276.24
663.627	13858
668.268	29202.7
672.907	34056.6
677.544	14637.5
682.178	5979.26
686.809	2954.66
691.438	1712.72
696.065	1136.03
700.688	676.113
705.31	600.467
709.929	356.688
714.545	392.66
719.158	271.863
723.77	175.147
728.378	259.894
732.984	148.812
737.588	175.824
742.189	508.35
746.787	402.519
751.383	509.027
755.976	100.375
760.567	12.4082
765.155	140.477
769.741	67.9277
774.324	131.082
778.904	33.3262
783.482	18.6133
788.058	108.227
792.631	47.6309
797.201	54.2422
801.769	69.7891
806.334	133.488
810.897	49.3418
815.457	67.3945
820.014	77.1231
824.569	99.0117
829.122	25.0742
833.671	92.4609
838.219	191.861
842.763	91.1562
847.306	197.408
851.845	270.635
856.382	310.857
860.917	536.066
865.448	402.111
869.978	166.147
874.505	223.119
879.029	300.393
883.55	140.875
888.069	209.418
892.586	340.82
897.1	349.154
901.611	413.342
906.12	269.592
910.626	635.836
915.129	869.521
919.63	1385.64
924.129	2507.76
928.625	4508.62
933.118	3254.92
937.609	1932.68
942.097	1489.3
946.582	1451.56
951.065	1061.91
955.546	727.635
960.023	469.424
964.499	273.715
968.971	189.072
973.441	178.598
977.909	219.254
982.374	125.051
986.836	342.984
991.295	264.481
995.753	580.684
1000.21	605.021
1004.66	851.494
1009.11	862.271
1013.55	1279.98
1018	1072.41
1022.44	1142.45
1026.88	1582.4
1031.32	1694.45
1035.75	1841.76
1040.18	1963.24
1044.61	3551.99
1049.04	6235.1
1053.46	11493.5
1057.88	14740
1062.3	9040.14
1066.71	5077.35
1071.13	2951.56
1075.54	1622.36
1079.94	991.473
1084.35	1185.96
1088.75	815.82
1093.15	604.213
1097.55	284.293
1101.94	122.637
1106.34	466.846
1110.73	311.065
1115.11	230.287
1119.5	73.4902
1123.88	284.531
1128.26	256.508
1132.63	118.473
1137.01	182.422
1141.38	19.7363
1145.75	181.398
1150.12	214.375
1154.48	83.9668
1158.84	198.432
1163.2	179.801
1167.55	220.049
1171.91	118.269
1176.26	166.262
1180.61	106.106
1184.95	358.893
1189.29	138.625
1193.63	96.8477
1197.97	99.9023
1202.31	14.4668
1206.64	126.943
1210.97	16.2852
1215.29	32.4414
1219.62	18.4883
1223.94	165.619
1228.26	139.445
1232.57	110.182
1236.89	730.723
1241.2	241.344
1245.51	406.809
1249.81	334.824
1254.12	308.065
1258.42	298.398
1262.72	338.69
1267.01	387.914
1271.3	737.326
1275.59	577.15
1279.88	471.272
1284.17	276.344
1288.45	489.662
1292.73	452.731
1297.01	547.729
1301.28	350.703
1305.55	508.727
1309.82	713.695
1314.09	602.682
1318.35	641.703
1322.61	765.199
1326.87	410.424
1331.13	359.115
1335.38	252.297
1339.63	393.619
1343.88	288.535
1348.12	178.451
1352.37	24.8906
1356.61	197.41
1360.85	98.8789
1365.08	54.5586
1369.31	121.195
1373.54	154.519
1377.77	191.945
1381.99	326.871
1386.22	139.141
1390.43	249.098
1394.65	194.082
1398.87	116.297
1403.08	67.918
1407.29	129.84
1411.49	150
1415.69	129.738
1419.89	294.262
1424.09	149.438
1428.29	198.816
1432.48	569.539
1436.67	630.711
1440.86	762.504
1445.04	918.797
1449.23	1123.12
1453.4	1093.86
1457.58	1013.95
1461.76	1300.06
1465.93	770.84
1470.1	217.988
1474.26	553.488
1478.43	570.293
1482.59	483.254
1486.75	139.648
1490.9	437.613
1495.06	306.91
1499.21	120.898
1503.35	184.836
1507.5	125.004
1511.64	227.258
1515.78	252.801
1519.92	86.6602
1524.05	159.684
1528.18	442.754
1532.31	360.258
1536.44	101.57
1540.56	352.676
1544.69	160.777
1548.8	227.481
1552.92	344.016
1557.03	396.281
1561.14	33.1172
1565.25	230.82
1569.36	128.137
