Measurement: Raman, 514 nm, ccw, Raman Data Processed
Mineral: Actinolite
Rruff sample: R040064
Ideal chemistry: Ca_2_(Mg_4.5-2.5_Fe^2+^_0.5-2.5_)_=5_Si_8_O_22_(OH)_2_
Locality: Ehime Perfecture, Uma Gun, Japan
Source: University of Arizona Mineral Museum
Description: Aggregate of green acicular crystals associated with chlorite
Measured chemistry: (Ca_0.95_Na_0.04_Mn_0.01_)_2_(Mg_0.88_Fe_0.12_)_5_(Si_0.98_Al_0.02_)_8_O_22_(OH)_2_
Pin_id: M00405
Orientation: Laser parallel to a [1 0 0]. Fiducial mark perpendicular to laser is parallel to b* (0 1 0)
Raman shift (cm-1)	intensity
107.817	0
111.996	289.771
116.172	335.286
120.347	306.48
124.519	203.637
128.69	30.821
132.858	43.282
137.025	183.164
141.189	174.422
145.352	104.68
149.512	114.409
153.67	1271.93
157.827	3037.72
161.981	1920.07
166.133	636.516
170.283	955.22
174.431	2778.03
178.577	3148.97
182.721	1343.05
186.863	598.262
191.003	308.605
195.141	325.298
199.277	443.566
203.411	768.699
207.543	1486.07
211.673	2841.7
215.801	5817.05
219.927	11069.8
224.051	12471.2
228.173	14892.8
232.292	14004.6
236.41	7026.55
240.526	3868.64
244.64	4600.87
248.752	5233.21
252.861	3895.64
256.969	2120.18
261.075	1268.82
265.179	771.557
269.281	385.362
273.38	182.532
277.478	3.422
281.574	43.038
285.668	15.32
289.76	20.79
293.85	198.919
297.937	549.602
302.023	930.169
306.107	678.858
310.189	462.075
314.269	247.664
318.347	73.911
322.423	24.749
326.497	75.487
330.569	0.717
334.639	180.01
338.707	364.859
342.773	748.365
346.837	1454.69
350.899	2146.04
354.96	1820.41
359.018	1550.78
363.074	2989.04
367.128	6253.31
371.181	5917.61
375.231	3451.92
379.28	2486.23
383.326	2910.3
387.37	5124.33
391.413	8728.37
395.454	7072.53
399.492	3566.92
403.529	2441.36
407.564	3245.71
411.596	5350.4
415.627	6174.57
419.656	4268.62
423.683	2292.8
427.708	1386.87
431.731	1942.08
435.752	2734.39
439.772	1336.31
443.789	502.17
447.804	224.055
451.817	54.248
455.829	36.606
459.838	72.062
463.846	10.001
467.852	57.62
471.855	189.031
475.857	85.339
479.857	155.597
483.855	136.544
487.851	159.496
491.845	116.821
495.837	6.931
499.828	35.232
503.816	174.331
507.802	361.158
511.787	742.287
515.77	1415.15
519.75	1837.94
523.729	2100.68
527.706	2663.43
531.681	1896.19
535.654	1038.89
539.625	551.486
543.595	301.982
547.562	320.378
551.527	151.676
555.491	182.864
559.453	64.958
563.412	90.936
567.37	109.79
571.326	101.52
575.28	168.121
579.233	95.603
583.183	292.959
587.131	33.194
591.078	10.279
595.022	30.112
598.965	26.46
602.906	28.652
606.845	25.834
610.782	84.968
614.718	49.622
618.651	117.304
622.582	102.587
626.512	240.933
630.44	369.007
634.366	578.738
638.29	728.79
642.212	1043.87
646.132	1468.69
650.05	2022.41
653.967	2931.92
657.882	4032.25
661.794	6589.65
665.705	13139
669.614	28426.2
673.522	35734.7
677.427	19453.3
681.331	9015.96
685.232	4962.84
689.132	3513.52
693.03	2240.39
696.926	1816.55
700.82	1082.55
704.713	959.162
708.603	688.317
712.492	530.975
716.379	447.009
720.264	512.037
724.147	466.988
728.028	351.358
731.908	356.267
735.785	510.899
739.661	605.56
743.535	889.307
747.407	1571.81
751.278	1468.4
755.146	644.561
759.013	333.964
762.878	261.094
766.741	198.459
770.602	204.82
774.461	138.075
778.319	181.539
782.174	195.342
786.028	29.086
789.88	72.766
793.73	236.318
797.579	40.343
801.425	27.27
805.27	4.374
809.113	58.347
812.954	150.954
816.794	83.493
820.631	35.979
824.467	11.614
828.301	0.726
832.133	113
835.963	64.882
839.792	56.968
843.618	11.361
847.443	20.238
851.266	71.829
855.088	53.416
858.907	185.003
862.725	116.622
866.541	31.739
870.355	269.942
874.167	251.708
877.978	123.505
881.787	205.339
885.594	247.253
889.399	279.295
893.202	251.381
897.004	343.521
900.803	545.798
904.601	548.278
908.398	751.057
912.192	894.051
915.985	1097.24
919.776	1700.59
923.565	2974.18
927.352	4247.85
931.138	4561.61
934.922	2805.23
938.704	1828.92
942.484	1749.89
946.262	2051.77
950.039	1395.42
953.814	1173.45
957.587	843.119
961.359	744.8
965.128	655.943
968.896	648.129
972.662	572.632
976.427	536.217
980.189	259.908
983.95	563.128
987.709	558.367
991.467	488.697
995.222	627.104
998.976	857
1002.73	977.771
1006.48	1093.5
1010.23	1341.89
1013.97	2048.54
1017.72	2834.27
1021.46	4240.25
1025.2	7267.41
1028.94	8824.52
1032.68	6001.51
1036.42	3348.94
1040.15	2726.74
1043.89	2484.74
1047.62	2882.44
1051.35	3970.04
1055.07	5960.23
1058.8	7097.56
1062.52	5335.11
1066.25	4555.9
1069.97	3823.35
1073.69	2267.3
1077.4	1544.52
1081.12	1195.84
1084.83	882.986
1088.55	719.766
1092.26	561.527
1095.96	614.653
1099.67	511.319
1103.38	288.518
1107.08	265.88
1110.78	253.791
1114.48	251.064
1118.18	478.374
1121.88	346.511
1125.57	173.021
1129.27	170.249
1132.96	37.717
1136.65	124.654
1140.34	42.493
1144.02	135.975
1147.71	196.038
1151.39	294.688
1155.07	198.222
1158.75	10.693
1162.43	26.159
1166.11	128.931
1169.78	116.406
1173.45	112.631
1177.12	228.526
1180.79	244.3
1184.46	90.794
1188.13	91.034
1191.79	34.367
1195.45	137.797
1199.11	5.306
1202.77	365.898
1206.43	228.339
1210.09	102.982
1213.74	195.64
1217.39	83.859
1221.05	66.142
1224.69	32.239
1228.34	182.407
1231.99	501.374
1235.63	330.803
1239.27	468.144
1242.91	295.617
1246.55	263.431
1250.19	110.92
1253.83	49.496
1257.46	225.74
1261.09	342.23
1264.72	557.512
1268.35	552.396
1271.98	437.18
1275.61	421.077
1279.23	233.973
1282.85	62.354
1286.47	25.543
1290.09	107.451
1293.71	118.621
1297.33	219.123
1300.94	528.592
1304.55	323.211
1308.16	39.836
1311.77	189.373
1315.38	44.225
1318.99	59.504
1322.59	64.674
1326.19	269.799
1329.79	413.166
1333.39	415.729
1336.99	487.395
1340.59	330.283
1344.18	269.791
1347.77	39.412
1351.37	19.912
1354.95	49.482
1358.54	366.141
1362.13	218.762
1365.71	577.178
1369.3	485.086
1372.88	283.273
1376.46	192.068
1380.04	219.033
1383.61	124.826
1387.19	60.297
1390.76	64.887
1394.33	19.258
1397.9	242.061
1401.47	323.133
1405.04	680.928
1408.6	501.035
1412.16	300.051
1415.72	457.566
1419.29	263.062
1422.84	53.135
1426.4	39.768
1429.96	125.148
1433.51	261.871
1437.06	439.148
1440.61	821.664
1444.16	815.002
1447.71	754.516
1451.25	532.48
1454.8	431.111
1458.34	454.629
1461.88	321.307
1465.42	25.16
1468.96	108.975
1472.49	286.867
1476.03	405.842
1479.56	717.65
1483.09	818.426
1486.62	782.883
1490.15	786.709
1493.67	439.039
1497.2	303.729
1500.72	132.188
1504.24	183.344
1507.76	32.248
1511.28	168.363
1514.8	244.812
1518.31	477.17
