Measurement: Raman, 514 nm, ccw, Raman Data Processed
Mineral: Actinolite
Rruff sample: R060045
Ideal chemistry: Ca_2_(Mg_4.5-2.5_Fe^2+^_0.5-2.5_)_=5_Si_8_O_22_(OH)_2_
Locality: Colorado, USA
Source: University of Arizona Mineral Museum
Description: Green prismatic crystals in a radial arrangement
Measured chemistry: (Ca_1.99_Na_0.01_)_Σ=2_(Mg_4.20_Fe^2+^_0.59_Al_0.09_Fe^3+^_0.08_Mn_0.02_Ti_0.01_)_Σ=5_(Si_7.82_Al_0.18_)_Σ=8_O_22_(OH)_2_
Pin_id: M00311
Orientation: Laser parallel to c* (0 0 1). Fiducial mark perpendicular to laser is parallel to a [1 0 0]
Raman shift (cm-1)	intensity
134.127	0
139.043	13.4492
143.956	593.685
148.867	4706.78
153.775	4926.49
158.681	4101.39
163.585	3777.17
168.486	9568.67
173.385	10145.8
178.282	7188.33
183.176	2601.95
188.067	846.707
192.956	567.35
197.843	996.879
202.727	2057.75
207.609	4871.12
212.489	12101.5
217.366	14429.2
222.24	11541.1
227.112	5877.95
231.982	1998.02
236.849	852.92
241.714	487.945
246.577	270.619
251.437	130.609
256.294	16.916
261.149	81.7969
266.002	137.293
270.852	158.268
275.7	45.2969
280.545	125.027
285.388	543.766
290.229	738.457
295.067	1026.79
299.902	1144.69
304.735	445.648
309.566	360.856
314.394	328.467
319.22	431.357
324.043	617.738
328.864	854.572
333.682	726.604
338.498	832.219
343.311	955.545
348.122	1300.93
352.931	1065.42
357.737	1302.11
362.54	1778.6
367.341	1623.27
372.14	1267.87
376.936	1090.29
381.73	1476.88
386.521	1840.22
391.31	1645.42
396.096	1052.45
400.88	482.807
405.661	525.922
410.44	499.531
415.216	163.975
419.99	135.658
424.761	16.7578
429.53	139.578
434.297	203.973
439.061	94.1621
443.822	164.254
448.581	37.8398
453.337	116.207
458.091	43.6328
462.843	1.54688
467.592	66.7578
472.338	21.2422
477.082	212.103
481.824	1.57617
486.563	180.598
491.3	26.7695
496.034	114.801
500.765	215.367
505.494	155.301
510.221	411.309
514.945	626.271
519.666	521.031
524.385	713.102
529.102	438.982
533.816	658.533
538.527	327.777
543.236	356.695
547.943	183.316
552.647	176.723
557.348	229.119
562.047	540.547
566.744	335.807
571.438	239.185
576.129	483.133
580.818	189.088
585.504	233.496
590.188	296.365
594.87	206.93
599.549	161.424
604.225	262.951
608.899	214.076
613.57	225.789
618.239	348.756
622.905	621.871
627.569	882.986
632.23	1292.95
636.889	1337.73
641.545	2311.22
646.198	3380.19
650.849	4889.66
655.498	7713.1
660.144	14792.6
664.787	28570
669.428	32852.9
674.067	22655.4
678.703	10393.8
683.336	5291.7
687.967	2789.73
692.595	1780.12
697.221	1370.25
701.844	844.344
706.465	847.516
711.083	446.92
715.698	584.41
720.311	422.631
724.922	366.93
729.53	397.035
734.135	452.277
738.738	470.621
743.338	190.121
747.936	286.385
752.531	240.617
757.124	64.6875
761.714	253.508
766.302	126.164
770.887	156.705
775.469	124.17
780.049	113.576
784.626	9.42773
789.201	120.492
793.773	9.03125
798.343	170.185
802.91	215.326
807.475	89.625
812.037	39.8066
816.596	76.8496
821.153	161.799
825.707	140.602
830.259	117.312
834.808	291.961
839.355	72.4316
843.899	60.8926
848.441	188.139
852.98	223.356
857.516	387.494
862.05	111.6
866.581	166.633
871.11	343.34
875.636	138.174
880.159	105.102
884.68	382.287
889.199	39.4043
893.714	257.764
898.228	708.695
902.738	407.834
907.246	721.295
911.752	1089.12
916.255	1258.21
920.755	2444.37
925.253	3796.36
929.748	3365.59
934.241	2433.46
938.731	1609.22
943.218	1425.56
947.703	1248.06
952.186	996.93
956.665	580.018
961.142	743.945
965.617	609.514
970.089	568.285
974.558	443.973
979.025	781.019
983.489	654.541
987.951	350.289
992.41	558.525
996.866	676.902
1001.32	625.801
1005.77	1046.48
1010.22	1056.4
1014.67	1426.29
1019.11	1736.83
1023.55	1889.53
1027.99	2304.91
1032.42	2625.92
1036.86	3143.36
1041.29	4518.08
1045.72	7790.07
1050.14	12694.2
1054.56	15968.8
1058.98	12936.4
1063.4	8107.85
1067.82	5039.84
1072.23	2601.64
1076.64	1385.38
1081.05	948.266
1085.45	843.516
1089.85	600.934
1094.25	593.258
1098.65	558.691
1103.04	485.231
1107.43	276.289
1111.82	439.418
1116.21	406.379
1120.59	267.434
1124.97	734.75
1129.35	285.856
1133.73	183.231
1138.1	200.734
1142.47	148.289
1146.84	223.547
1151.21	40.332
1155.57	80.0352
1159.93	157.731
1164.29	196.234
1168.64	145.762
1172.99	164.785
1177.34	63.7734
1181.69	612.184
1186.04	304.414
1190.38	223.953
1194.72	277.289
1199.05	120.473
1203.39	250.609
1207.72	372.625
1212.05	96.5938
1216.37	190.492
1220.7	355.375
1225.02	119.066
1229.34	213.793
1233.65	394.492
1237.97	186.086
1242.28	186.461
1246.59	438.769
1250.89	337.59
1255.19	116.828
1259.49	367.055
1263.79	216.519
1268.09	132.641
1272.38	287.34
1276.67	176.359
1280.95	107.18
1285.24	436.098
1289.52	268.074
1293.8	216.574
1298.08	295.379
1302.35	401.215
1306.62	329.754
1310.89	136.461
1315.15	423.359
1319.42	272.508
1323.68	243.121
1327.94	309.742
1332.19	220.211
1336.44	162.898
1340.69	295.621
1344.94	269.156
1349.19	453.691
1353.43	434.508
1357.67	263.285
1361.9	281.203
1366.14	603.777
1370.37	349.934
1374.6	204.062
1378.83	385.254
1383.05	55.9141
1387.27	207.281
1391.49	317.766
1395.7	517.793
1399.92	96.5195
1404.13	7.39062
1408.34	435.117
1412.54	331.266
1416.74	60.3828
1420.94	164.781
1425.14	146.57
1429.34	481.309
1433.53	800.394
1437.72	2.24609
1441.9	381.098
1446.09	641.684
1450.27	222.062
1454.45	388.016
1458.63	350.707
1462.8	340.481
1466.97	175.934
1471.14	292.727
1475.31	328.832
1479.47	106.09
1483.63	545.652
1487.79	496.051
1491.94	217.551
1496.09	205.242
1500.24	116.238
1504.39	343.625
1508.54	226.148
1512.68	412.613
1516.82	107.5
1520.95	176.887
1525.09	484.754
1529.22	401.117
1533.35	378.137
1537.47	404.535
1541.6	170.156
1545.72	140.066
1549.83	333.352
1553.95	368.297
1558.06	67.6641
1562.17	172.273
1566.28	68.707
1570.38	0
