Measurement: Raman, 514 nm, ccw, Raman Data Processed
Mineral: Actinolite
Rruff sample: R060045
Ideal chemistry: Ca_2_(Mg_4.5-2.5_Fe^2+^_0.5-2.5_)_=5_Si_8_O_22_(OH)_2_
Locality: Colorado, USA
Source: University of Arizona Mineral Museum
Description: Green prismatic crystals in a radial arrangement
Measured chemistry: (Ca_1.99_Na_0.01_)_Σ=2_(Mg_4.20_Fe^2+^_0.59_Al_0.09_Fe^3+^_0.08_Mn_0.02_Ti_0.01_)_Σ=5_(Si_7.82_Al_0.18_)_Σ=8_O_22_(OH)_2_
Pin_id: M00122
Orientation: Laser parallel to (1 0 1). Fiducial mark perpendicular to laser is parallel to b [0 1 0]
Raman shift (cm-1)	intensity
125.519	0
130.439	26.1406
135.356	184.398
140.271	196.312
145.184	89.0879
150.094	373.035
155.002	1376.67
159.908	1517.78
164.811	1053.77
169.711	808.519
174.61	2109.66
179.505	1835.22
184.399	573.443
189.29	295.391
194.178	466.562
199.064	1024.92
203.948	2526.8
208.829	3168.77
213.708	2069.36
218.585	4530.85
223.459	5590.69
228.33	6079.66
233.199	5310.83
238.066	2641.01
242.93	1694.16
247.792	2013.15
252.651	1329.8
257.508	859.062
262.363	549.793
267.215	234.279
272.064	77.666
276.912	206.621
281.756	83.9512
286.598	59.1484
291.438	97.3926
296.276	83.3164
301.111	170.383
305.943	255.428
310.773	79.4004
315.601	20.4258
320.426	38.4258
325.248	34.5176
330.068	350.055
334.886	385.227
339.701	450.545
344.514	969.678
349.324	1191.54
354.132	1128.09
358.938	1322.05
363.741	1919.68
368.541	2442.54
373.339	1773.55
378.135	1264.73
382.928	1530.08
387.718	2488.58
392.506	3042.22
397.292	1730.97
402.075	1366.82
406.856	1465.78
411.634	1952.81
416.41	1729.93
421.183	1090.4
425.954	662.713
430.722	621.725
435.488	1018.11
440.251	547.41
445.012	186.246
449.77	244.639
454.526	31.5918
459.28	160.809
464.03	160.25
468.779	236.783
473.525	94.6894
478.268	115.506
483.009	80.0801
487.747	64.0254
492.483	93.7481
497.217	187.264
501.948	378.514
506.676	449.609
511.402	744.586
516.125	1305.34
520.846	1295.23
525.565	1299.16
530.281	1220.9
534.994	616.488
539.705	763.93
544.413	540.439
549.119	195.922
553.822	427.131
558.523	258.078
563.222	209.74
567.917	176.084
572.611	434.01
577.302	384.434
581.99	418.973
586.676	436.529
591.359	104.299
596.04	154.039
600.718	108.498
605.394	100.809
610.067	2.1543
614.737	124.801
619.406	294.143
624.071	421.117
628.734	339.16
633.395	376.428
638.053	532.682
642.708	749.574
647.361	1253.4
652.012	1595.76
656.66	2335.14
661.305	3540.15
665.948	7519.2
670.588	13104.5
675.226	10388.3
679.861	4699.8
684.494	2437.05
689.124	1781.87
693.752	1274.13
698.377	828.412
702.999	534.035
707.619	510.1
712.237	545.84
716.852	285.5
721.464	345.795
726.074	312.133
730.681	419.975
735.286	673.801
739.888	915.606
744.488	826.146
749.085	570.029
753.68	551.484
758.272	377.441
762.861	342.914
767.448	264.412
772.033	192.482
776.614	123.111
781.194	0.695313
785.77	143.887
790.345	41.9727
794.916	68.4414
799.485	88.8398
804.052	304.934
808.616	128.394
813.177	13.9219
817.736	96.2227
822.292	99.2227
826.846	411.168
831.397	307.684
835.945	278.852
840.491	221.391
845.035	222.797
849.576	366.266
854.114	274.871
858.65	178.449
863.183	473.848
867.713	368.742
872.241	169.981
876.767	50.3008
881.29	30.0469
885.81	199.664
890.328	111.309
894.843	248.609
899.356	517.098
903.866	429.594
908.373	387.043
912.878	519.438
917.38	522.312
921.88	1099.46
926.377	1503.74
930.872	1722.42
935.364	1199.79
939.853	647.184
944.34	898.891
948.824	645.231
953.306	497.711
957.785	336.602
962.261	231.723
966.735	138.426
971.207	72.6602
975.675	125.871
980.141	375.227
984.605	61.5195
989.066	448.371
993.524	87.6094
997.98	1496.29
1002.43	810.856
1006.88	888.922
1011.33	867.625
1015.78	1381.86
1020.22	2009.69
1024.66	3130.1
1029.1	3643.46
1033.53	2191.03
1037.97	1434.63
1042.4	983.707
1046.82	1636.9
1051.25	2136.42
1055.67	2809.82
1060.09	2654.07
1064.51	2511.81
1068.92	2021.56
1073.33	1317.19
1077.74	605.043
1082.15	602.379
1086.55	543.25
1090.95	528.981
1095.35	549.773
1099.75	250.731
1104.14	431.66
1108.53	243.504
1112.92	363.375
1117.31	358.219
1121.69	206.039
1126.07	396.797
1130.45	233.496
1134.82	208.141
1139.19	77.7266
1143.57	205.023
1147.93	327.106
1152.3	159.996
1156.66	143.164
1161.02	2.14844
1165.38	58.9102
1169.73	43.7305
1174.08	220.238
1178.43	177.504
1182.78	200.625
1187.12	103.602
1191.46	255.457
1195.8	234.199
1200.14	186.754
1204.47	97.1406
1208.8	174.535
1213.13	56.0938
1217.46	271.473
1221.78	189.242
1226.1	130.152
1230.42	449.82
1234.73	96.7188
1239.04	280.879
1243.35	227.902
1247.66	317.809
1251.97	333.699
1256.27	146.535
1260.57	518.148
1264.86	176
1269.16	293.168
1273.45	319.277
1277.74	315.574
1282.03	265.551
1286.31	428.961
1290.59	314.043
1294.87	386.297
1299.14	94.2266
1303.42	607.731
1307.69	566.527
1311.95	654.055
1316.22	772.816
1320.48	394.805
1324.74	512.422
1329	706.461
1333.26	395.125
1337.51	609.754
1341.76	496.336
1346	343.816
1350.25	126.738
1354.49	506.703
1358.73	287.59
1362.96	99.0703
1367.2	199.793
1371.43	468.848
1375.66	346.562
1379.88	119.234
1384.11	293.457
1388.33	479.785
1392.54	343.219
1396.76	251.598
1400.97	66.4492
1405.18	68.4883
1409.39	202.91
1413.59	114.238
1417.8	340.621
1421.99	0.304688
1426.19	314.644
1430.38	638.707
1434.58	267.559
1438.77	447.711
1442.95	625.688
1447.13	439.731
1451.32	524.465
1455.49	704.941
1459.67	670.793
1463.84	462.254
1468.01	458.688
1472.18	525.91
1476.35	291.281
1480.51	383.781
1484.67	236.363
1488.83	320.398
1492.98	124.625
1497.13	297.691
1501.28	150.746
1505.43	79.5312
1509.57	208.473
1513.71	141.887
1517.85	468.789
1521.99	227.453
1526.12	295.773
1530.25	340.797
1534.38	251.047
1538.5	421.82
1542.62	215.746
1546.74	211.82
1550.86	135.18
1554.98	289.238
1559.09	149.527
1563.2	338.121
1567.31	4.14062
