Measurement: Raman, 514 nm, ccw, Raman Data Processed
Mineral: Actinolite
Rruff sample: R060041
Ideal chemistry: Ca_2_(Mg_4.5-2.5_Fe^2+^_0.5-2.5_)_=5_Si_8_O_22_(OH)_2_
Locality: Prince of Wales Island, Alaska, USA
Source: University of Arizona Mineral Museum
Description: Green acicular crystals forming parallel groups in cylindrical or bladed forms
Measured chemistry: (Ca_0.97_Na_0.03_)_2_(Mg_0.65_Fe^2+^_0.29_Fe^3+^_0.04_Al_0.01_Mn_0.01_)_5_(Si_0.98_Al_0.02_)_8_O_22_(OH)_2_
Raman shift (cm-1)	intensity
95.948	0
100.883	21.874
105.815	713.635
110.744	2079.15
115.671	1254.01
120.596	394.997
125.519	514.416
130.439	633.616
135.356	673.469
140.271	1874
145.184	3528.11
150.094	4864.8
155.002	3676.45
159.908	1734.03
164.811	2236.72
169.711	3922.62
174.61	4289.92
179.505	2301.36
184.399	1079.77
189.29	1380.76
194.178	2191.96
199.064	3144.7
203.948	5229.61
208.829	7455.14
213.708	12377.9
218.585	15317.8
223.459	14169.4
228.33	10618.4
233.199	6903.76
238.066	5032.37
242.93	3983.3
247.792	2713.8
252.651	1763.45
257.508	763.944
262.363	641.912
267.215	354.284
272.064	63.5029
276.912	54.1152
281.756	56.1797
286.598	282.374
291.438	270.603
296.276	317.352
301.111	217.488
305.943	197.113
310.773	293.732
315.601	106.656
320.426	163.123
325.248	451.428
330.068	794.549
334.886	1677.97
339.701	2271.73
344.514	2830.62
349.324	3216.1
354.132	3851.07
358.938	4916.42
363.741	5589.07
368.541	4828.96
373.339	4764.06
378.135	5623.34
382.928	6754.77
387.718	6722.36
392.506	5093.61
397.292	4089.51
402.075	3761.92
406.856	3763.74
411.634	2896.88
416.41	2067.75
421.183	1504.86
425.954	2005.55
430.722	2706.47
435.488	1902.48
440.251	432.535
445.012	19.041
449.77	0.914063
454.526	6.93164
459.28	53.1211
464.03	225.424
468.779	94.6504
473.525	66.7715
478.268	57.4219
483.009	342.147
487.747	181.486
492.483	536.467
497.217	782.062
501.948	1402.26
506.676	1990.07
511.402	2583.48
516.125	3020.46
520.846	3668.2
525.565	3405.69
530.281	2377.78
534.994	1470.48
539.705	1140.83
544.413	1015.75
549.119	993.229
553.822	824.258
558.523	855.356
563.222	768.894
567.917	745.039
572.611	735.633
577.302	663.334
581.99	518.68
586.676	64.4219
591.359	174.377
596.04	218.014
600.718	140.256
605.394	11.9141
610.067	113.691
614.737	6.01562
619.406	537.752
624.071	548.072
628.734	997.4
633.395	1334.13
638.053	2074.5
642.708	3012.77
647.361	3619.41
652.012	5679.82
656.66	9945.85
661.305	20230.4
665.948	32828.7
670.588	31420.7
675.226	17899
679.861	8901.77
684.494	5605.38
689.124	3889.71
693.752	2478.46
698.377	1915.86
702.999	1458.78
707.619	1257.25
712.237	941.33
716.852	1073.01
721.464	1102.63
726.074	976.473
730.681	1401.5
735.286	2077.91
739.888	1890.79
744.488	1785.7
749.085	1307.24
753.68	971.775
758.272	560.332
762.861	460.674
767.448	507.42
772.033	314.826
776.614	399.17
781.194	122.174
785.77	169.545
790.345	361.147
794.916	49.5215
799.485	98.5059
804.052	145.658
808.616	127.158
813.177	19.8242
817.736	165.699
822.292	76.7949
826.846	94.2051
831.397	120.324
835.945	169.531
840.491	61.2754
845.035	167.148
849.576	373.074
854.114	346.445
858.65	27.6621
863.183	310.797
867.713	282.258
872.241	91.6777
876.767	239.065
881.29	435.359
885.81	598.604
890.328	369.982
894.843	924.379
899.356	967.916
903.866	1041.35
908.373	1497.62
912.878	1643.62
917.38	2530.99
921.88	3715.22
926.377	4542.28
930.872	3770.39
935.364	2605.19
939.853	2311.97
944.34	2445.5
948.824	1759.43
953.306	1647.67
957.785	1347.92
962.261	1249.24
966.735	1168.86
971.207	1138.46
975.675	1287.27
980.141	1365.5
984.605	1052.3
989.066	1512.32
993.524	1660.99
997.98	1930.54
1002.43	2447.5
1006.88	3401
1011.33	4701.62
1015.78	6638.54
1020.22	9513.82
1024.66	11352.2
1029.1	9272.65
1033.53	5602.84
1037.97	4495.19
1042.4	5226.46
1046.82	7980.66
1051.25	10052
1055.67	9880.95
1060.09	8816.99
1064.51	8080.12
1068.92	5185.73
1073.33	2796.91
1077.74	1901.34
1082.15	1467.31
1086.55	1237.02
1090.95	709.418
1095.35	905.811
1099.75	509.787
1104.14	669.994
1108.53	566.711
1112.92	432.318
1117.31	311.029
1121.69	716.443
1126.07	273.305
1130.45	495.014
1134.82	471.992
1139.19	26.7617
1143.57	132.426
1147.93	214.551
1152.3	54.2246
1156.66	24.6328
1161.02	280.568
1165.38	76.0996
1169.73	7.40625
1174.08	54.625
1178.43	50.2246
1182.78	47.4648
1187.12	270.379
1191.46	36.0078
1195.8	112.152
1200.14	100.356
1204.47	136.412
1208.8	175.35
1213.13	21.0488
1217.46	290.873
1221.78	284.269
1226.1	69.7656
1230.42	228.682
1234.73	192.688
1239.04	449.406
1243.35	222.551
1247.66	241.543
1251.97	370.262
1256.27	215.832
1260.57	256.148
1264.86	512.031
1269.16	597.742
1273.45	525.82
1277.74	511.816
1282.03	407.441
1286.31	477.641
1290.59	551.078
1294.87	682.801
1299.14	433.797
1303.42	760.383
1307.69	647.836
1311.95	734.867
1316.22	580.316
1320.48	931.648
1324.74	1022.39
1329	768.316
1333.26	668.992
1337.51	651.832
1341.76	662.383
1346	793.723
1350.25	784.488
1354.49	741.363
1358.73	590.016
1362.96	428.25
1367.2	556.023
1371.43	732.914
1375.66	448.812
1379.88	442.519
1384.11	441.152
1388.33	543.883
1392.54	250.305
1396.76	335.727
1400.97	324.801
1405.18	347.582
1409.39	398.125
1413.59	347.473
1417.8	243.289
1421.99	133.453
1426.19	116.035
1430.38	203.641
1434.58	151.383
1438.77	145.922
1442.95	270.32
1447.13	92.4258
1451.32	305.016
1455.49	12.0234
1459.67	239.566
1463.84	55.3984
1468.01	66.582
1472.18	288.859
1476.35	292.668
1480.51	250.613
1484.67	211.512
1488.83	234.25
1492.98	65.5781
1497.13	179.152
1501.28	340.766
1505.43	177.699
1509.57	63.9023
1513.71	456.289
1517.85	271.231
1521.99	469.856
1526.12	1.35156
1530.25	169.816
1534.38	363.578
1538.5	109.953
