Measurement: Raman, 514 nm, ccw, Raman Data Processed
Mineral: Actinolite
Rruff sample: R050025
Ideal chemistry: Ca_2_(Mg_4.5-2.5_Fe^2+^_0.5-2.5_)_=5_Si_8_O_22_(OH)_2_
Locality: Tyrol, Austria
Source: Eugene Schlepp
Description: Green colored bladed single crystals
Measured chemistry: (Ca_.930_Na_.056_Mn_.010_K_.004_)_2_(Mg_.883_Fe_.117_)_5_(Si_.978_Al_.022_)_8_O_22_(OH)_2_
Pin_id: L00525
Orientation: Laser parallel to b* (0 1 0). Fiducial mark perpendicular to laser is parallel to c [0 0 1]
Raman shift (cm-1)	intensity
96.858	0
101.036	197.928
105.212	399.85
109.387	860.132
113.559	2221.2
117.729	3121.72
121.897	3408.41
126.063	2204.88
130.228	1262.38
134.39	532.496
138.55	616.559
142.709	171.944
146.865	95.948
151.019	82.015
155.171	93.904
159.322	138.865
163.47	91.536
167.617	110.481
171.761	1007.98
175.904	4272.11
180.044	6939.27
184.183	2407.79
188.319	1044.41
192.454	493.853
196.586	310.702
200.717	316.339
204.846	393.223
208.972	585.686
213.097	1008.17
217.22	2694.84
221.341	5922.17
225.46	5419.06
229.577	2652.14
233.692	1851.11
237.805	784.156
241.916	226.545
246.025	336.311
250.132	546.471
254.237	289.881
258.34	136.472
262.442	2.338
266.541	36.75
270.639	128.786
274.734	113.641
278.828	60.009
282.919	188.682
287.009	698.52
291.097	1076.91
295.183	714.418
299.266	604.733
303.348	664.324
307.428	572.258
311.507	478.167
315.583	266.565
319.657	204.628
323.729	421.426
327.8	700.84
331.868	1453.18
335.935	1081.61
339.999	906.192
344.062	1040.69
348.123	1109.8
352.182	1335.99
356.239	1489.73
360.294	1828.86
364.347	3252.8
368.398	7740.77
372.448	7080.63
376.495	3350.77
380.54	2038.72
384.584	1870.35
388.626	3018.65
392.666	5295.63
396.704	3777.31
400.74	1658.68
404.774	1075.93
408.806	1080.78
412.836	1419.67
416.865	1601.99
420.891	1482.49
424.916	674.309
428.939	377.12
432.959	288.043
436.978	319.803
440.996	236.548
445.011	73.903
449.024	64.315
453.036	70.118
457.045	110.65
461.053	102.555
465.059	7.786
469.063	22.022
473.065	38.102
477.065	50.31
481.063	52.808
485.06	80.323
489.054	85.857
493.047	26.277
497.038	51.462
501.027	38.536
505.014	88.988
508.999	216.359
512.982	290.536
516.964	369.577
520.944	426.567
524.921	459.529
528.897	641.435
532.871	560.269
536.844	449.965
540.814	389.499
544.783	449.862
548.749	420.06
552.714	268.094
556.677	256.966
560.638	261.68
564.597	345.271
568.555	277.796
572.511	245.232
576.464	244.562
580.416	338.823
584.366	378.087
588.315	119.236
592.261	42.373
596.206	7.606
600.148	5.81
604.089	14.921
608.028	102.27
611.965	59.818
615.901	65.354
619.834	112.3
623.766	191.288
627.696	191.191
631.624	277.176
635.551	521.629
639.475	741.216
643.398	1020.67
647.318	1610.04
651.237	2854.67
655.155	4170.19
659.07	4886.31
662.984	6484.76
666.895	11434.1
670.805	26261.6
674.713	32655.8
678.62	16905.9
682.524	6967.08
686.427	3502.5
690.328	2231.4
694.227	1671.28
698.124	1234.89
702.02	850.689
705.913	588.168
709.805	489.588
713.695	519.949
717.584	397.253
721.47	292.503
725.355	274.699
729.238	265.843
733.119	382.936
736.998	421.978
740.876	501.971
744.752	584.915
748.626	970.389
752.498	921.534
756.368	560.143
760.237	302.64
764.104	151.625
767.969	568.662
771.832	95.586
775.693	70.144
779.553	72.758
783.411	12.568
787.267	55.05
791.122	25.673
794.974	82.257
798.825	5.749
802.674	69.953
806.522	21.923
810.367	5.983
814.211	6.791
818.053	32.508
821.893	11.108
825.732	57.401
829.568	79.085
833.403	9.669
837.236	23.948
841.068	36.765
844.898	16.456
848.726	49.068
852.552	23.635
856.376	97.178
860.199	111.689
864.02	189.175
867.839	130.639
871.656	142.099
875.472	200.579
879.286	250.073
883.098	340.573
886.909	394.065
890.717	428.608
894.524	275.136
898.33	271.65
902.133	331.201
905.935	421.799
909.735	464.428
913.533	414.1
917.33	363.846
921.124	609.704
924.918	974.49
928.709	1547.06
932.499	1633.67
936.286	997.567
940.073	696.309
943.857	675.794
947.64	907.734
951.421	789.829
955.2	599.345
958.978	478.059
962.753	393.234
966.527	393.721
970.3	360.797
974.071	433.07
977.84	477.373
981.607	426.678
985.372	324.604
989.136	336.283
992.898	363.673
996.659	439.391
1000.42	557.368
1004.17	557.268
1007.93	695.365
1011.68	718.928
1015.43	973.242
1019.18	1360.28
1022.93	2299.45
1026.68	3860.44
1030.42	4352.88
1034.17	2538.53
1037.91	1469.19
1041.65	1213.82
1045.39	1252.69
1049.12	1622.36
1052.86	2451.47
1056.59	3428.37
1060.33	3472.75
1064.06	2701.69
1067.78	3295.43
1071.51	3058.72
1075.23	2107.56
1078.96	1418.36
1082.68	1079.32
1086.4	777.178
1090.12	594.03
1093.83	473.006
1097.55	516.356
1101.26	467.05
1104.97	475.822
1108.68	350.635
1112.39	278.157
1116.1	180.782
1119.8	254.713
1123.5	227.365
1127.2	148.549
1130.9	169.249
1134.6	136.922
1138.3	73.583
1141.99	92.645
1145.69	40.076
1149.38	108.822
1153.07	99.033
1156.76	46.924
1160.44	123.013
1164.13	14.895
1167.81	29.502
1171.49	65.532
1175.17	18.625
1178.85	66.104
1182.52	69.729
1186.2	101.778
1189.87	33.13
1193.54	14.638
1197.21	62.318
1200.88	55.708
1204.55	20.655
1208.21	52.579
1211.88	72.764
1215.54	18.471
1219.2	48.001
1222.86	64.442
1226.51	57.332
1230.17	26.698
1233.82	82.696
1237.47	87.402
1241.12	139.848
1244.77	156.053
1248.42	146.413
1252.06	106.59
1255.71	88.606
1259.35	24.733
1262.99	52.782
1266.63	103.711
1270.26	144.114
1273.9	154.008
1277.53	150.158
1281.16	122.845
1284.8	45.98
1288.42	37.96
1292.05	120.678
1295.68	22.689
1299.3	1.839
1302.92	184.932
1306.55	71.586
1310.16	190.723
1313.78	229.628
1317.4	203.588
1321.01	41.581
1324.62	2.596
1328.24	58.407
1331.85	57.232
1335.45	53.7
1339.06	117.804
1342.66	158.321
1346.27	152.619
1349.87	144.081
1353.47	5.905
1357.07	84.349
1360.66	7.663
1364.26	32.914
1367.85	20.964
1371.44	101.726
1375.04	93.962
1378.62	132.833
1382.21	148.601
1385.8	110.694
1389.38	64.558
1392.96	66.943
1396.54	14.279
1400.12	108.658
1403.7	22.43
1407.28	18.96
1410.85	87.542
1414.42	147.645
1417.99	160.73
1421.56	94.706
1425.13	98.763
1428.7	91.646
1432.26	126.726
1435.83	56.917
1439.39	30.622
1442.95	15.727
1446.51	140.545
1450.06	198.164
1453.62	124.25
1457.17	149.881
1460.73	228.118
1464.28	164.655
1467.83	147.125
1471.37	164.721
1474.92	47.16
1478.46	86.068
1482.01	12.453
1485.55	136.11
1489.09	105.37
1492.63	146.882
1496.16	236.687
1499.7	229.816
1503.23	197.967
1506.76	250.583
1510.29	131.073
1513.82	92.64
1517.35	0.75
