Measurement: Raman, 514 nm, ccw, Raman Data Processed
Mineral: Actinolite
Rruff sample: R050336
Ideal chemistry: Ca_2_(Mg_4.5-2.5_Fe^2+^_0.5-2.5_)_=5_Si_8_O_22_(OH)_2_
Locality: Kragerø, Norway
Source: California Institute of Technology
Description: Dark green prismatic fragment
Measured chemistry: ([box]_0.62_Na_0.34_K_0.04_)(Ca_1.60_Na_0.40_)_Σ=2_(Mg_3.90_Fe^2+^_0.70_Al_0.20_Ti_0.10_Fe^3+^_0.10_)_Σ=5_(Si_7.52_Al_0.48_)_Σ=8_O_22_((OH)_0.97_F_0.03_)_2_
Pin_id: M00343
Orientation: Laser parallel to -a* (-1 0 0). Fiducial mark perpendicular to laser is parallel to b [0 1 0]
Raman shift (cm-1)	intensity
142.359	0
147.275	208.409
152.188	1566.54
157.099	3002.89
162.008	3434.11
166.914	2207.33
171.818	2366.5
176.719	2615.42
181.617	1945.13
186.514	1176.52
191.407	947.715
196.298	1126.29
201.187	1891.78
206.073	2449.67
210.957	5255.9
215.838	9208.01
220.717	14373.7
225.593	18065
230.467	18224.7
235.338	12978
240.207	7929.03
245.073	5888.58
249.937	4641.38
254.798	3097.99
259.657	1608.09
264.513	625.639
269.367	192.898
274.219	192.476
279.067	344.075
283.914	377.6
288.757	83.5518
293.599	225.781
298.437	695.511
303.274	732.694
308.107	616.63
312.939	411.54
317.767	298.731
322.593	466.638
327.417	617.56
332.238	823.612
337.057	962.35
341.873	1127.44
346.687	1105.6
351.498	1383.64
356.307	1779.52
361.113	3105.11
365.916	4871.12
370.717	5553.38
375.516	5039.84
380.312	5618.43
385.106	7567.08
389.897	9675.71
394.685	8582.26
399.471	5929.67
404.254	5572.88
409.035	6758.86
413.814	7942.79
418.59	7114.33
423.363	5419
428.134	4508.58
432.902	3821.82
437.668	3007.16
442.431	1732.37
447.192	998.348
451.95	662.176
456.706	344.215
461.459	456.162
466.21	371.352
470.958	351.159
475.703	359.475
480.446	519.317
485.187	619.979
489.925	857.566
494.66	1079.8
499.393	1974.91
504.123	2598.91
508.851	3641.82
513.576	4703.58
518.299	5342.17
523.019	5371.55
527.737	4762.04
532.452	4028.22
537.165	3629.06
541.875	3310.25
546.582	3100.07
551.287	2680.48
555.99	2485.5
560.69	2408.57
565.387	2317.87
570.082	2288.68
574.774	2062.97
579.464	1590.51
584.151	1115.58
588.836	456.022
593.518	22.541
598.197	289.56
602.874	276.322
607.549	234.876
612.221	107.886
616.89	0.058594
621.557	116.856
626.221	406.285
630.883	790.824
635.542	1185.55
640.199	1940.46
644.853	3015.56
649.504	4395.82
654.153	6536.26
658.799	10481.9
663.443	19413.7
668.085	31053.6
672.723	35488.7
677.359	24140
681.993	12582.5
686.624	7200.15
691.253	4986.99
695.879	3925.03
700.502	3781.27
705.123	3966.03
709.741	4422.16
714.357	5135.92
718.97	5960.17
723.581	6517.67
728.189	6989.11
732.794	7334.6
737.397	7231.8
741.997	7140.22
746.595	6354.92
751.19	5217.09
755.783	4167.23
760.373	3254.7
764.961	2792.39
769.546	2263.63
774.128	2076.53
778.708	1899.12
783.285	2164.43
787.86	2117.48
792.432	2225.06
797.002	1820.94
801.569	1564.57
806.133	1319.73
810.695	972.952
815.254	948.091
819.811	721.179
824.365	431.247
828.917	272.322
833.466	56.4287
838.012	75.4736
842.556	185.909
847.097	136.444
851.636	97.0078
856.172	135.698
860.706	147.031
865.237	22.2344
869.765	120.697
874.291	146.128
878.814	417.546
883.335	458.365
887.853	609.231
892.369	938.455
896.882	931.714
901.392	1162.65
905.9	1213.14
910.405	1742.15
914.908	2157.82
919.408	2830.23
923.906	3598.43
928.401	3961.32
932.893	3387.96
937.383	2490.55
941.87	2357.02
946.355	2365.22
950.837	2139.2
955.316	1817.57
959.793	1930.74
964.267	1892.01
968.739	1829.32
973.208	1998.2
977.675	1836.48
982.139	2200.18
986.6	2248.14
991.059	2615.97
995.515	3162.89
999.969	3935.58
1004.42	4693.89
1008.87	5332.93
1013.31	5719.68
1017.76	6148.08
1022.2	6869.1
1026.64	8156.71
1031.07	8475.97
1035.51	7583.93
1039.93	6831.54
1044.36	6414.47
1048.79	6621.08
1053.21	6884.24
1057.63	7236.02
1062.05	7141.89
1066.46	6089.51
1070.88	4917.67
1075.29	3872.57
1079.69	3324.88
1084.1	2853.74
1088.5	2287.36
1092.9	1945.71
1097.3	1643.6
1101.69	1548.84
1106.08	1323.53
1110.47	1312.19
1114.86	1205.95
1119.24	1051.69
1123.62	828.924
1128	836.335
1132.38	620.532
1136.75	550.179
1141.12	350.677
1145.49	233.788
1149.85	117.473
1154.22	119.794
1158.58	13.6748
1162.93	96.6045
1167.29	39.8701
1171.64	33.9238
1175.99	8.78711
1180.34	63.9228
1184.68	28.2012
1189.03	36.6172
1193.37	57.5332
1197.7	65.1094
1202.04	37.7178
1206.37	3.38184
1210.7	46.2891
1215.03	32.5127
1219.35	61.2051
1223.67	210.196
1227.99	62.2305
1232.31	79.2031
1236.62	196.489
1240.93	267.447
1245.24	202.869
1249.55	164.464
1253.85	94.9639
1258.15	268.074
1262.45	117.615
1266.74	238.097
1271.04	336.984
1275.33	238.818
1279.62	136.046
1283.9	356.17
1288.18	265.72
1292.46	155.056
1296.74	204.348
1301.02	242.231
1305.29	262.882
1309.56	186.974
1313.82	221.721
1318.09	278.44
1322.35	99.4023
1326.61	211.323
1330.87	304.701
1335.12	46.0215
1339.37	135.011
1343.62	96.2481
1347.87	159.856
1352.11	22.9072
1356.35	119.881
1360.59	34.1523
1364.82	13.8057
1369.06	61.794
1373.29	244.869
1377.52	42.209
1381.74	113.44
1385.96	179.241
1390.18	10.8828
1394.4	159.39
1398.62	96.626
1402.83	66.6426
1407.04	3.44141
1411.24	159.649
1415.45	118.274
1419.65	128.091
1423.85	91.9873
1428.05	265.542
1432.24	316.47
1436.43	301.656
1440.62	203.332
1444.81	314.038
1448.99	270.978
1453.17	238.29
1457.35	373.26
1461.53	208.255
1465.7	205.193
1469.87	277.82
1474.04	190.611
1478.2	280.616
1482.37	87.9775
1486.53	51.544
1490.68	98.4531
1494.84	166.56
1498.99	77.9932
1503.14	171.987
1507.29	58.8223
1511.43	38.0781
1515.57	49.0635
1519.71	221.736
1523.85	125.898
1527.98	2.91894
1532.12	3.22266
1536.24	140.38
1540.37	0
