Measurement: Raman, 514 nm, ccw, Raman Data Processed
Mineral: Actinolite
Rruff sample: R040064
Ideal chemistry: Ca_2_(Mg_4.5-2.5_Fe^2+^_0.5-2.5_)_=5_Si_8_O_22_(OH)_2_
Locality: Ehime Perfecture, Uma Gun, Japan
Source: University of Arizona Mineral Museum
Description: Aggregate of green acicular crystals associated with chlorite
Measured chemistry: (Ca_0.95_Na_0.04_Mn_0.01_)_2_(Mg_0.88_Fe_0.12_)_5_(Si_0.98_Al_0.02_)_8_O_22_(OH)_2_
Pin_id: M00214
Orientation: Laser parallel to [1 0 1]. Fiducial mark perpendicular to laser is parallel to b* (0 1 0)
Raman shift (cm-1)	intensity
111.905	0
116.097	443.208
120.287	814.813
124.475	565.025
128.66	241.134
132.843	15.419
137.024	48.882
141.203	244.643
145.38	341.833
149.554	625.319
153.726	1540.23
157.896	2593.17
162.064	2537.01
166.23	1233.65
170.393	923.698
174.555	2503.39
178.714	3165.39
182.871	1758.46
187.025	726.419
191.178	454.116
195.328	134.397
199.476	78.27
203.623	76.692
207.766	490.938
211.908	1329.44
216.048	2695.63
220.185	5063.3
224.32	6184.66
228.453	6135.98
232.584	5667.25
236.713	3198.45
240.839	1429.49
244.964	1255.4
249.086	1601.23
253.206	1339.97
257.324	692.682
261.439	316.358
265.553	181.005
269.665	339.569
273.774	819.99
277.881	1801.9
281.986	2675.09
286.089	2169.47
290.19	1208.25
294.288	491.644
298.385	337.416
302.479	461.715
306.571	498.156
310.661	332.955
314.749	58.81
318.835	30.325
322.919	90.28
327	136.015
331.08	317.646
335.157	466.863
339.232	579.032
343.305	894.949
347.376	1622.82
351.445	2012.63
355.512	1852.35
359.576	1511.99
363.639	2279.18
367.699	4496.37
371.757	4875.64
375.814	2694.73
379.868	1453.63
383.92	1502.26
387.969	2530.94
392.017	4339.95
396.063	4299.94
400.106	2399.5
404.148	1388.59
408.187	1358.25
412.224	1977.5
416.26	2546.44
420.293	1854.6
424.324	1002.16
428.353	470.993
432.379	552.978
436.404	676.557
440.427	422.232
444.448	105.785
448.466	65.061
452.482	16.072
456.497	135.816
460.509	15.287
464.519	4.226
468.527	60.453
472.534	53.708
476.538	54.403
480.54	9.375
484.539	138.281
488.537	212.937
492.533	231.363
496.527	255.029
500.518	347.678
504.508	465.519
508.495	863.092
512.481	1610.35
516.464	1827.3
520.446	1423.97
524.425	1110.33
528.402	1286.39
532.377	1062.09
536.351	567.425
540.322	472.385
544.291	286.968
548.258	281.161
552.223	234.945
556.186	198.291
560.147	271.186
564.106	183.641
568.063	135.639
572.018	117.169
575.97	168.242
579.921	258.868
583.87	259.05
587.817	378.801
591.761	118.121
595.704	106.93
599.645	105.208
603.583	22.489
607.52	44.004
611.455	133.688
615.387	64.555
619.318	185.691
623.247	366.264
627.173	552.029
631.098	442.898
635.02	372.609
638.941	502.603
642.859	735.232
646.776	1226.91
650.691	1886.8
654.603	2486.19
658.514	3151.26
662.422	4531.54
666.329	8804.97
670.233	18601.2
674.136	26007.3
678.036	17663.9
681.935	8326.78
685.832	4358.21
689.726	2809.49
693.619	1999.18
697.51	1238.77
701.398	1077.86
705.285	765.124
709.17	741.313
713.052	1665.98
716.933	920.958
720.812	395.33
724.689	428.539
728.564	491.791
732.437	775.496
736.308	1459.04
740.176	2002.23
744.043	1905.95
747.908	1887.53
751.771	1525.86
755.633	1004.6
759.492	512.299
763.349	349.543
767.204	268.194
771.057	215.806
774.909	196.733
778.758	29.204
782.605	21.674
786.451	23.915
790.294	5.92
794.136	37.647
797.976	138.997
801.813	39.735
805.649	110.195
809.483	120.792
813.315	31.859
817.144	137.179
820.972	44.413
824.798	15.747
828.623	67.896
832.445	49.644
836.265	86.546
840.083	73.223
843.9	139.317
847.714	95.252
851.527	81.016
855.337	396.654
859.146	442.124
862.953	407.503
866.757	322.833
870.56	218.053
874.361	393.127
878.16	358.215
881.958	313.175
885.753	437.993
889.546	302.692
893.338	377.263
897.127	541.763
900.915	616.21
904.7	830.615
908.484	665.018
912.266	689.327
916.046	743.691
919.824	867.469
923.6	1170.37
927.375	2112.53
931.147	2523.36
934.918	1921.49
938.686	1052.46
942.453	923.179
946.218	1070.97
949.981	1093.74
953.742	756.084
957.501	464.241
961.258	278.928
965.014	314.189
968.767	250.936
972.519	139.199
976.269	187.68
980.017	162.236
983.762	143.812
987.507	294.943
991.249	246.949
994.989	474.148
998.728	517.014
1002.46	1108.42
1006.2	691.615
1009.93	748.588
1013.66	1299.64
1017.39	1747.09
1021.12	2770.19
1024.85	4554.13
1028.57	6107.7
1032.29	4829.37
1036.01	2602.8
1039.73	1695.6
1043.44	1617.14
1047.16	1837.29
1050.87	2334.77
1054.58	3334.04
1058.29	4024.72
1062	3800.15
1065.7	3742.25
1069.4	3451.35
1073.11	2592.84
1076.81	1850.88
1080.5	2479.4
1084.2	11188.7
1087.89	11614
1091.59	2188.22
1095.28	1071.66
1098.96	655.922
1102.65	419.502
1106.34	603.391
1110.02	256.42
1113.7	248.963
1117.38	301.115
1121.06	371.682
1124.73	471.254
1128.41	280.65
1132.08	39.498
1135.75	88.703
1139.42	246.885
1143.08	196.543
1146.75	116.326
1150.41	84.125
1154.07	169.812
1157.73	89.051
1161.39	34.68
1165.05	38.246
1168.7	22.76
1172.35	35.203
1176	206.674
1179.65	87.92
1183.3	123.982
1186.94	254.418
1190.58	114.326
1194.22	25.879
1197.86	32.92
1201.5	280.395
1205.14	246.383
1208.77	181.602
1212.4	315.377
1216.03	315.205
1219.66	157.301
1223.29	228.684
1226.91	39.371
1230.54	348.643
1234.16	317.385
1237.78	483.545
1241.4	408.332
1245.01	371.729
1248.63	463.688
1252.24	254.412
1255.85	253.75
1259.46	403.414
1263.07	562.594
1266.67	526.598
1270.28	759.264
1273.88	563.209
1277.48	451.734
1281.08	477.055
1284.67	323.172
1288.27	72.527
1291.86	361.637
1295.45	347.271
1299.04	204.771
1302.63	379.656
1306.22	476.223
1309.8	261.9
1313.38	198.406
1316.96	260.736
1320.54	247.705
1324.12	19.244
1327.69	290.152
1331.27	301.309
1334.84	374.07
1338.41	526.535
1341.98	316.678
1345.55	426.98
1349.11	255.717
1352.67	397.299
1356.23	202.678
1359.8	412.268
1363.35	261.369
1366.91	186.959
1370.46	482.561
1374.02	466.463
1377.57	550.387
1381.12	566.852
1384.66	234.301
1388.21	126.977
1391.75	94.324
1395.3	1.477
