Measurement: Raman, 514 nm, ccw, Raman Data Processed
Mineral: Actinolite
Rruff sample: R050336
Ideal chemistry: Ca_2_(Mg_4.5-2.5_Fe^2+^_0.5-2.5_)_=5_Si_8_O_22_(OH)_2_
Locality: Kragerø, Norway
Source: California Institute of Technology
Description: Dark green prismatic fragment
Measured chemistry: ([box]_0.62_Na_0.34_K_0.04_)(Ca_1.60_Na_0.40_)_Σ=2_(Mg_3.90_Fe^2+^_0.70_Al_0.20_Ti_0.10_Fe^3+^_0.10_)_Σ=5_(Si_7.52_Al_0.48_)_Σ=8_O_22_((OH)_0.97_F_0.03_)_2_
Pin_id: M00343
Orientation: Laser parallel to -a* (-1 0 0). Fiducial mark perpendicular to laser is parallel to b [0 1 0]
Raman shift (cm-1)	intensity
149.732	0
154.644	20.1328
159.554	394.596
164.461	1753.91
169.366	3682.48
174.269	5868.86
179.168	6919.33
184.066	4585.56
188.961	2944.93
193.853	2108.2
198.743	1688.29
203.631	1618.62
208.516	2217.34
213.398	4521.53
218.278	6320.57
223.156	7680.19
228.031	6989.56
232.903	5681.98
237.773	3658.7
242.641	2394.65
247.506	1802.12
252.368	1297.86
257.228	649.144
262.086	111.016
266.941	343.181
271.793	456.301
276.643	158.668
281.491	264.587
286.336	670.385
291.178	1190.38
296.018	1030.85
300.856	894.203
305.691	462.512
310.523	588.533
315.353	643.948
320.181	930.473
325.006	1719.04
329.828	2111.72
334.648	2255.24
339.465	1628.52
344.28	1328.11
349.093	1239.21
353.903	1773.48
358.71	3156.42
363.515	5401.11
368.317	7045.42
373.117	6674.3
377.914	6476.68
382.709	7511.47
387.501	9478.58
392.291	10233.9
397.078	7700.49
401.863	4812.18
406.645	4266.68
411.425	4641.47
416.202	4535.58
420.977	3585.92
425.749	2729.55
430.518	2223.98
435.285	1564.69
440.05	978.691
444.812	525.888
449.571	186.068
454.328	8.27051
459.083	202.652
463.835	199.849
468.584	110.81
473.331	73.4746
478.075	300.797
482.817	355.754
487.556	594.925
492.293	614.536
497.027	1032.6
501.758	1595.2
506.488	2199.44
511.214	2614.29
515.938	3073.75
520.66	3523.79
525.379	4241.39
530.095	4797.55
534.809	5334.25
539.52	5289.48
544.229	4960.23
548.935	4933.49
553.639	4835.22
558.34	4993.41
563.039	4963
567.735	4836.07
572.428	3927.52
577.119	2852.24
581.808	1718.14
586.494	598.991
591.177	5.625
595.858	274.496
600.536	260.616
605.212	265.088
609.885	69.6973
614.556	219.091
619.224	576.667
623.889	1349.18
628.552	1433.15
633.213	1779.59
637.871	2660.52
642.526	3919.95
647.179	5403.88
651.829	7946.33
656.477	12659.3
661.122	21784.8
665.764	38081.9
670.404	51123.5
675.042	46082.7
679.677	27143.5
684.309	16176.9
688.939	11881.9
693.566	10143.6
698.191	10114
702.813	10359.6
707.432	11382.8
712.049	12630.6
716.664	13963.4
721.276	15275.6
725.885	15967.4
730.492	16081
735.096	15645.7
739.697	14372.4
744.297	12749.1
748.893	10807.1
753.487	8769.28
758.078	7147.51
762.667	6044.22
767.253	5087.2
771.837	4307.25
776.418	4009.42
780.997	3775.35
785.573	3382.17
790.146	3036.81
794.717	2864.66
799.285	2615.75
803.851	2136.09
808.414	1736.72
812.975	1382.65
817.533	1062.91
822.088	743.515
826.641	685.493
831.192	406.86
835.739	225.635
840.284	65.4268
844.827	280.281
849.367	219.505
853.904	178.885
858.439	160.531
862.972	61.293
867.501	349.151
872.029	405.714
876.553	444.773
881.075	742.28
885.595	765.963
890.111	1191.71
894.626	1382.03
899.137	1287.81
903.647	1345.67
908.153	1336.74
912.657	1561.99
917.158	1797.17
921.657	2238.3
926.154	2665.34
930.647	2404.29
935.138	1793.26
939.627	1378.24
944.113	1203.04
948.596	1125.61
953.077	1059.14
957.555	853.487
962.031	1176.54
966.504	1242.26
970.974	1187.65
975.442	1117.19
979.907	1056.12
984.37	1085.33
988.83	1110.57
993.288	940.739
997.742	1343.97
1002.2	1744.2
1006.64	2011.33
1011.09	2346.16
1015.54	2744.63
1019.98	2943.95
1024.42	3539.58
1028.86	3905.39
1033.29	3815.58
1037.72	3325.45
1042.15	3133.29
1046.58	3006.41
1051	3731.04
1055.42	3985.68
1059.84	4889.82
1064.26	4810.1
1068.67	3963.15
1073.08	3314.08
1077.49	2663.15
1081.89	2267.06
1086.3	2018.5
1090.7	1454.85
1095.1	1436.25
1099.49	1302.76
1103.88	1097.73
1108.28	1058.87
1112.66	851.424
1117.05	776.868
1121.43	491.082
1125.81	416.594
1130.19	419.774
1134.56	412.893
1138.93	228.873
1143.3	176.623
1147.67	105.595
1152.04	76.5225
1156.4	21.916
1160.76	13.7949
1165.11	50.6318
1169.47	44.6816
1173.82	177.393
1178.17	75.4111
1182.51	39.498
1186.86	10.6113
1191.2	2.51074
1195.54	143.759
1199.87	118.96
1204.2	18.0801
1208.54	102.228
1212.86	106.433
1217.19	246.292
1221.51	137.259
1225.83	153.764
1230.15	141.484
1234.46	161.529
1238.78	363.261
1243.09	324.03
1247.39	236.777
1251.7	190.269
1256	203.102
1260.3	298.298
1264.6	352.226
1268.89	251.138
1273.18	286.804
1277.47	386.447
1281.76	298.143
1286.04	240.16
1290.32	479.325
1294.6	422.348
1298.88	297.121
1303.15	414.083
1307.42	349.334
1311.69	144.635
1315.96	267.82
1320.22	309.584
1324.48	107.322
1328.74	269.97
1332.99	114.172
1337.24	227.45
1341.49	117.315
1345.74	218.24
1349.99	77.3936
1354.23	67.6172
1358.47	105.279
1362.71	150.363
1366.94	116.476
1371.17	15.7295
1375.4	169.603
1379.63	136.601
1383.85	122.954
1388.07	13.2627
1392.29	76.1328
1396.51	134.749
1400.72	122.695
1404.93	104.843
1409.14	243.425
1413.35	131.398
1417.55	11.4346
1421.75	253.94
1425.95	272.199
1430.14	223.115
1434.34	127.482
1438.53	325.762
1442.71	296.318
1446.9	301.079
1451.08	360.626
1455.26	274.917
1459.44	453.221
1463.61	226.243
1467.78	315.247
1471.95	150.759
1476.12	230.276
1480.28	368.9
1484.45	336.493
1488.61	225.807
1492.76	207.849
1496.91	214.655
1501.07	182.122
1505.21	80.2451
1509.36	230.211
1513.5	221.246
1517.64	53.5664
1521.78	108.441
1525.92	221.152
1530.05	213.247
1534.18	127.748
1538.31	17.7236
1542.43	208.698
1546.56	25.2734
