Measurement: Raman, 514 nm, ccw, Raman Data Processed
Mineral: Actinolite
Rruff sample: R060045
Ideal chemistry: Ca_2_(Mg_4.5-2.5_Fe^2+^_0.5-2.5_)_=5_Si_8_O_22_(OH)_2_
Locality: Colorado, USA
Source: University of Arizona Mineral Museum
Description: Green prismatic crystals in a radial arrangement
Measured chemistry: (Ca_1.99_Na_0.01_)_Σ=2_(Mg_4.20_Fe^2+^_0.59_Al_0.09_Fe^3+^_0.08_Mn_0.02_Ti_0.01_)_Σ=5_(Si_7.82_Al_0.18_)_Σ=8_O_22_(OH)_2_
Pin_id: M00340
Orientation: Laser parallel to -a* (-1 0 0). Fiducial mark perpendicular to laser is parallel to -b [0 -1 0]
Raman shift (cm-1)	intensity
134.127	0
139.043	356.807
143.956	274.538
148.867	2815.79
153.775	2318.81
158.681	1092.63
163.585	1309.23
168.486	3826.02
173.385	2566.39
178.282	1364.66
183.176	544.036
188.067	199.492
192.956	543.753
197.843	1025.37
202.727	2004.28
207.609	4108.55
212.489	9151.94
217.366	10576.6
222.24	13924.4
227.112	11645.9
231.982	7326.18
236.849	5362.06
241.714	4761.73
246.577	3685.74
251.437	2413.05
256.294	1458.6
261.149	845.367
266.002	281.31
270.852	76.5977
275.7	156.406
280.545	18.6562
285.388	112.209
290.229	153.797
295.067	649.51
299.902	424.994
304.735	459.092
309.566	247.019
314.394	6.34961
319.22	38.3789
324.043	25.3867
328.864	399.685
333.682	523.424
338.498	1158.26
343.311	1867.85
348.122	1887.14
352.931	2046.43
357.737	3559.97
362.54	5161.34
367.341	4330.78
372.14	3341.25
376.936	3298.7
381.73	5588.09
386.521	7346.42
391.31	5301.63
396.096	3569.73
400.88	3510.68
405.661	4855.5
410.44	4687.15
415.216	3110.12
419.99	1986.57
424.761	1518.58
429.53	2469.11
434.297	1616.29
439.061	601.426
443.822	20.0273
448.581	28.5762
453.337	15.8477
458.091	101.029
462.843	150.375
467.592	5.05078
472.338	72.4004
477.082	153.26
481.824	36.5352
486.563	49.9863
491.3	204.537
496.034	118.404
500.765	328.906
505.494	1033.21
510.221	1780.36
514.945	2286.51
519.666	2698.43
524.385	2617.43
529.102	1790.19
533.816	1225.81
538.527	804.227
543.236	492.215
547.943	325.809
552.647	227.188
557.348	160.182
562.047	299.842
566.744	393.18
571.438	439.039
576.129	290.518
580.818	275.262
585.504	379.994
590.188	22.5254
594.87	71.4746
599.549	12.7715
604.225	38.9375
608.899	245.65
613.57	401.033
618.239	947.287
622.905	841.262
627.569	599.598
632.23	752.672
636.889	1350.56
641.545	1985.68
646.198	2612.69
650.849	3783.51
655.498	5931.28
660.144	12405
664.787	25233.8
669.428	26992.8
674.067	16646.2
678.703	8267.16
683.336	4181.44
687.967	2425.68
692.595	1437.15
697.221	1008.59
701.844	525.889
706.465	401.701
711.083	239.668
715.698	403.498
720.311	171.873
724.922	242.205
729.53	262.031
734.135	667.68
738.738	747.324
743.338	1112.73
747.936	963.924
752.531	573.551
757.124	307.961
761.714	87.1543
766.302	234.303
770.887	43.3457
775.469	10.0781
780.049	122.402
784.626	43.1055
789.201	65.0488
793.773	122.887
798.343	121.838
802.91	101.285
807.475	115.012
812.037	38.7598
816.596	215.619
821.153	21.6738
825.707	217.738
830.259	210.537
834.808	231.711
839.355	376.799
843.899	534.814
848.441	590.711
852.98	862.596
857.516	817.324
862.05	736.949
866.581	574.891
871.11	605.945
875.636	336.262
880.159	351.826
884.68	649.76
889.199	596.988
893.714	755.424
898.228	790.549
902.738	867.119
907.246	921.934
911.752	1012.21
916.255	1595.1
920.755	2682.47
925.253	3671.22
929.748	3340.49
934.241	2091.56
938.731	1558.56
943.218	1555.92
947.703	1191.97
952.186	883.019
956.665	714.326
961.142	429.615
965.617	470.83
970.089	349.898
974.558	358.447
979.025	400.779
983.489	579.469
987.951	494.512
992.41	860.93
996.866	1553.72
1001.32	1807.88
1005.77	1871.52
1010.22	2341.51
1014.67	3036
1019.11	5131.11
1023.55	7661.92
1027.99	7319
1032.42	4501.18
1036.86	2589.07
1041.29	2439.34
1045.72	3220.39
1050.14	4692.69
1054.56	6025.31
1058.98	5222.08
1063.4	4852.79
1067.82	3488.05
1072.23	2002.2
1076.64	1312.13
1081.05	1088.47
1085.45	867.447
1089.85	679.727
1094.25	464.522
1098.65	216.512
1103.04	430.707
1107.43	385.059
1111.82	356.562
1116.21	555.203
1120.59	496.984
1124.97	262.891
1129.35	297.914
1133.73	7.9375
1138.1	288.246
1142.47	32.5156
1146.84	5.48047
1151.21	127.508
1155.57	163.059
1159.93	107.398
1164.29	266.867
1168.64	103.168
1172.99	209.438
1177.34	71.543
1181.69	97.1016
1186.04	111.746
1190.38	113.078
1194.72	32.5977
1199.05	186.691
1203.39	38.125
1207.72	82.6797
1212.05	193.469
1216.37	97.3633
1220.7	469.148
1225.02	340.652
1229.34	118.769
1233.65	312.543
1237.97	662.617
1242.28	520.629
1246.59	539.555
1250.89	280.41
1255.19	268.242
1259.49	426.086
1263.79	622.699
1268.09	567.504
1272.38	576.043
1276.67	686.359
1280.95	373.977
1285.24	572.559
1289.52	586.074
1293.8	632.375
1298.08	771.746
1302.35	367.07
1306.62	532.953
1310.89	641.949
1315.15	882.074
1319.42	862.648
1323.68	554.879
1327.94	362.156
1332.19	360.406
1336.44	211.082
1340.69	156.535
1344.94	108.992
1349.19	256.414
1353.43	267.731
1357.67	377.266
1361.9	288.848
1366.14	336.527
1370.37	391.074
1374.6	430.617
1378.83	368.246
1383.05	423.555
1387.27	86.6406
1391.49	491.594
1395.7	247.047
1399.92	358.387
1404.13	334.898
1408.34	53.4609
1412.54	20.1289
1416.74	289.18
1420.94	30.7422
1425.14	263.742
1429.34	347.082
1433.53	379.656
1437.72	714.523
1441.9	994.496
1446.09	1279.47
1450.27	1620.44
1454.45	1488.49
1458.63	1400.7
1462.8	1188.19
1466.97	1001.3
1471.14	658.613
1475.31	779.269
1479.47	671.051
1483.63	457.547
1487.79	317.793
1491.94	422.414
1496.09	189.121
1500.24	283.68
1504.39	20.2422
1508.54	153.137
1512.68	202.363
1516.82	16.9766
1520.95	108.094
1525.09	243.559
1529.22	468.445
1533.35	358.394
1537.47	432.516
1541.6	11.3047
1545.72	58.2148
1549.83	153.34
1553.95	367.328
1558.06	497.203
1562.17	112.531
1566.28	378.316
1570.38	0
