Measurement: Raman, 514 nm, ccw, Raman Data Processed
Mineral: Actinolite
Rruff sample: R050336
Ideal chemistry: Ca_2_(Mg_4.5-2.5_Fe^2+^_0.5-2.5_)_=5_Si_8_O_22_(OH)_2_
Locality: Kragerø, Norway
Source: California Institute of Technology
Description: Dark green prismatic fragment
Measured chemistry: ([box]_0.62_Na_0.34_K_0.04_)(Ca_1.60_Na_0.40_)_Σ=2_(Mg_3.90_Fe^2+^_0.70_Al_0.20_Ti_0.10_Fe^3+^_0.10_)_Σ=5_(Si_7.52_Al_0.48_)_Σ=8_O_22_((OH)_0.97_F_0.03_)_2_
Pin_id: M00343
Orientation: Laser parallel to -a* (-1 0 0). Fiducial mark perpendicular to laser is parallel to b [0 1 0]
Raman shift (cm-1)	intensity
146.046	0
150.96	364.33
155.872	1098.01
160.781	1725.64
165.688	1880.33
170.592	2026.69
175.494	3328.03
180.393	3304.94
185.29	2495.69
190.184	1912.48
195.076	1282.21
199.965	1559.75
204.852	1547.92
209.736	2410.84
214.618	3925.79
219.498	5527.88
224.375	6501.64
229.249	6591.64
234.121	4892.95
238.99	3113.43
243.857	1984.05
248.721	1427.43
253.583	992.931
258.443	546.291
263.3	173.869
268.154	355.298
273.006	399.503
277.855	269.117
282.702	4.33887
287.547	196.489
292.388	482.901
297.228	696.715
302.065	768.933
306.899	705.102
311.731	606
316.56	730.771
321.387	946.116
326.211	1288.14
331.033	1565.21
335.853	1442.27
340.669	1307.32
345.484	1419.7
350.295	1262.73
355.105	1514.37
359.911	2204.81
364.716	3617.61
369.517	4521.89
374.317	3940.59
379.113	3671.65
383.907	4264.99
388.699	5864.56
393.488	5816.3
398.275	3846.16
403.059	2685.12
407.84	2780.16
412.619	3508.68
417.396	3207.95
422.17	2444.68
426.941	1809.35
431.71	1372.58
436.477	972.665
441.241	666.454
446.002	316.994
450.761	115.679
455.517	10.4062
460.271	104.198
465.022	118.101
469.771	98.3359
474.517	210.94
479.261	264.273
484.002	525.244
488.74	652.957
493.476	1002.8
498.21	1376.14
502.941	2013.07
507.669	2977.62
512.395	3671.79
517.119	3763.53
521.84	3558.86
526.558	3746.74
531.274	3710.15
535.987	3627.1
540.698	3526.56
545.406	3338.52
550.111	3419.98
554.814	3175.26
559.515	3385.65
564.213	3447.26
568.908	3080.46
573.601	2549.78
578.292	2046.12
582.979	1083.42
587.665	506.444
592.347	59.877
597.028	162.622
601.705	234.384
606.38	126.028
611.053	6.63086
615.723	31.0469
620.39	208.995
625.055	373.006
629.718	602.363
634.377	1027.12
639.035	1709.27
643.689	2130.83
648.341	3230.81
652.991	4718.21
657.638	7420.03
662.283	12719.3
666.924	22365
671.564	29841.1
676.201	23554.8
680.835	13335.8
685.467	8006.4
690.096	6067.46
694.722	5249.02
699.346	5147.77
703.968	5289.92
708.587	5824.44
713.203	6734.55
717.817	7346.26
722.428	8105.03
727.037	8755.8
731.643	9045.28
736.246	9240.52
740.847	8658.29
745.446	7551.6
750.042	6298.46
754.635	5090.52
759.226	4048.84
763.814	3464.54
768.4	2888.22
772.983	2756.81
777.563	2358.32
782.141	2415.78
786.716	2294.21
791.289	2190.64
795.859	2003.09
800.427	1715.58
804.992	1455.13
809.555	949.787
814.115	886.557
818.672	651.465
823.227	474.533
827.779	156.784
832.329	119.235
836.876	10.1104
841.42	34.5273
845.962	133.64
850.502	172.402
855.038	194.632
859.573	65.3389
864.104	20.6416
868.633	206.381
873.16	97.584
877.684	508.654
882.205	650.527
886.724	946.944
891.24	1121.6
895.754	1215.14
900.265	1457.29
904.773	1154.16
909.279	1596.93
913.783	1531.45
918.283	1806.58
922.782	2118.39
927.277	2412.04
931.77	2148.4
936.261	1696.71
940.749	1279.92
945.234	1413.84
949.716	1437.49
954.197	1385.81
958.674	1212.89
963.149	1438.56
967.621	1495.81
972.091	1528.08
976.558	1331.96
981.023	1337.71
985.485	1298.74
989.945	1310.13
994.401	1569.74
998.856	1628.61
1003.31	2138.79
1007.76	2569.2
1012.2	2747.03
1016.65	3022.02
1021.09	3281.57
1025.53	3751.75
1029.96	4001.45
1034.4	3763.25
1038.83	3502.37
1043.26	3294.13
1047.68	3312.8
1052.11	3653.47
1056.53	3988.43
1060.94	4194
1065.36	4164
1069.77	3299.55
1074.18	2743.9
1078.59	2221.86
1083	2151.93
1087.4	1783.2
1091.8	1406.24
1096.2	1255.75
1100.59	1122.17
1104.98	1149.15
1109.37	955.902
1113.76	852.319
1118.14	775.498
1122.53	562.86
1126.9	560.615
1131.28	458.247
1135.66	319.603
1140.03	313.717
1144.4	199.56
1148.76	149.2
1153.13	38.501
1157.49	42.1826
1161.85	43.8935
1166.2	164.842
1170.56	148.231
1174.9	60.5068
1179.25	80.1709
1183.6	11.5508
1187.94	76.2852
1192.28	31.5137
1196.62	117.497
1200.95	66.9121
1205.29	50.0664
1209.62	103.678
1213.94	101.655
1218.27	4.08691
1222.59	257.44
1226.91	35.417
1231.23	120.242
1235.54	180.441
1239.86	246.603
1244.16	154.763
1248.47	203.102
1252.77	276.3
1257.08	225.344
1261.37	236.037
1265.67	228.661
1269.96	387.55
1274.26	281.087
1278.54	78.6397
1282.83	126.472
1287.11	301.618
1291.39	303.577
1295.67	308.627
1299.95	179.334
1304.22	311.15
1308.49	183.359
1312.76	350.797
1317.02	215.754
1321.28	223.857
1325.54	136.234
1329.8	248.567
1334.06	234.56
1338.31	174.372
1342.56	233.671
1346.8	260.796
1351.05	149.185
1355.29	179.394
1359.53	177.958
1363.77	71.3467
1368	175.755
1372.23	286.279
1376.46	172.709
1380.68	120.736
1384.91	161.435
1389.13	73.6992
1393.35	60.0049
1397.56	99.4365
1401.78	73.7861
1405.98	114.519
1410.19	183.592
1414.4	53.3516
1418.6	106.413
1422.8	207.19
1427	210.786
1431.19	190.847
1435.38	293.224
1439.57	268.071
1443.76	311.69
1447.94	236.216
1452.13	290.071
1456.31	401.837
1460.48	195.19
1464.66	413.479
1468.83	205.513
1473	228.425
1477.16	333.469
1481.33	253.599
1485.49	289.41
1489.64	210.042
1493.8	84.0322
1497.95	210.192
1502.1	10.3438
1506.25	20.1777
1510.4	176.676
1514.54	376.261
1518.68	39.669
1522.82	48.0127
1526.95	166.454
1531.08	40.1426
1535.21	210.935
1539.34	63.7978
1543.46	59.0068
