Measurement: Raman, 514 nm, ccw, Raman Data Processed
Mineral: Actinolite
Rruff sample: R040063
Ideal chemistry: Ca_2_(Mg_4.5-2.5_Fe^2+^_0.5-2.5_)_=5_Si_8_O_22_(OH)_2_
Locality: Harford County, Maryland, USA
Source: University of Arizona Mineral Museum
Description: Mass of green acicular to bladed crystals associated with chlorite
Measured chemistry: (Ca_1.90_Na_0.06_Mn_0.04_)_Σ=2_(Mg_4.35_Fe_0.65_)_Σ=5_(Si_7.92_Al_0.08_)_Σ=8_O_22_(OH)_2_
Pin_id: S00044
Orientation: Laser parallel to b* (0 1 0). Fiducial mark perpendicular to laser is parallel to c [0 0 1]
Raman shift (cm-1)	intensity
131.615	0
135.777	103.636
139.937	56.978
144.094	13.077
148.25	574.041
152.403	3455.52
156.555	9024.92
160.705	7412.16
164.853	2924.92
168.998	3275.13
173.142	7830.99
177.284	11628.2
181.424	6956.68
185.562	2656.28
189.698	1320.83
193.831	878.21
197.963	801.309
202.093	1046.05
206.221	1449.58
210.347	2957.11
214.472	5900.05
218.594	11214.7
222.714	12559.9
226.832	7455.46
230.948	3091.24
235.063	1282.33
239.175	607.614
243.286	488.101
247.394	737.784
251.501	694.644
255.605	487.626
259.708	393.722
263.808	218.921
267.907	62.215
272.004	80.399
276.099	12.915
280.192	83.358
284.283	97.256
288.372	355.673
292.459	759.828
296.544	1151.74
300.627	1684.55
304.709	1299.59
308.788	760.532
312.865	450.89
316.941	401.94
321.015	373.781
325.086	579.088
329.156	1010.47
333.224	1359.43
337.29	1638.59
341.354	1556.87
345.416	1495.29
349.476	1343.8
353.534	1144.39
357.591	1038.05
361.645	1005.79
365.698	1328.51
369.748	1606.62
373.797	1394.67
377.844	1061.77
381.889	1133.88
385.932	1979.01
389.973	3617.12
394.012	3425.24
398.049	1933.33
402.084	1171.41
406.118	1079.72
410.15	1317.75
414.179	1456.15
418.207	1044.47
422.233	597.405
426.257	282.271
430.279	183.781
434.299	439.729
438.318	377.353
442.334	72.245
446.349	33.593
450.361	62.238
454.372	21.376
458.381	49.235
462.388	62.408
466.394	12.825
470.397	14.688
474.398	86.082
478.398	59.339
482.396	130.537
486.391	50.787
490.385	72.052
494.377	66.341
498.368	116.647
502.356	174.957
506.342	310.222
510.327	355.464
514.31	380.656
518.291	345.76
522.27	340.762
526.247	665.72
530.222	740.601
534.196	663.053
538.167	530.081
542.137	384.667
546.105	410.745
550.071	323.519
554.035	317.781
557.998	351.935
561.958	255.979
565.917	109.905
569.874	53.715
573.829	57.397
577.782	200.955
581.733	152.154
585.683	87.721
589.63	30.922
593.576	16.033
597.52	106.869
601.462	129.692
605.402	103.113
609.341	190.626
613.277	326.625
617.212	274.696
621.145	404.381
625.076	654.354
629.006	640.658
632.933	839.512
636.859	1161.03
640.783	1560.66
644.705	2143.8
648.625	3495.83
652.543	4170.22
656.46	5532.1
660.375	8107.05
664.288	15108.4
668.199	30028.9
672.108	39340.3
676.016	26142.1
679.921	12367.1
683.825	6428.96
687.727	3991.58
691.628	2712.26
695.526	1812.85
699.423	1313.34
703.318	913.739
707.211	564.046
711.102	634.264
714.992	514.395
718.879	284.439
722.765	364.146
726.649	273.636
730.532	353.104
734.412	392.801
738.291	242.451
742.168	472.025
746.043	472.095
749.916	521.748
753.788	466.847
757.658	305.81
761.526	145.185
765.392	184.724
769.257	144.461
773.119	104.342
776.98	14.332
780.839	105.663
784.697	74.159
788.552	5.995
792.406	93.807
796.258	143.498
800.108	17.097
803.957	187.908
807.804	79.083
811.649	19.544
815.492	18.039
819.333	143.533
823.173	34.662
827.011	17.155
830.847	91.004
834.681	109.137
838.514	42.812
842.345	165.193
846.174	173.218
850.001	41.268
853.827	369.347
857.651	407.461
861.473	555.608
865.293	303.797
869.112	232.039
872.928	330.38
876.744	268.883
880.557	137.471
884.369	476.122
888.178	234.855
891.987	403.657
895.793	522.584
899.598	681.674
903.401	850.979
907.202	750.489
911.001	1160.18
914.799	1330.1
918.595	1820.14
922.389	2678.85
926.182	4408.33
929.972	5058.67
933.761	3828.34
937.549	2208.86
941.334	1756.89
945.118	1597.06
948.9	1660.17
952.681	1198.52
956.459	1054.95
960.236	680.286
964.012	686.169
967.785	684.064
971.557	516.869
975.327	477.962
979.095	468.833
982.862	443.597
986.627	418.629
990.39	367.995
994.152	490.279
997.912	572.814
1001.67	855.564
1005.43	718.467
1009.18	621.541
1012.93	824.759
1016.68	1118.16
1020.43	1373.27
1024.18	1797.2
1027.93	1983.44
1031.67	1927.56
1035.42	1892.6
1039.16	2247.4
1042.9	3442.02
1046.63	5216.77
1050.37	8791.97
1054.11	13645.5
1057.84	15466.2
1061.57	10883.4
1065.3	6688.95
1069.03	4350.8
1072.75	2766.7
1076.47	1792.37
1080.2	1288.62
1083.92	984.858
1087.64	872.438
1091.36	668.471
1095.07	674.757
1098.79	621.071
1102.5	487.521
1106.21	624.796
1109.92	352.21
1113.62	259.319
1117.33	236.865
1121.04	224.208
1124.74	341.277
1128.44	298.354
1132.14	195.531
1135.83	103.02
1139.53	210.89
1143.22	234.547
1146.92	69.931
1150.61	120.401
1154.3	139.382
1157.98	69.194
1161.67	86.005
1165.35	113.518
1169.04	79.145
1172.72	21.217
1176.4	145.893
1180.07	202.359
1183.75	171.809
1187.42	162.961
1191.1	29.447
1194.77	28.381
1198.44	124.895
1202.1	43.303
1205.77	168.936
1209.43	205.18
1213.1	310.348
1216.76	283.975
1220.42	180.734
1224.07	166.502
1227.73	96.18
1231.38	123.379
1235.04	376.938
1238.69	141.031
1242.34	323.857
1245.99	295.982
1249.63	537.984
1253.28	189.473
1256.92	142.057
1260.56	234.086
1264.2	275.336
1267.84	246.672
1271.48	387.256
1275.11	347.08
1278.74	356.652
1282.38	226.295
1286.01	165.6
1289.63	155.732
1293.26	12.471
1296.89	160.051
1300.51	17.145
1304.13	493.771
1307.75	329.9
1311.37	305.557
1314.99	115.279
1318.6	173.215
1322.22	196.312
1325.83	0.375
1329.44	33.27
1333.05	96.139
1336.66	207.051
1340.26	101.086
1343.87	235
1347.47	86.135
1351.07	232.238
1354.67	231.412
1358.27	127.939
1361.86	22.857
1365.46	37.189
1369.05	18.295
1372.64	137.414
1376.23	216.354
1379.82	438.656
1383.41	374.229
1386.99	308.883
1390.57	222.873
1394.16	386.336
1397.74	30.461
1401.32	113.586
1404.89	164.352
1408.47	365.422
1412.04	340.656
1415.61	257.109
1419.18	304.279
1422.75	412.318
1426.32	348.365
1429.89	120.152
1433.45	100.369
1437.01	413.199
1440.58	380.889
1444.13	456.541
1447.69	730.555
1451.25	779.24
1454.81	1090.74
1458.36	1012.65
1461.91	918.59
1465.46	575.65
1469.01	544.482
1472.56	342.508
1476.1	309.586
1479.64	237.537
1483.19	227.199
1486.73	428.471
1490.27	459.842
1493.81	232.062
1497.34	575.506
1500.88	420.961
1504.41	438.6
1507.94	109.27
1511.47	27.723
1515	5.775
1518.53	0
