Measurement: Raman, 514 nm, ccw, Raman Data Processed
Mineral: Actinolite
Rruff sample: R060045
Ideal chemistry: Ca_2_(Mg_4.5-2.5_Fe^2+^_0.5-2.5_)_=5_Si_8_O_22_(OH)_2_
Locality: Colorado, USA
Source: University of Arizona Mineral Museum
Description: Green prismatic crystals in a radial arrangement
Measured chemistry: (Ca_1.99_Na_0.01_)_Σ=2_(Mg_4.20_Fe^2+^_0.59_Al_0.09_Fe^3+^_0.08_Mn_0.02_Ti_0.01_)_Σ=5_(Si_7.82_Al_0.18_)_Σ=8_O_22_(OH)_2_
Pin_id: M00122
Orientation: Laser parallel to (1 0 1). Fiducial mark perpendicular to laser is parallel to b [0 1 0]
Raman shift (cm-1)	intensity
125.519	0
130.439	92.6582
135.356	17.2852
140.271	243.617
145.184	256.24
150.094	529.734
155.002	1727.63
159.908	2329.9
164.811	1471.83
169.711	1846.3
174.61	4988.91
179.505	4662.39
184.399	1583.39
189.29	458.461
194.178	551.188
199.064	628.168
203.948	1036.01
208.829	1488.69
213.708	3285.31
218.585	7234.67
223.459	7603.48
228.33	4421.4
233.199	2581.32
238.066	1039.06
242.93	792.928
247.792	807.799
252.651	662.26
257.508	503.277
262.363	444.815
267.215	242.834
272.064	138.699
276.912	68.2871
281.756	30.1094
286.598	228.551
291.438	165.205
296.276	297.434
301.111	447.973
305.943	381.703
310.773	14.4707
315.601	145.246
320.426	56.7383
325.248	335.826
330.068	644.432
334.886	564.111
339.701	937.592
344.514	1349.6
349.324	1636.5
354.132	1603.05
358.938	1808.06
363.741	2609.33
368.541	2883.85
373.339	2066.58
378.135	1516.49
382.928	1120.56
387.718	1734.76
392.506	1734.06
397.292	948.461
402.075	697.936
406.856	559.473
411.634	1027.06
416.41	814.566
421.183	423.022
425.954	350.762
430.722	156.268
435.488	500.828
440.251	133.086
445.012	56.0332
449.77	19.7676
454.526	212.26
459.28	117.842
464.03	95.4766
468.779	83.1699
473.525	13.5254
478.268	103.234
483.009	116.064
487.747	45.5781
492.483	263.164
497.217	99.5527
501.948	318.514
506.676	461.209
511.402	999.945
516.125	948.826
520.846	947.66
525.565	1165.5
530.281	1215.33
534.994	1037.94
539.705	438.332
544.413	185.506
549.119	315.836
553.822	377.15
558.523	146.707
563.222	76.0547
567.917	166.076
572.611	172.125
577.302	146.131
581.99	174.137
586.676	101.781
591.359	272.873
596.04	34.3691
600.718	80.5625
605.394	223.137
610.067	140.734
614.737	342.227
619.406	504.178
624.071	293.719
628.734	425.838
633.395	462.609
638.053	730.762
642.708	1458.43
647.361	2120.24
652.012	2821.99
656.66	3499.29
661.305	5223.52
665.948	10277.1
670.588	17710.4
675.226	13198.8
679.861	6159.78
684.494	3192.05
689.124	2557.62
693.752	1546.73
698.377	917.383
702.999	765.824
707.619	580.656
712.237	299.531
716.852	246.039
721.464	506.004
726.074	230.543
730.681	333.504
735.286	732.016
739.888	600.203
744.488	580.938
749.085	384.551
753.68	322.848
758.272	90.2305
762.861	45.3711
767.448	51.6211
772.033	35.7344
776.614	48.3516
781.194	202.16
785.77	151.394
790.345	45.0195
794.916	117.648
799.485	50.3867
804.052	66.7461
808.616	223.305
813.177	184.535
817.736	50.6602
822.292	168.992
826.846	338.223
831.397	80.1055
835.945	7.5625
840.491	43.6016
845.035	233.231
849.576	329.574
854.114	231.734
858.65	168.973
863.183	49.3398
867.713	27.3008
872.241	85.1289
876.767	250.527
881.29	17.5273
885.81	221.199
890.328	364.254
894.843	33.3477
899.356	336.84
903.866	51.6992
908.373	442.023
912.878	456.566
917.38	565.219
921.88	1161.95
926.377	1445.91
930.872	1630.6
935.364	1080.75
939.853	561.18
944.34	1122.79
948.824	658.269
953.306	425.289
957.785	628.644
962.261	137.793
966.735	176.598
971.207	274.398
975.675	243.543
980.141	803.981
984.605	126.598
989.066	224.219
993.524	98.5312
997.98	438.477
1002.43	508.094
1006.88	527.32
1011.33	784.008
1015.78	1200
1020.22	1730.85
1024.66	2313.75
1029.1	2907.39
1033.53	1958.66
1037.97	1504.37
1042.4	1876.33
1046.82	2375.41
1051.25	4139.39
1055.67	6132.99
1060.09	5405.55
1064.51	3958.31
1068.92	2470.29
1073.33	1389.18
1077.74	807.473
1082.15	695.418
1086.55	581.719
1090.95	385.023
1095.35	437.543
1099.75	197.883
1104.14	219.375
1108.53	115.891
1112.92	207.434
1117.31	152.949
1121.69	221.445
1126.07	182.008
1130.45	42.3711
1134.82	331.816
1139.19	104.246
1143.57	297.668
1147.93	121.629
1152.3	292.121
1156.66	56.3867
1161.02	167.879
1165.38	99.6523
1169.73	228.125
1174.08	134.531
1178.43	163.883
1182.78	25.043
1187.12	181.246
1191.46	138
1195.8	203.176
1200.14	74.2734
1204.47	109.219
1208.8	160.883
1213.13	154.289
1217.46	242.559
1221.78	4.75
1226.1	260.805
1230.42	413.785
1234.73	153.688
1239.04	355.516
1243.35	130.297
1247.66	129.988
1251.97	374.609
1256.27	190.168
1260.57	248.668
1264.86	227.117
1269.16	111.043
1273.45	119
1277.74	341.297
1282.03	214.191
1286.31	185.793
1290.59	132.203
1294.87	375.633
1299.14	168.09
1303.42	164.285
1307.69	354.805
1311.95	453.387
1316.22	742.805
1320.48	373.535
1324.74	510.301
1329	452.106
1333.26	418.289
1337.51	326.199
1341.76	525.531
1346	119.586
1350.25	161.523
1354.49	478.773
1358.73	467.133
1362.96	522.586
1367.2	347.172
1371.43	360.684
1375.66	223.562
1379.88	464.586
1384.11	308.785
1388.33	438.168
1392.54	430.316
1396.76	271.086
1400.97	67.4688
1405.18	243.832
1409.39	72.8516
1413.59	299.871
1417.8	244.5
1421.99	107.621
1426.19	297.066
1430.38	332.582
1434.58	325.227
1438.77	305.394
1442.95	467.969
1447.13	649.301
1451.32	493.629
1455.49	547.387
1459.67	672.731
1463.84	621.402
1468.01	667.402
1472.18	522.766
1476.35	474.508
1480.51	286.609
1484.67	749.883
1488.83	437.742
1492.98	586.398
1497.13	156.086
1501.28	233.953
1505.43	485.422
1509.57	257.18
1513.71	466.598
1517.85	137.16
1521.99	277.981
1526.12	457.106
1530.25	271.371
1534.38	312.871
1538.5	420.809
1542.62	383.465
1546.74	160.832
1550.86	251.34
1554.98	490.004
1559.09	245.938
1563.2	116.82
1567.31	16.9492
