Measurement: Raman, 514 nm, ccw, Raman Data Processed
Mineral: Actinolite
Rruff sample: R060045
Ideal chemistry: Ca_2_(Mg_4.5-2.5_Fe^2+^_0.5-2.5_)_=5_Si_8_O_22_(OH)_2_
Locality: Colorado, USA
Source: University of Arizona Mineral Museum
Description: Green prismatic crystals in a radial arrangement
Measured chemistry: (Ca_1.99_Na_0.01_)_Σ=2_(Mg_4.20_Fe^2+^_0.59_Al_0.09_Fe^3+^_0.08_Mn_0.02_Ti_0.01_)_Σ=5_(Si_7.82_Al_0.18_)_Σ=8_O_22_(OH)_2_
Pin_id: M00311
Orientation: Laser parallel to c* (0 0 1). Fiducial mark perpendicular to laser is parallel to a [1 0 0]
Raman shift (cm-1)	intensity
134.127	0
139.043	184.383
143.956	51.5352
148.867	2788.52
153.775	3342.57
158.681	3197.31
163.585	2214.86
168.486	4327.24
173.385	4362
178.282	3413.15
183.176	1355.57
188.067	387.615
192.956	556.15
197.843	1281.15
202.727	2725.48
207.609	5383.13
212.489	11746.3
217.366	17430.9
222.24	22650.5
227.112	21459.7
231.982	16494.7
236.849	9810.66
241.714	7511.59
246.577	6347.25
251.437	4495.33
256.294	2308.74
261.149	1343.38
266.002	504.19
270.852	103.087
275.7	229.995
280.545	190.947
285.388	63.6836
290.229	285.231
295.067	631.185
299.902	792.135
304.735	677.334
309.566	325.148
314.394	267.303
319.22	58.6582
324.043	21.3379
328.864	392.356
333.682	785.552
338.498	1814.19
343.311	2878.72
348.122	3419.43
352.931	3647.02
357.737	5178.14
362.54	7439.82
367.341	7573.07
372.14	5961.85
376.936	5459.84
381.73	8061.24
386.521	10543
391.31	9538.2
396.096	6839.69
400.88	5750.49
405.661	7456.56
410.44	7973.88
415.216	6187.42
419.99	3817.77
424.761	2941.47
429.53	3761.95
434.297	3211.64
439.061	1788.91
443.822	498.453
448.581	165.606
453.337	50.248
458.091	105.798
462.843	54.2725
467.592	35.0391
472.338	38.0127
477.082	113.527
481.824	336.826
486.563	28.1387
491.3	219.623
496.034	383.153
500.765	909.445
505.494	1802.5
510.221	3017.44
514.945	4007.16
519.666	4626.9
524.385	4526.74
529.102	3706.31
533.816	2427.68
538.527	1554.93
543.236	1234.04
547.943	1193.89
552.647	947.513
557.348	831.705
562.047	827.53
566.744	952.295
571.438	861.865
576.129	933.955
580.818	587.475
585.504	436.408
590.188	94.7285
594.87	135.731
599.549	143.49
604.225	50.1562
608.899	9.85645
613.57	22.8213
618.239	265.37
622.905	198.113
627.569	491.062
632.23	995.767
636.889	1508.55
641.545	2129.65
646.198	3659.89
650.849	5301.51
655.498	8750.55
660.144	17209.2
664.787	34112.2
669.428	42180.2
674.067	31166.3
678.703	15303.9
683.336	7786.86
687.967	5103.18
692.595	3516.97
697.221	2449.48
701.844	1893.64
706.465	1324.63
711.083	1256.87
715.698	957.367
720.311	815.125
724.922	958.16
729.53	1046.17
734.135	1472.68
738.738	1948.44
743.338	2253.58
747.936	2087.82
752.531	1286.9
757.124	933.051
761.714	521.463
766.302	239.055
770.887	337.291
775.469	176.121
780.049	88.5781
784.626	42.4121
789.201	18.9395
793.773	82.2266
798.343	81.5195
802.91	43.668
807.475	63.4238
812.037	73.8066
816.596	168.857
821.153	45.6562
825.707	76.0137
830.259	131.221
834.808	17.7344
839.355	156.203
843.899	152.08
848.441	130.92
852.98	104.559
857.516	207.16
862.05	266.428
866.581	189.352
871.11	215.703
875.636	203.883
880.159	211.31
884.68	274.496
889.199	337.828
893.714	501.625
898.228	562.67
902.738	706.24
907.246	1030.92
911.752	1455.27
916.255	2247.86
920.755	3979.19
925.253	5571.57
929.748	5505.89
934.241	3432.42
938.731	2500.82
943.218	2644.32
947.703	2450.22
952.186	1690.05
956.665	1246.06
961.142	898.566
965.617	901.387
970.089	971.811
974.558	1135.15
979.025	1146.95
983.489	1215.24
987.951	1266.99
992.41	1447.22
996.866	1977.93
1001.32	2537.11
1005.77	3404.76
1010.22	4534.87
1014.67	5559.43
1019.11	8399.41
1023.55	12868.5
1027.99	13233.9
1032.42	8857.85
1036.86	5164.84
1041.29	4473.28
1045.72	5302.75
1050.14	7548.97
1054.56	9202.93
1058.98	8630.93
1063.4	7834.8
1067.82	6360.44
1072.23	3587.49
1076.64	2097.67
1081.05	1538.11
1085.45	930.902
1089.85	1020.16
1094.25	921.338
1098.65	790.939
1103.04	722.385
1107.43	597.869
1111.82	735.529
1116.21	740.357
1120.59	421.885
1124.97	588.467
1129.35	627.49
1133.73	254.342
1138.1	400.963
1142.47	342.572
1146.84	238.393
1151.21	165.852
1155.57	80.7891
1159.93	11.2246
1164.29	102.871
1168.64	213.723
1172.99	121.295
1177.34	7.43359
1181.69	140.76
1186.04	40.7266
1190.38	50.707
1194.72	187.32
1199.05	52.7168
1203.39	7.55078
1207.72	137.662
1212.05	9.75977
1216.37	101.314
1220.7	581.758
1225.02	175.397
1229.34	43.5527
1233.65	134.305
1237.97	372.676
1242.28	249.098
1246.59	197.756
1250.89	314.051
1255.19	235.861
1259.49	133.443
1263.79	510.123
1268.09	427.941
1272.38	145.516
1276.67	412.705
1280.95	389.551
1285.24	251.129
1289.52	182.994
1293.8	280.322
1298.08	321.981
1302.35	424.99
1306.62	435.529
1310.89	262.361
1315.15	377.264
1319.42	414.049
1323.68	195.096
1327.94	347.984
1332.19	320.609
1336.44	228.06
1340.69	337.947
1344.94	159.59
1349.19	216.168
1353.43	380.668
1357.67	179.75
1361.9	149.647
1366.14	97.6406
1370.37	112.295
1374.6	222.486
1378.83	16.9688
1383.05	299.25
1387.27	233.082
1391.49	173.658
1395.7	123.523
1399.92	326.022
1404.13	116.768
1408.34	240.478
1412.54	13.1543
1416.74	99.8477
1420.94	275.221
1425.14	286.844
1429.34	273.676
1433.53	281.699
1437.72	310.051
1441.9	127.949
1446.09	402.824
1450.27	388.654
1454.45	258.609
1458.63	165.033
1462.8	294.115
1466.97	194.695
1471.14	195.275
1475.31	96.7656
1479.47	434.443
1483.63	134.717
1487.79	115.547
1491.94	297.65
1496.09	52.0039
1500.24	151.176
1504.39	149.369
1508.54	233.658
1512.68	51.7344
1516.82	293
1520.95	330.705
1525.09	344.19
1529.22	134.096
1533.35	229.139
1537.47	62.2617
1541.6	64.1348
1545.72	269.867
1549.83	424.969
1553.95	383.023
1558.06	314.15
1562.17	190.74
1566.28	426.172
1570.38	0
