Measurement: Raman, 514 nm, ccw, Raman Data Processed
Mineral: Actinolite
Rruff sample: R040064
Ideal chemistry: Ca_2_(Mg_4.5-2.5_Fe^2+^_0.5-2.5_)_=5_Si_8_O_22_(OH)_2_
Locality: Ehime Perfecture, Uma Gun, Japan
Source: University of Arizona Mineral Museum
Description: Aggregate of green acicular crystals associated with chlorite
Measured chemistry: (Ca_0.95_Na_0.04_Mn_0.01_)_2_(Mg_0.88_Fe_0.12_)_5_(Si_0.98_Al_0.02_)_8_O_22_(OH)_2_
Pin_id: M00405
Orientation: Laser parallel to a [1 0 0]. Fiducial mark perpendicular to laser is parallel to b* (0 1 0)
Raman shift (cm-1)	intensity
106.423	0
110.603	1723.61
114.78	3446.43
118.956	6893.39
123.129	6137.42
127.3	2705.16
131.469	1014.24
135.636	292.772
139.801	130.749
143.964	86.231
148.125	188.13
152.284	24.809
156.441	897.72
160.596	751.52
164.749	130.077
168.9	549.561
173.049	2499.08
177.195	5330.66
181.34	3402.29
185.483	1065.98
189.624	397.798
193.762	256.772
197.899	46.361
202.034	84.75
206.166	215.351
210.297	758.197
214.425	1497.3
218.552	3304.75
222.676	4284.58
226.799	3562.19
230.919	2885.9
235.038	1784.9
239.154	725.968
243.269	629.093
247.381	1116.26
251.492	1014.46
255.6	514.685
259.707	247.924
263.811	157.175
267.914	48.58
272.014	127.574
276.113	93.44
280.209	43.65
284.304	249.98
288.396	743.295
292.487	581.713
296.575	466.528
300.662	607.496
304.746	569.715
308.829	421.904
312.909	157.232
316.988	107.996
321.065	164.561
325.139	393.891
329.212	988.176
333.283	1274.62
337.351	818.557
341.418	811.867
345.483	863.399
349.546	803.692
353.606	843.289
357.665	854.715
361.722	1399.48
365.777	3411.4
369.83	4402.44
373.881	2793.44
377.93	1754.4
381.977	1915.32
386.023	3296.2
390.066	6617.02
394.107	7557.79
398.146	4328.5
402.184	2149.13
406.219	1739.7
410.252	2410.42
414.284	3191
418.313	2511.34
422.341	1441.61
426.367	698.802
430.39	361.195
434.412	465.164
438.432	309.34
442.45	31.369
446.466	22.076
450.48	90.332
454.492	48.077
458.502	19.677
462.51	0.814
466.517	18.725
470.521	108.441
474.523	36.215
478.524	142.084
482.523	300.924
486.519	382.816
490.514	104.779
494.507	18.643
498.498	1.376
502.487	38.137
506.474	40.192
510.459	248.375
514.442	305.452
518.424	92.488
522.403	36.454
526.381	216.329
530.356	243.105
534.33	159.817
538.302	406.46
542.272	233.124
546.24	189.725
550.206	266.229
554.17	192.637
558.132	228.946
562.093	135.16
566.051	231.275
570.008	57.289
573.963	213.201
577.915	279.016
581.866	324.734
585.815	340.357
589.763	55.951
593.708	81.604
597.651	32.554
601.593	37.004
605.532	35.427
609.47	22.396
613.406	0.605
617.34	101.21
621.272	272.918
625.202	212.853
629.131	287.073
633.057	278.342
636.982	558.154
640.905	604.242
644.825	925.078
648.744	1462.37
652.662	1996.7
656.577	3261.06
660.49	5096.69
664.402	10089.4
668.312	22615.6
672.219	37272.2
676.125	27200.7
680.03	12306.8
683.932	6000.25
687.832	3427.01
691.731	2241.29
695.628	1631.84
699.522	1263.2
703.415	997.481
707.307	671.495
711.196	745.442
715.083	679.323
718.969	463.142
722.853	416.896
726.735	450.221
730.615	653.863
734.493	727.45
738.37	780.983
742.244	1144.47
746.117	1357.76
749.988	1638.61
753.857	1309.21
757.724	749.469
761.59	502.062
765.453	354.933
769.315	367.858
773.175	320.466
777.033	264.032
780.889	67.626
784.744	171.216
788.596	14.809
792.447	118.342
796.296	361.661
800.143	204.566
803.989	57.179
807.832	0.256
811.674	2.271
815.514	284.772
819.352	12.866
823.189	39.674
827.023	58.065
830.856	4.036
834.687	96.117
838.516	38.168
842.343	220.182
846.169	22.136
849.992	116.033
853.814	5.554
857.634	177.134
861.453	98.731
865.269	50.377
869.084	172.063
872.897	203.825
876.708	135.627
880.517	147.445
884.325	339.283
888.13	51.157
891.934	263.072
895.737	225.015
899.537	296.991
903.336	489.066
907.132	311.189
910.928	524.06
914.721	515.629
918.512	587.916
922.302	960.234
926.09	1942.59
929.876	2685.02
933.66	2317.49
937.443	1159.98
941.224	602.224
945.003	629.799
948.78	711.351
952.556	608.181
956.33	348.505
960.102	380.454
963.872	162.628
967.64	195.406
971.407	137.492
975.172	20.056
978.935	227.396
982.697	11.538
986.456	113.192
990.214	86.147
993.971	217.033
997.725	109.995
1001.48	540.472
1005.23	354.065
1008.98	328.063
1012.73	655.912
1016.47	752.145
1020.22	1089.87
1023.96	2009.23
1027.7	3134.01
1031.44	2678.86
1035.17	1554.81
1038.91	791.271
1042.64	876.121
1046.37	951.408
1050.1	1508.97
1053.83	2075.96
1057.56	2771.71
1061.28	2656.54
1065.01	2502.02
1068.73	2917.01
1072.45	2171.56
1076.16	1328.7
1079.88	987.211
1083.6	811.714
1087.31	615.612
1091.02	399.574
1094.73	354.122
1098.44	438.499
1102.14	452.893
1105.85	632.432
1109.55	167.062
1113.25	100.778
1116.95	4.871
1120.65	130.186
1124.34	283.936
1128.04	208.085
1131.73	153.056
1135.42	106.844
1139.11	104.375
1142.79	211.973
1146.48	126.871
1150.16	228.784
1153.84	198.069
1157.52	136.777
1161.2	55.904
1164.88	78.319
1168.56	69.546
1172.23	33.043
1175.9	104.232
1179.57	104.389
1183.24	109.397
1186.9	361.182
1190.57	5.803
1194.23	110.505
1197.89	19.521
1201.55	69.068
1205.21	257.467
1208.87	310
1212.52	413.689
1216.18	433.152
1219.83	370.107
1223.48	347.619
1227.13	229.631
1230.77	216.652
1234.42	235.609
1238.06	210.197
1241.7	289.273
1245.34	433.162
1248.98	547.689
1252.62	320.615
1256.25	374.145
1259.88	336.379
1263.51	258.99
1267.14	190.771
1270.77	411.748
1274.4	321.789
1278.02	359.91
1281.65	442.758
1285.27	341.668
1288.89	69.693
1292.51	72.797
1296.12	154.123
1299.74	20.082
1303.35	85.057
1306.96	325.281
1310.57	436.975
1314.18	242.645
1317.79	213.984
1321.39	535.881
1324.99	13.117
1328.59	146.277
1332.19	34.83
1335.79	262.688
1339.39	211.262
1342.98	454.586
1346.58	321.412
1350.17	298.084
1353.76	294.359
1357.35	19.447
1360.93	134.561
1364.52	111.635
1368.1	14.801
1371.68	244.988
1375.26	408.475
1378.84	641.979
1382.42	651.773
1385.99	374.154
1389.57	280.045
1393.14	311.309
1396.71	110.469
1400.28	288.285
1403.85	162.01
1407.41	262.52
1410.98	250.18
1414.54	279.25
1418.1	519.51
1421.66	511.584
1425.21	449.199
1428.77	201.979
1432.33	204.055
1435.88	95.068
1439.43	167.246
1442.98	132.242
1446.53	377.457
1450.07	564.607
1453.62	791.652
1457.16	904.973
1460.7	717.746
1464.24	628.139
1467.78	518.361
1471.32	420.713
1474.85	299.453
1478.38	58.312
1481.91	244.658
1485.44	382.205
1488.97	290.781
1492.5	609.117
1496.03	486.67
1499.55	578.586
1503.07	482.746
1506.59	370.193
1510.11	322.707
1513.63	87.494
1517.14	46.312
1520.66	0
