Measurement: Raman, 514 nm, ccw, Raman Data Processed
Mineral: Actinolite
Rruff sample: R040064
Ideal chemistry: Ca_2_(Mg_4.5-2.5_Fe^2+^_0.5-2.5_)_=5_Si_8_O_22_(OH)_2_
Locality: Ehime Perfecture, Uma Gun, Japan
Source: University of Arizona Mineral Museum
Description: Aggregate of green acicular crystals associated with chlorite
Measured chemistry: (Ca_0.95_Na_0.04_Mn_0.01_)_2_(Mg_0.88_Fe_0.12_)_5_(Si_0.98_Al_0.02_)_8_O_22_(OH)_2_
Pin_id: M00235
Orientation: Laser parallel to b* (0 1 0). Fiducial mark perpendicular to laser is parallel to -c [0 0 -1]
Raman shift (cm-1)	intensity
103.748	0
107.907	135.963
112.063	742.72
116.218	2206.42
120.371	4574.62
124.522	6738.03
128.671	4831
132.818	1873.22
136.963	812.441
141.107	380.507
145.248	98.078
149.388	86.062
153.526	28.946
157.662	225.619
161.796	551.763
165.929	410.214
170.059	513.583
174.188	2007.42
178.315	6862.29
182.44	9694.53
186.563	3743.59
190.684	1221.73
194.803	611.118
198.921	452.468
203.037	271.302
207.15	486.503
211.262	792.285
215.373	1606.09
219.481	3825.16
223.588	8580.04
227.692	8555.41
231.795	4660.5
235.896	2782.73
239.995	1385.04
244.093	675.727
248.188	558.854
252.282	753.432
256.374	552.466
260.464	274.891
264.552	92.718
268.638	88.335
272.723	118.074
276.806	70.7
280.887	37.247
284.966	462.458
289.043	1039.18
293.118	1495.21
297.192	956.349
301.264	831.25
305.334	1038.13
309.402	687.329
313.469	394.079
317.533	316.456
321.596	305.533
325.657	441.024
329.716	939.138
333.774	1718.09
337.829	2029.97
341.883	1555.76
345.935	1799.91
349.985	2046.4
354.034	2428.82
358.08	2329.09
362.125	2895.98
366.168	5366.86
370.209	9966.58
374.249	8818.89
378.286	4552.31
382.322	2976.38
386.356	3002.14
390.388	4450.57
394.419	6822.68
398.447	5624.47
402.474	2866.95
406.499	1731.69
410.523	1626.48
414.544	2073.5
418.564	2389.58
422.582	1603.34
426.598	849.047
430.613	489.603
434.625	466.26
438.636	574.655
442.646	243.555
446.653	105.992
450.658	66.233
454.662	125.437
458.664	80.544
462.665	53.353
466.663	59.575
470.66	38.354
474.655	131.017
478.648	16.885
482.64	81.73
486.629	207.36
490.617	190.679
494.603	38.029
498.588	46.108
502.571	67.759
506.552	115.028
510.531	147.372
514.508	205.406
518.484	473.275
522.458	578.987
526.43	579.614
530.4	644.175
534.369	522.639
538.336	594.962
542.301	574.086
546.265	578.15
550.226	531.661
554.186	561.159
558.145	438.813
562.101	291.482
566.056	278.313
570.009	145.954
573.96	209.392
577.91	316.624
581.858	281.688
585.804	331.669
589.748	188.563
593.691	125.424
597.632	85.955
601.571	83.709
605.508	18.532
609.444	37.839
613.378	73.932
617.311	143.856
621.241	226.712
625.17	139.987
629.097	412.581
633.023	585.265
636.946	796.943
640.868	1145.75
644.789	1665.52
648.707	2963.61
652.624	4716.4
656.539	6346.73
660.453	6863.75
664.364	9566.26
668.274	17839.3
672.183	36870.2
676.089	46698.8
679.994	27359.5
683.898	12311.8
687.799	6501.94
691.699	4066.36
695.597	2784.26
699.493	1948.99
703.388	1468.09
707.281	1227.6
711.172	1046.55
715.062	917.25
718.95	747.354
722.836	575.24
726.721	421.508
730.604	509.725
734.485	488.754
738.364	608.777
742.242	682.695
746.118	923.483
749.993	1706.58
753.866	1656.63
757.737	973.683
761.606	474.239
765.474	324.678
769.34	185.694
773.204	217.392
777.067	197.641
780.928	126.742
784.787	35.895
788.645	38.03
792.501	108.106
796.355	83.062
800.208	109.829
804.059	101.53
807.908	1.203
811.756	67.99
815.602	139.167
819.446	20.223
823.289	34.18
827.13	39.046
830.969	25.513
834.807	0.842
838.643	74.981
842.477	32.104
846.31	28.488
850.141	22.906
853.971	21.231
857.798	98.487
861.624	84.686
865.449	173.792
869.272	79.854
873.093	155.886
876.912	91.923
880.73	344.982
884.546	364.067
888.361	318.153
892.174	207.224
895.985	271.346
899.795	310.505
903.603	359.647
907.409	318.806
911.214	398.084
915.017	377.422
918.818	576.768
922.618	786.131
926.416	1415.43
930.213	2184.78
934.008	2814.05
937.801	1872.39
941.593	1211.16
945.383	1309.23
949.171	1633.56
952.958	1308.38
956.743	969.323
960.526	661.969
964.308	546.882
968.089	401.254
971.867	433.64
975.644	580.601
979.42	589.985
983.193	466.395
986.966	271.138
990.736	217.93
994.505	389.913
998.272	491.843
1002.04	639.753
1005.8	749.29
1009.57	591.74
1013.33	1039.66
1017.09	1299.49
1020.84	1850.55
1024.6	2801.32
1028.35	5126.47
1032.11	6691.11
1035.86	4807.04
1039.61	2588.41
1043.36	2054.43
1047.1	2030.64
1050.85	2411.72
1054.59	3662.58
1058.33	5804.46
1062.07	7148.49
1065.81	6079.85
1069.55	5980.46
1073.28	5601.22
1077.02	3562.07
1080.75	2262.66
1084.48	1743.43
1088.21	2793.57
1091.93	1594.21
1095.66	785.702
1099.38	546.495
1103.11	686.885
1106.83	647.752
1110.55	647.909
1114.26	978.484
1117.98	198.807
1121.69	139.174
1125.41	129.473
1129.12	2199.43
1132.83	1659.93
1136.54	420.553
1140.24	200.613
1143.95	184.367
1147.65	40.613
1151.36	230.197
1155.06	90.528
1158.76	389.787
1162.45	188.456
1166.15	199.997
1169.84	85.592
1173.53	75.707
1177.22	65.88
1180.91	66.903
1184.6	30.771
1188.29	138.817
1191.97	296.612
1195.66	253.029
1199.34	261.18
1203.02	91.096
1206.7	187.78
1210.37	107.154
1214.05	370.649
1217.72	338.325
1221.4	391.378
1225.07	403.432
1228.74	415.972
1232.4	267.903
1236.07	250.699
1239.73	57.128
1243.4	167.437
1247.06	368.297
1250.72	488.131
1254.38	568.272
1258.03	368.689
1261.69	397.163
1265.34	185.81
1268.99	145.173
1272.65	264.134
1276.3	300.9
1279.94	377.188
1283.59	573.25
1287.23	603.949
1290.88	518.058
1294.52	200.019
1298.16	163.894
1301.8	196.059
1305.43	84.637
1309.07	145.681
1312.7	346.771
1316.33	305.134
1319.96	549.149
1323.59	633.492
1327.22	496.616
1330.85	232.927
1334.47	9.403
1338.1	70.703
1341.72	10.907
1345.34	155.717
1348.96	449.504
1352.57	589.486
1356.19	582.888
1359.8	486.236
1363.41	379.211
1367.03	202.264
1370.63	134.332
1374.24	96.39
1377.85	142.036
1381.45	38.825
1385.06	381.478
1388.66	455.175
1392.26	813.544
1395.86	700.266
1399.46	507.118
1403.05	253.721
1406.65	188.798
1410.24	38.161
1413.83	33.818
1417.42	725.65
1421.01	585.492
1424.6	513.896
1428.18	724.488
1431.77	652.688
1435.35	667.457
1438.93	552.718
1442.51	433.87
1446.09	142.093
1449.66	130.1
1453.24	136.287
1456.81	122.485
1460.38	406.197
1463.95	464.103
1467.52	702.508
1471.09	937.764
1474.65	962.961
1478.22	791.851
1481.78	650.037
1485.34	406.693
1488.9	224.293
1492.46	80.26
1496.02	122.293
1499.58	154.959
1503.13	419.363
1506.68	675.668
1510.23	794.953
1513.78	1128.86
1517.33	1008.32
1520.88	1007.02
1524.42	853.141
1527.97	512.988
