Measurement: Raman, 514 nm, ccw, Raman Data Processed
Mineral: Actinolite
Rruff sample: R040064
Ideal chemistry: Ca_2_(Mg_4.5-2.5_Fe^2+^_0.5-2.5_)_=5_Si_8_O_22_(OH)_2_
Locality: Ehime Perfecture, Uma Gun, Japan
Source: University of Arizona Mineral Museum
Description: Aggregate of green acicular crystals associated with chlorite
Measured chemistry: (Ca_0.95_Na_0.04_Mn_0.01_)_2_(Mg_0.88_Fe_0.12_)_5_(Si_0.98_Al_0.02_)_8_O_22_(OH)_2_
Pin_id: M00214
Orientation: Laser parallel to [1 0 1]. Fiducial mark perpendicular to laser is parallel to b* (0 1 0)
Raman shift (cm-1)	intensity
114.7	0
118.891	36.999
123.079	87.58
127.265	105.389
131.449	52.402
135.631	32.788
139.81	111.608
143.988	89.913
148.163	47.356
152.336	650.932
156.507	1963.02
160.675	2423.21
164.842	1034.25
169.006	674.282
173.168	1543.62
177.328	2739.78
181.485	1957.83
185.641	761.82
189.794	346.766
193.945	172.696
198.094	297.616
202.241	410.417
206.385	856.259
210.528	1590.23
214.668	3498.34
218.806	7693.58
222.942	11487
227.076	13661.3
231.207	15621.6
235.337	11182.1
239.464	5652.7
243.589	4203.39
247.712	5034.15
251.833	4824.98
255.951	2943.84
260.068	1669.74
264.182	965.7
268.294	641.9
272.404	462.792
276.512	485.848
280.618	681.306
284.721	596.105
288.823	326.787
292.922	190.666
297.019	298.763
301.114	740.463
305.207	871.674
309.298	629.3
313.387	312.607
317.473	86.452
321.558	47.955
325.64	75.51
329.72	142.965
333.798	77.373
337.874	176.304
341.948	484.21
346.019	971.668
350.089	1806.8
354.156	2007.9
358.222	1726.99
362.285	2130.04
366.346	4480.07
370.405	6402.07
374.462	4354.03
378.516	2533.96
382.569	2300.85
386.62	3469.27
390.668	6420.35
394.714	8131.6
398.759	5132.58
402.801	2813.87
406.841	2576.92
410.879	3859.41
414.915	5761.26
418.949	5322.78
422.98	3274.34
427.01	1780.93
431.037	1400.7
435.063	2262.52
439.086	1914.26
443.108	854.782
447.127	242.216
451.144	37.03
455.159	16.259
459.172	71.638
463.183	36.723
467.192	32.382
471.198	172.995
475.203	68.563
479.206	183.727
483.206	261.472
487.205	174.388
491.201	93.802
495.196	54.821
499.188	1.449
503.178	54.928
507.166	297.193
511.153	561.363
515.137	1150.51
519.119	1749.55
523.099	2075.46
527.077	2359.25
531.053	2058.91
535.027	1224.41
538.998	580.74
542.968	330.91
546.936	267.916
550.902	148.762
554.865	175.445
558.827	44.961
562.786	89.291
566.744	48.788
570.7	60.79
574.653	67.61
578.604	78.153
582.554	233.481
586.501	237.628
590.447	81.599
594.39	35.367
598.331	32.114
602.271	63.05
606.208	41.526
610.143	52.834
614.077	2.663
618.008	92.958
621.937	267.681
625.865	496.147
629.79	578.571
633.713	537.322
637.634	506.688
641.553	872.153
645.471	1262.08
649.386	1854.58
653.299	2502.6
657.21	3121.27
661.12	4482.13
665.027	7918.39
668.932	17448.2
672.835	31003
676.737	25534.6
680.636	12716.2
684.533	6049.03
688.428	3318.77
692.322	2118.16
696.213	1517.29
700.102	963.231
703.99	721.986
707.875	529.516
711.758	405.695
715.64	440.403
719.519	370.301
723.397	172.802
727.272	287.896
731.146	182.37
735.017	468.963
738.887	570.621
742.755	777.653
746.62	1221.92
750.484	1586.93
754.346	965.906
758.206	544.179
762.063	304.649
765.919	191.488
769.773	117.578
773.625	138.857
777.475	105.778
781.323	76.514
785.169	10.173
789.013	23.052
792.856	29.166
796.696	77.461
800.534	42.992
804.371	50.274
808.205	32.337
812.037	8.366
815.868	83.276
819.697	4.59
823.523	88.246
827.348	61.632
831.171	25.122
834.992	52.002
838.811	110.977
842.628	123.894
846.443	296.784
850.256	169.644
854.067	262.469
857.876	375.307
861.684	578.134
865.489	561.035
869.293	343.953
873.095	216.92
876.894	469.485
880.692	432.501
884.488	225.396
888.282	318.427
892.074	421.469
895.864	394.583
899.652	367.854
903.439	531.305
907.223	604.95
911.006	878.867
914.786	943.011
918.565	1197.35
922.342	1941.76
926.117	3106.27
929.89	4387.79
933.661	3682.03
937.43	2239.36
941.198	1656.94
944.963	1828.15
948.727	1856.54
952.488	1367.58
956.248	1039.37
960.006	822.723
963.762	472.29
967.516	510.688
971.269	434.407
975.019	309.94
978.767	489.763
982.514	441.627
986.259	493.242
990.002	357.972
993.743	392.662
997.482	791.025
1001.22	1386.97
1004.95	1354.37
1008.69	1562.6
1012.42	1674.54
1016.15	2314.64
1019.88	3301.19
1023.6	5603.8
1027.33	8850.05
1031.05	8666.3
1034.77	4852.78
1038.49	2999.82
1042.21	2249.83
1045.92	2247.55
1049.63	2885.54
1053.35	4350.53
1057.05	6232.56
1060.76	5857.94
1064.47	4422.06
1068.17	4101.31
1071.87	2915.9
1075.57	2031.1
1079.27	1646.67
1082.97	2011.43
1086.66	3175.25
1090.36	1048.56
1094.05	661.777
1097.73	615.712
1101.42	529.262
1105.11	443.237
1108.79	446.035
1112.47	438.657
1116.15	291.257
1119.83	284.448
1123.51	296.731
1127.18	238.831
1130.86	250.738
1134.53	252.448
1138.19	104.904
1141.86	42.623
1145.53	49.713
1149.19	130.596
1152.85	18.551
1156.51	42.964
1160.17	1.548
1163.83	73.594
1167.48	57.175
1171.13	11.428
1174.78	19.309
1178.43	126.764
1182.08	21.688
1185.73	51.473
1189.37	98.919
1193.01	126.711
1196.65	124.764
1200.29	78.999
1203.93	122.986
1207.56	13.869
1211.19	20.528
1214.83	205.046
1218.45	98.853
1222.08	258.975
1225.71	172.217
1229.33	175.232
1232.95	328.029
1236.57	379.496
1240.19	270.781
1243.81	271.684
1247.42	192.118
1251.04	362.021
1254.65	472.09
1258.26	240.703
1261.87	88.852
1265.47	256.648
1269.08	473.673
1272.68	380.116
1276.28	356.042
1279.88	230.286
1283.47	229.006
1287.07	249.975
1290.66	387.849
1294.26	188.472
1297.85	160.812
1301.43	239.862
1305.02	247.774
1308.61	492.841
1312.19	425.882
1315.77	450.321
1319.35	370.954
1322.93	260.312
1326.5	90.891
1330.08	95.384
1333.65	10.401
1337.22	2.132
1340.79	94.594
1344.36	246.141
1347.92	278.776
1351.49	261.066
1355.05	199.517
1358.61	56.577
1362.17	63.202
1365.72	81.628
1369.28	78.775
1372.83	270.735
1376.38	51.223
1379.93	335.543
1383.48	486.85
1387.03	429.537
1390.57	415.15
1394.12	165.375
1397.66	121.354
1401.2	72.83
1404.73	24.939
1408.27	205.295
1411.8	288.213
1415.34	185.828
1418.87	327.641
1422.4	467.143
