Measurement: Raman, 514 nm, ccw, Raman Data Processed
Mineral: Actinolite
Rruff sample: R050336
Ideal chemistry: Ca_2_(Mg_4.5-2.5_Fe^2+^_0.5-2.5_)_=5_Si_8_O_22_(OH)_2_
Locality: Kragerø, Norway
Source: California Institute of Technology
Description: Dark green prismatic fragment
Measured chemistry: ([box]_0.62_Na_0.34_K_0.04_)(Ca_1.60_Na_0.40_)_Σ=2_(Mg_3.90_Fe^2+^_0.70_Al_0.20_Ti_0.10_Fe^3+^_0.10_)_Σ=5_(Si_7.52_Al_0.48_)_Σ=8_O_22_((OH)_0.97_F_0.03_)_2_
Pin_id: M00375
Orientation: Laser parallel to b* (0 1 0). Fiducial mark perpendicular to laser is parallel to -c [0 0 -1]
Raman shift (cm-1)	intensity
144.817	0
149.732	131.608
154.644	788.344
159.554	1650.2
164.461	1401.16
169.366	1224.19
174.269	1810.5
179.168	1902.67
184.066	1268.67
188.961	779.679
193.853	580.519
198.743	623.777
203.631	760.354
208.516	1431.71
213.398	2626.53
218.278	3915.33
223.156	4296.76
228.031	3111.54
232.903	1805.6
237.773	934.992
242.641	540.667
247.506	391.067
252.368	199.197
257.228	75.4246
262.086	26.99
266.941	104.837
271.793	103.604
276.643	125.355
281.491	49.6196
286.336	186.248
291.178	337.753
296.018	473.966
300.856	559.73
305.691	504.414
310.523	402.005
315.353	434.562
320.181	521.763
325.006	769.106
329.828	1053.66
334.648	1127.17
339.465	1095.59
344.28	892.714
349.093	781.152
353.903	639.273
358.71	757.796
363.515	1078.46
368.317	1362.03
373.117	1279.62
377.914	1051.97
382.709	1141.3
387.501	1450.59
392.291	1594.8
397.078	1214.94
401.863	776.979
406.645	671.235
411.425	756.752
416.202	834.095
420.977	590.18
425.749	474.624
430.518	400.201
435.285	375.758
440.05	200.867
444.812	13.8967
449.571	12.4678
454.328	26.8059
459.083	24.4695
463.835	10.4497
468.584	27.6077
473.331	60.7158
478.075	44.7981
482.817	135.787
487.556	78.554
492.293	77.0955
497.027	116.429
501.758	254.604
506.488	331.64
511.214	401.537
515.938	557.29
520.66	628.899
525.379	605.361
530.095	724.679
534.809	758.85
539.52	721.877
544.229	656.758
548.935	603.524
553.639	556.49
558.34	590.835
563.039	510.639
567.735	462.872
572.428	438.201
577.119	342.544
581.808	188.833
586.494	159.052
591.177	20.0107
595.858	36.3652
600.536	42.7148
605.212	42.2754
609.885	65.4297
614.556	91.3096
619.224	147.081
623.889	221.001
628.552	394.607
633.213	624.535
637.871	866.976
642.526	1276.55
647.179	1768.54
651.829	2456.22
656.477	3492.83
661.122	5447.38
665.764	9299.88
670.404	13226.3
675.042	11489.7
679.677	6402.06
684.309	3380.37
688.939	2056.63
693.566	1614.99
698.191	1359.74
702.813	1185.98
707.432	1366.54
712.049	1502.43
716.664	1572.33
721.276	1806.83
725.885	1801.71
730.492	1902.56
735.096	1807.86
739.697	1669.78
744.297	1496.89
748.893	1250.27
753.487	1030.97
758.078	803.011
762.667	705.073
767.253	505.158
771.837	419.271
776.418	397.421
780.997	354.606
785.573	360.828
790.146	333.094
794.717	246.407
799.285	305.849
803.851	225.194
808.414	193.677
812.975	68.2239
817.533	90.8401
822.088	41.5298
826.641	95.2959
831.192	7.13794
835.739	46.9578
840.284	72.1936
844.827	23.7722
849.367	7.62598
853.904	27.3408
858.439	28.8748
862.972	35.1194
867.501	22.0938
872.029	138.351
876.553	150.008
881.075	274.053
885.595	306.534
890.111	391.248
894.626	450.133
899.137	446.148
903.647	478.325
908.153	575.732
912.657	676.376
917.158	914.184
921.657	1221.18
926.154	1416.38
930.647	1418.72
935.138	1121.23
939.627	969.953
944.113	879.865
948.596	839.934
953.077	700.209
957.555	550.618
962.031	584.487
966.504	551.554
970.974	458.998
975.442	352.788
979.907	366.793
984.37	321.392
988.83	296.192
993.288	441.78
997.742	488.32
1002.2	582.239
1006.64	697.464
1011.09	789.742
1015.54	888.028
1019.98	954.143
1024.42	1080.04
1028.86	1217.62
1033.29	1370.43
1037.72	1597.93
1042.15	1906.78
1046.58	2441.91
1051	3360.7
1055.42	4083.27
1059.84	4127.96
1064.26	3310.9
1068.67	2209.36
1073.08	1471.12
1077.49	1005.59
1081.89	771.473
1086.3	660.3
1090.7	448.408
1095.1	379.275
1099.49	303.48
1103.88	324.591
1108.28	265.152
1112.66	207.762
1117.05	178.704
1121.43	153.758
1125.81	98.8965
1130.19	154.992
1134.56	67.1716
1138.93	93.2894
1143.3	39.6594
1147.67	43.4563
1152.04	53.2985
1156.4	26.8132
1160.76	5.19714
1165.11	15.462
1169.47	20.4541
1173.82	28.2887
1178.17	3.24878
1182.51	7.94153
1186.86	8.90881
1191.2	37.0487
1195.54	2.72961
1199.87	2.83423
1204.2	3.32935
1208.54	46.3491
1212.86	60.1401
1217.19	23.9006
1221.51	28.2435
1225.83	23.4839
1230.15	55.6283
1234.46	12.8358
1238.78	57.2554
1243.09	51.0188
1247.39	52.4458
1251.7	81.2324
1256	99.1243
1260.3	94.3242
1264.6	75.1495
1268.89	37.8038
1273.18	88.356
1277.47	58.8015
1281.76	108.928
1286.04	173.296
1290.32	101.289
1294.6	124.141
1298.88	141.449
1303.15	124.077
1307.42	105.695
1311.69	88.0109
1315.96	95.4523
1320.22	94.0651
1324.48	86.7985
1328.74	81.0427
1332.99	51.6417
1337.24	106.68
1341.49	72.7234
1345.74	41.5702
1349.99	123.182
1354.23	97.9763
1358.47	80.4408
1362.71	71.4475
1366.94	75.7915
1371.17	93.2662
1375.4	37.6168
1379.63	7.45227
1383.85	70.5454
1388.07	22.5653
1392.29	35.8739
1396.51	33.0516
1400.72	36.3208
1404.93	62.9995
1409.14	36.3227
1413.35	103.939
1417.55	32.9237
1421.75	81.5991
1425.95	12.2116
1430.14	120.799
1434.34	62.324
1438.53	132.744
1442.71	141.333
1446.9	173.11
1451.08	115.007
1455.26	126.775
1459.44	101.906
1463.61	88.9761
1467.78	45.0022
1471.95	77.0585
1476.12	119.472
1480.28	59.1249
1484.45	87.1344
1488.61	61.2069
1492.76	79.3757
1496.91	59.4605
1501.07	93.7103
1505.21	31.045
1509.36	75.4337
1513.5	41.864
1517.64	34.3651
1521.78	79.0343
1525.92	36.1201
1530.05	54.5391
1534.18	95.0663
1538.31	88.1604
1542.43	59.9548
1546.56	25.6162
1550.67	30.8337
1554.79	96.3807
1558.91	0.753906
