Measurement: Raman, 514 nm, ccw, Raman Data Processed
Mineral: Actinolite
Rruff sample: R050336
Ideal chemistry: Ca_2_(Mg_4.5-2.5_Fe^2+^_0.5-2.5_)_=5_Si_8_O_22_(OH)_2_
Locality: Kragerø, Norway
Source: California Institute of Technology
Description: Dark green prismatic fragment
Measured chemistry: ([box]_0.62_Na_0.34_K_0.04_)(Ca_1.60_Na_0.40_)_Σ=2_(Mg_3.90_Fe^2+^_0.70_Al_0.20_Ti_0.10_Fe^3+^_0.10_)_Σ=5_(Si_7.52_Al_0.48_)_Σ=8_O_22_((OH)_0.97_F_0.03_)_2_
Pin_id: M00198
Orientation: Laser parallel to c* (0 0 1). Fiducial mark perpendicular to laser is parallel to a [1 0 0]
Raman shift (cm-1)	intensity
141.129	0
146.046	52.3179
150.96	505.269
155.872	1022.84
160.781	1242.27
165.688	914.939
170.592	1056.86
175.494	1099.33
180.393	973.56
185.29	556.036
190.184	327.072
195.076	435.422
199.965	625.461
204.852	790.891
209.736	1602.41
214.618	2934.89
219.498	4624.06
224.375	5716.26
229.249	5646.67
234.121	4358.31
238.99	2634.22
243.857	1861.33
248.721	1456.57
253.583	1009.7
258.443	734.61
263.3	221.268
268.154	47.3533
273.006	82.2849
277.855	132.57
282.702	97.7996
287.547	53.2925
292.388	161.437
297.228	241.062
302.065	249.368
306.899	137.767
311.731	170.08
316.56	74.324
321.387	45.5559
326.211	184.714
331.033	285.738
335.853	308.451
340.669	457.654
345.484	493.201
350.295	665.019
355.105	790.458
359.911	1166.78
364.716	1719.16
369.517	2128.95
374.317	1726.13
379.113	1741.68
383.907	2220.56
388.699	3055.73
393.488	2775.24
398.275	1948.99
403.059	1759
407.84	2107.24
412.619	2425.78
417.396	2352.02
422.17	1690.18
426.941	1328.27
431.71	1175.02
436.477	1003.61
441.241	491.469
446.002	317.561
450.761	188.99
455.517	132.381
460.271	59.8789
465.022	76.5688
469.771	102.804
474.517	76.8418
479.261	190.785
484.002	150.285
488.74	237.011
493.476	316.659
498.21	565.238
502.941	831.76
507.669	1172.23
512.395	1529.63
517.119	1768.95
521.84	1839.19
526.558	1700.15
531.274	1412.34
535.987	1277.24
540.698	1167
545.406	1093.63
550.111	984.098
554.814	865.428
559.515	859.749
564.213	790.222
568.908	751.053
573.601	735.11
578.292	644.152
582.979	445.141
587.665	289.969
592.347	136.577
597.028	19.1113
601.705	57.9641
606.38	116.417
611.053	92.0584
615.723	14.6306
620.39	10.5383
625.055	111.079
629.718	223.276
634.377	356.19
639.035	565.829
643.689	916.19
648.341	1396.27
652.991	2133.08
657.638	3369.61
662.283	5871.86
666.924	9985.84
671.564	11928.5
676.201	8354.99
680.835	4384.15
685.467	2499.05
690.096	1654.73
694.722	1164.73
699.346	1013.2
703.968	927.607
708.587	953.793
713.203	1092.4
717.817	1163.44
722.428	1387.8
727.037	1581.34
731.643	1589.28
736.246	1567.61
740.847	1587.96
745.446	1489.85
750.042	1272.55
754.635	1005.17
759.226	821.449
763.814	631.004
768.4	498.112
772.983	528.782
777.563	461.387
782.141	521.937
786.716	501.439
791.289	539.907
795.859	476.348
800.427	322.776
804.992	305.201
809.555	185.632
814.115	143.082
818.672	100.56
823.227	103.076
827.779	98.637
832.329	52.2165
836.876	34.1865
841.42	59.6472
845.962	12.322
850.502	54.457
855.038	68.0693
859.573	35.7739
864.104	28.6528
868.633	47.6208
873.16	6.76562
877.684	79.4187
882.205	131.751
886.724	206.948
891.24	257.896
895.754	381.318
900.265	407.07
904.773	525.055
909.279	515.283
913.783	732.775
918.283	908.542
922.782	1179.56
927.277	1326.98
931.77	1150.15
936.261	882.074
940.749	897.126
945.234	874.008
949.716	846.605
954.197	855.864
958.674	853.658
963.149	879.567
967.621	875.892
972.091	867.149
976.558	880.042
981.023	933.969
985.485	975.97
989.945	1038.56
994.401	1068.27
998.856	1300.05
1003.31	1551.26
1007.76	1748.36
1012.2	1975.75
1016.65	2152.63
1021.09	2478.96
1025.53	2897.27
1029.96	2875.82
1034.4	2555.7
1038.83	2260.95
1043.26	2099.38
1047.68	2162.24
1052.11	2355.64
1056.53	2332.64
1060.94	2390.78
1065.36	2192.13
1069.77	1655.12
1074.18	1264.12
1078.59	1083.23
1083	839.64
1087.4	704.998
1091.8	613.585
1096.2	504.597
1100.59	472.946
1104.98	458.99
1109.37	385.049
1113.76	364.748
1118.14	358.175
1122.53	273.173
1126.9	265.659
1131.28	234.641
1135.66	200.697
1140.03	38.2029
1144.4	139.193
1148.76	3.24341
1153.13	11.1277
1157.49	29.4548
1161.85	6.36523
1166.2	31.0356
1170.56	2.6582
1174.9	9.37842
1179.25	3.76904
1183.6	11.8782
1187.94	60.5903
1192.28	20.5872
1196.62	9.06055
1200.95	96.7002
1205.29	13.9976
1209.62	6.45386
1213.94	50.6428
1218.27	63.3435
1222.59	28.8735
1226.91	25.1987
1231.23	38.7854
1235.54	33.9536
1239.86	49.6572
1244.16	86.0063
1248.47	68.4275
1252.77	69.0527
1257.08	134.015
1261.37	100.662
1265.67	131.173
1269.96	85.2056
1274.26	70.0344
1278.54	120.687
1282.83	59.7266
1287.11	51.7734
1291.39	74.9524
1295.67	134.355
1299.95	153.105
1304.22	191.059
1308.49	172.824
1312.76	115.969
1317.02	88.7317
1321.28	86.8079
1325.54	94.1506
1329.8	57.3855
1334.06	130.254
1338.31	92.1738
1342.56	67.5762
1346.8	108.62
1351.05	32.0693
1355.29	47.0964
1359.53	81.8992
1363.77	70.5535
1368	44.8044
1372.23	12.2473
1376.46	43.6709
1380.68	33.2402
1384.91	17.729
1389.13	23.1619
1393.35	40.9658
1397.56	101.077
1401.78	38.6545
1405.98	94.1885
1410.19	39.4749
1414.4	0.290771
1418.6	51.417
1422.8	64.0303
1427	70.1865
1431.19	42.0283
1435.38	142.312
1439.57	77.1655
1443.76	125.638
1447.94	65.6792
1452.13	167.12
1456.31	90.2974
1460.48	113.779
1464.66	79.064
1468.83	102.22
1473	58.7715
1477.16	108.151
1481.33	87.2429
1485.49	12.2495
1489.64	95.0117
1493.8	15.6594
1497.95	51.2737
1502.1	4.12622
1506.25	48.7588
1510.4	15.2153
1514.54	105.141
1518.68	71.9329
1522.82	39.2258
1526.95	25.7854
1531.08	86.9187
1535.21	105.91
1539.34	3.45361
1543.46	53.1619
