Measurement: Raman, 514 nm, ccw, Raman Data Processed
Mineral: Actinolite
Rruff sample: R040063
Ideal chemistry: Ca_2_(Mg_4.5-2.5_Fe^2+^_0.5-2.5_)_=5_Si_8_O_22_(OH)_2_
Locality: Harford County, Maryland, USA
Source: University of Arizona Mineral Museum
Description: Mass of green acicular to bladed crystals associated with chlorite
Measured chemistry: (Ca_1.90_Na_0.06_Mn_0.04_)_Σ=2_(Mg_4.35_Fe_0.65_)_Σ=5_(Si_7.92_Al_0.08_)_Σ=8_O_22_(OH)_2_
Pin_id: S00044
Orientation: Laser parallel to b* (0 1 0). Fiducial mark perpendicular to laser is parallel to c [0 0 1]
Raman shift (cm-1)	intensity
141.323	0
145.48	112.875
149.635	50.09
153.788	338.268
157.939	646.67
162.088	521.24
166.235	637.669
170.38	1922.01
174.523	4977.66
178.664	5474.49
182.803	2524.89
186.94	965.124
191.076	456.13
195.209	334.788
199.34	280.981
203.47	381.61
207.597	652.891
211.722	1400.18
215.846	3179.93
219.967	5474.2
224.087	4988.09
228.204	3179.84
232.32	1801.42
236.434	944.012
240.545	511.378
244.655	385.837
248.763	375.312
252.869	329.809
256.973	217.322
261.075	88.828
265.175	24.321
269.273	75.394
273.369	66.736
277.463	28.707
281.556	142.122
285.646	538.505
289.734	612.643
293.821	549.79
297.905	548.4
301.988	509.682
306.069	352.376
310.147	227.631
314.224	221.108
318.299	254.797
322.372	355.216
326.443	749.075
330.512	1065.85
334.579	1145.34
338.645	1169.49
342.708	1311.32
346.769	1359.81
350.829	1404.3
354.887	1483.81
358.942	1959.35
362.996	3695.88
367.048	5886.42
371.098	4847.64
375.146	2678.7
379.192	2003.77
383.236	2023.84
387.279	3010.88
391.319	3771.89
395.358	2914.85
399.394	1555.75
403.429	1029.61
407.462	1043.4
411.493	1339.13
415.522	1154.8
419.549	760.408
423.575	516.947
427.598	225.417
431.619	272.364
435.639	349.227
439.657	214.107
443.673	98.843
447.687	37.723
451.699	53.839
455.709	27.931
459.717	30.385
463.724	12.251
467.728	61.428
471.731	25.855
475.732	8.452
479.731	6.623
483.728	50.783
487.723	5.055
491.716	11.973
495.708	44.981
499.697	28.857
503.685	75.66
507.671	221.404
511.655	347.104
515.637	497.738
519.617	500.288
523.596	531.777
527.572	647.216
531.547	599.556
535.52	564.799
539.491	467.944
543.46	449.99
547.427	459.935
551.393	291.78
555.356	326.524
559.318	255.166
563.278	204.706
567.236	240.145
571.192	278.482
575.147	254.718
579.099	210.852
583.05	238.883
586.999	182.95
590.946	66.683
594.891	30.454
598.834	61.192
602.776	48.662
606.715	109.377
610.653	94.262
614.589	74.787
618.523	187.292
622.456	171.986
626.386	308.702
630.315	431.129
634.242	575.258
638.167	923.173
642.09	1346.05
646.012	2123.47
649.931	3227.91
653.849	4104.02
657.765	4710.22
661.679	6718.5
665.592	12545.2
669.502	22632.8
673.411	24427.8
677.318	13692.8
681.223	6622.11
685.126	3565.89
689.028	2280.59
692.927	1504.22
696.825	1073.77
700.721	734.257
704.616	540.674
708.508	477.024
712.399	328.309
716.288	271.53
720.175	339.691
724.06	246.794
727.944	289.841
731.825	237.835
735.705	322.778
739.584	369.672
743.46	681.521
747.334	999.198
751.207	852.686
755.078	463.044
758.947	252.132
762.815	112.221
766.68	116.486
770.544	30.157
774.406	21.046
778.267	35.006
782.125	12.997
785.982	1.038
789.837	45.162
793.69	109.784
797.542	13.989
801.391	49.307
805.239	14.73
809.085	12.225
812.93	3.18
816.772	72.489
820.613	61.735
824.452	38.871
828.29	5.965
832.125	25.029
835.959	2.983
839.791	77.888
843.621	117.801
847.45	134.723
851.277	144.657
855.102	208.604
858.925	320.573
862.746	254.583
866.566	246.634
870.384	282.723
874.2	196.936
878.015	236.205
881.828	308.557
885.639	254.983
889.448	282.477
893.256	343.031
897.061	320.656
900.865	328.361
904.668	245.169
908.468	317.11
912.267	478.14
916.064	463.257
919.86	635.443
923.653	1097.7
927.445	1495.97
931.236	1529.31
935.024	1200.41
938.811	897.587
942.596	953.034
946.379	1059.25
950.161	738.119
953.94	669.103
957.719	377.677
961.495	462.323
965.27	271.969
969.043	182.597
972.814	306.935
976.583	334.332
980.351	180.354
984.117	415.317
987.882	277.928
991.644	249.209
995.405	228.465
999.165	367.782
1002.92	1231.2
1006.68	665.879
1010.43	770.818
1014.18	908.422
1017.93	1263.4
1021.68	1936.44
1025.43	3012.78
1029.18	3371.61
1032.92	2470.31
1036.66	1548.31
1040.4	1405.49
1044.14	1513.97
1047.88	2019.89
1051.62	3099.84
1055.35	4227.76
1059.08	4345.17
1062.81	3674.3
1066.54	3490.2
1070.27	2828.36
1073.99	1744.37
1077.72	1169.92
1081.44	865.95
1085.16	782.236
1088.88	548.222
1092.59	594.011
1096.31	419.56
1100.02	285.395
1103.73	311.503
1107.44	277.416
1111.15	313.744
1114.86	299.891
1118.57	306.311
1122.27	172.878
1125.97	168.685
1129.67	154.487
1133.37	90.205
1137.07	115.968
1140.76	102.526
1144.45	39.493
1148.15	389.488
1151.84	156.247
1155.53	52.915
1159.21	40.698
1162.9	45.237
1166.58	23.246
1170.26	92.706
1173.94	68.428
1177.62	144.479
1181.3	82.842
1184.97	17.638
1188.65	21.929
1192.32	86.814
1195.99	59.354
1199.66	37.652
1203.33	130.797
1206.99	203.974
1210.65	57.105
1214.32	110.534
1217.98	33.709
1221.64	67.342
1225.29	16.885
1228.95	19.383
1232.6	201.961
1236.26	117.604
1239.91	172.968
1243.56	184.212
1247.2	85.559
1250.85	116.259
1254.49	122.161
1258.13	92.627
1261.78	292.685
1265.41	282.973
1269.05	272.666
1272.69	231.743
1276.32	240.54
1279.95	209.896
1283.59	61.74
1287.21	39.857
1290.84	127.598
1294.47	95.117
1298.09	162.365
1301.72	87.031
1305.34	123.09
1308.96	61.67
1312.58	42.468
1316.19	51.038
1319.81	14.493
1323.42	95.32
1327.03	335.926
1330.64	256.693
1334.25	128.225
1337.86	208.438
1341.46	96.405
1345.07	78.389
1348.67	88.42
1352.27	28.405
1355.87	46.145
1359.46	207.387
1363.06	175.859
1366.65	256.529
1370.25	116.977
1373.84	17.901
1377.43	18.065
1381.02	36.896
1384.6	48.097
1388.18	32.697
1391.77	66.66
1395.35	0.548
1398.93	183.4
1402.51	246.242
1406.08	307.199
1409.66	92.822
1413.23	191.729
1416.8	172.64
1420.37	29.871
1423.94	35.077
1427.51	93.438
1431.08	161.195
1434.64	244.905
1438.2	352.793
1441.76	419.846
1445.32	670.941
1448.88	543.514
1452.43	463.487
1455.99	477.643
1459.54	550.324
1463.09	403.026
1466.64	254.054
1470.19	325.67
1473.74	296.544
1477.28	187.84
1480.83	308.032
1484.37	468.207
1487.91	349.422
1491.45	291.137
1494.98	213.202
1498.52	116.911
1502.05	7.876
1505.59	39.361
1509.12	29.669
1512.65	79.396
1516.17	219.005
