Measurement: Raman, 514 nm, ccw, Raman Data Processed
Mineral: Actinolite
Rruff sample: R040063
Ideal chemistry: Ca_2_(Mg_4.5-2.5_Fe^2+^_0.5-2.5_)_=5_Si_8_O_22_(OH)_2_
Locality: Harford County, Maryland, USA
Source: University of Arizona Mineral Museum
Description: Mass of green acicular to bladed crystals associated with chlorite
Measured chemistry: (Ca_1.90_Na_0.06_Mn_0.04_)_Σ=2_(Mg_4.35_Fe_0.65_)_Σ=5_(Si_7.92_Al_0.08_)_Σ=8_O_22_(OH)_2_
Pin_id: S00132
Orientation: Laser parallel to [1 0 1]. Fiducial mark perpendicular to laser is parallel to b* (0 1 0)
Raman shift (cm-1)	intensity
128.84	0
133.003	7.881
137.164	137.663
141.323	179.658
145.48	6.152
149.635	93.585
153.788	1507.19
157.939	2793.42
162.088	1582.93
166.235	564.64
170.38	1034.48
174.523	2818.32
178.664	2895.74
182.803	1194.97
186.94	342.125
191.076	136.311
195.209	71.574
199.34	219.942
203.47	511.946
207.597	1189.81
211.722	2218.93
215.846	4676.24
219.967	7958.86
224.087	8402.82
228.204	8467.11
232.32	7451.74
236.434	4148.68
240.545	2364.91
244.655	2507.39
248.763	2846.13
252.869	2196.06
256.973	1477.16
261.075	1054.41
265.175	604.823
269.273	278.378
273.369	4.073
277.463	78.101
281.556	93.144
285.646	33.7
289.734	24.122
293.821	171.129
297.905	458.563
301.988	666.681
306.069	444.553
310.147	313.917
314.224	81.645
318.299	148.671
322.372	44.905
326.443	60.316
330.512	112.874
334.579	245.508
338.645	426.19
342.708	824.926
346.769	1373.72
350.829	1620.56
354.887	1500.46
358.942	1546.42
362.996	2446.43
367.048	4122.34
371.098	4041.78
375.146	2810.15
379.192	2044.59
383.236	2158.11
387.279	3817.69
391.319	5532.33
395.358	4342.02
399.394	2362.76
403.429	1753.55
407.462	2343.38
411.493	3435.24
415.522	3663.12
419.549	2504.04
423.575	1354.98
427.598	970.939
431.619	1359.66
435.639	1606.86
439.657	931.349
443.673	299.485
447.687	144.391
451.699	4.667
455.709	8.232
459.717	22.943
463.724	38.747
467.728	59.621
471.731	46.643
475.732	25.136
479.731	48.856
483.728	64.552
487.723	117.229
491.716	96.917
495.708	102.641
499.697	87.383
503.685	207.084
507.671	441.743
511.655	748.392
515.637	1077.24
519.617	1403.68
523.596	1792.26
527.572	2064.8
531.547	1600.29
535.52	1043.73
539.491	630.109
543.46	480.425
547.427	392.417
551.393	320.844
555.356	305.944
559.318	218.966
563.278	195.91
567.236	211.773
571.192	243.553
575.147	278.249
579.099	187.858
583.05	145.379
586.999	98.811
590.946	12.138
594.891	62.826
598.834	29.283
602.776	17.991
606.715	1.139
610.653	65.218
614.589	35.18
618.523	51.601
622.456	118.865
626.386	177.018
630.315	294.091
634.242	370.23
638.167	600.662
642.09	861.597
646.012	1210.78
649.931	1635.57
653.849	2300.41
657.765	3203.7
661.679	5625.13
665.592	11197.9
669.502	21495.7
673.411	24134.3
677.318	13628.6
681.223	6854.09
685.126	4178.6
689.028	3155.09
692.927	2195
696.825	1492.25
700.721	1009.39
704.616	857.418
708.508	598.333
712.399	476.139
716.288	352.836
720.175	457.426
724.06	335.909
727.944	345.288
731.825	315.565
735.705	452.742
739.584	542.819
743.46	710.794
747.334	902.6
751.207	768.56
755.078	446.696
758.947	308.181
762.815	195.952
766.68	136.041
770.544	145.571
774.406	90.274
778.267	131.151
782.125	96.467
785.982	55.82
789.837	33.129
793.69	55.363
797.542	11.461
801.391	37.398
805.239	42.509
809.085	7.168
812.93	63.734
816.772	18.749
820.613	10.313
824.452	44.001
828.29	8.15
832.125	17.763
835.959	8.722
839.791	0.735
843.621	11.794
847.45	62.115
851.277	67.017
855.102	50.921
858.925	125.835
862.746	119.754
866.566	109.679
870.384	144.615
874.2	127.562
878.015	174.529
881.828	215.559
885.639	242.682
889.448	265.834
893.256	390.033
897.061	480.277
900.865	501.612
904.668	541.199
908.468	652.152
912.267	734.323
916.064	980.677
919.86	1328.15
923.653	2131.73
927.445	3153.39
931.236	3239.1
935.024	2087.88
938.811	1429.72
942.596	1314.42
946.379	1426.83
950.161	1108.63
953.94	923.605
957.719	796.271
961.495	750.903
965.27	672.343
969.043	659.332
972.814	625.737
976.583	617.341
980.351	579.81
984.117	594.132
987.882	623.463
991.644	669.547
995.405	633.01
999.165	784.724
1002.92	1008.68
1006.68	1153.66
1010.43	1392.73
1014.18	1770.94
1017.93	2392.31
1021.68	3438.67
1025.43	4829.09
1029.18	5476.42
1032.92	3834.48
1036.66	2296.09
1040.4	1787.33
1044.14	1886.06
1047.88	2422.48
1051.62	3666.86
1055.35	5107.28
1059.08	5446.28
1062.81	4075.98
1066.54	3338.28
1070.27	2736.31
1073.99	1602.83
1077.72	1040.18
1081.44	804.799
1085.16	641.199
1088.88	629.593
1092.59	602.122
1096.31	485.583
1100.02	330.838
1103.73	276.786
1107.44	299.431
1111.15	255.248
1114.86	308.638
1118.57	295.002
1122.27	307.809
1125.97	139.425
1129.67	152.165
1133.37	92.827
1137.07	154.926
1140.76	81.847
1144.45	89.645
1148.15	22.858
1151.84	89.3
1155.53	31.49
1159.21	44.411
1162.9	9.972
1166.58	38.683
1170.26	31.043
1173.94	10.535
1177.62	23.485
1181.3	39.869
1184.97	6.686
1188.65	14.727
1192.32	22.699
1195.99	40.517
1199.66	10.804
1203.33	4.719
1206.99	4.365
1210.65	7.483
1214.32	29.955
1217.98	23.577
1221.64	21.728
1225.29	21.672
1228.95	1.811
1232.6	71.552
1236.26	29.988
1239.91	64.336
1243.56	1.262
1247.2	6.711
1250.85	36.112
1254.49	24.866
1258.13	81.613
1261.78	113.873
1265.41	87.866
1269.05	125.885
1272.69	90.215
1276.32	145.513
1279.95	35.209
1283.59	50.37
1287.21	13.35
1290.84	38.797
1294.47	46.109
1298.09	82.274
1301.72	69.597
1305.34	78.169
1308.96	47.724
1312.58	61.129
1316.19	77.421
1319.81	122.474
1323.42	28.568
1327.03	88.806
1330.64	135.174
1334.25	89.001
1337.86	53.345
1341.46	89.997
1345.07	74.795
1348.67	80.798
1352.27	42.117
1355.87	73.934
1359.46	64.239
1363.06	91.477
1366.65	90.483
1370.25	21.63
1373.84	38.997
1377.43	43.44
1381.02	79.903
1384.6	5.828
1388.18	41.407
1391.77	43.552
1395.35	62.229
1398.93	86.616
1402.51	44.002
1406.08	116.967
1409.66	56.898
1413.23	32.27
1416.8	88.338
1420.37	40.725
1423.94	21.732
1427.51	8.784
1431.08	89.145
1434.64	74.517
1438.2	136.364
1441.76	181.055
1445.32	216.964
1448.88	246.104
1452.43	178.734
1455.99	212.821
1459.54	136.461
1463.09	193.51
1466.64	191.372
1470.19	134.077
1473.74	146.356
1477.28	109.24
1480.83	138.075
1484.37	148.701
1487.91	187.11
1491.45	113.867
1494.98	56.237
1498.52	15.493
1502.05	4.809
1505.59	61.101
1509.12	17.471
1512.65	62.004
1516.17	65.291
