Measurement: Raman, 514 nm, ccw, Raman Data Processed
Mineral: Actinolite
Rruff sample: R050025
Ideal chemistry: Ca_2_(Mg_4.5-2.5_Fe^2+^_0.5-2.5_)_=5_Si_8_O_22_(OH)_2_
Locality: Tyrol, Austria
Source: Eugene Schlepp
Description: Green colored bladed single crystals
Measured chemistry: (Ca_.930_Na_.056_Mn_.010_K_.004_)_2_(Mg_.883_Fe_.117_)_5_(Si_.978_Al_.022_)_8_O_22_(OH)_2_
Pin_id: L00431
Orientation: Laser parallel to a* (1 0 0). Fiducial mark perpendicular to laser is parallel to b [0 1 0]
Raman shift (cm-1)	intensity
91.284	0
95.465	0.376
99.644	103.793
103.82	195.06
107.995	998.14
112.168	3291.02
116.339	3215.53
120.508	2832.86
124.675	1707.61
128.84	636.066
133.003	100.756
137.164	175.867
141.323	290.306
145.48	330.518
149.635	21.82
153.788	661.396
157.939	2626.27
162.088	2846.48
166.235	959.539
170.38	1027.87
174.523	3000.87
178.664	4951.64
182.803	2612.9
186.94	1438.31
191.076	1131.01
195.209	849.414
199.34	665.911
203.47	1054.38
207.597	1895
211.722	3100.66
215.846	5264.35
219.967	9212.9
224.087	11072.1
228.204	11645.9
232.32	11573.3
236.434	6498.16
240.545	3277.63
244.655	2867.68
248.763	3612.34
252.869	3099.62
256.973	1724.46
261.075	985.77
265.175	503.395
269.273	106.625
273.369	204.681
277.463	236.785
281.556	149.252
285.646	93.971
289.734	272.84
293.821	354.711
297.905	716.167
301.988	1112.62
306.069	965.74
310.147	830.631
314.224	531.798
318.299	424.237
322.372	407.84
326.443	458.877
330.512	851.392
334.579	935.441
338.645	864.054
342.708	1123.24
346.769	1809.36
350.829	2444.72
354.887	2277.48
358.942	1947.79
362.996	3289.74
367.048	6770.54
371.098	7496.02
375.146	4457.18
379.192	2982.09
383.236	3168.77
387.279	5154.21
391.319	8470.42
395.358	8270.4
399.394	4522.15
403.429	2925.66
407.462	3168.96
411.493	4865.02
415.522	6218.86
419.549	4899.44
423.575	2833.56
427.598	1913.55
431.619	1880.63
435.639	2300.58
439.657	1201.73
443.673	502.046
447.687	376.223
451.699	166.756
455.709	4.424
459.717	235.563
463.724	239.163
467.728	232.412
471.731	214.976
475.732	212.101
479.731	358.317
483.728	499.933
487.723	574.687
491.716	639.582
495.708	569.693
499.697	672.582
503.685	958.274
507.671	1555.74
511.655	2454.05
515.637	2927.12
519.617	2676.97
523.596	2454.68
527.572	2555.24
531.547	2281.61
535.52	1661.78
539.491	1218.71
543.46	941.391
547.427	879.806
551.393	768.957
555.356	861.842
559.318	574.463
563.278	584.818
567.236	667.907
571.192	876.732
575.147	586.291
579.099	480.583
583.05	476.613
586.999	302.385
590.946	23.946
594.891	14.425
598.834	82.446
602.776	153.43
606.715	28.311
610.653	109.285
614.589	94.738
618.523	22.253
622.456	78.221
626.386	162.421
630.315	151
634.242	405.418
638.167	575.899
642.09	1022.43
646.012	1501.68
649.931	2144.15
653.849	3262.56
657.765	4672.27
661.679	7738.4
665.592	15548.1
669.502	32714.8
673.411	42984.6
677.318	24691.8
681.223	11339.2
685.126	6054.6
689.028	3627.02
692.927	2338.12
696.825	1758.71
700.721	1390.53
704.616	1129.14
708.508	889.542
712.399	814.741
716.288	628.738
720.175	734.54
724.06	764.147
727.944	859.566
731.825	1038.8
735.705	1785.86
739.584	2616.74
743.46	2637.11
747.334	3144.52
751.207	2696.66
755.078	1576.64
758.947	1000.9
762.815	760.19
766.68	481.976
770.544	373.015
774.406	229.396
778.267	221.571
782.125	235.755
785.982	150.735
789.837	79.226
793.69	19.342
797.542	2.029
801.391	97.167
805.239	38.729
809.085	54.862
812.93	65.302
816.772	53.061
820.613	52.074
824.452	66.637
828.29	44.258
832.125	88.299
835.959	88.154
839.791	2.244
843.621	66.511
847.45	49.145
851.277	83.71
855.102	44.247
858.925	69.775
862.746	102.301
866.566	305.868
870.384	310.448
874.2	250.071
878.015	300.783
881.828	382.592
885.639	606.468
889.448	767.404
893.256	784.462
897.061	797.699
900.865	766.081
904.668	927.614
908.468	1208.38
912.267	1292.47
916.064	1545.97
919.86	1917.85
923.653	2695.08
927.445	4018.61
931.236	4419.32
935.024	3175.16
938.811	2096.97
942.596	1776.73
946.379	1824.04
950.161	1607.15
953.94	1484.95
957.719	1407.75
961.495	1302.4
965.27	1111.95
969.043	975.283
972.814	986.246
976.583	1000.2
980.351	1067.7
984.117	1061.68
987.882	953.515
991.644	949.717
995.405	1010.59
999.165	1623.34
1002.92	1640.5
1006.68	1944.32
1010.43	2178.55
1014.18	2464.66
1017.93	3092.31
1021.68	4432.16
1025.43	7192.32
1029.18	9194.65
1032.92	6869
1036.66	4165.04
1040.4	3171.92
1044.14	2864.71
1047.88	3242.23
1051.62	4492.03
1055.35	6041.98
1059.08	6629.94
1062.81	5269.46
1066.54	5044.87
1070.27	4637.88
1073.99	3016.91
1077.72	2321.1
1081.44	1806.84
1085.16	1576.72
1088.88	1181.23
1092.59	1073.85
1096.31	816.516
1100.02	770.664
1103.73	855.571
1107.44	869.382
1111.15	794.218
1114.86	624.406
1118.57	512.272
1122.27	478.663
1125.97	353.243
1129.67	415.563
1133.37	441.751
1137.07	580.154
1140.76	355.435
1144.45	157.781
1148.15	93.318
1151.84	89.232
1155.53	33.271
1159.21	122.699
1162.9	190.99
1166.58	208.997
1170.26	114.824
1173.94	129.492
1177.62	78.12
1181.3	23.141
1184.97	17.438
1188.65	19.893
1192.32	118.465
1195.99	61.657
1199.66	66.011
1203.33	10.953
1206.99	42.669
1210.65	21.129
1214.32	10.812
1217.98	80.077
1221.64	118.604
1225.29	108.546
1228.95	152.741
1232.6	87.772
1236.26	68.682
1239.91	4.83
1243.56	22.346
1247.2	170.187
1250.85	164.212
1254.49	255.501
1258.13	198.189
1261.78	261.425
1265.41	87.082
1269.05	38.462
1272.69	61.19
1276.32	109.198
1279.95	227.719
1283.59	188.913
1287.21	298.979
1290.84	214.281
1294.47	257.457
1298.09	66.403
1301.72	170.542
1305.34	17.458
1308.96	15.146
1312.58	195.231
1316.19	220.012
1319.81	277.201
1323.42	262.616
1327.03	232.26
1330.64	161.041
1334.25	74.994
1337.86	38.043
1341.46	134.888
1345.07	218.873
1348.67	247.985
1352.27	227.944
1355.87	288.604
1359.46	263.83
1363.06	140.268
1366.65	145.92
1370.25	32.988
1373.84	20.685
1377.43	51.562
1381.02	126.852
1384.6	211.728
1388.18	301.133
1391.77	252.473
1395.35	216.57
1398.93	146.822
1402.51	96.357
1406.08	97.796
1409.66	15.32
1413.23	0.317
1416.8	142.294
1420.37	146.287
1423.94	209.729
1427.51	273.197
1431.08	258.913
1434.64	290.39
1438.2	124.467
1441.76	106.53
1445.32	99.336
1448.88	78.075
1452.43	46.289
1455.99	57.522
1459.54	184.434
1463.09	292.062
1466.64	257.732
1470.19	369.163
1473.74	348.852
1477.28	144.574
1480.83	140.655
1484.37	145.897
1487.91	138.105
1491.45	59.129
1494.98	101.62
1498.52	188.78
1502.05	163.27
1505.59	388.948
1509.12	425.898
1512.65	446.599
1516.17	396.515
