Measurement: Raman, 514 nm, ccw, Raman Data Processed
Mineral: Actinolite
Rruff sample: R050336
Ideal chemistry: Ca_2_(Mg_4.5-2.5_Fe^2+^_0.5-2.5_)_=5_Si_8_O_22_(OH)_2_
Locality: Kragerø, Norway
Source: California Institute of Technology
Description: Dark green prismatic fragment
Measured chemistry: ([box]_0.62_Na_0.34_K_0.04_)(Ca_1.60_Na_0.40_)_Σ=2_(Mg_3.90_Fe^2+^_0.70_Al_0.20_Ti_0.10_Fe^3+^_0.10_)_Σ=5_(Si_7.52_Al_0.48_)_Σ=8_O_22_((OH)_0.97_F_0.03_)_2_
Pin_id: M00375
Orientation: Laser parallel to b* (0 1 0). Fiducial mark perpendicular to laser is parallel to -c [0 0 -1]
Raman shift (cm-1)	intensity
144.817	0
149.732	45.2068
154.644	23.8957
159.554	71.365
164.461	314.174
169.366	800.105
174.269	1325.58
179.168	1713.57
184.066	1219.04
188.961	815.894
193.853	590.881
198.743	453.614
203.631	469.299
208.516	614.78
213.398	1167.24
218.278	1765.35
223.156	2079.77
228.031	1658.63
232.903	1241.05
237.773	688.26
242.641	357.752
247.506	266.008
252.368	168.581
257.228	58.2781
262.086	15.0881
266.941	55.9976
271.793	117.992
276.643	24.9126
281.491	77.8462
286.336	223.897
291.178	247.249
296.018	214.711
300.856	177.894
305.691	156.925
310.523	73.4912
315.353	137.607
320.181	222.886
325.006	294.463
329.828	563.689
334.648	562.011
339.465	449.145
344.28	505.478
349.093	456.796
353.903	581.473
358.71	922.391
363.515	1619.34
368.317	2133.34
373.117	1922.38
377.914	1459.45
382.709	1354.53
387.501	1497.6
392.291	1609.64
397.078	1144.63
401.863	699.577
406.645	511.467
411.425	577.777
416.202	556.311
420.977	457.369
425.749	290.017
430.518	222.618
435.285	207.18
440.05	188.739
444.812	149.268
449.571	68.8508
454.328	30.1936
459.083	41.8796
463.835	13.489
468.584	2.66211
473.331	57.8093
478.075	12.5708
482.817	1.41309
487.556	96.9368
492.293	79.2222
497.027	153.326
501.758	305.283
506.488	397.094
511.214	538.759
515.938	616.274
520.66	742.638
525.379	807.849
530.095	912.906
534.809	908.808
539.52	862.556
544.229	925.638
548.935	832.586
553.639	838.95
558.34	930.359
563.039	918.912
567.735	840.405
572.428	815.963
577.119	557.145
581.808	379.145
586.494	89.6143
591.177	41.9399
595.858	40.0098
600.536	37.7285
605.212	6.16919
609.885	52.2991
614.556	34.9929
619.224	69.269
623.889	175.929
628.552	308.993
633.213	440.744
637.871	586.54
642.526	820.246
647.179	1271.87
651.829	1756.41
656.477	2572.87
661.122	3944.26
665.764	6737.59
670.404	9934.86
675.042	8974.06
679.677	5209.22
684.309	2951.33
688.939	2115.4
693.566	1730.44
698.191	1670.76
702.813	1709.63
707.432	1689.16
712.049	2021.48
716.664	2236.86
721.276	2433.93
725.885	2468.09
730.492	2577.45
735.096	2449.48
739.697	2331.94
744.297	2052.22
748.893	1719.99
753.487	1288.59
758.078	1082.74
762.667	850.554
767.253	751.475
771.837	598.133
776.418	611.672
780.997	579.408
785.573	516.24
790.146	442.173
794.717	472.371
799.285	370.366
803.851	317.637
808.414	242.03
812.975	238.552
817.533	189.207
822.088	55.998
826.641	141.931
831.192	51.01
835.739	41.7666
840.284	23.4741
844.827	87.1938
849.367	20.2444
853.904	18.4805
858.439	54.7183
862.972	24.1111
867.501	82.1194
872.029	79.4187
876.553	137.257
881.075	139.562
885.595	263.231
890.111	224.286
894.626	320.638
899.137	244.222
903.647	245.15
908.153	304.371
912.657	284.793
917.158	366.409
921.657	457.227
926.154	441.271
930.647	442.575
935.138	399
939.627	367.821
944.113	309.805
948.596	269
953.077	279.406
957.555	185.013
962.031	251.831
966.504	238.846
970.974	174.816
975.442	197.179
979.907	248.821
984.37	222.552
988.83	180.003
993.288	247.794
997.742	364.347
1002.2	628.757
1006.64	583.341
1011.09	554.32
1015.54	643.217
1019.98	773.255
1024.42	844.895
1028.86	1039.31
1033.29	955.691
1037.72	903.705
1042.15	834.3
1046.58	868.22
1051	1005.69
1055.42	1204.11
1059.84	1303.33
1064.26	1308.4
1068.67	1027.6
1073.08	766.924
1077.49	586.686
1081.89	488.373
1086.3	381.066
1090.7	294.204
1095.1	241.74
1099.49	237.557
1103.88	259.962
1108.28	160.339
1112.66	142.806
1117.05	118.173
1121.43	58.9602
1125.81	137.633
1130.19	98.2219
1134.56	47.167
1138.93	7.69604
1143.3	6.42212
1147.67	40.4912
1152.04	0.729004
1156.4	7.2085
1160.76	7.37549
1165.11	34.7734
1169.47	14.6047
1173.82	12.2996
1178.17	8.12866
1182.51	0.770508
1186.86	12.25
1191.2	38.49
1195.54	55.4802
1199.87	57.3071
1204.2	36.9917
1208.54	7.67285
1212.86	50.2842
1217.19	46.3716
1221.51	36.2371
1225.83	69.7297
1230.15	79.1748
1234.46	79.1145
1238.78	51.1995
1243.09	80.0454
1247.39	51.8364
1251.7	146.695
1256	76.1692
1260.3	40.7744
1264.6	72.0242
1268.89	72.0249
1273.18	132.593
1277.47	123.213
1281.76	125.647
1286.04	124.925
1290.32	174.908
1294.6	132.211
1298.88	161.849
1303.15	130.928
1307.42	104.284
1311.69	140.814
1315.96	94.052
1320.22	80.1504
1324.48	61.3945
1328.74	26.3267
1332.99	95.0264
1337.24	81.9368
1341.49	3.53223
1345.74	68.6692
1349.99	77.2539
1354.23	37.5081
1358.47	12.6877
1362.71	23.4619
1366.94	84.575
1371.17	38.8689
1375.4	5.97705
1379.63	65.2229
1383.85	12.3264
1388.07	3.65674
1392.29	39.189
1396.51	52.2148
1400.72	25.27
1404.93	65.4866
1409.14	32.5535
1413.35	35.7178
1417.55	81.5925
1421.75	94.0815
1425.95	66.4026
1430.14	87.8203
1434.34	91.5769
1438.53	117.047
1442.71	123.16
1446.9	108.293
1451.08	107.67
1455.26	169.028
1459.44	154.482
1463.61	91.0171
1467.78	83.6553
1471.95	109.852
1476.12	41.717
1480.28	114.389
1484.45	57.1624
1488.61	41.0295
1492.76	39.9168
1496.91	60.8499
1501.07	61.8394
1505.21	26.9465
1509.36	72.5564
1513.5	34.6589
1517.64	50.771
1521.78	39.2353
1525.92	18.5986
1530.05	98.7288
1534.18	17.9836
1538.31	0.005615
1542.43	90.658
1546.56	60.6707
1550.67	49.1685
1554.79	105.433
1558.91	0.839844
