Measurement: Raman, 514 nm, ccw, Raman Data Processed
Mineral: Actinolite
Rruff sample: R040064
Ideal chemistry: Ca_2_(Mg_4.5-2.5_Fe^2+^_0.5-2.5_)_=5_Si_8_O_22_(OH)_2_
Locality: Ehime Perfecture, Uma Gun, Japan
Source: University of Arizona Mineral Museum
Description: Aggregate of green acicular crystals associated with chlorite
Measured chemistry: (Ca_0.95_Na_0.04_Mn_0.01_)_2_(Mg_0.88_Fe_0.12_)_5_(Si_0.98_Al_0.02_)_8_O_22_(OH)_2_
Pin_id: M00405
Orientation: Laser parallel to a [1 0 0]. Fiducial mark perpendicular to laser is parallel to b* (0 1 0)
Raman shift (cm-1)	intensity
105.03	0
109.21	602.943
113.388	1617.42
117.564	2657.27
121.738	2638.89
125.91	1183.3
130.08	197.814
134.248	26.73
138.413	196.057
142.577	347.633
146.739	111.779
150.898	2.118
155.056	815.239
159.212	1684.49
163.365	738.05
167.517	189.095
171.666	908.752
175.813	2606.08
179.959	2073.12
184.102	689.896
188.244	416.891
192.383	484.812
196.52	95.118
200.656	311.619
204.789	485.753
208.92	1094.97
213.049	1958.62
217.176	3272.46
221.302	5066.49
225.425	5230.68
229.546	5714.98
233.665	4359.3
237.782	2213.55
241.898	1397.69
246.011	1621.74
250.122	2005.69
254.231	1119.55
258.338	693.317
262.443	320.008
266.546	110.72
270.647	123.785
274.747	84.687
278.844	124.444
282.939	73.798
287.032	153.39
291.123	233.159
295.212	104.719
299.3	393.967
303.385	487.441
307.468	442.91
311.549	229.571
315.629	305.983
319.706	112.438
323.781	138.23
327.855	383.854
331.926	609.312
335.995	494.997
340.063	690.383
344.128	845.352
348.192	1190.16
352.253	1054.73
356.313	968.187
360.37	1190.47
364.426	2272.56
368.479	3804.55
372.531	3046.41
376.581	1978.15
380.629	1659.74
384.674	2041.47
388.718	3872.87
392.76	5684.3
396.8	3815.3
400.838	1807.2
404.874	1578.34
408.908	2000.64
412.94	2842.82
416.97	2893.55
420.999	1716.99
425.025	927.028
429.049	717.642
433.072	809.633
437.092	846.406
441.111	329.428
445.127	161.294
449.142	75.027
453.155	5.399
457.166	25.188
461.175	104.35
465.181	21.331
469.186	147.254
473.19	32.739
477.191	217.965
481.19	322.913
485.187	467.705
489.183	482.441
493.176	246.988
497.168	251.342
501.157	195.498
505.145	473.333
509.131	663.39
513.115	1017.03
517.097	960.545
521.077	1183.98
525.055	1157.34
529.031	1200.53
533.006	723.544
536.978	396.43
540.949	399.167
544.917	191.804
548.884	224.28
552.849	236.575
556.812	78.714
560.773	140.713
564.732	72.495
568.689	88.373
572.644	105.361
576.598	13.55
580.55	147.258
584.499	257.859
588.447	178.261
592.393	108.479
596.337	114.157
600.279	39.164
604.219	15.556
608.158	148.695
612.094	21.455
616.029	26.114
619.962	82.463
623.892	142.225
627.821	275.087
631.749	271.923
635.674	370.833
639.597	719.234
643.519	819.012
647.438	1234.68
651.356	1805.48
655.272	2103.68
659.186	3106.01
663.098	5483.29
667.009	11752.1
670.917	23382.7
674.824	21350.9
678.728	10866
682.631	5118.62
686.532	3007.02
690.432	1939.49
694.329	1406.6
698.224	1040.93
702.118	811.493
706.01	591.518
709.9	598.721
713.788	452.118
717.674	667.494
721.558	492.542
725.441	456.803
729.322	430.741
733.201	983.136
737.078	1158
740.953	1423.28
744.826	1557.47
748.698	1611.42
752.567	1255.57
756.435	827.52
760.301	497.818
764.165	501.001
768.028	312.046
771.888	43.876
775.747	268.518
779.604	123.134
783.459	318.121
787.312	263.167
791.164	178.132
795.013	46.996
798.861	92.381
802.707	161.84
806.551	115.938
810.394	30.094
814.234	136.314
818.073	247.128
821.91	200.492
825.745	154.537
829.578	87.492
833.41	69.85
837.24	7.447
841.068	4.85
844.894	97.016
848.718	209.039
852.54	0.855
856.361	57.479
860.18	124.059
863.997	55.113
867.812	297.096
871.626	359.287
875.438	199.889
879.248	341.275
883.056	82.668
886.862	334.061
890.667	243.602
894.469	256.885
898.27	218.285
902.07	139.707
905.867	371.166
909.663	712.637
913.457	744.154
917.249	735.713
921.039	1147.3
924.827	1838.5
928.614	2719.89
932.399	2521.2
936.182	1622.58
939.964	1384
943.744	975.074
947.521	1062.88
951.298	1050.54
955.072	661.537
958.845	710.928
962.615	439.928
966.384	370.494
970.152	352.658
973.917	25.367
977.681	184.129
981.443	484.932
985.203	285.801
988.962	256.818
992.719	127.891
996.474	284.811
1000.23	468.246
1003.98	542.379
1007.73	740.873
1011.48	665.1
1015.22	1124.19
1018.97	1708.71
1022.71	2562.17
1026.45	4036.45
1030.19	4550.08
1033.93	2773.9
1037.66	1858.2
1041.4	1283
1045.13	1066.72
1048.86	1391.1
1052.59	2488.05
1056.32	3781.84
1060.04	3974.89
1063.77	2888.39
1067.49	2633.91
1071.21	1857.63
1074.93	1380.96
1078.64	1116.68
1082.36	838.951
1086.07	1041.26
1089.78	703.658
1093.49	386.215
1097.2	278.947
1100.91	211.15
1104.61	405.049
1108.32	524.514
1112.02	546.584
1115.72	307.992
1119.41	29.979
1123.11	52.215
1126.8	163.623
1130.5	14.383
1134.19	188.598
1137.88	380.863
1141.56	183.82
1145.25	276.799
1148.93	53.406
1152.62	138.387
1156.3	47.82
1159.98	324.445
1163.65	253.021
1167.33	425.555
1171	52.625
1174.68	173.348
1178.35	91.967
1182.02	41.557
1185.68	9.732
1189.35	308.695
1193.01	436.584
1196.67	443.824
1200.33	111.486
1203.99	97.725
1207.65	93.262
1211.31	12.18
1214.96	142.975
1218.61	199.047
1222.26	641.295
1225.91	458.258
1229.56	396.668
1233.2	272.469
1236.85	464.426
1240.49	145.33
1244.13	304.566
1247.77	314.154
1251.4	482.648
1255.04	729.852
1258.67	677.121
1262.3	333.961
1265.93	209.158
1269.56	274.574
1273.19	218.371
1276.82	101.518
1280.44	349.994
1284.06	521.516
1287.68	533.104
1291.3	574.09
1294.92	189.674
1298.53	68.344
1302.14	144.307
1305.76	127.91
1309.37	267.074
1312.98	385.912
1316.58	638.6
1320.19	690.586
1323.79	622.896
1327.39	313.008
1330.99	151.434
1334.59	111.076
1338.19	220.713
1341.79	47.371
1345.38	289.566
1348.97	445
1352.56	790.693
1356.15	752.922
1359.74	476.572
1363.32	639.371
1366.91	362.932
1370.49	47.65
1374.07	15.355
1377.65	123.373
1381.23	345.27
1384.8	628.117
1388.38	700.16
1391.95	984.328
1395.52	814.6
1399.09	653.219
1402.66	380.324
1406.22	143.254
1409.79	81.57
1413.35	329.516
1416.91	385.23
1420.47	452.264
1424.03	738.477
1427.59	520.564
1431.14	904.402
1434.69	676.455
1438.24	620.1
1441.8	564.094
1445.34	321.605
1448.89	192.291
1452.43	188.338
1455.98	154.689
1459.52	618.273
1463.06	831.006
1466.6	818.254
1470.14	1151.26
1473.67	1334.41
1477.2	1192.01
1480.74	717.412
1484.27	378.943
1487.8	354.914
1491.32	162.953
1494.85	296.266
1498.37	485.512
1501.9	416.668
1505.42	628.176
1508.94	1030.13
1512.45	1106.07
1515.97	742.051
1519.49	560.012
