Measurement: Raman, 514 nm, ccw, Raman Data Processed
Mineral: Actinolite
Rruff sample: R060045
Ideal chemistry: Ca_2_(Mg_4.5-2.5_Fe^2+^_0.5-2.5_)_=5_Si_8_O_22_(OH)_2_
Locality: Colorado, USA
Source: University of Arizona Mineral Museum
Description: Green prismatic crystals in a radial arrangement
Measured chemistry: (Ca_1.99_Na_0.01_)_Σ=2_(Mg_4.20_Fe^2+^_0.59_Al_0.09_Fe^3+^_0.08_Mn_0.02_Ti_0.01_)_Σ=5_(Si_7.82_Al_0.18_)_Σ=8_O_22_(OH)_2_
Pin_id: M00340
Orientation: Laser parallel to -a* (-1 0 0). Fiducial mark perpendicular to laser is parallel to -b [0 -1 0]
Raman shift (cm-1)	intensity
134.127	0
139.043	93.8613
143.956	28.3262
148.867	609.527
153.775	988.941
158.681	709.766
163.585	575.904
168.486	2567.52
173.385	2816.14
178.282	2016.56
183.176	850.422
188.067	316.619
192.956	108.301
197.843	435.44
202.727	1181.86
207.609	1177.25
212.489	2928.24
217.366	3610.19
222.24	3936.35
227.112	2895.92
231.982	1805.51
236.849	1211.76
241.714	1166.73
246.577	715.334
251.437	548.375
256.294	310.836
261.149	233.59
266.002	43.9395
270.852	23.168
275.7	136.81
280.545	40.9023
285.388	339.303
290.229	145.898
295.067	533.518
299.902	375.607
304.735	296.603
309.566	403.109
314.394	315.691
319.22	215.926
324.043	689.029
328.864	626.482
333.682	760.246
338.498	1090.99
343.311	1238.16
348.122	1224.56
352.931	1325.21
357.737	1895.13
362.54	3089.62
367.341	2917.32
372.14	1984.68
376.936	1873.15
381.73	2795.24
386.521	3794.92
391.31	3056.2
396.096	2139.09
400.88	1629.57
405.661	1786.69
410.44	1629.88
415.216	1121.17
419.99	549.268
424.761	430.029
429.53	509.463
434.297	294.703
439.061	147.318
443.822	49.7949
448.581	38.0938
453.337	55.2188
458.091	12.2109
462.843	27.1992
467.592	66.5938
472.338	92.6562
477.082	62.3613
481.824	180.516
486.563	228.217
491.3	42.4375
496.034	287.133
500.765	503.728
505.494	896.324
510.221	1120.76
514.945	890.012
519.666	979.916
524.385	1075.51
529.102	959
533.816	752.152
538.527	629.879
543.236	606.172
547.943	337.004
552.647	368.397
557.348	356.527
562.047	363.404
566.744	429.289
571.438	889.469
576.129	422.072
580.818	497.156
585.504	485.506
590.188	2.18555
594.87	174.031
599.549	25.3223
604.225	251.709
608.899	125.936
613.57	269.06
618.239	755.666
622.905	1006.34
627.569	711.348
632.23	722.814
636.889	892.559
641.545	1491.38
646.198	2084.78
650.849	2672.07
655.498	3553.37
660.144	6953.4
664.787	14781.5
669.428	18106.9
674.067	11908.5
678.703	5554.81
683.336	2724.49
687.967	1623.41
692.595	963.207
697.221	447.578
701.844	323.49
706.465	166.994
711.083	51.2773
715.698	69.0527
720.311	314.875
724.922	389.484
729.53	713.664
734.135	1403.02
738.738	1317.75
743.338	1389.83
747.936	880.197
752.531	640.219
757.124	134.002
761.714	124.371
766.302	103.277
770.887	169.801
775.469	149.121
780.049	79.334
784.626	4.26367
789.201	181.045
793.773	137.012
798.343	35.5098
802.91	68.7266
807.475	157.137
812.037	192.578
816.596	256.672
821.153	359.478
825.707	177.041
830.259	423.361
834.808	187.465
839.355	435.231
843.899	484.719
848.441	853.07
852.98	1010.45
857.516	986.672
862.05	910.465
866.581	747.578
871.11	421.324
875.636	416.273
880.159	390.305
884.68	611.449
889.199	534.504
893.714	605.988
898.228	500.949
902.738	462.883
907.246	673.199
911.752	594.766
916.255	611.711
920.755	888.731
925.253	1593.07
929.748	1647.39
934.241	973.527
938.731	784.383
943.218	715.688
947.703	729.731
952.186	382.586
956.665	402.738
961.142	439.273
965.617	145.656
970.089	300.086
974.558	72.3398
979.025	202.379
983.489	241.059
987.951	20.0898
992.41	283.316
996.866	617.695
1001.32	954.285
1005.77	750.551
1010.22	832.234
1014.67	1126.98
1019.11	2152.54
1023.55	3238.82
1027.99	2973.23
1032.42	1838.58
1036.86	1196.39
1041.29	792.176
1045.72	1226.76
1050.14	1735.68
1054.56	2471.57
1058.98	2252.12
1063.4	2545.22
1067.82	2227.6
1072.23	1222.21
1076.64	903.144
1081.05	990.301
1085.45	844.613
1089.85	630.074
1094.25	417.606
1098.65	308.219
1103.04	319.898
1107.43	257.57
1111.82	275.387
1116.21	381.258
1120.59	360.18
1124.97	41.1211
1129.35	424.781
1133.73	52.2891
1138.1	35.5312
1142.47	80.1875
1146.84	47.4883
1151.21	66.6172
1155.57	209.766
1159.93	9.94141
1164.29	112.008
1168.64	214.981
1172.99	68.9727
1177.34	238.918
1181.69	245.676
1186.04	253.004
1190.38	179.68
1194.72	199.098
1199.05	153.176
1203.39	286.371
1207.72	686.195
1212.05	176.176
1216.37	235.113
1220.7	242.019
1225.02	319.316
1229.34	285.633
1233.65	280.914
1237.97	662.375
1242.28	456.293
1246.59	534.195
1250.89	185.098
1255.19	155.453
1259.49	219.785
1263.79	819.316
1268.09	587.062
1272.38	514.266
1276.67	727.234
1280.95	629.16
1285.24	528.25
1289.52	449.039
1293.8	735.902
1298.08	429.75
1302.35	312.379
1306.62	541.582
1310.89	767.215
1315.15	778.496
1319.42	922.594
1323.68	619.598
1327.94	307.578
1332.19	121.676
1336.44	331.852
1340.69	170.992
1344.94	463.285
1349.19	364.66
1353.43	8.19531
1357.67	389.902
1361.9	236.785
1366.14	111.84
1370.37	81.1016
1374.6	543.516
1378.83	191.086
1383.05	518.305
1387.27	332.383
1391.49	230.273
1395.7	128.949
1399.92	173.223
1404.13	268.844
1408.34	460.836
1412.54	103.176
1416.74	256.969
1420.94	455.934
1425.14	147.734
1429.34	715.129
1433.53	605.977
1437.72	1249.93
1441.9	1659.78
1446.09	1941.62
1450.27	2182.38
1454.45	1886.48
1458.63	1682.79
1462.8	1448.82
1466.97	1006.71
1471.14	1042.37
1475.31	679.18
1479.47	754.625
1483.63	557.324
1487.79	421.406
1491.94	437.055
1496.09	334.188
1500.24	256.5
1504.39	345.953
1508.54	228.719
1512.68	145.922
1516.82	407.008
1520.95	57.0977
1525.09	257.277
1529.22	271.539
1533.35	489.062
1537.47	264.648
1541.6	433
1545.72	652.848
1549.83	381.312
1553.95	206.019
1558.06	270.246
1562.17	370.203
1566.28	196.426
1570.38	0
