Measurement: Raman, 514 nm, ccw, Raman Data Processed
Mineral: Actinolite
Rruff sample: R060041
Ideal chemistry: Ca_2_(Mg_4.5-2.5_Fe^2+^_0.5-2.5_)_=5_Si_8_O_22_(OH)_2_
Locality: Prince of Wales Island, Alaska, USA
Source: University of Arizona Mineral Museum
Description: Green acicular crystals forming parallel groups in cylindrical or bladed forms
Measured chemistry: (Ca_0.97_Na_0.03_)_2_(Mg_0.65_Fe^2+^_0.29_Fe^3+^_0.04_Al_0.01_Mn_0.01_)_5_(Si_0.98_Al_0.02_)_8_O_22_(OH)_2_
Raman shift (cm-1)	intensity
95.948	0
100.883	251.573
105.815	3312.91
110.744	7066.19
115.671	10259
120.596	4851.33
125.519	882.811
130.439	231.76
135.356	21.6133
140.271	897.956
145.184	1640.72
150.094	2191.83
155.002	1603.06
159.908	1103.67
164.811	4121.29
169.711	7288.52
174.61	7843.79
179.505	3931.48
184.399	1303.4
189.29	1371.78
194.178	1783.65
199.064	2301.62
203.948	2760.3
208.829	3435.23
213.708	5674.67
218.585	6167.06
223.459	4608.68
228.33	2384.47
233.199	1320.37
238.066	569.338
242.93	253.554
247.792	295.221
252.651	64.5303
257.508	51.5684
262.363	182.429
267.215	70.0039
272.064	118.56
276.912	268.692
281.756	522.545
286.598	764.321
291.438	706.464
296.276	492.65
301.111	249.84
305.943	281.719
310.773	266.195
315.601	346.383
320.426	703.835
325.248	1016.88
330.068	1360.87
334.886	1936.17
339.701	2184.44
344.514	2788.57
349.324	3479.75
354.132	4999.77
358.938	6464.58
363.741	6587.15
368.541	5300.46
373.339	4820.41
378.135	5430.24
382.928	6391.7
387.718	5869.9
392.506	4419.11
397.292	3392.42
402.075	2811.38
406.856	2478.44
411.634	1776.76
416.41	972.328
421.183	479.359
425.954	427.152
430.722	368.654
435.488	213.065
440.251	56.6113
445.012	41.1758
449.77	72.5576
454.526	37.4365
459.28	124.4
464.03	65.959
468.779	28.3066
473.525	89.833
478.268	416.507
483.009	183.777
487.747	304.614
492.483	302.033
497.217	622.045
501.948	765.649
506.676	781.85
511.402	870.656
516.125	908.158
520.846	989.418
525.565	1223.51
530.281	882.654
534.994	886.828
539.705	774.861
544.413	748.661
549.119	598.197
553.822	602.89
558.523	782.936
563.222	680.866
567.917	630.428
572.611	536.551
577.302	472.304
581.99	376.473
586.676	62.7549
591.359	62.956
596.04	25.5469
600.718	6.34473
605.394	10.4658
610.067	145.578
614.737	184.071
619.406	396.783
624.071	675.121
628.734	1030.5
633.395	1400.57
638.053	2331.9
642.708	3185.77
647.361	4654.84
652.012	6797.4
656.66	12081.5
661.305	25917.2
665.948	40389.9
670.588	36462.1
675.226	18644.6
679.861	8462.18
684.494	4590.01
689.124	2953.95
693.752	2084.25
698.377	1325.78
702.999	1068.14
707.619	949.334
712.237	585.275
716.852	650.138
721.464	888.037
726.074	821.67
730.681	1232.73
735.286	1588.62
739.888	2018.81
744.488	2278.52
749.085	1621.71
753.68	833.911
758.272	866.097
762.861	339.981
767.448	359.584
772.033	110.894
776.614	192.898
781.194	95.6152
785.77	193.035
790.345	33.8711
794.916	133.685
799.485	25.6104
804.052	165.314
808.616	145.369
813.177	135.343
817.736	93.5361
822.292	10.415
826.846	83.9844
831.397	143.027
835.945	190.066
840.491	13.1621
845.035	154.306
849.576	80.3887
854.114	153.565
858.65	276.367
863.183	132.043
867.713	102.719
872.241	274.316
876.767	443.879
881.29	449.393
885.81	399.812
890.328	433.168
894.843	416.402
899.356	369.576
903.866	389.957
908.373	740.898
912.878	971.082
917.38	1301.94
921.88	2158.14
926.377	2677.6
930.872	2456.35
935.364	1481.35
939.853	1557.54
944.34	1292.64
948.824	940.094
953.306	802.783
957.785	649.75
962.261	496.027
966.735	391.115
971.207	500.699
975.675	342.266
980.141	493.242
984.605	536.871
989.066	455.607
993.524	580.994
997.98	876.396
1002.43	906.043
1006.88	1329.82
1011.33	1666.71
1015.78	2432.94
1020.22	3898.38
1024.66	5071.64
1029.1	4704.88
1033.53	2702.9
1037.97	2242.26
1042.4	2696.35
1046.82	4391.4
1051.25	6313.68
1055.67	6603.47
1060.09	6759.03
1064.51	7493.52
1068.92	4699.9
1073.33	2731.27
1077.74	1572.45
1082.15	1256.06
1086.55	1043.27
1090.95	685.684
1095.35	764.154
1099.75	709.285
1104.14	584.875
1108.53	621.551
1112.92	391.113
1117.31	479.553
1121.69	699.07
1126.07	488.566
1130.45	397.414
1134.82	311.75
1139.19	333.008
1143.57	310.18
1147.93	121.231
1152.3	127.156
1156.66	85.3633
1161.02	20.1016
1165.38	116.256
1169.73	119.272
1174.08	144.559
1178.43	100.172
1182.78	18.6406
1187.12	21.9199
1191.46	17.7363
1195.8	67.0078
1200.14	123.254
1204.47	195.125
1208.8	63.2812
1213.13	138.836
1217.46	185.748
1221.78	140.42
1226.1	23.8027
1230.42	67.9844
1234.73	389.127
1239.04	230.891
1243.35	51.8945
1247.66	300.273
1251.97	305.326
1256.27	189.102
1260.57	156.129
1264.86	385.565
1269.16	423.805
1273.45	235.807
1277.74	470.475
1282.03	249.877
1286.31	340.15
1290.59	316.807
1294.87	470.58
1299.14	205.154
1303.42	461.398
1307.69	464.107
1311.95	489.273
1316.22	581.012
1320.48	585.086
1324.74	410.666
1329	219.107
1333.26	427.818
1337.51	372.088
1341.76	465.598
1346	428.924
1350.25	328.471
1354.49	424.434
1358.73	324.185
1362.96	215.035
1367.2	290.676
1371.43	73.3594
1375.66	203.147
1379.88	25.2207
1384.11	1.32227
1388.33	144.6
1392.54	189.01
1396.76	98.2383
1400.97	248.773
1405.18	32.0879
1409.39	123.647
1413.59	165.031
1417.8	86.1094
1421.99	210.869
1426.19	89.2168
1430.38	39.5918
1434.58	301.678
1438.77	171.902
1442.95	329
1447.13	118.986
1451.32	12.1289
1455.49	236.057
1459.67	93.4883
1463.84	267.978
1468.01	67.168
1472.18	216.762
1476.35	238.336
1480.51	49.6367
1484.67	336.301
1488.83	45.1641
1492.98	240.793
1497.13	29.7734
1501.28	137.398
1505.43	57.2012
1509.57	223.512
1513.71	84.7949
1517.85	94.6875
1521.99	163.191
1526.12	223.41
1530.25	207.158
1534.38	203.49
1538.5	498.941
1542.62	293.664
1546.74	3.80273
1550.86	553.922
1554.98	421.424
1559.09	169.094
1563.2	185.435
1567.31	268.961
