Measurement: Raman, 514 nm, ccw, Raman Data Processed
Mineral: Actinolite
Rruff sample: R040064
Ideal chemistry: Ca_2_(Mg_4.5-2.5_Fe^2+^_0.5-2.5_)_=5_Si_8_O_22_(OH)_2_
Locality: Ehime Perfecture, Uma Gun, Japan
Source: University of Arizona Mineral Museum
Description: Aggregate of green acicular crystals associated with chlorite
Measured chemistry: (Ca_0.95_Na_0.04_Mn_0.01_)_2_(Mg_0.88_Fe_0.12_)_5_(Si_0.98_Al_0.02_)_8_O_22_(OH)_2_
Pin_id: M00297
Orientation: Laser parallel to c* (0 0 1). Fiducial mark perpendicular to laser is parallel to -b [0 -1 0]
Raman shift (cm-1)	intensity
96.858	0
101.036	10.185
105.212	200.588
109.387	480.474
113.559	763.61
117.729	966.356
121.897	300.886
126.063	145.136
130.228	114.358
134.39	116.154
138.55	172.175
142.709	152.442
146.865	279.312
151.019	1347.68
155.171	3071.82
159.322	4086.69
163.47	2158.15
167.617	1713.07
171.761	3174.36
175.904	4517.91
180.044	3510.63
184.183	1400.5
188.319	808.56
192.454	775.417
196.586	985.828
200.717	1386.4
204.846	2197.77
208.972	3881.09
213.097	7123.2
217.22	13206.1
221.341	19161.7
225.46	22187.9
229.577	22681.8
233.692	16573.2
237.805	8231.27
241.916	6525.83
246.025	7516.92
250.132	7146.49
254.237	4435.62
258.34	2634.32
262.442	1546.82
266.541	933.364
270.639	427.939
274.734	194.457
278.828	23.452
282.919	11.39
287.009	11.377
291.097	180.448
295.183	556.398
299.266	1086.78
303.348	1254.92
307.428	911.906
311.507	519.853
315.583	163.371
319.657	46.526
323.729	99.475
327.8	61.375
331.868	145.614
335.935	384.152
339.999	1066.75
344.062	2164.62
348.123	3392.76
352.182	3707.18
356.239	3293.86
360.294	4220.8
364.347	7736.97
368.398	10269.4
372.448	7579
376.495	4566.65
380.54	4116.42
384.584	5871.4
388.626	9847.55
392.666	11973.9
396.704	7625.38
400.74	4181.1
404.774	4098.41
408.806	6069.65
412.836	8492.41
416.865	7896.57
420.891	4596.84
424.916	2575.23
428.939	2532.87
432.959	3241.75
436.978	2822.79
440.996	1080.8
445.011	310.466
449.024	21.048
453.036	23.671
457.045	42.397
461.053	4.675
465.059	36.979
469.063	9.303
473.065	3.389
477.065	129.063
481.063	278.358
485.06	295.826
489.054	139.678
493.047	7.947
497.038	49.268
501.027	171.682
505.014	540.173
508.999	1042.69
512.982	1993.27
516.964	2890.92
520.944	3463.58
524.921	4133.24
528.897	4070.91
532.871	2351.53
536.844	1117.1
540.814	551.605
544.783	411.021
548.749	306.338
552.714	198.552
556.677	74.656
560.638	56.075
564.597	52.48
568.555	94.097
572.511	153.515
576.464	185.791
580.416	188.928
584.366	210.922
588.315	81.767
592.261	4.427
596.206	97.299
600.148	73.803
604.089	47.109
608.028	5.886
611.965	105.931
615.901	94.109
619.834	202.408
623.766	229.585
627.696	417.753
631.624	519.4
635.551	851.681
639.475	1186.49
643.398	1798.94
647.318	2610.93
651.237	3665.28
655.155	5026.08
659.07	7062.59
662.984	12970.1
666.895	27358.7
670.805	45656.1
674.713	41344.8
678.62	21269.5
682.524	10888.4
686.427	7318.33
690.328	5282.85
694.227	3666.04
698.124	2437.28
702.02	1797.31
705.913	1306.13
709.805	990.607
713.695	817.854
717.584	727.539
721.47	738.682
725.355	595.345
729.238	681.011
733.119	855.167
736.998	1012.12
740.876	1291.86
744.752	1864.14
748.626	2467.57
752.498	1956.27
756.368	1162.85
760.237	980.803
764.104	597.881
767.969	336.793
771.832	402.329
775.693	229.254
779.553	219.591
783.411	129.81
787.267	111.934
791.122	482.955
794.974	40.86
798.825	4.634
802.674	10.255
806.522	53.717
810.367	21.137
814.211	3.66
818.053	23.177
821.893	36.558
825.732	105.344
829.568	13.998
833.403	33.38
837.236	25.443
841.068	30.531
844.898	10.647
848.726	12.953
852.552	63.651
856.376	63.192
860.199	78.681
864.02	153.124
867.839	126.526
871.656	146.953
875.472	272.456
879.286	244.051
883.098	319.676
886.909	395.353
890.717	519.054
894.524	580.811
898.33	562.608
902.133	730.442
905.935	932.473
909.735	1144.86
913.533	1327.55
917.33	2029.52
921.124	2985.64
924.918	4713.91
928.709	7042.26
932.499	6081.72
936.286	3697.15
940.073	2729.13
943.857	3028.63
947.64	3092.79
951.421	2315.66
955.2	1713.24
958.978	1383.28
962.753	1233.64
966.527	1104.55
970.3	1022.95
974.071	1022.46
977.84	978.118
981.607	1031.22
985.372	1041.56
989.136	1068.13
992.898	1061.15
996.659	1242.55
1000.42	1540.07
1004.17	1749.86
1007.93	2311.57
1011.68	3021.2
1015.43	4243.98
1019.18	6113.17
1022.93	8703.79
1026.68	13596.2
1030.42	14047.3
1034.17	8523.56
1037.91	5094.1
1041.65	3824.38
1045.39	3743.03
1049.12	4595.64
1052.86	6765.84
1056.59	10369.2
1060.33	10737.8
1064.06	8014.15
1067.78	6755.07
1071.51	4811.51
1075.23	3092.83
1078.96	2204.75
1082.68	1631.34
1086.4	1377.48
1090.12	1148.75
1093.83	882.135
1097.55	811.731
1101.26	613.869
1104.97	609.934
1108.68	432.198
1112.39	479.894
1116.1	430.476
1119.8	432.016
1123.5	523.175
1127.2	372.07
1130.9	246.499
1134.6	223.583
1138.3	246.756
1141.99	122.46
1145.69	60.971
1149.38	133.342
1153.07	86.787
1156.76	81.171
1160.44	85.8
1164.13	107.314
1167.81	18.863
1171.49	33.869
1175.17	71.254
1178.85	1.894
1182.52	11.475
1186.2	11.625
1189.87	5.06
1193.54	19.6
1197.21	10.039
1200.88	34.797
1204.55	24.616
1208.21	3.279
1211.88	5.16
1215.54	11.155
1219.2	18.546
1222.86	75.122
1226.51	29.642
1230.17	10.957
1233.82	32.524
1237.47	54.096
1241.12	44.986
1244.77	75.926
1248.42	73.529
1252.06	15.475
1255.71	43.465
1259.35	138.067
1262.99	127.627
1266.63	112.661
1270.26	78.92
1273.9	53.501
1277.53	70.448
1281.16	82.772
1284.8	81.696
1288.42	211.566
1292.05	45.606
1295.68	86.347
1299.3	55.627
1302.92	64.032
1306.55	43.312
1310.16	193.812
1313.78	46.249
1317.4	59.922
1321.01	54.839
1324.62	118.093
1328.24	167.448
1331.85	104.249
1335.45	6.413
1339.06	38.738
1342.66	221.541
1346.27	147.919
1349.87	246.566
1353.47	170.219
1357.07	172.817
1360.66	223.343
1364.26	80.826
1367.85	136.811
1371.44	41.286
1375.04	104.957
1378.62	57.832
1382.21	166.975
1385.8	21.917
1389.38	10.814
1392.96	162.523
1396.54	181.353
1400.12	34.71
1403.7	64.906
1407.28	39.113
1410.85	0.614
1414.42	84.769
1417.99	87.808
1421.56	107.223
1425.13	107.34
1428.7	50.332
1432.26	103.106
1435.83	147.365
1439.39	171.956
1442.95	122.79
1446.51	149.426
1450.06	142.461
1453.62	174.527
1457.17	226.862
1460.73	249.377
1464.28	175.763
1467.83	85.513
1471.37	61.827
1474.92	47.166
1478.46	153.525
1482.01	196.016
1485.55	140.847
1489.09	101.527
1492.63	58.544
1496.16	110.921
1499.7	29.164
1503.23	87.355
1506.76	112.54
1510.29	3.564
1513.82	117.841
1517.35	98.242
1520.88	61.777
1524.4	65.969
