Measurement: Raman, 514 nm, ccw, Raman Data Processed
Mineral: Actinolite
Rruff sample: R040063
Ideal chemistry: Ca_2_(Mg_4.5-2.5_Fe^2+^_0.5-2.5_)_=5_Si_8_O_22_(OH)_2_
Locality: Harford County, Maryland, USA
Source: University of Arizona Mineral Museum
Description: Mass of green acicular to bladed crystals associated with chlorite
Measured chemistry: (Ca_1.90_Na_0.06_Mn_0.04_)_Σ=2_(Mg_4.35_Fe_0.65_)_Σ=5_(Si_7.92_Al_0.08_)_Σ=8_O_22_(OH)_2_
Pin_id: S00044
Orientation: Laser parallel to b* (0 1 0). Fiducial mark perpendicular to laser is parallel to c [0 0 1]
Raman shift (cm-1)	intensity
146.865	0
151.019	97.367
155.171	507.733
159.322	553.05
163.47	291.057
167.617	660.09
171.761	2996.34
175.904	5559.27
180.044	4009.49
184.183	1519.63
188.319	437.608
192.454	188.942
196.586	89.459
200.717	110.688
204.846	376.242
208.972	819.766
213.097	1986.89
217.22	4491.28
221.341	5868.99
225.46	4410.38
229.577	2596.25
233.692	1387.04
237.805	705.07
241.916	450.519
246.025	337.488
250.132	404.537
254.237	224.573
258.34	468.567
262.442	2.45
266.541	7.879
270.639	123.42
274.734	104.162
278.828	6.104
282.919	214.758
287.009	567.417
291.097	585.398
295.183	511.247
299.266	509.016
303.348	435.664
307.428	327.043
311.507	218.693
315.583	190.988
319.657	248.392
323.729	420.054
327.8	940.332
331.868	1152.71
335.935	1250.08
339.999	1432.91
344.062	1440.43
348.123	1428.48
352.182	1410.22
356.239	1601.71
360.294	2489.97
364.347	4660.02
368.398	5692.85
372.448	3769.78
376.495	2270.46
380.54	1839.85
384.584	2334.17
388.626	3471.42
392.666	3693.57
396.704	2341.6
400.74	1284.51
404.774	1108.3
408.806	1210.94
412.836	1332.66
416.865	1130.81
420.891	730.02
424.916	375.257
428.939	371.618
432.959	315.092
436.978	380.647
440.996	191.985
445.011	69.616
449.024	43.18
453.036	18.18
457.045	20.657
461.053	1.804
465.059	47.613
469.063	0.158
473.065	26.5
477.065	75.481
481.063	329.961
485.06	127.949
489.054	76.582
493.047	4.886
497.038	17.534
501.027	63.558
505.014	155.518
508.999	289.346
512.982	416.036
516.964	551.57
520.944	631.964
524.921	560.229
528.897	577.333
532.871	628.282
536.844	431.092
540.814	489.769
544.783	436.313
548.749	384.724
552.714	230.852
556.677	224.143
560.638	234.152
564.597	273.029
568.555	236.773
572.511	236.386
576.464	209.869
580.416	242.223
584.366	305.453
588.315	90.671
592.261	17.946
596.206	44.339
600.148	85.756
604.089	135.509
608.028	155.548
611.965	107.813
615.901	145.661
619.834	176.896
623.766	398.572
627.696	477.113
631.624	578.637
635.551	640.715
639.475	1109.61
643.398	1805.81
647.318	2776.05
651.237	3900.61
655.155	4461.42
659.07	5372.43
662.984	8359.63
666.895	16153.1
670.805	25204.9
674.713	19926.8
678.62	10450
682.524	5050.5
686.427	2930.88
690.328	1821.06
694.227	1200.24
698.124	895.346
702.02	788.244
705.913	565.06
709.805	402.796
713.695	378.454
717.584	344.037
721.47	180.544
725.355	257.98
729.238	299.346
733.119	347.644
736.998	338.876
740.876	483.044
744.752	808.807
748.626	915.669
752.498	654.57
756.368	424.783
760.237	285.596
764.104	118.456
767.969	142.272
771.832	18.207
775.693	72.137
779.553	64.275
783.411	54.128
787.267	11.826
791.122	9.683
794.974	6.693
798.825	105.919
802.674	51.478
806.522	62.331
810.367	12.603
814.211	108.523
818.053	26.87
821.893	11.314
825.732	42.161
829.568	1.422
833.403	23.902
837.236	110.156
841.068	45.383
844.898	37.604
848.726	18.807
852.552	195.986
856.376	204.149
860.199	239.318
864.02	407.532
867.839	422.749
871.656	226.984
875.472	337.259
879.286	385.533
883.098	288.835
886.909	294.184
890.717	380.534
894.524	323.909
898.33	323.343
902.133	288.882
905.935	295.51
909.735	418.162
913.533	505.82
917.33	598.505
921.124	876.245
924.918	1263.74
928.709	1730.23
932.499	1527.72
936.286	1075.06
940.073	987.744
943.857	1057.55
947.64	1170.74
951.421	863.887
955.2	624.633
958.978	373.529
962.753	323.546
966.527	333.116
970.3	279.043
974.071	225.108
977.84	262.771
981.607	279.044
985.372	224.854
989.136	262.903
992.898	242.481
996.659	281.083
1000.42	609.328
1004.17	717.645
1007.93	716.089
1011.68	820.306
1015.43	1020.12
1019.18	1279.48
1022.93	2142.76
1026.68	3242.09
1030.42	3071.64
1034.17	2085.85
1037.91	1495.2
1041.65	1404.83
1045.39	1528.78
1049.12	2383.59
1052.86	3687.87
1056.59	5049.07
1060.33	4447.73
1064.06	3637.1
1067.78	3470.55
1071.51	2420.51
1075.23	1559.76
1078.96	1198.85
1082.68	967.825
1086.4	736.564
1090.12	456.321
1093.83	485.356
1097.55	414.13
1101.26	353.312
1104.97	442.905
1108.68	402.29
1112.39	341.479
1116.1	250.927
1119.8	160.488
1123.5	109.811
1127.2	158.914
1130.9	27.963
1134.6	117.299
1138.3	110.483
1141.99	59.77
1145.69	158.975
1149.38	108.202
1153.07	47.08
1156.76	43.497
1160.44	215.714
1164.13	16.745
1167.81	115.166
1171.49	6.586
1175.17	61.446
1178.85	1.158
1182.52	6.154
1186.2	3.723
1189.87	2.602
1193.54	64.227
1197.21	155.715
1200.88	23.45
1204.55	364.969
1208.21	365.431
1211.88	8.635
1215.54	6.744
1219.2	112.67
1222.86	163.154
1226.51	231.455
1230.17	189.173
1233.82	94.569
1237.47	202.889
1241.12	207.637
1244.77	130.968
1248.42	315.221
1252.06	198.503
1255.71	361.441
1259.35	194.073
1262.99	118.644
1266.63	206.852
1270.26	218.925
1273.9	250.727
1277.53	141.966
1281.16	243.675
1284.8	354.415
1288.42	203.088
1292.05	262.688
1295.68	202.104
1299.3	111.199
1302.92	237.565
1306.55	92.74
1310.16	308.997
1313.78	186.179
1317.4	308.082
1321.01	304.852
1324.62	170.015
1328.24	190.67
1331.85	64.29
1335.45	159.812
1339.06	39.755
1342.66	20.815
1346.27	155.513
1349.87	189.734
1353.47	333.65
1357.07	264.651
1360.66	134.165
1364.26	46.968
1367.85	39.609
1371.44	27.511
1375.04	15.365
1378.62	41.087
1382.21	66.287
1385.8	183.438
1389.38	119.498
1392.96	345.313
1396.54	301.251
1400.12	266.705
1403.7	116.892
1407.28	69.97
1410.85	72.937
1414.42	194.82
1417.99	144.43
1421.56	136.434
1425.13	298.769
1428.7	290.091
1432.26	428.525
1435.83	293.819
1439.39	314.713
1442.95	395.307
1446.51	308.875
1450.06	446.448
1453.62	361.499
1457.17	416.36
1460.73	580.93
1464.28	615.107
1467.83	677.957
1471.37	599.727
1474.92	559.061
1478.46	500.826
1482.01	282.384
1485.55	164.979
1489.09	177.682
1492.63	50.806
1496.16	155.954
1499.7	102.588
1503.23	61.142
1506.76	182.629
1510.29	398.454
1513.82	331.376
1517.35	158.509
