Measurement: Raman, 514 nm, ccw, Raman Data Processed
Mineral: Actinolite
Rruff sample: R050025
Ideal chemistry: Ca_2_(Mg_4.5-2.5_Fe^2+^_0.5-2.5_)_=5_Si_8_O_22_(OH)_2_
Locality: Tyrol, Austria
Source: Eugene Schlepp
Description: Green colored bladed single crystals
Measured chemistry: (Ca_.930_Na_.056_Mn_.010_K_.004_)_2_(Mg_.883_Fe_.117_)_5_(Si_.978_Al_.022_)_8_O_22_(OH)_2_
Pin_id: L00067
Orientation: Laser parallel to (1 0 1). Fiducial mark perpendicular to laser is parallel to -b [0 -1 0]
Raman shift (cm-1)	intensity
85.706	0
89.89	372.896
94.071	625.601
98.251	419.945
102.428	597.671
106.604	904.407
110.777	1269.62
114.949	2259.01
119.119	1143.98
123.286	784.001
127.452	211.613
131.615	137.849
135.777	46.046
139.937	145.122
144.094	50.27
148.25	24.424
152.403	480.837
156.555	2232.84
160.705	3203.81
164.853	1359.94
168.998	1055.32
173.142	1972.95
177.284	3530.23
181.424	2696.38
185.562	1274.22
189.698	649.146
193.831	568.223
197.963	601.732
202.093	658.589
206.221	1180.86
210.347	2241.7
214.472	4394.25
218.594	8125.04
222.714	11420
226.832	12152.9
230.948	13243
235.063	9240.01
239.175	4505.07
243.286	3265.15
247.394	3919.22
251.501	3700.91
255.605	2350.83
259.708	1378.27
263.808	982.032
267.907	307.605
272.004	36.742
276.099	0.759
280.192	83.016
284.283	107.242
288.372	7.466
292.459	9.757
296.544	325.247
300.627	633.216
304.709	742.705
308.788	566.706
312.865	218.103
316.941	77.781
321.015	60.259
325.086	131.494
329.156	24.438
333.224	227.176
337.29	483.545
341.354	738.062
345.416	1460.35
349.476	2197.6
353.534	2656.82
357.591	2328.86
361.645	2657.86
365.698	4968.83
369.748	7143.58
373.797	5029.96
377.844	3115.28
381.889	2530.08
385.932	3767.78
389.973	6264.95
394.012	7211.06
398.049	4497.1
402.084	2754.07
406.118	2823.97
410.15	3880.8
414.179	5437.82
418.207	5283.53
422.233	3473.15
426.257	2172.85
430.279	1877.97
434.299	2480.84
438.318	2094.15
442.334	969.133
446.349	350.519
450.361	281.73
454.372	213.034
458.381	277.045
462.388	156.93
466.394	413.766
470.397	354.293
474.398	271.089
478.398	324.449
482.396	326.783
486.391	430.49
490.385	292.191
494.377	165.653
498.368	254.983
502.356	494.281
506.342	857.554
510.327	1413.06
514.31	2047.5
518.291	2375.28
522.27	2546.93
526.247	2938.5
530.222	2833.96
534.196	1708.26
538.167	1330.46
542.137	1101.52
546.105	818.393
550.071	648.042
554.035	591.468
557.998	839.674
561.958	601.651
565.917	536.395
569.874	235.9
573.829	385.159
577.782	543.174
581.733	408.943
585.683	355.462
589.63	78.719
593.576	46.587
597.52	24.957
601.462	90.133
605.402	110.723
609.341	104.66
613.277	63.896
617.212	61.37
621.145	231.678
625.076	95.741
629.006	78.663
632.933	269.675
636.859	687.7
640.783	848.104
644.705	1376.96
648.625	2100.52
652.543	2847.58
656.46	3947.97
660.375	5495.2
664.288	9945.17
668.199	20901.6
672.108	32086.1
676.016	23798.3
679.921	11408.2
683.825	6289.97
687.727	4486.86
691.628	3330.4
695.526	2527.49
699.423	1705.41
703.318	1205.13
707.211	768.56
711.102	939.43
714.992	851.606
718.879	386.184
722.765	465.48
726.649	541.244
730.532	689.995
734.412	896.479
738.291	1075.7
742.168	1190.46
746.043	1690.21
749.916	1549.47
753.788	1172.6
757.658	746.858
761.526	549.51
765.392	477.52
769.257	464.486
773.119	461.738
776.98	296.879
780.839	150.871
784.697	126.289
788.552	22.805
792.406	169.279
796.258	36.639
800.108	83.664
803.957	93.881
807.804	44.074
811.649	185.328
815.492	226.768
819.333	10.525
823.173	126.123
827.011	131.467
830.847	88.426
834.681	119.287
838.514	37.686
842.345	0.82
846.174	61.266
850.001	91.562
853.827	134.92
857.651	174.332
861.473	100.719
865.293	153.072
869.112	312.443
872.928	213.854
876.744	174.27
880.557	273.689
884.369	528.162
888.178	512.637
891.987	605.094
895.793	721.531
899.598	789.975
903.401	1004.58
907.202	903.447
911.001	1069.7
914.799	1311.1
918.595	1662.79
922.389	2218.64
926.182	3459.13
929.972	4132.79
933.761	3194.69
937.549	2028.7
941.334	1750.96
945.118	1852.12
948.9	1966.16
952.681	1649.1
956.459	1432.8
960.236	1313.11
964.012	1300.33
967.785	1312.04
971.557	1212.79
975.327	1365.94
979.095	1237.07
982.862	1166.72
986.627	1088.62
990.39	1183.84
994.152	1306.83
997.912	1214.56
1001.67	1412.05
1005.43	1811.07
1009.18	2118.68
1012.93	2784.93
1016.68	3230.73
1020.43	4359.42
1024.18	6228.6
1027.93	8642.21
1031.67	7272.85
1035.42	4762.92
1039.16	3469.93
1042.9	3125.18
1046.63	3447.63
1050.37	4430.15
1054.11	5934.56
1057.84	6586.56
1061.57	5709.52
1065.3	4831.85
1069.03	4079.19
1072.75	3020.62
1076.47	2196.04
1080.2	1733.21
1083.92	1451.75
1087.64	1238.69
1091.36	1264.56
1095.07	910.668
1098.79	1254.54
1102.5	677.357
1106.21	674.561
1109.92	624.166
1113.62	633.006
1117.33	621.1
1121.04	383.566
1124.74	387.461
1128.44	385.734
1132.14	217.014
1135.83	139.67
1139.53	497.537
1143.22	527.398
1146.92	309.836
1150.61	119.115
1154.3	74.861
1157.98	62.838
1161.67	47.418
1165.35	82.789
1169.04	110.217
1172.72	209.465
1176.4	357.039
1180.07	21.271
1183.75	18.992
1187.42	225.801
1191.1	65.08
1194.77	225.908
1198.44	255.879
1202.1	217.131
1205.77	222.121
1209.43	157.41
1213.1	133.355
1216.76	67.674
1220.42	315.717
1224.07	382.051
1227.73	479.094
1231.38	401.414
1235.04	273.094
1238.69	100.805
1242.34	173.982
1245.99	58.059
1249.63	433.164
1253.28	246.393
1256.92	499.93
1260.56	479.201
1264.2	513.67
1267.84	173.525
1271.48	113.02
1275.11	17.061
1278.74	302.922
1282.38	141.938
1286.01	227.02
1289.63	249.543
1293.26	328.316
1296.89	395.809
1300.51	184.412
1304.13	33.51
1307.75	245.219
1311.37	205.25
1314.99	124.758
1318.6	32.643
1322.22	248.17
1325.83	691.578
1329.44	147.117
1333.05	177.971
1336.66	71.326
1340.26	21.34
1343.87	40.373
1347.47	242.998
1351.07	192.371
1354.67	350.174
1358.27	238.512
1361.86	482.135
1365.46	443.389
1369.05	258.543
1372.64	169.172
1376.23	46.738
1379.82	7.971
1383.41	349.732
1386.99	169.553
1390.57	459.006
1394.16	681.615
1397.74	536.385
1401.32	702.908
1404.89	457.541
1408.47	431.414
1412.04	111.715
1415.61	10.662
1419.18	29.312
1422.75	88.775
1426.32	304.775
1429.89	421.613
1433.45	462.154
1437.01	602.6
1440.58	628.41
1444.13	356.996
1447.69	314.281
1451.25	22.43
1454.81	197.936
1458.36	234.383
1461.91	270.596
1465.46	274.625
1469.01	646.4
1472.56	706.975
1476.1	738.094
1479.64	637.297
1483.19	824.658
1486.73	728.967
1490.27	426.41
1493.81	238.494
1497.34	260.193
1500.88	1.279
1504.41	111.998
1507.94	162.789
1511.47	454.268
1515	739.818
1518.53	0
