Measurement: Raman, 514 nm, ccw, Raman Data Processed
Mineral: Actinolite
Rruff sample: R050025
Ideal chemistry: Ca_2_(Mg_4.5-2.5_Fe^2+^_0.5-2.5_)_=5_Si_8_O_22_(OH)_2_
Locality: Tyrol, Austria
Source: Eugene Schlepp
Description: Green colored bladed single crystals
Measured chemistry: (Ca_.930_Na_.056_Mn_.010_K_.004_)_2_(Mg_.883_Fe_.117_)_5_(Si_.978_Al_.022_)_8_O_22_(OH)_2_
Pin_id: L00525
Orientation: Laser parallel to b* (0 1 0). Fiducial mark perpendicular to laser is parallel to c [0 0 1]
Raman shift (cm-1)	intensity
85.706	0
89.89	153.269
94.071	474.722
98.251	182.965
102.428	437.039
106.604	887.971
110.777	1553.73
114.949	3469.98
119.119	5165.62
123.286	5595.19
127.452	2495.47
131.615	1154.22
135.777	641.411
139.937	467.713
144.094	73.295
148.25	91.382
152.403	140.035
156.555	1883.77
160.705	5172.53
164.853	1260.81
168.998	785.265
173.142	2454.28
177.284	7199
181.424	6114.27
185.562	2115.25
189.698	869.211
193.831	693.447
197.963	613.104
202.093	533.414
206.221	715
210.347	1301.38
214.472	2315.23
218.594	4942.45
222.714	9202.75
226.832	6008.85
230.948	2732.8
235.063	1202.87
239.175	451.1
243.286	841.529
247.394	758.038
251.501	407.021
255.605	203.907
259.708	83.146
263.808	25.754
267.907	112.574
272.004	48.071
276.099	76.963
280.192	15.832
284.283	109.372
288.372	615.544
292.459	593.928
296.544	528.481
300.627	1046.53
304.709	1224.82
308.788	662.058
312.865	331.393
316.941	305.341
321.015	370.591
325.086	374.868
329.156	717.778
333.224	1364.51
337.29	1483.69
341.354	1758.73
345.416	1747.71
349.476	1465.34
353.534	1378.07
357.591	1093.07
361.645	1093.16
365.698	2195.06
369.748	3295.22
373.797	2361.99
377.844	1197.62
381.889	1103.83
385.932	1443.64
389.973	2511.06
394.012	3724.22
398.049	2265.91
402.084	1299
406.118	939.726
410.15	1029.76
414.179	1570.1
418.207	1670.16
422.233	1040.28
426.257	606.712
430.279	455.633
434.299	846.736
438.318	706.521
442.334	249.323
446.349	129.942
450.361	110.282
454.372	63.833
458.381	67.171
462.388	45.417
466.394	164.58
470.397	109.201
474.398	65.913
478.398	73.075
482.396	254.208
486.391	363.598
490.385	98.419
494.377	87.883
498.368	94.021
502.356	139.892
506.342	96.512
510.327	162.934
514.31	279.238
518.291	549.457
522.27	453.59
526.247	395.67
530.222	423.682
534.196	355.538
538.167	368.223
542.137	324.736
546.105	197.105
550.071	141.31
554.035	189.351
557.998	240.234
561.958	185.98
565.917	118.679
569.874	157.252
573.829	155.722
577.782	214.152
581.733	72.668
585.683	12.407
589.63	86.032
593.576	15.501
597.52	20.432
601.462	53.024
605.402	51.275
609.341	11.447
613.277	46.381
617.212	22.582
621.145	39.086
625.076	144.106
629.006	324.896
632.933	455.064
636.859	551.495
640.783	766.789
644.705	1364.32
648.625	2442.47
652.543	3909.58
656.46	4358.58
660.375	4675.52
664.288	7304.04
668.199	16015.7
672.108	30655.4
676.016	23053.9
679.921	9509.59
683.825	4657.9
687.727	2773.81
691.628	1832.3
695.526	1188.13
699.423	821.609
703.318	833.152
707.211	515.503
711.102	397.019
714.992	338.374
718.879	206.583
722.765	257.677
726.649	239.813
730.532	278.898
734.412	202.932
738.291	248.445
742.168	282.954
746.043	525.705
749.916	720.502
753.788	522.929
757.658	273.882
761.526	177.143
765.392	159.728
769.257	89.908
773.119	9.015
776.98	20.814
780.839	2.472
784.697	9.677
788.552	23.739
792.406	6.358
796.258	47.659
800.108	11.764
803.957	34.226
807.804	1.237
811.649	23.731
815.492	1.925
819.333	106.259
823.173	54.893
827.011	10.812
830.847	62.047
834.681	73.743
838.514	40.208
842.345	8.541
846.174	91.8
850.001	55.993
853.827	138.113
857.651	138.131
861.473	28.083
865.293	52.016
869.112	153.907
872.928	259.74
876.744	227.566
880.557	142.361
884.369	208.112
888.178	289.818
891.987	326.499
895.793	425.14
899.598	470.736
903.401	446.321
907.202	452.932
911.001	486.612
914.799	763.322
918.595	1041.04
922.389	1515.28
926.182	2341.59
929.972	2997.84
933.761	2550.61
937.549	1730.53
941.334	1510.88
945.118	1583.51
948.9	1663.11
952.681	1093.28
956.459	797.222
960.236	649.713
964.012	725.451
967.785	643.138
971.557	552.756
975.327	476.471
979.095	369.717
982.862	369.105
986.627	502.719
990.39	464.504
994.152	404.748
997.912	350.032
1001.67	396.275
1005.43	472.939
1009.18	563.522
1012.93	803.087
1016.68	917.135
1020.43	1112.05
1024.18	1430.94
1027.93	2076.16
1031.67	1977.12
1035.42	1616.68
1039.16	1702.38
1042.9	2209.31
1046.63	2950.48
1050.37	4311.05
1054.11	7176.34
1057.84	9899.62
1061.57	8577.29
1065.3	5510.01
1069.03	3979.01
1072.75	2484.94
1076.47	1523.32
1080.2	1076.88
1083.92	912.214
1087.64	840.304
1091.36	728.51
1095.07	612.2
1098.79	450.38
1102.5	345.3
1106.21	323.946
1109.92	337.95
1113.62	296.205
1117.33	364.722
1121.04	305.438
1124.74	266.067
1128.44	138.451
1132.14	59.138
1135.83	73.767
1139.53	123.864
1143.22	211.187
1146.92	161.603
1150.61	140.013
1154.3	26.014
1157.98	71.308
1161.67	93.806
1165.35	52.167
1169.04	37.228
1172.72	122.155
1176.4	86.22
1180.07	67.019
1183.75	24.91
1187.42	28.544
1191.1	53.522
1194.77	30.675
1198.44	67.929
1202.1	174.44
1205.77	63.027
1209.43	16.346
1213.1	4.926
1216.76	8.278
1220.42	42.486
1224.07	58.48
1227.73	59.927
1231.38	85.048
1235.04	185.862
1238.69	85.776
1242.34	84.366
1245.99	40.894
1249.63	87.247
1253.28	38.646
1256.92	54.033
1260.56	189.736
1264.2	212.306
1267.84	141.896
1271.48	158.606
1275.11	70.762
1278.74	6.696
1282.38	46.403
1286.01	84.998
1289.63	49.62
1293.26	79.517
1296.89	162.208
1300.51	80.507
1304.13	94.605
1307.75	75.592
1311.37	64.286
1314.99	12.15
1318.6	8.008
1322.22	19.278
1325.83	100.755
1329.44	188.958
1333.05	179.314
1336.66	183.688
1340.26	156.732
1343.87	96.395
1347.47	52.928
1351.07	89.112
1354.67	20.521
1358.27	118.332
1361.86	170.694
1365.46	188.304
1369.05	160.48
1372.64	214.738
1376.23	39.512
1379.82	27.818
1383.41	82.517
1386.99	65.01
1390.57	72.147
1394.16	177.601
1397.74	225.298
1401.32	228.7
1404.89	270.48
1408.47	210.556
1412.04	169.685
1415.61	70.714
1419.18	52.908
1422.75	45.602
1426.32	25.011
1429.89	75.367
1433.45	188.223
1437.01	196.57
1440.58	255.364
1444.13	251.891
1447.69	163.917
1451.25	176.359
1454.81	123.551
1458.36	112.881
1461.91	47.683
1465.46	13.969
1469.01	144.926
1472.56	131.216
1476.1	249.604
1479.64	245.418
1483.19	258.786
1486.73	343.869
1490.27	238.807
1493.81	195.515
1497.34	124.763
1500.88	130.143
1504.41	17.762
1507.94	59.526
1511.47	36.255
1515	0
