Measurement: Raman, 514 nm, ccw, Raman Data Processed
Mineral: Actinolite
Rruff sample: R060045
Ideal chemistry: Ca_2_(Mg_4.5-2.5_Fe^2+^_0.5-2.5_)_=5_Si_8_O_22_(OH)_2_
Locality: Colorado, USA
Source: University of Arizona Mineral Museum
Description: Green prismatic crystals in a radial arrangement
Measured chemistry: (Ca_1.99_Na_0.01_)_Σ=2_(Mg_4.20_Fe^2+^_0.59_Al_0.09_Fe^3+^_0.08_Mn_0.02_Ti_0.01_)_Σ=5_(Si_7.82_Al_0.18_)_Σ=8_O_22_(OH)_2_
Pin_id: M00311
Orientation: Laser parallel to c* (0 0 1). Fiducial mark perpendicular to laser is parallel to a [1 0 0]
Raman shift (cm-1)	intensity
134.127	0
139.043	382.473
143.956	73.668
148.867	2332.16
153.775	5065.81
158.681	5527.16
163.585	3403.83
168.486	5823.47
173.385	10638
178.282	8865.85
183.176	3211.58
188.067	792.169
192.956	592.707
197.843	944.921
202.727	2055.58
207.609	4165.56
212.489	9699.12
217.366	15847.5
222.24	17344.1
227.112	11944.4
231.982	6718.85
236.849	3471.17
241.714	2388.72
246.577	2284.98
251.437	1860.59
256.294	1494.51
261.149	1156.72
266.002	214.768
270.852	172.214
275.7	137.523
280.545	146.617
285.388	151.448
290.229	425.666
295.067	925.952
299.902	1062.79
304.735	712.969
309.566	546.316
314.394	440.273
319.22	345.492
324.043	737.815
328.864	838.396
333.682	1185.8
338.498	1940.4
343.311	3021.26
348.122	3427.22
352.931	3659.19
357.737	3989.83
362.54	5373.63
367.341	6078.55
372.14	4878.51
376.936	3586.45
381.73	3584.31
386.521	4477.06
391.31	4256.67
396.096	2665.14
400.88	2074.45
405.661	2085.59
410.44	2444.55
415.216	2261.96
419.99	1152.21
424.761	959.796
429.53	1038.7
434.297	873.44
439.061	552.879
443.822	81.7197
448.581	23.2725
453.337	157.175
458.091	57.0664
462.843	93.3818
467.592	35.832
472.338	166.213
477.082	124.792
481.824	71.1494
486.563	173.913
491.3	37.2022
496.034	278.01
500.765	393.459
505.494	1192.54
510.221	1650.44
514.945	1895.16
519.666	2494.78
524.385	2968.46
529.102	2643.95
533.816	1731.34
538.527	1083.48
543.236	550.457
547.943	789.112
552.647	419.432
557.348	354.374
562.047	483.327
566.744	308.359
571.438	282.118
576.129	396.385
580.818	308.144
585.504	346.338
590.188	84.3408
594.87	162.56
599.549	48.8506
604.225	39.3809
608.899	110.9
613.57	225.735
618.239	216.181
622.905	558.906
627.569	694.111
632.23	1122.84
636.889	1726.48
641.545	2681.33
646.198	3954.46
650.849	5507.75
655.498	7992.12
660.144	14142.2
664.787	27785.2
669.428	39610.4
674.067	31739.2
678.703	16391.1
683.336	8919.18
687.967	6525.02
692.595	4296.62
697.221	2801.63
701.844	1948.18
706.465	1447.27
711.083	1126.88
715.698	816.798
720.311	649.505
724.922	768.23
729.53	906.947
734.135	978.756
738.738	1235.79
743.338	1130.05
747.936	915.586
752.531	552.08
757.124	380.857
761.714	239.475
766.302	144.856
770.887	70.9766
775.469	114.811
780.049	28.3291
784.626	40.499
789.201	13.0713
793.773	57.2285
798.343	113.503
802.91	45.8027
807.475	31.7949
812.037	107.493
816.596	3.84668
821.153	27.2441
825.707	198.91
830.259	268.326
834.808	242.653
839.355	222.914
843.899	150.121
848.441	175.291
852.98	111.445
857.516	74.5918
862.05	167.756
866.581	149.002
871.11	270.607
875.636	285.449
880.159	248.574
884.68	419.842
889.199	352.184
893.714	801.604
898.228	960.15
902.738	838.791
907.246	1228.42
911.752	1401.69
916.255	2053.09
920.755	3015.04
925.253	4766.04
929.748	4755.33
934.241	3247.26
938.731	2393.13
943.218	2200.34
947.703	2193.28
952.186	1692.05
956.665	1426.65
961.142	1249.38
965.617	1075.11
970.089	1006.33
974.558	915.949
979.025	1021.94
983.489	1059.29
987.951	1092
992.41	1134.07
996.866	1213.5
1001.32	1679.3
1005.77	2071.46
1010.22	3207.99
1014.67	4000.88
1019.11	5261.11
1023.55	6150.74
1027.99	6624.39
1032.42	5094.05
1036.86	3979.83
1041.29	5157.72
1045.72	7750.08
1050.14	11994.9
1054.56	16375.5
1058.98	14939
1063.4	10305.6
1067.82	6631.64
1072.23	3787.28
1076.64	2100.02
1081.05	1262.71
1085.45	1292.41
1089.85	1046.03
1094.25	1157.45
1098.65	633.098
1103.04	556.768
1107.43	468.381
1111.82	426.164
1116.21	383.014
1120.59	360.924
1124.97	426.885
1129.35	417.887
1133.73	187.037
1138.1	94.125
1142.47	140.17
1146.84	189.838
1151.21	2.90625
1155.57	22.2773
1159.93	24.9629
1164.29	148.398
1168.64	112.936
1172.99	6.08984
1177.34	11.8301
1181.69	64.0957
1186.04	133.277
1190.38	149.328
1194.72	92.0566
1199.05	58.707
1203.39	75.0723
1207.72	64.9199
1212.05	202.504
1216.37	246.273
1220.7	83.0098
1225.02	116.607
1229.34	361.969
1233.65	16.0273
1237.97	147.764
1242.28	157.516
1246.59	162.82
1250.89	442.83
1255.19	217.635
1259.49	443.231
1263.79	135.705
1268.09	53.7812
1272.38	322.231
1276.67	188.672
1280.95	198.81
1285.24	175.81
1289.52	197.68
1293.8	355.615
1298.08	229.51
1302.35	383.148
1306.62	480.258
1310.89	85.8945
1315.15	402.781
1319.42	327.402
1323.68	326.148
1327.94	141.955
1332.19	279.625
1336.44	384.379
1340.69	408.625
1344.94	233.518
1349.19	294.633
1353.43	188.945
1357.67	219.805
1361.9	258.853
1366.14	166.076
1370.37	250.715
1374.6	180.227
1378.83	239.539
1383.05	123.719
1387.27	143.648
1391.49	183.34
1395.7	30.832
1399.92	233.834
1404.13	260.865
1408.34	127.326
1412.54	90.7598
1416.74	310.416
1420.94	124.643
1425.14	37.4219
1429.34	100.352
1433.53	220.127
1437.72	70.3359
1441.9	319.338
1446.09	127.383
1450.27	174.762
1454.45	369.883
1458.63	279.197
1462.8	234.475
1466.97	196.088
1471.14	140.486
1475.31	16.0938
1479.47	235.588
1483.63	420.832
1487.79	18.5195
1491.94	187.879
1496.09	86.6562
1500.24	114.732
1504.39	133.688
1508.54	419.445
1512.68	250.467
1516.82	128.674
1520.95	266.924
1525.09	205.777
1529.22	299.193
1533.35	109.688
1537.47	258.342
1541.6	190.857
1545.72	129.701
1549.83	9.92383
1553.95	261.494
1558.06	108.162
1562.17	270.248
1566.28	269.922
1570.38	0
