Measurement: Raman, 514 nm, ccw, Raman Data Processed
Mineral: Actinolite
Rruff sample: R040063
Ideal chemistry: Ca_2_(Mg_4.5-2.5_Fe^2+^_0.5-2.5_)_=5_Si_8_O_22_(OH)_2_
Locality: Harford County, Maryland, USA
Source: University of Arizona Mineral Museum
Description: Mass of green acicular to bladed crystals associated with chlorite
Measured chemistry: (Ca_1.90_Na_0.06_Mn_0.04_)_Σ=2_(Mg_4.35_Fe_0.65_)_Σ=5_(Si_7.92_Al_0.08_)_Σ=8_O_22_(OH)_2_
Pin_id: S00132
Orientation: Laser parallel to [1 0 1]. Fiducial mark perpendicular to laser is parallel to b* (0 1 0)
Raman shift (cm-1)	intensity
148.25	0
152.403	296.198
156.555	1223.52
160.705	1164.75
164.853	381.594
168.998	304.912
173.142	1219.67
177.284	1887.77
181.424	1073.31
185.562	348.378
189.698	89.071
193.831	19.357
197.963	43.761
202.093	81.377
206.221	402.19
210.347	892.513
214.472	1950.73
218.594	3614.36
222.714	4405.03
226.832	4207.22
230.948	3830.85
235.063	2306.93
239.175	1200.51
243.286	1026.53
247.394	1245.9
251.501	1069.55
255.605	737.372
259.708	485.218
263.808	312.188
267.907	109.167
272.004	12.881
276.099	99.951
280.192	101.045
284.283	34.162
288.372	47.699
292.459	82.552
296.544	261.943
300.627	318.088
304.709	320.967
308.788	301.549
312.865	135.191
316.941	159.978
321.015	148.633
325.086	207.194
329.156	250.797
333.224	352.333
337.29	508.651
341.354	674.592
345.416	941.414
349.476	1201.97
353.534	1107.27
357.591	1049.36
361.645	1397.33
365.698	2376
369.748	2727.64
373.797	1965.11
377.844	1347.5
381.889	1255.02
385.932	1838.45
389.973	3068.89
394.012	2884.33
398.049	1738.76
402.084	1124.18
406.118	1165.57
410.15	1636.94
414.179	1995.28
418.207	1493.58
422.233	882.957
426.257	546.175
430.279	628.78
434.299	762.708
438.318	564.897
442.334	228.075
446.349	73.932
450.361	39.148
454.372	7.131
458.381	67.458
462.388	43.169
466.394	33.119
470.397	51.656
474.398	52.104
478.398	44.45
482.396	142.699
486.391	147.851
490.385	225.946
494.377	157.976
498.368	199.912
502.356	269.751
506.342	490.496
510.327	800.163
514.31	915.768
518.291	901.307
522.27	922.804
526.247	1067.3
530.222	954.712
534.196	605.037
538.167	467.277
542.137	365.443
546.105	281.539
550.071	248.564
554.035	195.516
557.998	231.395
561.958	173.199
565.917	157.929
569.874	113.583
573.829	178.161
577.782	174.662
581.733	98.086
585.683	99.431
589.63	3.693
593.576	25.168
597.52	46.046
601.462	24
605.402	26.094
609.341	10.25
613.277	17.51
617.212	6.329
621.145	64.96
625.076	98.607
629.006	137.82
632.933	185.784
636.859	326.333
640.783	474.249
644.705	733.785
648.625	1075.3
652.543	1426.92
656.46	1970.88
660.375	2890.61
664.288	5438.33
668.199	11336.6
672.108	15543.5
676.016	10898.8
679.921	5427.76
683.825	2968.08
687.727	2026.13
691.628	1505.59
695.526	1031.63
699.423	712.607
703.318	488.514
707.211	380.354
711.102	353.128
714.992	300.838
718.879	291.484
722.765	280.068
726.649	311.591
730.532	453.054
734.412	617.458
738.291	889.686
742.168	898.979
746.043	860.088
749.916	718.1
753.788	535.662
757.658	339.827
761.526	178.643
765.392	213.752
769.257	156.681
773.119	75.705
776.98	101.19
780.839	52.936
784.697	34.905
788.552	29.866
792.406	47.805
796.258	19.706
800.108	1.463
803.957	42.747
807.804	8.859
811.649	10.554
815.492	11.992
819.333	38.482
823.173	19.05
827.011	15.689
830.847	55.385
834.681	2.792
838.514	16.092
842.345	9.004
846.174	85.073
850.001	68.151
853.827	72.233
857.651	51.321
861.473	91.418
865.293	96.524
869.112	98.644
872.928	99.779
876.744	96.931
880.557	144.107
884.369	190.317
888.178	152.559
891.987	231.86
895.793	279.237
899.598	331.674
903.401	426.216
907.202	428.913
911.001	465.798
914.799	482.816
918.595	660.977
922.389	984.232
926.182	1523.56
929.972	1870.94
933.761	1469.34
937.549	864.805
941.334	802.201
945.118	814.54
948.9	728.988
952.681	636.802
956.459	515.42
960.236	428.971
964.012	407.944
967.785	430.351
971.557	347.862
975.327	415.268
979.095	347.943
982.862	336.657
986.627	308.25
990.39	343.556
994.152	392.193
997.912	431.374
1001.67	574.604
1005.43	596.885
1009.18	718.333
1012.93	930.71
1016.68	1251.24
1020.43	1740.03
1024.18	2562.78
1027.93	3375.9
1031.67	2597.39
1035.42	1636.73
1039.16	1076.08
1042.9	1102.02
1046.63	1232.51
1050.37	1747.37
1054.11	2575.81
1057.84	3124.2
1061.57	2594.3
1065.3	2251.17
1069.03	2005.68
1072.75	1342.94
1076.47	838.074
1080.2	593.152
1083.92	484.017
1087.64	437.146
1091.36	339.45
1095.07	353.836
1098.79	272.149
1102.5	209.768
1106.21	254.729
1109.92	246.307
1113.62	184.763
1117.33	170.74
1121.04	127.807
1124.74	188.902
1128.44	110.13
1132.14	149.289
1135.83	96.587
1139.53	128.651
1143.22	63.283
1146.92	67.444
1150.61	98.401
1154.3	66.609
1157.98	60.102
1161.67	35.242
1165.35	1.546
1169.04	3.355
1172.72	17.269
1176.4	11.128
1180.07	7.12
1183.75	12.445
1187.42	18.935
1191.1	39.885
1194.77	14.441
1198.44	23.181
1202.1	38.194
1205.77	21.25
1209.43	30.276
1213.1	30.363
1216.76	35.919
1220.42	41.117
1224.07	64.206
1227.73	38.942
1231.38	18.686
1235.04	33.877
1238.69	33.229
1242.34	30.724
1245.99	13.892
1249.63	58.266
1253.28	76.582
1256.92	93.898
1260.56	92.682
1264.2	77.67
1267.84	63.326
1271.48	76.66
1275.11	70.131
1278.74	124.294
1282.38	13.412
1286.01	78.554
1289.63	52.304
1293.26	40.935
1296.89	42.438
1300.51	22.823
1304.13	44.949
1307.75	94.999
1311.37	73.625
1314.99	41.134
1318.6	80.582
1322.22	64.451
1325.83	59.382
1329.44	74.404
1333.05	93.881
1336.66	58.452
1340.26	37.397
1343.87	66.779
1347.47	120.54
1351.07	132.882
1354.67	101.795
1358.27	13.823
1361.86	15.52
1365.46	20.991
1369.05	6.444
1372.64	7.212
1376.23	36.396
1379.82	101.461
1383.41	63.127
1386.99	57.627
1390.57	31.719
1394.16	39.393
1397.74	20.822
1401.32	43.876
1404.89	25.844
1408.47	13.539
1412.04	65.211
1415.61	70.696
1419.18	77.01
1422.75	63.284
1426.32	100.635
1429.89	99.154
1433.45	72.701
1437.01	75.507
1440.58	97.937
1444.13	76.296
1447.69	94.02
1451.25	156.213
1454.81	181.279
1458.36	184.027
1461.91	167.747
1465.46	141.767
1469.01	89.891
1472.56	96.561
1476.1	59.085
1479.64	46.031
1483.19	45.56
1486.73	73.331
1490.27	41.893
1493.81	91.716
1497.34	69.224
1500.88	112.482
1504.41	108.249
1507.94	30.275
1511.47	99.791
1515	46.468
1518.53	0.384
