Measurement: Raman, 514 nm, ccw, Raman Data Processed
Mineral: Actinolite
Rruff sample: R050025
Ideal chemistry: Ca_2_(Mg_4.5-2.5_Fe^2+^_0.5-2.5_)_=5_Si_8_O_22_(OH)_2_
Locality: Tyrol, Austria
Source: Eugene Schlepp
Description: Green colored bladed single crystals
Measured chemistry: (Ca_.930_Na_.056_Mn_.010_K_.004_)_2_(Mg_.883_Fe_.117_)_5_(Si_.978_Al_.022_)_8_O_22_(OH)_2_
Pin_id: L00431
Orientation: Laser parallel to a* (1 0 0). Fiducial mark perpendicular to laser is parallel to b [0 1 0]
Raman shift (cm-1)	intensity
77.333	0
81.521	1.454
85.706	79.778
89.89	361.049
94.071	421.59
98.251	429.136
102.428	844.067
106.604	1779
110.777	3587.92
114.949	6330.21
119.119	8479.72
123.286	7711.5
127.452	3664.28
131.615	1618.81
135.777	802.784
139.937	405.837
144.094	54.05
148.25	70.359
152.403	56.498
156.555	447.639
160.705	627.17
164.853	297.775
168.998	947.505
173.142	3379.73
177.284	7479.73
181.424	5882.67
185.562	2260.13
189.698	960.272
193.831	568.653
197.963	455.259
202.093	311.517
206.221	453.199
210.347	939.055
214.472	1878.92
218.594	3898.66
222.714	5690.25
226.832	4314.69
230.948	3422.98
235.063	2344.14
239.175	1081.16
243.286	689.336
247.394	1087.93
251.501	1124.86
255.605	709.479
259.708	242.58
263.808	158.877
267.907	41.683
272.004	74.05
276.099	5.378
280.192	52.172
284.283	447.99
288.372	970.949
292.459	914.753
296.544	781.555
300.627	875.338
304.709	866.668
308.788	634.067
312.865	300.907
316.941	213.063
321.015	244.445
325.086	538.49
329.156	1283.17
333.224	1768.19
337.29	1183.86
341.354	800.27
345.416	740.666
349.476	889.488
353.534	1117.99
357.591	1316.38
361.645	2174.63
365.698	5127.29
369.748	7640.12
373.797	4895.03
377.844	3023.83
381.889	2813.51
385.932	4197.1
389.973	7814.57
394.012	9383.93
398.049	5235.19
402.084	2626.33
406.118	2137.35
410.15	2550.15
414.179	3581.72
418.207	3256.06
422.233	2064.71
426.257	1113.82
430.279	564.195
434.299	394.402
438.318	312.774
442.334	132.996
446.349	28.845
450.361	4.805
454.372	15.973
458.381	14.101
462.388	16.77
466.394	10.307
470.397	139.78
474.398	146.5
478.398	148.455
482.396	308.966
486.391	470.614
490.385	170.45
494.377	12.204
498.368	45.166
502.356	132.279
506.342	204.663
510.327	241.92
514.31	397.058
518.291	402.065
522.27	447.938
526.247	684.737
530.222	982.466
534.196	954.083
538.167	1045.59
542.137	884.959
546.105	749.183
550.071	691.264
554.035	615.203
557.998	576.996
561.958	535.646
565.917	521.153
569.874	420.518
573.829	441.74
577.782	582.824
581.733	497.771
585.683	341.601
589.63	172.339
593.576	32.293
597.52	6.76
601.462	26.658
605.402	6.218
609.341	36.887
613.277	74.434
617.212	116.578
621.145	112.131
625.076	141.404
629.006	237.769
632.933	410.284
636.859	624.75
640.783	837.229
644.705	1265.16
648.625	1874.17
652.543	2754.85
656.46	4355.08
660.375	6973.42
664.288	13423.4
668.199	29237.4
672.108	47370.5
676.016	34685.6
679.921	15833.9
683.825	7717.85
687.727	4410.55
691.628	2894.54
695.526	2107.07
699.423	1580.33
703.318	1244.48
707.211	954.537
711.102	841.489
714.992	698.343
718.879	541.101
722.765	584.765
726.649	599.337
730.532	748.821
734.412	807.22
738.291	965.536
742.168	1328.45
746.043	1915.92
749.916	2234.8
753.788	1619.66
757.658	857.349
761.526	522.516
765.392	296.189
769.257	347.283
773.119	240.514
776.98	141.783
780.839	93.758
784.697	68.791
788.552	67.808
792.406	73.792
796.258	103.73
800.108	21.584
803.957	102.689
807.804	59.217
811.649	66.927
815.492	27.143
819.333	26.92
823.173	4.926
827.011	17.262
830.847	4.503
834.681	53.213
838.514	11.775
842.345	33.236
846.174	1.39
850.001	33.943
853.827	155.277
857.651	102.615
861.473	88.96
865.293	86.337
869.112	213.739
872.928	244.191
876.744	260.733
880.557	253.355
884.369	389.022
888.178	723.719
891.987	391.452
895.793	324.277
899.598	422.193
903.401	502.232
907.202	410.484
911.001	657.056
914.799	683.796
918.595	797.64
922.389	1255.64
926.182	1948.73
929.972	2663.88
933.761	2173.1
937.549	1427.14
941.334	904.745
945.118	677.21
948.9	711.049
952.681	587.289
956.459	470.807
960.236	416.067
964.012	377.497
967.785	467.937
971.557	449.93
975.327	485.268
979.095	431.027
982.862	355.883
986.627	331.475
990.39	411.237
994.152	439.292
997.912	438.825
1001.67	493.09
1005.43	645.423
1009.18	755.827
1012.93	1025.55
1016.68	1184.51
1020.43	1671.59
1024.18	2619.12
1027.93	4073.14
1031.67	3400.33
1035.42	2092.79
1039.16	1457.51
1042.9	1286.7
1046.63	1419.84
1050.37	1775.17
1054.11	2505.51
1057.84	3087.07
1061.57	2957.27
1065.3	3232.15
1069.03	3496.17
1072.75	2638.03
1076.47	1797.65
1080.2	1326.46
1083.92	1166.92
1087.64	928.996
1091.36	725.675
1095.07	628.478
1098.79	542.167
1102.5	377.779
1106.21	534.55
1109.92	402.6
1113.62	395.451
1117.33	338.362
1121.04	212.47
1124.74	307.677
1128.44	232.73
1132.14	148.55
1135.83	67.154
1139.53	125.864
1143.22	220.017
1146.92	147.939
1150.61	140.77
1154.3	129.291
1157.98	30.702
1161.67	43.461
1165.35	15.162
1169.04	58.724
1172.72	21.291
1176.4	90.695
1180.07	59.455
1183.75	33.061
1187.42	37.458
1191.1	76.428
1194.77	0.016
1198.44	44.423
1202.1	45.774
1205.77	57.997
1209.43	113.638
1213.1	65.434
1216.76	93.062
1220.42	26.205
1224.07	23.922
1227.73	46.724
1231.38	141.413
1235.04	187.036
1238.69	179.83
1242.34	108.213
1245.99	106.439
1249.63	160.814
1253.28	68.051
1256.92	76.105
1260.56	238.83
1264.2	188.575
1267.84	133.822
1271.48	181.038
1275.11	178.735
1278.74	171.122
1282.38	178.837
1286.01	106.868
1289.63	121.656
1293.26	174.186
1296.89	87.181
1300.51	185.476
1304.13	166.131
1307.75	181.045
1311.37	151.006
1314.99	49.499
1318.6	52.677
1322.22	125.081
1325.83	99.731
1329.44	205.936
1333.05	184.847
1336.66	164.972
1340.26	171.255
1343.87	141.225
1347.47	33.266
1351.07	12.303
1354.67	23.354
1358.27	20.065
1361.86	70.161
1365.46	109.526
1369.05	166.309
1372.64	196.468
1376.23	59.759
1379.82	102.339
1383.41	146.038
1386.99	180.029
1390.57	80.525
1394.16	217.211
1397.74	163.159
1401.32	229.531
1404.89	214.962
1408.47	175.95
1412.04	203.879
1415.61	119.807
1419.18	131.553
1422.75	63.664
1426.32	53.653
1429.89	105.936
1433.45	172.792
1437.01	141.946
1440.58	166.926
1444.13	184.773
1447.69	255.159
1451.25	173.994
1454.81	158.43
1458.36	151.9
1461.91	79.087
1465.46	83.83
1469.01	124.799
1472.56	141.816
1476.1	198.7
1479.64	173.329
1483.19	210.253
1486.73	339.711
1490.27	197.041
1493.81	192.148
1497.34	250.139
1500.88	124.767
1504.41	82.37
1507.94	11.385
1511.47	22.41
1515	104.029
1518.53	0
