Measurement: Raman, 514 nm, ccw, Raman Data Processed
Mineral: Actinolite
Rruff sample: R050025
Ideal chemistry: Ca_2_(Mg_4.5-2.5_Fe^2+^_0.5-2.5_)_=5_Si_8_O_22_(OH)_2_
Locality: Tyrol, Austria
Source: Eugene Schlepp
Description: Green colored bladed single crystals
Measured chemistry: (Ca_.930_Na_.056_Mn_.010_K_.004_)_2_(Mg_.883_Fe_.117_)_5_(Si_.978_Al_.022_)_8_O_22_(OH)_2_
Pin_id: L00400
Orientation: Laser parallel to c* (0 0 1). Fiducial mark perpendicular to laser is parallel to a [1 0 0]
Raman shift (cm-1)	intensity
96.858	0
101.036	60.699
105.212	42.608
109.387	450.951
113.559	1620.34
117.729	3087.32
121.897	1466.13
126.063	479.561
130.228	175.963
134.39	69.408
138.55	43.878
142.709	108.363
146.865	41.56
151.019	256.335
155.171	2864.37
159.322	9264.63
163.47	5937.2
167.617	2735.28
171.761	4468.01
175.904	12906.5
180.044	16384
184.183	6816.85
188.319	2700.3
192.454	1674.56
196.586	1423.67
200.717	1542.28
204.846	2036.78
208.972	3090.98
213.097	5668.54
217.22	12280.1
221.341	23401.6
225.46	22272.7
229.577	13013.4
233.692	7583.56
237.805	3302.32
241.916	1747.65
246.025	1757.53
250.132	2180.99
254.237	1710.05
258.34	1344.72
262.442	1251.67
266.541	672.565
270.639	172.894
274.734	46.873
278.828	75.21
282.919	19.991
287.009	449.339
291.097	865.526
295.183	1027.4
299.266	1568.76
303.348	2209.49
307.428	1335.38
311.507	680.882
315.583	401.665
319.657	318.226
323.729	472.777
327.8	744.118
331.868	1364.79
335.935	1323.41
339.999	1374.17
344.062	2179.16
348.123	3772.55
352.182	4601.8
356.239	3952.68
360.294	3573.25
364.347	4703.56
368.398	7851.62
372.448	7634.36
376.495	5129.77
380.54	3173.92
384.584	2559.81
388.626	3421.44
392.666	5078.81
396.704	3818.93
400.74	1705.8
404.774	1172.52
408.806	1409.59
412.836	2322.49
416.865	2612.43
420.891	1771.46
424.916	1014.15
428.939	766.741
432.959	1085.34
436.978	1082.05
440.996	543.184
445.011	109.631
449.024	31.991
453.036	73.696
457.045	37.95
461.053	25.938
465.059	37.524
469.063	13.502
473.065	5.183
477.065	4.876
481.063	54.402
485.06	161.849
489.054	111.836
493.047	100.962
497.038	154.944
501.027	246.771
505.014	535.438
508.999	1069.94
512.982	1905.33
516.964	2107.61
520.944	2082.68
524.921	2661.6
528.897	3547.38
532.871	2660
536.844	1414.41
540.814	901.605
544.783	624.634
548.749	462.307
552.714	367.821
556.677	311.111
560.638	249.18
564.597	231.027
568.555	196.644
572.511	249.02
576.464	146.172
580.416	272.099
584.366	159.804
588.315	106.284
592.261	11.538
596.206	1.292
600.148	46.972
604.089	14.3
608.028	47.12
611.965	118.718
615.901	180.792
619.834	321.962
623.766	403.409
627.696	578.698
631.624	858.911
635.551	1256.8
639.475	1751.55
643.398	2589.75
647.318	3824.95
651.237	5542.67
655.155	7341.65
659.07	8705.26
662.984	12787.8
666.895	24500
670.805	49806.2
674.713	56984.4
678.62	29223.4
682.524	14423.4
686.427	9714.6
690.328	8061.27
694.227	5945.44
698.124	3770.29
702.02	2490.98
705.913	1707.52
709.805	1303.93
713.695	989.177
717.584	860.287
721.47	655.13
725.355	626.139
729.238	611.211
733.119	762.645
736.998	1087.8
740.876	1275.57
744.752	1247.47
748.626	1187.75
752.498	958.235
756.368	539.612
760.237	327.272
764.104	286.069
767.969	238.228
771.832	160.204
775.693	111.261
779.553	66.342
783.411	49.452
787.267	68.534
791.122	9.6
794.974	21.393
798.825	19.453
802.674	43.851
806.522	57.452
810.367	7.512
814.211	7.904
818.053	2.591
821.893	53.55
825.732	42.877
829.568	10.547
833.403	22.156
837.236	46.079
841.068	11.238
844.898	18.65
848.726	41.062
852.552	66.001
856.376	36.196
860.199	161.719
864.02	113.218
867.839	144.704
871.656	190.177
875.472	238.64
879.286	285.104
883.098	484.578
886.909	532.06
890.717	773.566
894.524	1001.11
898.33	1283.77
902.133	1364.54
905.935	1418.4
909.735	1498.55
913.533	1765.49
917.33	2104.72
921.124	3090.04
924.918	4473.43
928.709	6806.85
932.499	6596.19
936.286	4327.22
940.073	3105.24
943.857	3292.6
947.64	3721.92
951.421	3358.15
955.2	2682.9
958.978	2277.86
962.753	2226.35
966.527	2095.81
970.3	1987.86
974.071	1838.01
977.84	1699.61
981.607	1614.26
985.372	1374.84
989.136	1430.35
992.898	1488.1
996.659	1495.1
1000.42	1576.81
1004.17	1817.75
1007.93	2180.79
1011.68	2550.98
1015.43	3439.41
1019.18	4753.38
1022.93	5695.05
1026.68	6656.74
1030.42	7158.73
1034.17	5621.06
1037.91	4593.76
1041.65	4838.85
1045.39	6295.77
1049.12	9313.01
1052.86	15311.5
1056.59	23995.9
1060.33	25663.3
1064.06	16364.1
1067.78	10519.9
1071.51	7196.73
1075.23	4549.89
1078.96	3184.86
1082.68	2468.4
1086.4	1959.68
1090.12	1868.47
1093.83	1713.01
1097.55	1411.86
1101.26	1072.24
1104.97	996.65
1108.68	785.068
1112.39	726.262
1116.1	696.555
1119.8	537.176
1123.5	525.253
1127.2	452.39
1130.9	334.315
1134.6	318.789
1138.3	272.459
1141.99	127.159
1145.69	105.662
1149.38	54.47
1153.07	62.37
1156.76	99.544
1160.44	126.514
1164.13	15.785
1167.81	27.784
1171.49	31.963
1175.17	44.537
1178.85	7.994
1182.52	14.596
1186.2	16.723
1189.87	30.565
1193.54	22.721
1197.21	70.697
1200.88	2.615
1204.55	30.703
1208.21	40.489
1211.88	32.578
1215.54	63.544
1219.2	27.583
1222.86	26.371
1226.51	7.562
1230.17	17.773
1233.82	6.965
1237.47	41.371
1241.12	19.7
1244.77	12.517
1248.42	30.022
1252.06	40.518
1255.71	17.304
1259.35	22.111
1262.99	13.917
1266.63	48.566
1270.26	111.1
1273.9	99.818
1277.53	35.543
1281.16	14.881
1284.8	97.71
1288.42	53.853
1292.05	0.817
1295.68	39.002
1299.3	9.583
1302.92	17.784
1306.55	25.562
1310.16	136.916
1313.78	113.731
1317.4	68.858
1321.01	192
1324.62	66.919
1328.24	129.939
1331.85	153.938
1335.45	144.134
1339.06	167.383
1342.66	146.282
1346.27	116.475
1349.87	176.754
1353.47	174.763
1357.07	80.403
1360.66	49.357
1364.26	44.269
1367.85	131.944
1371.44	65.409
1375.04	108.55
1378.62	158.284
1382.21	90.848
1385.8	104.175
1389.38	12.924
1392.96	19.683
1396.54	54.062
1400.12	83.962
1403.7	18.181
1407.28	152.303
1410.85	153.545
1414.42	148.554
1417.99	138.374
1421.56	59.834
1425.13	102.835
1428.7	3.718
1432.26	65.001
1435.83	82.394
1439.39	73.296
1442.95	122.663
1446.51	111.581
1450.06	156.712
1453.62	45.665
1457.17	166.838
1460.73	175.284
1464.28	145.192
1467.83	102.304
1471.37	149.246
1474.92	109.566
1478.46	119.113
1482.01	76.47
1485.55	112.345
1489.09	115.207
1492.63	116.088
1496.16	71.75
1499.7	77.578
1503.23	142.893
1506.76	82.762
1510.29	30.751
1513.82	71.013
1517.35	20.853
1520.88	45.832
1524.4	0
