Measurement: Raman, 514 nm, ccw, Raman Data Processed
Mineral: Actinolite
Rruff sample: R050025
Ideal chemistry: Ca_2_(Mg_4.5-2.5_Fe^2+^_0.5-2.5_)_=5_Si_8_O_22_(OH)_2_
Locality: Tyrol, Austria
Source: Eugene Schlepp
Description: Green colored bladed single crystals
Measured chemistry: (Ca_.930_Na_.056_Mn_.010_K_.004_)_2_(Mg_.883_Fe_.117_)_5_(Si_.978_Al_.022_)_8_O_22_(OH)_2_
Pin_id: L00525
Orientation: Laser parallel to b* (0 1 0). Fiducial mark perpendicular to laser is parallel to c [0 0 1]
Raman shift (cm-1)	intensity
85.706	0
89.89	59.887
94.071	502.775
98.251	263.859
102.428	319.485
106.604	859.635
110.777	1814.94
114.949	3885.67
119.119	6058.04
123.286	6642.38
127.452	2822.6
131.615	1194.31
135.777	524.203
139.937	437.675
144.094	70.654
148.25	89.595
152.403	276.763
156.555	2743.28
160.705	8247.45
164.853	2180.42
168.998	1345.23
173.142	2640.71
177.284	9529.69
181.424	8685.99
185.562	2928.18
189.698	1286.67
193.831	919.038
197.963	749.18
202.093	826.593
206.221	1036.77
210.347	1804.92
214.472	3235.53
218.594	6758.89
222.714	12769.7
226.832	8565.85
230.948	3835.38
235.063	1705.34
239.175	669.721
243.286	381.557
247.394	464.818
251.501	569.899
255.605	306.781
259.708	151.325
263.808	170.645
267.907	50.588
272.004	28.903
276.099	12.845
280.192	16.847
284.283	105.848
288.372	438.897
292.459	637.441
296.544	686.551
300.627	1334.65
304.709	1662.42
308.788	781.068
312.865	387.574
316.941	155.913
321.015	315.141
325.086	352.425
329.156	754.805
333.224	1591.58
337.29	1698.5
341.354	2162.99
345.416	1997.88
349.476	1668.16
353.534	1487.56
357.591	1066.46
361.645	1007.69
365.698	1997.13
369.748	3245.05
373.797	2370.98
377.844	1196
381.889	1097.73
385.932	1595.19
389.973	3031.36
394.012	4559.27
398.049	2675.91
402.084	1468.8
406.118	1037.49
410.15	1133.42
414.179	1696.46
418.207	1939.1
422.233	1134.95
426.257	598.53
430.279	488.889
434.299	1195.02
438.318	736.14
442.334	201.928
446.349	18.656
450.361	1.485
454.372	7.087
458.381	95.086
462.388	37.688
466.394	86.955
470.397	55.042
474.398	18.506
478.398	51.707
482.396	193.162
486.391	344.7
490.385	150.356
494.377	19.203
498.368	7.059
502.356	62.098
506.342	105.887
510.327	195.461
514.31	298.871
518.291	463.222
522.27	487.499
526.247	467.691
530.222	481.762
534.196	338.684
538.167	425.471
542.137	267.128
546.105	192.649
550.071	184.027
554.035	199.261
557.998	271.351
561.958	179.301
565.917	86.149
569.874	70.922
573.829	166.583
577.782	198.149
581.733	149.692
585.683	50.286
589.63	1.972
593.576	98.927
597.52	34.279
601.462	61.791
605.402	8.485
609.341	24.184
613.277	57.07
617.212	124
621.145	136.908
625.076	264.794
629.006	454.227
632.933	580.931
636.859	873.195
640.783	1094.38
644.705	1726.94
648.625	3097.49
652.543	4930.02
656.46	5559.04
660.375	6037.75
664.288	9457.85
668.199	21200.8
672.108	41219.8
676.016	32311.5
679.921	13433.6
683.825	6324.39
687.727	3798.62
691.628	2421.29
695.526	1646.3
699.423	1078.39
703.318	781.812
707.211	702.008
711.102	555.971
714.992	435.856
718.879	347.611
722.765	342.952
726.649	327.961
730.532	355.489
734.412	313.992
738.291	337.423
742.168	352.382
746.043	560.309
749.916	779.412
753.788	668.25
757.658	339.379
761.526	161.291
765.392	164.101
769.257	133.445
773.119	157.279
776.98	6.077
780.839	29.198
784.697	21.387
788.552	82.844
792.406	22.125
796.258	14.716
800.108	20.744
803.957	5.954
807.804	31.366
811.649	20.902
815.492	26.993
819.333	14.513
823.173	4.165
827.011	41.47
830.847	4.93
834.681	42.097
838.514	8.083
842.345	22.951
846.174	8.73
850.001	79.4
853.827	67.97
857.651	66.455
861.473	65.88
865.293	82.249
869.112	159.563
872.928	174.846
876.744	216.695
880.557	247.287
884.369	281.469
888.178	328.662
891.987	390.87
895.793	460.087
899.598	584.31
903.401	573.527
907.202	605.821
911.001	708.177
914.799	903.56
918.595	1442.81
922.389	2126.11
926.182	3223.93
929.972	4353.19
933.761	3662.81
937.549	2276.48
941.334	1938.81
945.118	2079.41
948.9	1960.03
952.681	1430.73
956.459	978.081
960.236	812.398
964.012	784.576
967.785	724.553
971.557	570.874
975.327	542.56
979.095	525.489
982.862	431.455
986.627	510.733
990.39	535.587
994.152	500.379
997.912	478.333
1001.67	453.36
1005.43	620.911
1009.18	672.18
1012.93	878.187
1016.68	1078.02
1020.43	1256.3
1024.18	1706.33
1027.93	2312.57
1031.67	2379.19
1035.42	2024.81
1039.16	2203.67
1042.9	2886.42
1046.63	4000.98
1050.37	6053.46
1054.11	9946.5
1057.84	14394.5
1061.57	12505.5
1065.3	7799.76
1069.03	5263.03
1072.75	3339.48
1076.47	2053.7
1080.2	1381.06
1083.92	1131.09
1087.64	976.467
1091.36	849.867
1095.07	724.991
1098.79	542.928
1102.5	439.017
1106.21	395.089
1109.92	462.688
1113.62	397.299
1117.33	376.698
1121.04	346.112
1124.74	300.236
1128.44	174.789
1132.14	189.155
1135.83	143.202
1139.53	135.694
1143.22	265.059
1146.92	146.537
1150.61	166.274
1154.3	83.678
1157.98	13.869
1161.67	55.986
1165.35	87.882
1169.04	37.916
1172.72	104.626
1176.4	68.73
1180.07	36.143
1183.75	41.798
1187.42	81.888
1191.1	33.444
1194.77	7.493
1198.44	3.668
1202.1	96.68
1205.77	63.413
1209.43	22.521
1213.1	79.16
1216.76	41.426
1220.42	53.596
1224.07	41.023
1227.73	73.475
1231.38	79.372
1235.04	147.562
1238.69	97.346
1242.34	85.938
1245.99	43.317
1249.63	37.837
1253.28	32.587
1256.92	115.626
1260.56	141.525
1264.2	209.917
1267.84	190.576
1271.48	89.647
1275.11	95.584
1278.74	6.439
1282.38	62.707
1286.01	100.11
1289.63	103.905
1293.26	174.809
1296.89	212.504
1300.51	160.798
1304.13	119.017
1307.75	89.659
1311.37	14.044
1314.99	57.391
1318.6	41.786
1322.22	89.647
1325.83	206.448
1329.44	204.167
1333.05	224.486
1336.66	146.278
1340.26	152.642
1343.87	64.907
1347.47	63.343
1351.07	22.898
1354.67	30.24
1358.27	57.477
1361.86	127.02
1365.46	154.664
1369.05	139.634
1372.64	181.461
1376.23	25.241
1379.82	88.074
1383.41	37.363
1386.99	6.027
1390.57	105.613
1394.16	128.36
1397.74	171.835
1401.32	268.191
1404.89	189.728
1408.47	178.128
1412.04	187.575
1415.61	36.782
1419.18	16.502
1422.75	44.69
1426.32	16.271
1429.89	117.094
1433.45	151.476
1437.01	245.774
1440.58	255.82
1444.13	256.05
1447.69	165.906
1451.25	159.491
1454.81	189.582
1458.36	111.78
1461.91	11.986
1465.46	16.194
1469.01	83.852
1472.56	128.472
1476.1	250.332
1479.64	262.131
1483.19	324.265
1486.73	287.439
1490.27	275.021
1493.81	233.321
1497.34	161.102
1500.88	99.652
1504.41	74.688
1507.94	5.277
1511.47	0.659
1515	157.679
1518.53	0
