Measurement: Raman, 514 nm, ccw, Raman Data Processed
Mineral: Actinolite
Rruff sample: R040063
Ideal chemistry: Ca_2_(Mg_4.5-2.5_Fe^2+^_0.5-2.5_)_=5_Si_8_O_22_(OH)_2_
Locality: Harford County, Maryland, USA
Source: University of Arizona Mineral Museum
Description: Mass of green acicular to bladed crystals associated with chlorite
Measured chemistry: (Ca_1.90_Na_0.06_Mn_0.04_)_Σ=2_(Mg_4.35_Fe_0.65_)_Σ=5_(Si_7.92_Al_0.08_)_Σ=8_O_22_(OH)_2_
Pin_id: S00132
Orientation: Laser parallel to [1 0 1]. Fiducial mark perpendicular to laser is parallel to b* (0 1 0)
Raman shift (cm-1)	intensity
146.865	0
151.019	53.178
155.171	227.818
159.322	256.785
163.47	204.112
167.617	620.953
171.761	2659.51
175.904	5098.82
180.044	3800.81
184.183	1496.4
188.319	519.376
192.454	194.184
196.586	63.939
200.717	53.711
204.846	119.424
208.972	480.816
213.097	1286.95
217.22	3079.84
221.341	4165.06
225.46	3262.95
229.577	2190.83
233.692	1428.18
237.805	719.563
241.916	407.11
246.025	499.881
250.132	520.238
254.237	332.659
258.34	163.63
262.442	34.75
266.541	27.383
270.639	99.41
274.734	86.456
278.828	2.48
282.919	311.392
287.009	641.276
291.097	571.017
295.183	418.405
299.266	501.961
303.348	413.931
307.428	266.685
311.507	190.442
315.583	161.508
319.657	179.322
323.729	375.907
327.8	807.408
331.868	929.782
335.935	661.073
339.999	535.981
344.062	678.541
348.123	891.999
352.182	961.428
356.239	1206.83
360.294	2092.2
364.347	4235.55
368.398	5409.85
372.448	3656.95
376.495	2174.57
380.54	1851.11
384.584	2522.63
388.626	4138.15
392.666	4708.65
396.704	2820.11
400.74	1545.97
404.774	1133.92
408.806	1421.26
412.836	1649.51
416.865	1411.79
420.891	857.987
424.916	381.126
428.939	211.568
432.959	116.791
436.978	110.503
440.996	48.161
445.011	17.885
449.024	70.897
453.036	1.378
457.045	10.348
461.053	8.219
465.059	6.049
469.063	28.093
473.065	39.355
477.065	11.193
481.063	87.662
485.06	177.1
489.054	43.531
493.047	72.934
497.038	7.276
501.027	56.508
505.014	131.676
508.999	189.774
512.982	345.824
516.964	332.804
520.944	418.75
524.921	456.632
528.897	504.458
532.871	552.223
536.844	502.913
540.814	453.531
544.783	409.076
548.749	375.549
552.714	284.947
556.677	225.272
560.638	223.523
564.597	222.701
568.555	239.804
572.511	268.834
576.464	274.792
580.416	284.675
584.366	207.486
588.315	105.235
592.261	24.99
596.206	44.227
600.148	73.411
604.089	22.156
608.028	1.695
611.965	21.802
615.901	39.699
619.834	61.84
623.766	97.307
627.696	227.748
631.624	316.873
635.551	381.908
639.475	615.308
643.398	929.536
647.318	1555.86
651.237	2233.03
655.155	2915.01
659.07	4308.24
662.984	7850.71
666.895	16394.8
670.805	26796.2
674.713	21400.4
678.62	10903.7
682.524	5274.26
686.427	2969.57
690.328	1923.76
694.227	1335.91
698.124	970.021
702.02	763.09
705.913	524.118
709.805	397.109
713.695	345.064
717.584	374.984
721.47	333.87
725.355	313.724
729.238	407.549
733.119	476.345
736.998	623.115
740.876	727.86
744.752	1060.58
748.626	1141.06
752.498	908.312
756.368	550.626
760.237	312.877
764.104	140.013
767.969	120.414
771.832	79.149
775.693	69.006
779.553	48.917
783.411	76.879
787.267	41.917
791.122	30.017
794.974	57.867
798.825	43.858
802.674	21.033
806.522	17.181
810.367	6.435
814.211	19.71
818.053	19.986
821.893	15.665
825.732	2.322
829.568	33.046
833.403	6.48
837.236	42.909
841.068	34.61
844.898	63.145
848.726	84.706
852.552	113.294
856.376	108.911
860.199	133.557
864.02	161.236
867.839	127.948
871.656	128.694
875.472	157.502
879.286	204.363
883.098	149.264
886.909	265.21
890.717	223.203
894.524	174.257
898.33	198.435
902.133	215.724
905.935	254.007
909.735	250.785
913.533	272.558
917.33	403.469
921.124	661.47
924.918	1015.52
928.709	1393.4
932.499	1255.78
936.286	808.983
940.073	524.234
943.857	412.53
947.64	337.339
951.421	291.153
955.2	224.974
958.978	185.932
962.753	194.129
966.527	223.483
970.3	156.829
974.071	168.218
977.84	229.961
981.607	276.251
985.372	205.509
989.136	192.263
992.898	242.301
996.659	276.312
1000.42	443.379
1004.17	472.5
1007.93	559.678
1011.68	710.95
1015.43	881.297
1019.18	1209.63
1022.93	2089.15
1026.68	3237.69
1030.42	3120.36
1034.17	1802.33
1037.91	1127.2
1041.65	911.809
1045.39	901.709
1049.12	1176.83
1052.86	1779.83
1056.59	2277.61
1060.33	2434.84
1064.06	2471.75
1067.78	2898.3
1071.51	2108.67
1075.23	1334.93
1078.96	907.466
1082.68	758.661
1086.4	514.186
1090.12	406.566
1093.83	365.744
1097.55	294.631
1101.26	326.828
1104.97	269.148
1108.68	255.167
1112.39	250.752
1116.1	265.981
1119.8	187.746
1123.5	165.435
1127.2	94.545
1130.9	88.525
1134.6	96.862
1138.3	68.592
1141.99	98.919
1145.69	66.321
1149.38	69.498
1153.07	29.057
1156.76	54.531
1160.44	74.877
1164.13	56.083
1167.81	44.737
1171.49	45.22
1175.17	34.437
1178.85	18.01
1182.52	0.384
1186.2	4.216
1189.87	25.575
1193.54	32.152
1197.21	31.044
1200.88	29.108
1204.55	31.208
1208.21	19.391
1211.88	66.326
1215.54	65.597
1219.2	47.633
1222.86	99.244
1226.51	50.75
1230.17	55.604
1233.82	81.115
1237.47	96.428
1241.12	93.728
1244.77	47.525
1248.42	36.443
1252.06	138.425
1255.71	115.145
1259.35	105.798
1262.99	11.203
1266.63	77.514
1270.26	108.81
1273.9	119.86
1277.53	79.688
1281.16	22.57
1284.8	109.145
1288.42	100.661
1292.05	99.957
1295.68	93.146
1299.3	27.145
1302.92	54.985
1306.55	125.542
1310.16	109.878
1313.78	60.151
1317.4	153.263
1321.01	175.929
1324.62	159.472
1328.24	73.58
1331.85	65.518
1335.45	92.295
1339.06	8.297
1342.66	36.713
1346.27	70.485
1349.87	78.673
1353.47	114.107
1357.07	73.641
1360.66	65.691
1364.26	63.554
1367.85	45.925
1371.44	8.114
1375.04	22.204
1378.62	36.35
1382.21	60.601
1385.8	114.927
1389.38	97.07
1392.96	143.366
1396.54	89.847
1400.12	44.729
1403.7	95.413
1407.28	62.025
1410.85	44.587
1414.42	50.69
1417.99	93.614
1421.56	68.701
1425.13	98.661
1428.7	57.874
1432.26	121.322
1435.83	91.716
1439.39	87.012
1442.95	176.139
1446.51	108.707
1450.06	111.508
1453.62	190.116
1457.17	168.892
1460.73	184.196
1464.28	129.155
1467.83	241.413
1471.37	245.331
1474.92	226.368
1478.46	226.861
1482.01	97.15
1485.55	73.08
1489.09	74.617
1492.63	101.481
1496.16	95.624
1499.7	72.279
1503.23	98.5
1506.76	110.808
1510.29	151.331
1513.82	152.418
1517.35	92.973
