Measurement: Raman, 514 nm, ccw, Raman Data Processed
Mineral: Actinolite
Rruff sample: R050025
Ideal chemistry: Ca_2_(Mg_4.5-2.5_Fe^2+^_0.5-2.5_)_=5_Si_8_O_22_(OH)_2_
Locality: Tyrol, Austria
Source: Eugene Schlepp
Description: Green colored bladed single crystals
Measured chemistry: (Ca_.930_Na_.056_Mn_.010_K_.004_)_2_(Mg_.883_Fe_.117_)_5_(Si_.978_Al_.022_)_8_O_22_(OH)_2_
Pin_id: L00400
Orientation: Laser parallel to c* (0 0 1). Fiducial mark perpendicular to laser is parallel to a [1 0 0]
Raman shift (cm-1)	intensity
102.428	0
106.604	111.829
110.777	205.022
114.949	986.011
119.119	829.11
123.286	378.536
127.452	457.069
131.615	478.516
135.777	301.355
139.937	365.096
144.094	71.241
148.25	69.155
152.403	333.283
156.555	3342.03
160.705	5605.88
164.853	2239.51
168.998	1167.49
173.142	2725.16
177.284	6045.77
181.424	4525.49
185.562	1473.52
189.698	543.984
193.831	467.233
197.963	459.072
202.093	820.486
206.221	1566.71
210.347	3099.68
214.472	6578.37
218.594	14400.7
222.714	22974.4
226.832	24927.3
230.948	29640.3
235.063	21023.5
239.175	9806.8
243.286	6750.18
247.394	8473.59
251.501	8557.01
255.605	5220.46
259.708	2808.93
263.808	1529.42
267.907	717.905
272.004	252.734
276.099	89.272
280.192	27.963
284.283	30.212
288.372	38.114
292.459	221.058
296.544	616.565
300.627	1496.2
304.709	1734.94
308.788	1291.15
312.865	624.076
316.941	213.509
321.015	48.734
325.086	176.548
329.156	89.856
333.224	96.928
337.29	406.479
341.354	906.576
345.416	1850.59
349.476	3504.53
353.534	4275.35
357.591	3379.66
361.645	3938.49
365.698	8473.2
369.748	13688.9
373.797	9174.48
377.844	5199.72
381.889	4374.2
385.932	6238.59
389.973	11653
394.012	16177.4
398.049	9921.74
402.084	5356.1
406.118	4910.44
410.15	7614.75
414.179	12039
418.207	11613.3
422.233	7077.5
426.257	4067.69
430.279	3330.09
434.299	4973.39
438.318	4173.62
442.334	1857.18
446.349	789.692
450.361	431.173
454.372	358.661
458.381	369.626
462.388	344.214
466.394	291.07
470.397	272.118
474.398	268.401
478.398	316.928
482.396	552.266
486.391	699.136
490.385	321.751
494.377	295.576
498.368	332.477
502.356	590.176
506.342	1039.88
510.327	1736.61
514.31	3026.35
518.291	4394.05
522.27	4479.72
526.247	5274.32
530.222	5015.78
534.196	3188.08
538.167	1906.19
542.137	1309.11
546.105	938.848
550.071	849.399
554.035	787.758
557.998	674.921
561.958	565.884
565.917	531.643
569.874	575.195
573.829	529.537
577.782	675.664
581.733	594.575
585.683	516.265
589.63	297.729
593.576	33.081
597.52	108.457
601.462	76.612
605.402	82.542
609.341	72.312
613.277	70.966
617.212	61.367
621.145	108.391
625.076	199.088
629.006	389.395
632.933	640.197
636.859	888.43
640.783	1355.14
644.705	2052.24
648.625	3026.89
652.543	4486.75
656.46	5974.63
660.375	8690.08
664.288	15445
668.199	32823.1
672.108	60273.6
676.016	49148.9
679.921	23786.8
683.825	11929.9
687.727	7542.02
691.628	5411.88
695.526	3825.24
699.423	2630.32
703.318	1875.11
707.211	1509.63
711.102	1206.23
714.992	1047.86
718.879	935.559
722.765	826.995
726.649	912.165
730.532	900.071
734.412	1037.72
738.291	1391.11
742.168	1753.25
746.043	2613.68
749.916	3417.55
753.788	2161
757.658	1242.04
761.526	798.693
765.392	581.985
769.257	434.071
773.119	293.917
776.98	284.362
780.839	176.373
784.697	133.122
788.552	158.116
792.406	147.003
796.258	71.769
800.108	35.611
803.957	39.67
807.804	18.308
811.649	56.614
815.492	38.389
819.333	93.621
823.173	58.397
827.011	88.586
830.847	14.82
834.681	10.108
838.514	22.27
842.345	35.853
846.174	54.005
850.001	115.552
853.827	153.054
857.651	137.518
861.473	137.949
865.293	210.353
869.112	245.736
872.928	317.106
876.744	414.468
880.557	489.833
884.369	599.181
888.178	617.641
891.987	766.143
895.793	901.74
899.598	993.469
903.401	1134.41
907.202	1227.75
911.001	1560.56
914.799	1964.81
918.595	2552.49
922.389	3865.6
926.182	6012.07
929.972	8364.75
933.761	6937.54
937.549	4214.45
941.334	3308.49
945.118	3762.46
948.9	3801.96
952.681	3011.71
956.459	2275.96
960.236	2011.99
964.012	1867.59
967.785	1852.23
971.557	1769.68
975.327	1751.5
979.095	1715.71
982.862	1735.98
986.627	1746.73
990.39	1881.1
994.152	2065.07
997.912	2185.05
1001.67	2545.3
1005.43	3040.7
1009.18	3712.28
1012.93	4510.02
1016.68	5685.9
1020.43	7611.97
1024.18	11308.2
1027.93	17144.8
1031.67	16431.9
1035.42	9679.8
1039.16	6431.09
1042.9	5063.15
1046.63	5264.9
1050.37	6373
1054.11	9118.43
1057.84	12233.5
1061.57	11133.4
1065.3	8592.09
1069.03	8205.35
1072.75	6023.11
1076.47	3947.31
1080.2	3005.31
1083.92	2477.2
1087.64	2090.16
1091.36	1776.15
1095.07	1615.89
1098.79	1271.24
1102.5	1173.87
1106.21	1025.02
1109.92	990.063
1113.62	964.165
1117.33	872.293
1121.04	880.171
1124.74	735.333
1128.44	636.556
1132.14	598.237
1135.83	472.253
1139.53	389.99
1143.22	343.507
1146.92	300.035
1150.61	273.394
1154.3	177.683
1157.98	162.565
1161.67	65.088
1165.35	63.109
1169.04	58.063
1172.72	74.001
1176.4	23.246
1180.07	17.808
1183.75	33.959
1187.42	31.015
1191.1	41.665
1194.77	98.918
1198.44	43.091
1202.1	38.078
1205.77	14.627
1209.43	34.583
1213.1	31.108
1216.76	74.05
1220.42	65.771
1224.07	33.746
1227.73	29.182
1231.38	33.726
1235.04	76.064
1238.69	20.855
1242.34	62.032
1245.99	42.764
1249.63	2.541
1253.28	45.337
1256.92	57.595
1260.56	49.446
1264.2	159.79
1267.84	154.612
1271.48	145.435
1275.11	131.331
1278.74	41.903
1282.38	135.091
1286.01	98.954
1289.63	121.225
1293.26	159.218
1296.89	142.95
1300.51	77.013
1304.13	65.051
1307.75	99.426
1311.37	14.836
1314.99	77.659
1318.6	97.521
1322.22	27.521
1325.83	188.392
1329.44	154.773
1333.05	83.521
1336.66	217.385
1340.26	109.293
1343.87	44.735
1347.47	108.293
1351.07	149.052
1354.67	116.613
1358.27	144.484
1361.86	129.704
1365.46	136.573
1369.05	118.173
1372.64	138.595
1376.23	49.472
1379.82	93.921
1383.41	30.279
1386.99	53.927
1390.57	91.788
1394.16	153.862
1397.74	146.394
1401.32	149.951
1404.89	112.144
1408.47	83.505
1412.04	120.366
1415.61	3.947
1419.18	102.947
1422.75	50.472
1426.32	61.122
1429.89	108.249
1433.45	85.9
1437.01	100.07
1440.58	168.672
1444.13	145.427
1447.69	23.283
1451.25	147.283
1454.81	90.152
1458.36	75.67
1461.91	66.633
1465.46	57.62
1469.01	97.677
1472.56	86.075
1476.1	137.254
1479.64	84.408
1483.19	32.903
1486.73	167.243
1490.27	109.188
1493.81	109.028
1497.34	4.94
1500.88	28.792
1504.41	64.324
1507.94	244.493
1511.47	22.707
1515	2.298
1518.53	0
