Measurement: Raman, 514 nm, ccw, Raman Data Processed
Mineral: Actinolite
Rruff sample: R040064
Ideal chemistry: Ca_2_(Mg_4.5-2.5_Fe^2+^_0.5-2.5_)_=5_Si_8_O_22_(OH)_2_
Locality: Ehime Perfecture, Uma Gun, Japan
Source: University of Arizona Mineral Museum
Description: Aggregate of green acicular crystals associated with chlorite
Measured chemistry: (Ca_0.95_Na_0.04_Mn_0.01_)_2_(Mg_0.88_Fe_0.12_)_5_(Si_0.98_Al_0.02_)_8_O_22_(OH)_2_
Pin_id: M00235
Orientation: Laser parallel to b* (0 1 0). Fiducial mark perpendicular to laser is parallel to -c [0 0 -1]
Raman shift (cm-1)	intensity
109.292	0
113.448	112.905
117.602	838.999
121.755	1560.85
125.905	2136.74
130.053	1109.22
134.2	349.13
138.345	92.307
142.488	16.206
146.629	21.251
150.768	68.023
154.905	1042.92
159.04	6072.76
163.174	14898.5
167.306	5371.53
171.436	2635.34
175.564	5056.16
179.69	14170.1
183.814	14003.3
187.937	4777.31
192.057	1985.6
196.176	1302.17
200.293	1065.5
204.408	1217.68
208.521	1442.25
212.633	2243.49
216.742	4114.85
220.85	9680.25
224.956	18597.8
229.06	13685.9
233.162	5472.15
237.263	2166.26
241.361	993.127
245.458	554.746
249.553	786.127
253.646	1064.28
257.737	644.206
261.827	326.917
265.914	161.112
270	48.7
274.084	76.459
278.166	55.294
282.246	34.417
286.325	138.65
290.402	451.497
294.477	763.786
298.55	1053.47
302.621	1898.59
306.69	2113.93
310.758	1138.2
314.824	581.947
318.888	363.936
322.95	283.352
327.01	451.624
331.069	830.672
335.126	1414.37
339.181	1365.4
343.234	1510.23
347.285	1477.45
351.335	1261.33
355.383	1015.48
359.429	697.658
363.473	554.089
367.515	597.085
371.556	869.958
375.595	863.711
379.632	805.342
383.667	784.848
387.7	1285.23
391.732	2846.47
395.762	4892.57
399.79	3429.53
403.816	1593.43
407.841	984.326
411.864	1142.29
415.884	1667.7
419.904	1549.97
423.921	918.108
427.937	443.462
431.951	285.6
435.963	294.662
439.973	396.714
443.981	155.396
447.988	9.485
451.993	14.125
455.996	13.309
459.998	4.589
463.998	23.227
467.996	8.902
471.992	28.459
475.986	26.889
479.979	26.134
483.97	76.148
487.959	96.062
491.946	48.836
495.932	5.456
499.916	46.153
503.898	24.079
507.878	13.694
511.857	8.29
515.834	116.727
519.809	95.065
523.782	157.349
527.754	199.344
531.723	251.672
535.692	264.702
539.658	197.661
543.623	134.517
547.585	193.269
551.547	139.913
555.506	138.448
559.464	103.875
563.42	115.195
567.374	112.407
571.326	139.507
575.277	346.499
579.226	107.388
583.173	103.178
587.119	125.872
591.063	104.5
595.005	106.209
598.945	115.089
602.884	101.931
606.821	144.71
610.756	185.831
614.689	231.654
618.621	289.014
622.551	409.288
626.479	539.062
630.406	664.148
634.331	761.044
638.254	938.905
642.175	1342.72
646.095	1780.81
650.013	2575.88
653.929	3530.01
657.844	4753.38
661.757	6980.62
665.668	11760.8
669.577	23556.7
673.485	47261.5
677.391	47773
681.296	23559.6
685.198	10687.6
689.099	5573.53
692.998	3469.06
696.896	2309.93
700.792	1716.35
704.686	1257.93
708.578	948.475
712.469	713.97
716.358	663.348
720.246	512.734
724.131	472.884
728.015	434.802
731.898	370.088
735.778	303.338
739.657	318.548
743.535	347.701
747.41	440.861
751.284	574.882
755.156	519.955
759.027	341.96
762.896	201.012
766.763	154.083
770.628	29.219
774.492	41.42
778.354	42.637
782.215	32.855
786.073	57.078
789.93	42.289
793.786	12.478
797.64	2.385
801.492	18.695
805.342	22.692
809.191	22.368
813.038	22.512
816.884	55.681
820.727	30.897
824.569	6.823
828.41	31.472
832.249	4.915
836.086	8.465
839.921	28.898
843.755	17.791
847.587	24.448
851.418	49.628
855.247	48.787
859.074	46.935
862.899	71.082
866.723	102.25
870.545	24.395
874.366	34.537
878.185	77.8
882.002	63.05
885.818	155.378
889.632	234.76
893.444	269.19
897.255	367.639
901.064	371.113
904.872	484.623
908.677	584.164
912.482	824.748
916.284	1092.41
920.085	1535.12
923.884	2395.81
927.682	3988.57
931.478	6460.37
935.272	6280.07
939.065	3855.12
942.856	2310.89
946.646	1709.3
950.433	1643.98
954.22	1274.84
958.004	989.053
961.787	783.735
965.569	650.549
969.348	559.673
973.126	546.907
976.903	452.45
980.678	427.875
984.451	345.428
988.223	380.646
991.993	384.306
995.761	383.339
999.528	357.951
1003.29	450.1
1007.06	513.699
1010.82	600.106
1014.58	657.559
1018.34	826.135
1022.1	936.786
1025.85	1189.7
1029.6	1385.28
1033.36	1769.79
1037.11	1841.47
1040.86	2159.77
1044.6	2986.87
1048.35	4363.5
1052.09	7279.48
1055.84	12866.8
1059.58	20953.2
1063.32	21452.3
1067.06	12451.2
1070.79	7096.85
1074.53	4045.16
1078.26	2456.6
1081.99	1631
1085.72	1181.32
1089.45	1002.61
1093.18	740.414
1096.9	606.859
1100.62	518.454
1104.35	473.047
1108.07	372.313
1111.79	345.606
1115.5	285.821
1119.22	281.439
1122.93	230.583
1126.64	201.004
1130.36	144.7
1134.07	153.182
1137.77	75.602
1141.48	27.254
1145.18	46.024
1148.89	64.837
1152.59	100.686
1156.29	32.344
1159.99	39.026
1163.68	51.811
1167.38	29.443
1171.07	10.441
1174.77	9.302
1178.45	18.58
1182.14	0.373
1185.83	31.019
1189.52	30.612
1193.2	5.17
1196.88	6.095
1200.57	10.951
1204.24	51.132
1207.92	60.957
1211.6	91.627
1215.28	3.947
1218.95	22.425
1222.62	1.843
1226.29	31.029
1229.96	29.991
1233.63	16.253
1237.29	74.09
1240.95	91.677
1244.62	73.176
1248.28	74.502
1251.94	54.635
1255.6	30.008
1259.25	51.073
1262.91	20.256
1266.56	99.266
1270.21	78.062
1273.86	74.896
1277.51	109.635
1281.16	124.822
1284.8	35.856
1288.45	58.987
1292.09	22.619
1295.73	28.29
1299.37	25.913
1303.01	295.403
1306.64	54.757
1310.28	108.773
1313.91	132.799
1317.55	127.907
1321.17	28.032
1324.8	53.43
1328.43	64.762
1332.06	34.846
1335.68	88.986
1339.3	143.695
1342.92	179.165
1346.54	126.994
1350.16	172.852
1353.78	82.285
1357.39	70.99
1361.01	34.276
1364.62	28.328
1368.23	85.312
1371.84	53.295
1375.45	74.441
1379.05	75.151
1382.66	71.257
1386.26	127.01
1389.86	111.727
1393.46	58.522
1397.06	0.835
1400.65	27.095
1404.25	56.219
1407.85	83.745
1411.44	122.878
1415.03	163.126
1418.62	161.745
1422.2	159.427
1425.79	122.302
1429.38	46.837
1432.96	93.777
1436.54	48.218
1440.12	49.344
1443.7	37.99
1447.28	90.996
1450.85	239.781
1454.43	198.496
1458	287.582
1461.57	253.261
1465.14	193.714
1468.71	178.683
1472.28	113.558
1475.84	69.405
1479.41	102.317
1482.97	86.433
1486.53	52.703
1490.09	114.49
1493.65	172.977
1497.2	208.364
1500.76	233.8
1504.31	233.2
1507.87	249.264
1511.42	186.272
1514.97	109.624
1518.51	104.974
1522.06	43.677
1525.6	1.014
1529.15	0.655
