Measurement: Raman, 514 nm, ccw, Raman Data Processed
Mineral: Actinolite
Rruff sample: R060041
Ideal chemistry: Ca_2_(Mg_4.5-2.5_Fe^2+^_0.5-2.5_)_=5_Si_8_O_22_(OH)_2_
Locality: Prince of Wales Island, Alaska, USA
Source: University of Arizona Mineral Museum
Description: Green acicular crystals forming parallel groups in cylindrical or bladed forms
Measured chemistry: (Ca_0.97_Na_0.03_)_2_(Mg_0.65_Fe^2+^_0.29_Fe^3+^_0.04_Al_0.01_Mn_0.01_)_5_(Si_0.98_Al_0.02_)_8_O_22_(OH)_2_
Raman shift (cm-1)	intensity
95.948	0
100.883	153.073
105.815	798.174
110.744	2655.38
115.671	1989.53
120.596	1292.94
125.519	632.482
130.439	1058.37
135.356	1256.16
140.271	2115.84
145.184	5591.53
150.094	9777.63
155.002	7418.77
159.908	2918.49
164.811	3317.66
169.711	7953.06
174.61	10842.9
179.505	5407.05
184.399	1867.92
189.29	1805.93
194.178	2117.02
199.064	2872.32
203.948	4557
208.829	6804.64
213.708	12161.7
218.585	15648
223.459	11730.1
228.33	6663.52
233.199	3389.23
238.066	2117.07
242.93	1558.8
247.792	1095.12
252.651	999.531
257.508	606.229
262.363	1220.18
267.215	27.7422
272.064	80.293
276.912	26.9766
281.756	129.68
286.598	389.512
291.438	679.221
296.276	556.617
301.111	436.344
305.943	166.293
310.773	165.383
315.601	340.127
320.426	550.992
325.248	850.771
330.068	1329.57
334.886	1963.11
339.701	2149.83
344.514	2645.94
349.324	2957.93
354.132	3281.51
358.938	3815.56
363.741	3828.43
368.541	3177
373.339	2550.58
378.135	2681.15
382.928	2989.66
387.718	2868.15
392.506	2242.27
397.292	1571.97
402.075	1436.08
406.856	1321.48
411.634	926.352
416.41	808.611
421.183	389.135
425.954	493.867
430.722	809.527
435.488	641.283
440.251	73.9668
445.012	279.559
449.77	118.799
454.526	87.5195
459.28	163.656
464.03	46.8477
468.779	110.934
473.525	2.64453
478.268	18.5352
483.009	105.799
487.747	237.553
492.483	418.746
497.217	468.33
501.948	674.338
506.676	1087.76
511.402	1328.64
516.125	1552.02
520.846	2400.97
525.565	2444.81
530.281	2058.88
534.994	1183.58
539.705	1038.8
544.413	754.461
549.119	817.627
553.822	505.221
558.523	533.236
563.222	737.676
567.917	563.394
572.611	499.812
577.302	513.807
581.99	308.621
586.676	48.4492
591.359	34.041
596.04	271.16
600.718	252.184
605.394	296.287
610.067	371.326
614.737	368.99
619.406	402.592
624.071	1031.82
628.734	1720.5
633.395	2255.72
638.053	3106.81
642.708	4066.41
647.361	5218.19
652.012	7399.62
656.66	12189
661.305	23285.4
665.948	37585.8
670.588	36294.8
675.226	19809.9
679.861	10417.9
684.494	6185.55
689.124	4281.25
693.752	2773.4
698.377	1887.94
702.999	1168.74
707.619	1093.22
712.237	1091.15
716.852	796.92
721.464	815.537
726.074	781.918
730.681	929.418
735.286	947.842
739.888	848.988
744.488	1170.09
749.085	790.137
753.68	612
758.272	442.504
762.861	561.074
767.448	399.828
772.033	451.56
776.614	174.688
781.194	259.178
785.77	167.023
790.345	79.1523
794.916	44.6523
799.485	38.4434
804.052	128.182
808.616	78.9082
813.177	3.79883
817.736	45.5
822.292	40.1367
826.846	144.252
831.397	93.9121
835.945	194.658
840.491	43.2559
845.035	184.197
849.576	399.815
854.114	184.809
858.65	142.856
863.183	453.518
867.713	242.387
872.241	401.072
876.767	437.451
881.29	342.613
885.81	670.611
890.328	712.463
894.843	939.1
899.356	1364.85
903.866	1373.54
908.373	1741.91
912.878	2221.84
917.38	2845.88
921.88	4261.26
926.377	5317.03
930.872	4597.92
935.364	3029.84
939.853	2783.07
944.34	2272.37
948.824	2101.49
953.306	1616.52
957.785	1576.04
962.261	1338.94
966.735	1313.66
971.207	1379.87
975.675	1445.35
980.141	1397.04
984.605	1434.3
989.066	1436.93
993.524	1729.33
997.98	1785.37
1002.43	2392.82
1006.88	3067.76
1011.33	3930.3
1015.78	4768.86
1020.22	5447.53
1024.66	5956.33
1029.1	5651.37
1033.53	4793.68
1037.97	5854.84
1042.4	8839.03
1046.82	12919.6
1051.25	16537.3
1055.67	14970.5
1060.09	10840
1064.51	8407.44
1068.92	5343.57
1073.33	3035.47
1077.74	1931.89
1082.15	1677.23
1086.55	1091.78
1090.95	1180.38
1095.35	872.606
1099.75	610.727
1104.14	727.617
1108.53	328.141
1112.92	445.643
1117.31	137.928
1121.69	567.477
1126.07	502.002
1130.45	351.344
1134.82	22.0957
1139.19	180.135
1143.57	232.998
1147.93	153.478
1152.3	66.416
1156.66	125.85
1161.02	103.631
1165.38	77.3535
1169.73	50.3945
1174.08	9.98828
1178.43	0.695313
1182.78	36.8086
1187.12	109.117
1191.46	146.754
1195.8	16.8984
1200.14	94.3906
1204.47	39.2266
1208.8	89.6445
1213.13	64.1641
1217.46	179.332
1221.78	235.195
1226.1	41.7734
1230.42	385.07
1234.73	223.996
1239.04	155.535
1243.35	286.727
1247.66	331.383
1251.97	244.918
1256.27	326.262
1260.57	363.281
1264.86	580.863
1269.16	419.137
1273.45	388.18
1277.74	568.777
1282.03	582.637
1286.31	710.836
1290.59	695.039
1294.87	654.793
1299.14	762.562
1303.42	939.371
1307.69	765.816
1311.95	896.902
1316.22	648.34
1320.48	819.426
1324.74	651.176
1329	859.051
1333.26	637.844
1337.51	664.738
1341.76	564.562
1346	814.129
1350.25	616
1354.49	503.223
1358.73	949.215
1362.96	672.531
1367.2	821.152
1371.43	731.348
1375.66	569.242
1379.88	457.738
1384.11	734.926
1388.33	516.859
1392.54	263.945
1396.76	596.148
1400.97	511.633
1405.18	172.199
1409.39	199.148
1413.59	256.07
1417.8	278.477
1421.99	169.238
1426.19	65.5938
1430.38	96.3516
1434.58	238.133
1438.77	87.7109
1442.95	177.731
1447.13	320.859
1451.32	34.3828
1455.49	238.793
1459.67	218.293
1463.84	135.644
1468.01	164.805
1472.18	29.9375
1476.35	128.949
1480.51	74.4453
1484.67	57.9805
1488.83	218.305
1492.98	139.715
1497.13	36.5781
1501.28	150.902
1505.43	140.574
1509.57	289.988
1513.71	32.1328
1517.85	218.215
1521.99	162.75
1526.12	266.117
1530.25	183.254
1534.38	42.6328
1538.5	231.887
1542.62	5.28516
1546.74	19.4141
1550.86	245.801
1554.98	512.062
1559.09	0.953125
1563.2	79.6172
1567.31	15
