Measurement: Raman, 514 nm, ccw, Raman Data Processed
Mineral: Actinolite
Rruff sample: R060045
Ideal chemistry: Ca_2_(Mg_4.5-2.5_Fe^2+^_0.5-2.5_)_=5_Si_8_O_22_(OH)_2_
Locality: Colorado, USA
Source: University of Arizona Mineral Museum
Description: Green prismatic crystals in a radial arrangement
Measured chemistry: (Ca_1.99_Na_0.01_)_Σ=2_(Mg_4.20_Fe^2+^_0.59_Al_0.09_Fe^3+^_0.08_Mn_0.02_Ti_0.01_)_Σ=5_(Si_7.82_Al_0.18_)_Σ=8_O_22_(OH)_2_
Pin_id: M00155
Orientation: Laser parallel to b* (0 1 0). Fiducial mark perpendicular to laser is parallel to c [0 0 1]
Raman shift (cm-1)	intensity
137.814	0
142.728	37.96
147.639	818.415
152.549	5953.64
157.455	13962.9
162.359	2651.22
167.261	2233.94
172.161	7995.08
177.058	17496.2
181.952	3553.81
186.845	778.154
191.734	348.894
196.622	456.025
201.507	690.455
206.389	1233.38
211.269	4371.6
216.147	10898.7
221.022	19341.8
225.895	7812.19
230.765	2410.26
235.633	762.485
240.498	385.54
245.361	536.281
250.222	497.103
255.08	220.305
259.936	333.567
264.789	108.139
269.64	197.847
274.488	240.605
279.334	36.2236
284.178	293.606
289.019	514.962
293.857	980.902
298.693	1691.48
303.527	1039.03
308.358	371.585
313.187	343.025
318.013	293.31
322.837	430.618
327.659	963.553
332.478	1280.26
337.294	1748.34
342.108	1467.33
346.92	1069.33
351.729	1149.12
356.535	690.732
361.34	760.364
366.141	1044.04
370.94	949.412
375.737	814.707
380.531	997.863
385.323	2487.86
390.113	4410.67
394.9	2607.28
399.684	1255.66
404.466	1158.94
409.245	1603.87
414.022	1507.85
418.797	783.156
423.569	127.113
428.338	89.4356
433.105	464.379
437.87	267.367
442.632	12.6309
447.391	93.5957
452.149	15.0371
456.903	55.5801
461.655	1.16992
466.405	17.5078
471.152	29.9707
475.897	34.9824
480.639	221.578
485.378	14.8164
490.116	278.734
494.85	59.6504
499.582	45.2227
504.312	23.8555
509.039	258.133
513.764	458.252
518.486	285.166
523.206	555.893
527.923	679.383
532.638	503.603
537.35	331.527
542.059	255.197
546.766	190.69
551.471	183.059
556.173	240.693
560.873	276.762
565.57	108.746
570.264	50.3965
574.957	209.672
579.646	332.598
584.333	275.115
589.018	206.199
593.7	307.531
598.379	18.9141
603.056	273.898
607.73	180.123
612.402	317.148
617.072	672.92
621.739	755.961
626.403	1055.39
631.065	1308.06
635.724	1251.09
640.381	1990.9
645.035	2898.22
649.687	3983.99
654.336	5805.48
658.983	8629.77
663.627	17948.1
668.268	39692.4
672.907	43304.2
677.544	17617.8
682.178	7380.57
686.809	3890.83
691.438	2116.01
696.065	1446.55
700.688	944.34
705.31	431.24
709.929	463.818
714.545	371.791
719.158	292.596
723.77	357.971
728.378	299.772
732.984	190.232
737.588	181.391
742.189	274.205
746.787	455.123
751.383	350.982
755.976	244.668
760.567	126.902
765.155	75.4082
769.741	102.16
774.324	134.648
778.904	40.1074
783.482	128.562
788.058	137.049
792.631	2.71875
797.201	120.111
801.769	8.0957
806.334	102.703
810.897	34.0898
815.457	169.203
820.014	145.012
824.569	34.3711
829.122	48.8301
833.671	193.391
838.219	287.193
842.763	324.916
847.306	368.559
851.845	436.137
856.382	400.641
860.917	732.09
865.448	260.49
869.978	235.613
874.505	484.916
879.029	235.18
883.55	257.432
888.069	270.869
892.586	551.477
897.1	191.117
901.611	490.44
906.12	632.941
910.626	963.543
915.129	1237.31
919.63	1944.89
924.129	3815.42
928.625	6008.48
933.118	4390.55
937.609	2190.14
942.097	1495.54
946.582	1614.92
951.065	989.791
955.546	534.477
960.023	531.299
964.499	290.352
968.971	336.215
973.441	141.275
977.909	234.494
982.374	164.869
986.836	484.4
991.295	265.092
995.753	379.943
1000.21	679.951
1004.66	644.129
1009.11	869.533
1013.55	1059.09
1018	1279.01
1022.44	1312.84
1026.88	1682.3
1031.32	1729.53
1035.75	1934.78
1040.18	2609.83
1044.61	4423.54
1049.04	8608.82
1053.46	15393.7
1057.88	19105.3
1062.3	11327.2
1066.71	6331.18
1071.13	3297.28
1075.54	1776.49
1079.94	1241.03
1084.35	1176.49
1088.75	1079.05
1093.15	315.756
1097.55	416.033
1101.94	379.559
1106.34	184.514
1110.73	408.834
1115.11	435.477
1119.5	187.119
1123.88	132.756
1128.26	179.383
1132.63	213.992
1137.01	332.596
1141.38	221.182
1145.75	33.7383
1150.12	11.1055
1154.48	234.908
1158.84	205.336
1163.2	209.531
1167.55	86.5098
1171.91	98.334
1176.26	73.0117
1180.61	182.334
1184.95	112.475
1189.29	52.4062
1193.63	106.252
1197.97	8.01367
1202.31	77.6445
1206.64	145.748
1210.97	50.5039
1215.29	337.494
1219.62	70.1133
1223.94	320.477
1228.26	206.424
1232.57	218.565
1236.89	299.588
1241.2	218.498
1245.51	310.299
1249.81	304.994
1254.12	373.717
1258.42	431.379
1262.72	356.06
1267.01	577.539
1271.3	444.758
1275.59	595.461
1279.88	359.445
1284.17	463.773
1288.45	512.457
1292.73	518.447
1297.01	417.67
1301.28	562.184
1305.55	356.557
1309.82	368.754
1314.09	565.035
1318.35	586.672
1322.61	393.422
1326.87	304.227
1331.13	114.898
1335.38	403.734
1339.63	164.211
1343.88	230.137
1348.12	128.328
1352.37	273.066
1356.61	182.848
1360.85	56.6719
1365.08	198.555
1369.31	210.703
1373.54	431.312
1377.77	418.555
1381.99	262.273
1386.22	224.207
1390.43	22.2695
1394.65	440.332
1398.87	178.086
1403.08	89.9648
1407.29	279.141
1411.49	159.789
1415.69	188.691
1419.89	178.777
1424.09	280.586
1428.29	189.414
1432.48	253.106
1436.67	505.887
1440.86	856.719
1445.04	966.383
1449.23	965.336
1453.4	942.992
1457.58	1099.26
1461.76	995.234
1465.93	632.398
1470.1	589.644
1474.26	528.195
1478.43	316.699
1482.59	531.191
1486.75	199.664
1490.9	87.9102
1495.06	213.934
1499.21	144.031
1503.35	245.871
1507.5	439.238
1511.64	77.8477
1515.78	221.805
1519.92	131.184
1524.05	352.43
1528.18	342.879
1532.31	375.981
1536.44	454.734
1540.56	180.078
1544.69	205.875
1548.8	173.09
1552.92	153.188
1557.03	138.449
1561.14	176.523
1565.25	89.0703
1569.36	71.4297
