Measurement: Raman, 514 nm, ccw, Raman Data Processed
Mineral: Actinolite
Rruff sample: R040064
Ideal chemistry: Ca_2_(Mg_4.5-2.5_Fe^2+^_0.5-2.5_)_=5_Si_8_O_22_(OH)_2_
Locality: Ehime Perfecture, Uma Gun, Japan
Source: University of Arizona Mineral Museum
Description: Aggregate of green acicular crystals associated with chlorite
Measured chemistry: (Ca_0.95_Na_0.04_Mn_0.01_)_2_(Mg_0.88_Fe_0.12_)_5_(Si_0.98_Al_0.02_)_8_O_22_(OH)_2_
Pin_id: M00214
Orientation: Laser parallel to [1 0 1]. Fiducial mark perpendicular to laser is parallel to b* (0 1 0)
Raman shift (cm-1)	intensity
107.711	0
111.905	391.311
116.097	1393.2
120.287	2492.6
124.475	2131.31
128.66	922.471
132.843	478.974
137.024	108.898
141.203	26.512
145.38	26.543
149.554	110.98
153.726	362.627
157.896	556.713
162.064	296.356
166.23	232.603
170.393	1247.95
174.555	4250.07
178.714	6125.63
182.871	3492.39
187.025	1165.84
191.178	362.331
195.328	115.036
199.476	29.125
203.623	91.117
207.766	193.739
211.908	821.266
216.048	2324.67
220.185	5006.76
224.32	5611.59
228.453	3527.11
232.584	2056.79
236.713	1005.46
240.839	441.455
244.964	296.347
249.086	441.728
253.206	422.059
257.324	135.33
261.439	14.466
265.553	26.975
269.665	66.601
273.774	295.053
277.881	773.371
281.986	1474.03
286.089	1795.83
290.19	1484.41
294.288	842.418
298.385	534.686
302.479	525.894
306.571	326.49
310.661	152.252
314.749	30.216
318.835	15.907
322.919	162.334
327	416.37
331.08	1105.56
335.157	1029.2
339.232	726.295
343.305	675
347.376	881.546
351.445	1257.3
355.512	1317.86
359.576	1513.33
363.639	3192.98
367.699	6821.81
371.757	7185.49
375.814	4019.55
379.868	2148.44
383.92	2020.15
387.969	2920.74
392.017	4964.1
396.063	4807.4
400.106	2542.51
404.148	1287.69
408.187	905.399
412.224	1396.1
416.26	1587.28
420.293	1066.22
424.324	544.937
428.353	280.653
432.379	61.88
436.404	73.081
440.427	20.379
444.448	27.472
448.466	53.64
452.482	8.455
456.497	0.428
460.509	69.374
464.519	30.242
468.527	29.684
472.534	41.304
476.538	84.512
480.54	19.771
484.539	101.568
488.537	70.456
492.533	5.974
496.527	43.079
500.518	14.247
504.508	69.048
508.495	80.067
512.481	213.831
516.464	393.369
520.446	448.646
524.425	546.329
528.402	536.474
532.377	557.073
536.351	420.381
540.322	441.394
544.291	243.106
548.258	286.517
552.223	334.622
556.186	315.419
560.147	373.909
564.106	264.085
568.063	281.949
572.018	267.5
575.97	341.742
579.921	468.68
583.87	435.313
587.817	368.657
591.761	320.635
595.704	263.126
599.645	149.988
603.583	110.253
607.52	146.45
611.455	192.407
615.387	238.177
619.318	360.28
623.247	452.367
627.173	652.717
631.098	603.661
635.02	569.71
638.941	793.818
642.859	1136.95
646.776	1723.01
650.691	2721.29
654.603	3736.98
658.514	4638.17
662.422	6507.09
666.329	12060
670.233	25801.3
674.136	35865.8
678.036	23910
681.935	11206.9
685.832	5541.34
689.726	3393.91
693.619	2135.36
697.51	1566.78
701.398	1137.71
705.285	888.183
709.17	858.434
713.052	1578.33
716.933	947.996
720.812	457.16
724.689	416.43
728.564	365.238
732.437	394.221
736.308	453.002
740.176	671.59
744.043	749.986
747.908	1198.2
751.771	1266.01
755.633	812.787
759.492	519.07
763.349	265.482
767.204	162.032
771.057	169.001
774.909	136.664
778.758	84.198
782.605	58.353
786.451	1.129
790.294	63.963
794.136	23.039
797.976	149.922
801.813	46.586
805.649	13.036
809.483	130.566
813.315	64.528
817.144	11.162
820.972	63.189
824.798	12.76
828.623	12.261
832.445	32.44
836.265	78.268
840.083	52.662
843.9	116.833
847.714	80.985
851.527	114.966
855.337	268.855
859.146	322.672
862.953	376.441
866.757	240.185
870.56	354.926
874.361	257.594
878.16	281.278
881.958	294.902
885.753	448.471
889.546	181.984
893.338	355.503
897.127	439.027
900.915	482.568
904.7	496.154
908.484	359.79
912.266	383.479
916.046	417.203
919.824	580.419
923.6	753.002
927.375	1384.98
931.147	1715.56
934.918	1353.12
938.686	714.338
942.453	551.445
946.218	502.051
949.981	680.735
953.742	446.284
957.501	256.092
961.258	248.689
965.014	238.542
968.767	240.127
972.519	207.253
976.269	114.31
980.017	144.681
983.762	33.922
987.507	214.777
991.249	236.474
994.989	209.798
998.728	263.628
1002.46	707.622
1006.2	531.243
1009.93	626.761
1013.66	943.197
1017.39	1190
1021.12	2074.5
1024.85	3416.92
1028.57	4861.01
1032.29	4404.72
1036.01	2248.45
1039.73	1317.06
1043.44	1239.98
1047.16	1311.08
1050.87	2073.12
1054.58	3276.33
1058.29	3486.36
1062	3624.5
1065.7	3988.67
1069.4	3990.13
1073.11	2830.45
1076.81	2170.13
1080.5	2650.73
1084.2	11165.5
1087.89	13914
1091.59	2671.65
1095.28	1119.36
1098.96	697.469
1102.65	493.695
1106.34	591.232
1110.02	317.741
1113.7	343.82
1117.38	298.69
1121.06	333.222
1124.73	346.814
1128.41	230.897
1132.08	53.595
1135.75	7.007
1139.42	180.392
1143.08	134.553
1146.75	137.896
1150.41	221.777
1154.07	156.193
1157.73	108.262
1161.39	28.582
1165.05	4.572
1168.7	114.843
1172.35	124.018
1176	141.705
1179.65	139.794
1183.3	57.53
1186.94	165.286
1190.58	104.432
1194.22	31.225
1197.86	33.729
1201.5	181.204
1205.14	185.019
1208.77	148.134
1212.4	210.781
1216.03	304.907
1219.66	215.961
1223.29	136.376
1226.91	62.146
1230.54	281.426
1234.16	294.055
1237.78	272.203
1241.4	339.428
1245.01	235.959
1248.63	271.861
1252.24	156.832
1255.85	210.639
1259.46	383.795
1263.07	427.709
1266.67	418.93
1270.28	458.592
1273.88	410.904
1277.48	342.084
1281.08	350.213
1284.67	279.023
1288.27	160.375
1291.86	110.898
1295.45	165.02
1299.04	166.711
1302.63	239.471
1306.22	305.881
1309.8	230.344
1313.38	224.871
1316.96	286.475
1320.54	120.631
1324.12	128.059
1327.69	154.082
1331.27	177.729
1334.84	240.607
1338.41	196.555
1341.98	253.379
1345.55	239.234
1349.11	332.98
1352.67	211.918
1356.23	2.225
1359.8	187.584
1363.35	182.402
1366.91	133.109
1370.46	330.74
1374.02	363.848
1377.57	403.535
1381.12	513.811
1384.66	354.34
1388.21	343.266
1391.75	229.557
1395.3	126.424
1398.84	313.098
1402.38	411.195
1405.91	406.982
1409.45	387.197
1412.98	265.695
