Measurement: Raman, 514 nm, ccw, Raman Data Processed
Mineral: Actinolite
Rruff sample: R040064
Ideal chemistry: Ca_2_(Mg_4.5-2.5_Fe^2+^_0.5-2.5_)_=5_Si_8_O_22_(OH)_2_
Locality: Ehime Perfecture, Uma Gun, Japan
Source: University of Arizona Mineral Museum
Description: Aggregate of green acicular crystals associated with chlorite
Measured chemistry: (Ca_0.95_Na_0.04_Mn_0.01_)_2_(Mg_0.88_Fe_0.12_)_5_(Si_0.98_Al_0.02_)_8_O_22_(OH)_2_
Pin_id: M00297
Orientation: Laser parallel to c* (0 0 1). Fiducial mark perpendicular to laser is parallel to -b [0 -1 0]
Raman shift (cm-1)	intensity
54.966	0
59.164	37.968
63.36	78.53
67.554	59.956
71.747	9.165
75.937	14.227
80.125	0.868
84.311	29.214
88.496	154.098
92.678	283.054
96.858	330.748
101.036	431.816
105.212	536.785
109.387	693.352
113.559	897.355
117.729	1292.75
121.897	974.514
126.063	748.564
130.228	713.88
134.39	664.389
138.55	709.968
142.709	720.055
146.865	938.366
151.019	1989.81
155.171	4664.65
159.322	10027
163.47	7624.81
167.617	4286.19
171.761	6803.29
175.904	12270.5
180.044	17044.4
184.183	7843.05
188.319	3602.18
192.454	2406.9
196.586	2234.44
200.717	2278.86
204.846	2795.74
208.972	3842.94
213.097	6182.47
217.22	11435.3
221.341	18937.5
225.46	19234
229.577	8723.02
233.692	3615.71
237.805	1859.63
241.916	1210.29
246.025	1124.72
250.132	1263.33
254.237	1042.53
258.34	837.243
262.442	655.451
266.541	590.11
270.639	374.19
274.734	343.669
278.828	375.527
282.919	471.704
287.009	741.539
291.097	1127.32
295.183	1352.13
299.266	1831.04
303.348	2222.82
307.428	1496.27
311.507	783.125
315.583	473.68
319.657	433.438
323.729	558.813
327.8	809.155
331.868	1359.12
335.935	1217.34
339.999	932.076
344.062	949.697
348.123	1244.91
352.182	1550.14
356.239	1319.53
360.294	1159.05
364.347	1452.7
368.398	2090.47
372.448	2130.35
376.495	1505.34
380.54	1136.44
384.584	1237.64
388.626	1857.03
392.666	2768.6
396.704	2368.36
400.74	1058.37
404.774	543.543
408.806	504.485
412.836	715.224
416.865	782.116
420.891	474.01
424.916	224.78
428.939	112.94
432.959	49.075
436.978	56.329
440.996	14.335
445.011	80.937
449.024	49.668
453.036	71.508
457.045	63.464
461.053	4.509
465.059	11.489
469.063	19.47
473.065	17.476
477.065	5.485
481.063	32.449
485.06	32.411
489.054	54.395
493.047	107.428
497.038	7.617
501.027	16.915
505.014	53.738
508.999	96.441
512.982	190.203
516.964	329.998
520.944	328.863
524.921	453.748
528.897	630.757
532.871	591.874
536.844	361.998
540.814	265.122
544.783	89.247
548.749	137.365
552.714	139.475
556.677	121.571
560.638	103.648
564.597	114.703
568.555	99.726
572.511	35.705
576.464	104.641
580.416	101.542
584.366	92.402
588.315	100.765
592.261	81.002
596.206	79.737
600.148	88.004
604.089	106.204
608.028	223.108
611.965	260.455
615.901	308.653
619.834	366.903
623.766	444.43
627.696	570.598
631.624	643.312
635.551	930.11
639.475	1256.8
643.398	1627.76
647.318	2335.66
651.237	3343.65
655.155	4616.71
659.07	6401.68
662.984	10615.8
666.895	21156.4
670.805	40399.7
674.713	47394.7
678.62	25802.8
682.524	11712.7
686.427	6527.76
690.328	4335
694.227	2991.61
698.124	2002.19
702.02	1468.62
705.913	962.948
709.805	805.21
713.695	582.406
717.584	538.48
721.47	456.543
725.355	317.949
729.238	357.401
733.119	277.269
736.998	369.959
740.876	358.701
744.752	322.382
748.626	333.002
752.498	292.548
756.368	221.053
760.237	177.89
764.104	84.087
767.969	37.672
771.832	135.295
775.693	68.907
779.553	4.49
783.411	29.046
787.267	40.556
791.122	49.023
794.974	39.411
798.825	15.218
802.674	16.046
806.522	24.223
810.367	11.732
814.211	39.227
818.053	16.044
821.893	46.735
825.732	34.307
829.568	18.784
833.403	46.148
837.236	59.59
841.068	4.644
844.898	56.166
848.726	21.923
852.552	22.66
856.376	70.268
860.199	31.071
864.02	64.751
867.839	50.415
871.656	96.583
875.472	96.701
879.286	74.346
883.098	208.223
886.909	180.663
890.717	331.313
894.524	373.999
898.33	454.719
902.133	502.463
905.935	647.209
909.735	778.965
913.533	1031.02
917.33	1433.96
921.124	2204.37
924.918	3516.19
928.709	5431.02
932.499	5750.56
936.286	3466.25
940.073	2308.11
943.857	1963.31
947.64	2064.65
951.421	1764.58
955.2	1197.76
958.978	966.192
962.753	872.905
966.527	749.86
970.3	632.641
974.071	604.045
977.84	623.783
981.607	603.624
985.372	547.64
989.136	519.438
992.898	508.795
996.659	510.032
1000.42	520.251
1004.17	659.631
1007.93	730.036
1011.68	969.659
1015.43	1231.71
1019.18	1661.56
1022.93	1931.45
1026.68	2056.09
1030.42	2285.8
1034.17	2213.92
1037.91	2578.19
1041.65	2958.63
1045.39	4356.82
1049.12	6866.4
1052.86	12141.9
1056.59	21566.3
1060.33	24983.5
1064.06	15376.7
1067.78	8440.07
1071.51	4938.2
1075.23	2984.82
1078.96	1902.06
1082.68	1414.13
1086.4	1101.69
1090.12	886.618
1093.83	788.124
1097.55	634.749
1101.26	472.08
1104.97	455.056
1108.68	295.528
1112.39	275.383
1116.1	259.892
1119.8	287.508
1123.5	288.546
1127.2	229.371
1130.9	149.478
1134.6	141.373
1138.3	110.34
1141.99	68.661
1145.69	39.465
1149.38	10.513
1153.07	48.167
1156.76	27.572
1160.44	9.365
1164.13	15.569
1167.81	26.375
1171.49	23.013
1175.17	47.469
1178.85	4.522
1182.52	1.701
1186.2	27.5
1189.87	52.662
1193.54	11.944
1197.21	17.909
1200.88	28.472
1204.55	11.296
1208.21	13.047
1211.88	7.16
1215.54	20.941
1219.2	1.822
1222.86	17.866
1226.51	72.26
1230.17	3.312
1233.82	65.494
1237.47	15.591
1241.12	12.841
1244.77	13.307
1248.42	14.402
1252.06	52.536
1255.71	116.615
1259.35	60.623
1262.99	33.684
1266.63	2.122
1270.26	24.962
1273.9	8.617
1277.53	76.534
1281.16	139.362
1284.8	113.765
1288.42	43.971
1292.05	46.02
1295.68	43.322
1299.3	52.871
1302.92	60.352
1306.55	72.771
1310.16	61.898
1313.78	24.456
1317.4	123.798
1321.01	94.189
1324.62	78.961
1328.24	77.163
1331.85	51.176
1335.45	53.819
1339.06	94.468
1342.66	62.934
1346.27	165.545
1349.87	110.32
1353.47	122.518
1357.07	163.492
1360.66	83.251
1364.26	25.656
1367.85	75.06
1371.44	109.943
1375.04	73.225
1378.62	14.087
1382.21	56.917
1385.8	71.574
1389.38	41.866
1392.96	107.648
1396.54	91.885
1400.12	48.205
1403.7	20.634
1407.28	77.559
1410.85	40.874
1414.42	37.265
1417.99	86.528
1421.56	101.88
1425.13	74.755
1428.7	124.821
1432.26	52.828
1435.83	129.414
1439.39	106.609
1442.95	98.426
1446.51	33.448
1450.06	155.342
1453.62	141.967
1457.17	206.937
1460.73	101.36
1464.28	103.447
1467.83	73.343
1471.37	114.537
1474.92	35.221
1478.46	53.101
1482.01	105.1
1485.55	119.438
1489.09	107.294
1492.63	72.702
1496.16	125.464
1499.7	93.041
1503.23	142.175
1506.76	116.951
1510.29	79.543
1513.82	141.456
1517.35	3.89
1520.88	0
