Measurement: Raman, 514 nm, ccw, Raman Data Processed
Mineral: Actinolite
Rruff sample: R050336
Ideal chemistry: Ca_2_(Mg_4.5-2.5_Fe^2+^_0.5-2.5_)_=5_Si_8_O_22_(OH)_2_
Locality: Kragerø, Norway
Source: California Institute of Technology
Description: Dark green prismatic fragment
Measured chemistry: ([box]_0.62_Na_0.34_K_0.04_)(Ca_1.60_Na_0.40_)_Σ=2_(Mg_3.90_Fe^2+^_0.70_Al_0.20_Ti_0.10_Fe^3+^_0.10_)_Σ=5_(Si_7.52_Al_0.48_)_Σ=8_O_22_((OH)_0.97_F_0.03_)_2_
Pin_id: M00375
Orientation: Laser parallel to b* (0 1 0). Fiducial mark perpendicular to laser is parallel to -c [0 0 -1]
Raman shift (cm-1)	intensity
142.359	0
147.275	413.356
152.188	3782.47
157.099	10337
162.008	12348.5
166.914	7459.22
171.818	8023.05
176.719	10490.2
181.617	8805.6
186.514	4941.51
191.407	2934.62
196.298	2497.24
201.187	3216.29
206.073	4960.77
210.957	9079.55
215.838	14615.9
220.717	19197.1
225.593	16324.1
230.467	8908.22
235.338	4185.91
240.207	2050.07
245.073	1403.45
249.937	1158.96
254.798	630.572
259.657	361.072
264.513	342.627
269.367	437.641
274.219	496.093
279.067	275.646
283.914	254.411
288.757	865.721
293.599	1731.63
298.437	2829.53
303.274	2935.21
308.107	2433.58
312.939	1965.88
317.767	2052.08
322.593	2178.59
327.417	2682.99
332.238	2947.71
337.057	2467.7
341.873	1545.3
346.687	1111.82
351.498	939.526
356.307	821.882
361.113	771.223
365.916	935.945
370.717	1248.93
375.516	1384.99
380.312	1879.98
385.106	3201.83
389.897	4410.45
394.685	4308.79
399.471	2550.79
404.254	1634.44
409.035	1597.43
413.814	1785.25
418.59	1344.61
423.363	633.248
428.134	380.558
432.902	234.149
437.668	41.0264
442.431	114.559
447.192	167.648
451.95	96.7329
456.706	69.0576
461.459	133.999
466.21	234.579
470.958	258.705
475.703	203.538
480.446	114.44
485.187	228.297
489.925	358.274
494.66	480.474
499.393	660.99
504.123	905.891
508.851	965.172
513.576	1181.82
518.299	1363.83
523.019	1632.19
527.737	1960.91
532.452	2141.98
537.165	2228.4
541.875	1962.17
546.582	1786.31
551.287	1636.97
555.99	1398.17
560.69	1134.56
565.387	903.989
570.082	808.543
574.774	621.618
579.464	547.063
584.151	315.764
588.836	123.458
593.518	59.1694
598.197	156.6
602.874	119.512
607.549	2.64404
612.221	243.19
616.89	423.126
621.557	690.75
626.221	1028.82
630.883	1627.49
635.542	2134.11
640.199	3191.33
644.853	4501.3
649.504	6490.99
654.153	9628.42
658.799	16096.6
663.443	29328.5
668.085	48799.2
672.723	57134.7
677.359	38070
681.993	18318.1
686.624	9682.02
691.253	5969.96
695.879	4201.12
700.502	3236.24
705.123	2733.68
709.741	2539.78
714.357	2606.93
718.97	2620.48
723.581	2794.1
728.189	2879.85
732.794	2927.94
737.397	2776.36
741.997	2615.37
746.595	2337.82
751.19	2000.96
755.783	1667.07
760.373	1274.25
764.961	946.564
769.546	762.92
774.128	537.307
778.708	507.739
783.285	495.229
787.86	499.79
792.432	413.434
797.002	427.172
801.569	287.016
806.133	155.978
810.695	160.066
815.254	14.291
819.811	76.6609
824.365	92.1853
828.917	13.7866
833.466	75.4946
838.012	72.2019
842.556	23.2112
847.097	67.333
851.636	43.5059
856.172	16.6643
860.706	71.7952
865.237	92.0732
869.765	55.6052
874.291	27.9155
878.814	286.183
883.335	430.169
887.853	524.602
892.369	766.971
896.882	906.777
901.392	1078.97
905.9	1586.62
910.405	2106.69
914.908	2809.16
919.408	4022.05
923.906	5353.3
928.401	5838.9
932.893	4606.9
937.383	3126.24
941.87	2297.89
946.355	1919.81
950.837	1716.25
955.316	1531.56
959.793	1441.3
964.267	1384.42
968.739	1249.83
973.208	1201.83
977.675	1061.91
982.139	1007.53
986.6	1047.66
991.059	1070.4
995.515	1205.61
999.969	1493.99
1004.42	1771.73
1008.87	1945.14
1013.31	2152.78
1017.76	2418.63
1022.2	2779.91
1026.64	3247.32
1031.07	3927.4
1035.51	4897.29
1039.93	6500.78
1044.36	8693.12
1048.79	11788.8
1053.21	15604.4
1057.63	17936.6
1062.05	15665.6
1066.46	10771.6
1070.88	6775.04
1075.29	4247.79
1079.69	2926.14
1084.1	2182.4
1088.5	1592.17
1092.9	1326.88
1097.3	1071.77
1101.69	925.361
1106.08	765.558
1110.47	778.769
1114.86	644.006
1119.24	565.984
1123.62	398.541
1128	347.263
1132.38	353.156
1136.75	228.046
1141.12	203.75
1145.49	86.1257
1149.85	65.3639
1154.22	34.3878
1158.58	4.18481
1162.93	38.4532
1167.29	100.656
1171.64	44.6254
1175.99	1.18909
1180.34	25.3492
1184.68	38.1304
1189.03	9.53565
1193.37	35.2722
1197.7	16.2632
1202.04	6.33984
1206.37	3.00513
1210.7	2.25049
1215.03	24.0305
1219.35	84.4436
1223.67	107.544
1227.99	38.3756
1232.31	87.8331
1236.62	88.9761
1240.93	89.8926
1245.24	99.4093
1249.55	82.7883
1253.85	126.858
1258.15	139.922
1262.45	136.151
1266.74	163.274
1271.04	178.876
1275.33	150.432
1279.62	153.933
1283.9	242.28
1288.18	181.165
1292.46	220.078
1296.74	249.42
1301.02	190.458
1305.29	142.74
1309.56	162.272
1313.82	107.399
1318.09	187.481
1322.35	146.019
1326.61	147.071
1330.87	112.188
1335.12	171.648
1339.37	114.206
1343.62	123.178
1347.87	157.152
1352.11	104.589
1356.35	100.177
1360.59	104.687
1364.82	53.3302
1369.06	18.0292
1373.29	16.9598
1377.52	53.3312
1381.74	7.79504
1385.96	20.7018
1390.18	0.761108
1394.4	51.8293
1398.62	26.4869
1402.83	2.01623
1407.04	47.2936
1411.24	63.9144
1415.45	6.54114
1419.65	25.1324
1423.85	66.2067
1428.05	32.5896
1432.24	73.2769
1436.43	72.1412
1440.62	98.7712
1444.81	89.8074
1448.99	61.2217
1453.17	116.835
1457.35	115.633
1461.53	54.4097
1465.7	31.1383
1469.87	54.782
1474.04	90.6902
1478.2	27.2411
1482.37	18.7335
1486.53	61.6776
1490.68	50.4216
1494.84	9.37329
1498.99	47.0012
1503.14	23.6258
1507.29	18.4269
1511.43	68.3487
1515.57	15.35
1519.71	22.5231
1523.85	0.981689
1527.98	31.9904
1532.12	91.7435
1536.24	54.8011
1540.37	28.8965
1544.49	56.6975
1548.62	0.529297
1552.73	124.6
1556.85	111.323
1560.96	0.187744
