Measurement: Raman, 514 nm, ccw, Raman Data Processed
Mineral: Actinolite
Rruff sample: R060045
Ideal chemistry: Ca_2_(Mg_4.5-2.5_Fe^2+^_0.5-2.5_)_=5_Si_8_O_22_(OH)_2_
Locality: Colorado, USA
Source: University of Arizona Mineral Museum
Description: Green prismatic crystals in a radial arrangement
Measured chemistry: (Ca_1.99_Na_0.01_)_Σ=2_(Mg_4.20_Fe^2+^_0.59_Al_0.09_Fe^3+^_0.08_Mn_0.02_Ti_0.01_)_Σ=5_(Si_7.82_Al_0.18_)_Σ=8_O_22_(OH)_2_
Pin_id: M00122
Orientation: Laser parallel to (1 0 1). Fiducial mark perpendicular to laser is parallel to b [0 1 0]
Raman shift (cm-1)	intensity
125.519	0
130.439	228.775
135.356	163.012
140.271	306.674
145.184	467.809
150.094	1012.31
155.002	2318.79
159.908	2587.63
164.811	1815.79
169.711	3157.99
174.61	8747.67
179.505	7791.09
184.399	2052.84
189.29	943.393
194.178	829.189
199.064	729.375
203.948	1251.05
208.829	2116.83
213.708	4881.75
218.585	11184.8
223.459	11281
228.33	4602.02
233.199	1859.31
238.066	766.182
242.93	312.406
247.792	509.531
252.651	320.4
257.508	60.9648
262.363	235.188
267.215	101.01
272.064	21.9922
276.912	8.47266
281.756	187.869
286.598	271.805
291.438	534.564
296.276	235.473
301.111	528.979
305.943	411.451
310.773	267.086
315.601	30.377
320.426	183.215
325.248	409.285
330.068	841.019
334.886	940.148
339.701	1219.9
344.514	1679.02
349.324	1797.54
354.132	1606.12
358.938	1865.4
363.741	2953.48
368.541	3310.89
373.339	2059.58
378.135	1031.5
382.928	990.615
387.718	1369.89
392.506	1265.31
397.292	648.861
402.075	303.518
406.856	224.266
411.634	182.301
416.41	72.8867
421.183	193.633
425.954	139.693
430.722	35.3613
435.488	566.658
440.251	30.8418
445.012	123.607
449.77	223.572
454.526	169.039
459.28	120.875
464.03	149.99
468.779	97.5176
473.525	131.57
478.268	19.9805
483.009	86.0742
487.747	35.8945
492.483	141.221
497.217	78.4512
501.948	174.498
506.676	365.478
511.402	650.615
516.125	680.01
520.846	708.295
525.565	747.436
530.281	737.498
534.994	320.576
539.705	395.43
544.413	451.057
549.119	173.445
553.822	440.576
558.523	216.512
563.222	80.2383
567.917	135.029
572.611	202.072
577.302	290.938
581.99	409.512
586.676	388.086
591.359	105.307
596.04	298.008
600.718	30.7109
605.394	196.506
610.067	156.746
614.737	487.519
619.406	220.836
624.071	439.549
628.734	561.742
633.395	992.639
638.053	1340.24
642.708	1858.64
647.361	3211.97
652.012	4423.78
656.66	5199.91
661.305	7689.06
665.948	14589.2
670.588	24508.5
675.226	17900.8
679.861	7444.18
684.494	3702.96
689.124	2452.35
693.752	1488.46
698.377	955.707
702.999	752.043
707.619	466.562
712.237	645.172
716.852	317.352
721.464	475.188
726.074	280.762
730.681	78.7734
735.286	422.641
739.888	601.406
744.488	499.707
749.085	122.109
753.68	240.117
758.272	170.137
762.861	177.918
767.448	149.769
772.033	263.09
776.614	194.738
781.194	25.9609
785.77	121.676
790.345	87.2109
794.916	0.191406
799.485	2.02344
804.052	36.7383
808.616	148.848
813.177	175.371
817.736	174.629
822.292	340.602
826.846	253.312
831.397	54.793
835.945	157.977
840.491	28.3633
845.035	184.32
849.576	399.445
854.114	21.6055
858.65	460.762
863.183	550.902
867.713	187.668
872.241	150.652
876.767	18.0391
881.29	266.481
885.81	12.4414
890.328	94.582
894.843	381.356
899.356	22.7852
903.866	250.055
908.373	328.551
912.878	593.055
917.38	617.391
921.88	1347.5
926.377	1841
930.872	1937.31
935.364	1496.84
939.853	959.117
944.34	1393.87
948.824	1128.58
953.306	769.644
957.785	814.914
962.261	410.234
966.735	17.1602
971.207	245.043
975.675	31.6289
980.141	314.781
984.605	209.133
989.066	229.07
993.524	400.879
997.98	223.898
1002.43	480.023
1006.88	709.434
1011.33	841.902
1015.78	908.488
1020.22	1472.63
1024.66	1953.67
1029.1	2615.86
1033.53	1750.5
1037.97	1734.1
1042.4	2185.75
1046.82	3471.14
1051.25	6445.8
1055.67	9130.57
1060.09	8305.92
1064.51	5453.69
1068.92	3740.58
1073.33	1782.61
1077.74	1188.57
1082.15	849.613
1086.55	563.391
1090.95	591.461
1095.35	519.93
1099.75	229.531
1104.14	287.277
1108.53	159.856
1112.92	115.227
1117.31	391.336
1121.69	131.887
1126.07	298.727
1130.45	163.441
1134.82	11.6016
1139.19	288.711
1143.57	80.375
1147.93	130.266
1152.3	86.5742
1156.66	207.227
1161.02	15.1133
1165.38	47.8359
1169.73	307.356
1174.08	256.734
1178.43	440.82
1182.78	171.398
1187.12	66.7344
1191.46	164.875
1195.8	28.1875
1200.14	125.496
1204.47	322.738
1208.8	224.652
1213.13	150.258
1217.46	57.7227
1221.78	153.043
1226.1	348.027
1230.42	411.809
1234.73	33.4648
1239.04	53.9844
1243.35	149.137
1247.66	325.512
1251.97	370.656
1256.27	194.051
1260.57	357.438
1264.86	68.3594
1269.16	539.621
1273.45	76.2227
1277.74	332.496
1282.03	23.2109
1286.31	611.586
1290.59	418.68
1294.87	580.871
1299.14	258.328
1303.42	160.598
1307.69	824.383
1311.95	412.953
1316.22	517.488
1320.48	694.305
1324.74	479.363
1329	448.559
1333.26	291.211
1337.51	516.727
1341.76	211.223
1346	311.809
1350.25	137.477
1354.49	429.578
1358.73	533.367
1362.96	292.133
1367.2	137.102
1371.43	280.227
1375.66	514.703
1379.88	261.191
1384.11	322.398
1388.33	524.453
1392.54	348.758
1396.76	354.277
1400.97	41.082
1405.18	553.137
1409.39	162.559
1413.59	326.852
1417.8	153.93
1421.99	284.644
1426.19	378.082
1430.38	379.984
1434.58	225.398
1438.77	493.144
1442.95	790.742
1447.13	425.332
1451.32	491.856
1455.49	389.066
1459.67	500.777
1463.84	189.941
1468.01	561.602
1472.18	227.539
1476.35	322.797
1480.51	344.469
1484.67	513.621
1488.83	479.293
1492.98	381.629
1497.13	217.625
1501.28	411.047
1505.43	302.711
1509.57	195.699
1513.71	62.582
1517.85	431.504
1521.99	307.574
1526.12	173.039
1530.25	200.129
1534.38	309.324
1538.5	296.484
1542.62	448.894
1546.74	411.414
1550.86	323.164
1554.98	35.1641
1559.09	576.18
1563.2	243.379
1567.31	4.26172
