Measurement: Raman, 514 nm, ccw, Raman Data Processed
Mineral: Actinolite
Rruff sample: R050025
Ideal chemistry: Ca_2_(Mg_4.5-2.5_Fe^2+^_0.5-2.5_)_=5_Si_8_O_22_(OH)_2_
Locality: Tyrol, Austria
Source: Eugene Schlepp
Description: Green colored bladed single crystals
Measured chemistry: (Ca_.930_Na_.056_Mn_.010_K_.004_)_2_(Mg_.883_Fe_.117_)_5_(Si_.978_Al_.022_)_8_O_22_(OH)_2_
Pin_id: L00431
Orientation: Laser parallel to a* (1 0 0). Fiducial mark perpendicular to laser is parallel to b [0 1 0]
Raman shift (cm-1)	intensity
85.706	0
89.89	211.308
94.071	401.727
98.251	121.047
102.428	151.642
106.604	799.976
110.777	1897.64
114.949	1863.48
119.119	862.999
123.286	698.277
127.452	293.352
131.615	259.921
135.777	174.072
139.937	242.145
144.094	145.597
148.25	195.32
152.403	554.28
156.555	3408.32
160.705	4986.07
164.853	1834.75
168.998	1434.6
173.142	2995.41
177.284	5592.27
181.424	4026.93
185.562	1728.74
189.698	858.971
193.831	617.618
197.963	734.655
202.093	1124.21
206.221	1918.09
210.347	3755.17
214.472	7430.31
218.594	14544.1
222.714	21260
226.832	23389.9
230.948	26428.9
235.063	17890.9
239.175	8709.86
243.286	6455.81
247.394	7880.74
251.501	7442.06
255.605	4558.83
259.708	2464.88
263.808	1474.59
267.907	655.077
272.004	197.552
276.099	54.347
280.192	29.603
284.283	31.472
288.372	91.803
292.459	234.422
296.544	640.393
300.627	1457.66
304.709	1564.64
308.788	1051.44
312.865	541.49
316.941	162.055
321.015	38.376
325.086	121.21
329.156	92.44
333.224	109.177
337.29	307.767
341.354	712.949
345.416	1500.9
349.476	2825.31
353.534	3304.18
357.591	2709.9
361.645	3572.53
365.698	8021.1
369.748	11948.3
373.797	7511.88
377.844	4371.35
381.889	4035.79
385.932	6100.2
389.973	11549.6
394.012	14076.9
398.049	8371.24
402.084	4863.5
406.118	4851.72
410.15	7315.89
414.179	11132
418.207	10593.7
422.233	6642.09
426.257	4050.15
430.279	3440.4
434.299	4568.47
438.318	3604.27
442.334	1606.68
446.349	728.986
450.361	537.833
454.372	365.855
458.381	419.529
462.388	395.675
466.394	391.987
470.397	433.755
474.398	322.008
478.398	377.001
482.396	603.74
486.391	675.3
490.385	415.794
494.377	341.072
498.368	413.965
502.356	601.223
506.342	1041.2
510.327	1725.67
514.31	2968.11
518.291	4116.49
522.27	4358.8
526.247	4771.07
530.222	4315.24
534.196	2660.27
538.167	1772.11
542.137	1359.74
546.105	1138.18
550.071	964.4
554.035	900.411
557.998	895.206
561.958	761.782
565.917	686.137
569.874	744.905
573.829	739.166
577.782	749.838
581.733	687.282
585.683	545.5
589.63	204.486
593.576	19.813
597.52	58.636
601.462	159.251
605.402	154.877
609.341	50.434
613.277	6.058
617.212	28.929
621.145	72.53
625.076	195.353
629.006	336.455
632.933	482.224
636.859	816.524
640.783	1145.7
644.705	1780.71
648.625	2852.63
652.543	4228.52
656.46	5976.13
660.375	8842.76
664.288	16381.3
668.199	35530.5
672.108	56995.3
676.016	41755.3
679.921	19180.5
683.825	9347.22
687.727	5626.04
691.628	3629.72
695.526	2616.29
699.423	2002.57
703.318	1521.58
707.211	1169.32
711.102	1056.79
714.992	882.003
718.879	752.953
722.765	789.645
726.649	787.08
730.532	792.266
734.412	1074.2
738.291	1341.9
742.168	1713.35
746.043	2603.38
749.916	3039.89
753.788	2052.73
757.658	1116.01
761.526	775.637
765.392	546.122
769.257	431.842
773.119	373.78
776.98	202.4
780.839	206.643
784.697	178.717
788.552	143.208
792.406	104.603
796.258	146.885
800.108	25.056
803.957	2.901
807.804	6.101
811.649	7.382
815.492	26.598
819.333	86.457
823.173	65.86
827.011	46.505
830.847	54.75
834.681	56.202
838.514	60.003
842.345	33.04
846.174	40.804
850.001	113.606
853.827	112.373
857.651	136.111
861.473	130.826
865.293	218.523
869.112	312.211
872.928	348.908
876.744	388.614
880.557	382.397
884.369	506.256
888.178	603.206
891.987	699.21
895.793	772.356
899.598	825.615
903.401	1001.13
907.202	1129.03
911.001	1403.45
914.799	1811.64
918.595	2513.83
922.389	3805.62
926.182	5654.66
929.972	7208.89
933.761	5483.33
937.549	3387.91
941.334	2834.6
945.118	3012.03
948.9	3065.33
952.681	2337.35
956.459	1838.37
960.236	1560.64
964.012	1509.02
967.785	1429.8
971.557	1401.14
975.327	1369.3
979.095	1413.54
982.862	1429.9
986.627	1433.27
990.39	1593.81
994.152	1682.84
997.912	1852.01
1001.67	2241.46
1005.43	2828.03
1009.18	3289.75
1012.93	3947.6
1016.68	4740.76
1020.43	6370.76
1024.18	10185.8
1027.93	15035
1031.67	12728.6
1035.42	7878.86
1039.16	5503.89
1042.9	4732.66
1046.63	4841.24
1050.37	6290.19
1054.11	8829.48
1057.84	10336.7
1061.57	8727.71
1065.3	7410.88
1069.03	6736.03
1072.75	4791.08
1076.47	3254.26
1080.2	2550.47
1083.92	2123.81
1087.64	1691.87
1091.36	1358.62
1095.07	1185.83
1098.79	1096.2
1102.5	932.604
1106.21	920.306
1109.92	888.215
1113.62	917.127
1117.33	845.509
1121.04	723.657
1124.74	616.878
1128.44	539.618
1132.14	422.766
1135.83	438.262
1139.53	359.893
1143.22	421.805
1146.92	268.557
1150.61	192.907
1154.3	106.41
1157.98	169.633
1161.67	24.354
1165.35	42.88
1169.04	57.7
1172.72	108.587
1176.4	46.906
1180.07	16.048
1183.75	57.591
1187.42	18.426
1191.1	35.179
1194.77	17.724
1198.44	13.562
1202.1	113.208
1205.77	49.533
1209.43	24.712
1213.1	5.342
1216.76	16.783
1220.42	2.581
1224.07	2.57
1227.73	136.542
1231.38	143.968
1235.04	107.077
1238.69	10.561
1242.34	33.527
1245.99	12.28
1249.63	62.267
1253.28	106.62
1256.92	83.295
1260.56	218.696
1264.2	131.913
1267.84	140.669
1271.48	79.115
1275.11	95.779
1278.74	80.105
1282.38	112.473
1286.01	18.467
1289.63	137.121
1293.26	233.473
1296.89	173.98
1300.51	141.819
1304.13	48.331
1307.75	54.449
1311.37	28.099
1314.99	65.734
1318.6	143.359
1322.22	157.311
1325.83	217.562
1329.44	206.79
1333.05	184.929
1336.66	196.431
1340.26	100.099
1343.87	71.414
1347.47	92.588
1351.07	96.948
1354.67	155.355
1358.27	142.652
1361.86	160.155
1365.46	222.595
1369.05	118.34
1372.64	116.266
1376.23	36.087
1379.82	26.396
1383.41	85.188
1386.99	40.459
1390.57	116.736
1394.16	170.118
1397.74	130.846
1401.32	140.751
1404.89	119.307
1408.47	131.331
1412.04	17.418
1415.61	79.842
1419.18	19.438
1422.75	19.344
1426.32	90.53
1429.89	92.035
1433.45	174.037
1437.01	135.104
1440.58	174.872
1444.13	169.53
1447.69	128.446
1451.25	62.19
1454.81	41.88
1458.36	3.559
1461.91	31.242
1465.46	40.655
1469.01	32.776
1472.56	157.601
1476.1	135.78
1479.64	186.246
1483.19	196.623
1486.73	180.422
1490.27	160.009
1493.81	154.743
1497.34	34.606
1500.88	9.71
1504.41	13.252
1507.94	160.667
1511.47	91.675
1515	123.982
1518.53	0
