Measurement: Raman, 514 nm, ccw, Raman Data Processed
Mineral: Actinolite
Rruff sample: R050025
Ideal chemistry: Ca_2_(Mg_4.5-2.5_Fe^2+^_0.5-2.5_)_=5_Si_8_O_22_(OH)_2_
Locality: Tyrol, Austria
Source: Eugene Schlepp
Description: Green colored bladed single crystals
Measured chemistry: (Ca_.930_Na_.056_Mn_.010_K_.004_)_2_(Mg_.883_Fe_.117_)_5_(Si_.978_Al_.022_)_8_O_22_(OH)_2_
Pin_id: L00067
Orientation: Laser parallel to (1 0 1). Fiducial mark perpendicular to laser is parallel to -b [0 -1 0]
Raman shift (cm-1)	intensity
82.916	0
87.101	70.491
91.284	348.209
95.465	210.824
99.644	322.326
103.82	313.973
107.995	526.48
112.168	1200.46
116.339	1863.94
120.508	1105.38
124.675	484.051
128.84	249.56
133.003	87.89
137.164	81.739
141.323	8.053
145.48	5.75
149.635	75.352
153.788	689.807
157.939	2322.1
162.088	2725.22
166.235	1846.15
170.38	3096.84
174.523	7960.44
178.664	13778.7
182.803	7525.09
186.94	3301.75
191.076	1983.01
195.209	1598.02
199.34	1498.13
203.47	1772.59
207.597	2470.71
211.722	3871.28
215.846	7593.87
219.967	14988.3
224.087	16546.5
228.204	8965.48
232.32	4020.29
236.434	1780.9
240.545	835.323
244.655	557.546
248.763	468.24
252.869	476.937
256.973	309.616
261.075	149.756
265.175	155.271
269.273	0.816
273.369	18.776
277.463	74.519
281.556	89.475
285.646	516.77
289.734	853.628
293.821	785.3
297.905	961.708
301.988	1157.03
306.069	923.198
310.147	481.993
314.224	286.407
318.299	283.428
322.372	419.626
326.443	722.533
330.512	1459.8
334.579	1564.88
338.645	1561.34
342.708	1940.38
346.769	2483.67
350.829	3011.82
354.887	2728.86
358.942	2612.77
362.996	3861.56
367.048	7565.21
371.098	8082.72
375.146	4361.08
379.192	2445.28
383.236	1829.33
387.279	1812.22
391.319	2112.95
395.358	2055.52
399.394	925.935
403.429	428.192
407.462	334.292
411.493	414.282
415.522	551.088
419.549	400.841
423.575	279.302
427.598	211.876
431.619	388.536
435.639	586.536
439.657	262.533
443.673	102.244
447.687	3.45
451.699	9.583
455.709	10.671
459.717	90.877
463.724	91.965
467.728	20.546
471.731	21.892
475.732	29.983
479.731	24.167
483.728	106.685
487.723	40.58
491.716	0.213
495.708	14.348
499.697	71.807
503.685	217.924
507.671	423.179
511.655	896.851
515.637	1233.58
519.617	1231.17
523.596	1008.6
527.572	1423.91
531.547	1277.1
535.52	942.148
539.491	637.021
543.46	545.709
547.427	365.207
551.393	336.513
555.356	294.627
559.318	214.549
563.278	216.278
567.236	221.816
571.192	238.161
575.147	248.313
579.099	215.271
583.05	161.036
586.999	141.419
590.946	71.833
594.891	30.23
598.834	91.584
602.776	25.211
606.715	120.746
610.653	147.057
614.589	222.929
618.523	344.647
622.456	258.128
626.386	437.217
630.315	758.821
634.242	1038.96
638.167	1477.97
642.09	2187.03
646.012	3640.15
649.931	5888.32
653.849	7811.05
657.765	8537.96
661.679	10209.6
665.592	16506
669.502	32262.9
673.411	42050.1
677.318	23805.1
681.223	11124.1
685.126	6224.83
689.028	4179.73
692.927	3022.93
696.825	2159.17
700.721	1529.24
704.616	1085.08
708.508	913.794
712.399	669.32
716.288	473.693
720.175	413.917
724.06	319.994
727.944	451.879
731.825	366.66
735.705	446.193
739.584	635.591
743.46	541.598
747.334	665.238
751.207	593.541
755.078	226.367
758.947	96.543
762.815	60.89
766.68	185.782
770.544	123.034
774.406	107.573
778.267	109.215
782.125	2.791
785.982	1.734
789.837	38.628
793.69	56.915
797.542	40.948
801.391	36.056
805.239	8.675
809.085	14.667
812.93	49.547
816.772	42.508
820.613	4.861
824.452	39.356
828.29	50.951
832.125	6.879
835.959	89.845
839.791	29.072
843.621	51.507
847.45	7.947
851.277	89.556
855.102	103.734
858.925	73.398
862.746	99.773
866.566	218.117
870.384	274.44
874.2	312.73
878.015	350.996
881.828	400.263
885.639	608.52
889.448	621.779
893.256	760.035
897.061	737.316
900.865	697.621
904.668	786.024
908.468	845.51
912.267	1019.52
916.064	1128.02
919.86	1399.48
923.653	1958.19
927.445	2827.62
931.236	3037.16
935.024	2170.93
938.811	1801.12
942.596	1949.77
946.379	2546.6
950.161	2305.21
953.94	1742.54
957.719	1409.81
961.495	1103.15
965.27	960.785
969.043	891.463
972.814	940.748
976.583	978.924
980.351	794.331
984.117	711.575
987.882	608.47
991.644	718.176
995.405	656.999
999.165	824.965
1002.92	933.782
1006.68	1084.1
1010.43	1326.67
1014.18	1622.67
1017.93	2235.62
1021.68	3099.54
1025.43	3889.34
1029.18	4673.75
1032.92	3987.6
1036.66	2918.62
1040.4	3118.99
1044.14	3785.98
1047.88	5530.64
1051.62	8861.98
1055.35	12735.5
1059.08	13686.3
1062.81	9311.58
1066.54	6839.25
1070.27	5480.06
1073.99	3539.6
1077.72	2398.3
1081.44	1913.08
1085.16	1424.58
1088.88	1124.9
1092.59	1050.59
1096.31	821.307
1100.02	930.021
1103.73	657.355
1107.44	640.247
1111.15	569.281
1114.86	549.646
1118.57	330.892
1122.27	276.359
1125.97	174.237
1129.67	294.829
1133.37	85.745
1137.07	220.518
1140.76	9.88
1144.45	167.761
1148.15	43.842
1151.84	96.574
1155.53	244.27
1159.21	39.018
1162.9	198.143
1166.58	77.452
1170.26	28.123
1173.94	29.173
1177.62	57.718
1181.3	62.811
1184.97	120.386
1188.65	30.868
1192.32	60.584
1195.99	1.715
1199.66	136.021
1203.33	55.744
1206.99	52.687
1210.65	35.231
1214.32	135.238
1217.98	226.685
1221.64	105.303
1225.29	115.859
1228.95	198.677
1232.6	68.29
1236.26	21.176
1239.91	138.546
1243.56	214.539
1247.2	283.897
1250.85	186.907
1254.49	100.509
1258.13	192.17
1261.78	167.739
1265.41	97.367
1269.05	77.667
1272.69	256.146
1276.32	187.144
1279.95	202.644
1283.59	180.997
1287.21	218.162
1290.84	107.763
1294.47	138.487
1298.09	10.406
1301.72	87.501
1305.34	61.833
1308.96	53.916
1312.58	155.088
1316.19	129.576
1319.81	88.551
1323.42	30.11
1327.03	145.913
1330.64	161.833
1334.25	22.418
1337.86	83.437
1341.46	122.899
1345.07	203.193
1348.67	93.52
1352.27	226.097
1355.87	264.044
1359.46	158.651
1363.06	132.54
1366.65	123.484
1370.25	49.125
1373.84	125.79
1377.43	71.345
1381.02	290.336
1384.6	369.722
1388.18	292.886
1391.77	138.777
1395.35	281.387
1398.93	90.639
1402.51	38.319
1406.08	164.615
1409.66	186.699
1413.23	134.82
1416.8	212.772
1420.37	392.314
1423.94	220.685
1427.51	280.494
1431.08	240.589
1434.64	219.184
1438.2	45.628
1441.76	35.521
1445.32	212.816
1448.88	227.808
1452.43	43.62
1455.99	234.769
1459.54	419.594
1463.09	312.383
1466.64	234.812
1470.19	332.369
1473.74	297.484
1477.28	192.591
1480.83	128.819
1484.37	225.325
1487.91	191.412
1491.45	190.736
1494.98	147.544
1498.52	257.821
1502.05	322.271
1505.59	421.724
1509.12	296.749
1512.65	372.393
1516.17	456.912
1519.7	291.598
