Measurement: Raman, 514 nm, ccw, Raman Data Processed
Mineral: Actinolite
Rruff sample: R060041
Ideal chemistry: Ca_2_(Mg_4.5-2.5_Fe^2+^_0.5-2.5_)_=5_Si_8_O_22_(OH)_2_
Locality: Prince of Wales Island, Alaska, USA
Source: University of Arizona Mineral Museum
Description: Green acicular crystals forming parallel groups in cylindrical or bladed forms
Measured chemistry: (Ca_0.97_Na_0.03_)_2_(Mg_0.65_Fe^2+^_0.29_Fe^3+^_0.04_Al_0.01_Mn_0.01_)_5_(Si_0.98_Al_0.02_)_8_O_22_(OH)_2_
Raman shift (cm-1)	intensity
95.948	0
100.883	13.5483
105.815	1070.76
110.744	2709.53
115.671	2594.1
120.596	1086.91
125.519	314.637
130.439	607.622
135.356	769.717
140.271	2329.87
145.184	7798.11
150.094	17635.3
155.002	10862.9
159.908	4354.28
164.811	5591.17
169.711	11514.3
174.61	12738.7
179.505	6175.95
184.399	2563.51
189.29	2176.91
194.178	2514.35
199.064	3561.94
203.948	5654.45
208.829	9123.2
213.708	15411.4
218.585	16723.3
223.459	11092.1
228.33	5960.36
233.199	3163.07
238.066	2042.02
242.93	1751.02
247.792	1514.98
252.651	1237.08
257.508	952.642
262.363	456.862
267.215	93.8272
272.064	179.649
276.912	341.744
281.756	916.277
286.598	1485.87
291.438	1936.2
296.276	1897.18
301.111	1593.82
305.943	1424.44
310.773	1155.85
315.601	1180.97
320.426	1555.13
325.248	2136.34
330.068	2426.25
334.886	2783.74
339.701	2760.04
344.514	2766.73
349.324	2691.51
354.132	3104.24
358.938	3625.78
363.741	3656.03
368.541	2938.9
373.339	2823.14
378.135	3402.34
382.928	4487.81
387.718	4262.79
392.506	3890.06
397.292	2472.62
402.075	2282.26
406.856	2059.82
411.634	1369.21
416.41	767.307
421.183	434.023
425.954	813.279
430.722	1171.88
435.488	722.113
440.251	44.5557
445.012	189.448
449.77	166.995
454.526	224.235
459.28	88.3003
464.03	126.193
468.779	139.838
473.525	92.2212
478.268	63.4497
483.009	129.657
487.747	300.587
492.483	566.223
497.217	810.53
501.948	1186.49
506.676	1532.11
511.402	1973.48
516.125	2389.73
520.846	3100.7
525.565	3490.35
530.281	3340.33
534.994	3021.47
539.705	2614.5
544.413	2322.36
549.119	1961.96
553.822	1611.93
558.523	1504.22
563.222	1351.76
567.917	1146.59
572.611	936.624
577.302	688.833
581.99	201.198
586.676	37.9302
591.359	59.7617
596.04	21.123
600.718	185.618
605.394	260.512
610.067	347.362
614.737	554.836
619.406	726.492
624.071	1312.11
628.734	1973.28
633.395	2672.73
638.053	4034.63
642.708	5650.77
647.361	7532.84
652.012	11347.5
656.66	19148.6
661.305	34433.6
665.948	48187.2
670.588	38659.7
675.226	20155
679.861	10602.6
684.494	6567.88
689.124	4525.3
693.752	3144.72
698.377	2144.9
702.999	1629.64
707.619	1343
712.237	1179.49
716.852	1143.26
721.464	971.763
726.074	869.482
730.681	1017.17
735.286	1070.89
739.888	1111.83
744.488	1105.53
749.085	1036.42
753.68	809.515
758.272	538.32
762.861	587.624
767.448	481.377
772.033	439.592
776.614	308.285
781.194	1.47022
785.77	33.9912
790.345	82.272
794.916	133.767
799.485	11.8291
804.052	110.132
808.616	78.9653
813.177	81.7549
817.736	86.7353
822.292	118.931
826.846	12.0112
831.397	132.573
835.945	101.918
840.491	149.04
845.035	227.901
849.576	6.62988
854.114	238.071
858.65	299.796
863.183	283.522
867.713	717.783
872.241	715.59
876.767	881.898
881.29	981.434
885.81	1413.99
890.328	1658.67
894.843	2303.48
899.356	2469.54
903.866	2602.87
908.373	3004.41
912.878	3788.08
917.38	4644.18
921.88	6252.79
926.377	6923.62
930.872	5600.84
935.364	4195.68
939.853	3670.1
944.34	3184.77
948.824	3125.41
953.306	2860.17
957.785	2820.73
962.261	2655.95
966.735	2562.6
971.207	2411.06
975.675	2322.61
980.141	2291.13
984.605	2111.01
989.066	2389.5
993.524	2431.48
997.98	2794.94
1002.43	3261.86
1006.88	3649.26
1011.33	4291.11
1015.78	4836.41
1020.22	5068.28
1024.66	5613.11
1029.1	5641.39
1033.53	5925.27
1037.97	7290.55
1042.4	10022.8
1046.82	13421.4
1051.25	14745.8
1055.67	12373.8
1060.09	9936.44
1064.51	7575.98
1068.92	4743.69
1073.33	2930.28
1077.74	2300.14
1082.15	1740.47
1086.55	1480.52
1090.95	1229.01
1095.35	1145.19
1099.75	968.438
1104.14	1049.4
1108.53	869.889
1112.92	680.706
1117.31	666.869
1121.69	622.933
1126.07	493.539
1130.45	418.173
1134.82	171.815
1139.19	173.933
1143.57	103.734
1147.93	26.3477
1152.3	41.8809
1156.66	114.106
1161.02	8.99805
1165.38	65.6992
1169.73	82.8867
1174.08	69.4463
1178.43	46.7178
1182.78	19.5986
1187.12	40.5898
1191.46	180.476
1195.8	38.5654
1200.14	83.6357
1204.47	170.276
1208.8	39.5205
1213.13	15.1504
1217.46	2.56836
1221.78	100.223
1226.1	168.761
1230.42	77.7988
1234.73	110.397
1239.04	218.534
1243.35	153.54
1247.66	211.895
1251.97	222.913
1256.27	213.453
1260.57	206.802
1264.86	241.543
1269.16	176.222
1273.45	284.153
1277.74	203.174
1282.03	244.19
1286.31	228.199
1290.59	275.733
1294.87	304.205
1299.14	226.977
1303.42	401.15
1307.69	273.257
1311.95	321.882
1316.22	371.603
1320.48	214.314
1324.74	280.185
1329	190.039
1333.26	180.252
1337.51	270.442
1341.76	112.239
1346	278.989
1350.25	218.6
1354.49	234.651
1358.73	255.718
1362.96	171.454
1367.2	5.06348
1371.43	306.212
1375.66	67.1728
1379.88	132.928
1384.11	160.016
1388.33	145.803
1392.54	144.054
1396.76	95.9375
1400.97	47.9385
1405.18	79.9238
1409.39	79.667
1413.59	170.373
1417.8	130.097
1421.99	37.9092
1426.19	20.2891
1430.38	21.3525
1434.58	141.738
1438.77	53.1475
1442.95	15.0078
1447.13	14.7988
1451.32	157.619
1455.49	128.795
1459.67	61.1631
1463.84	122.413
1468.01	94.8008
1472.18	17.2666
1476.35	38.1289
1480.51	39.4141
1484.67	64.5674
1488.83	86.0488
1492.98	48.5703
1497.13	47.2861
1501.28	130.754
1505.43	267.461
1509.57	204.81
1513.71	78.1045
1517.85	244.829
1521.99	215.351
1526.12	106.292
1530.25	267.284
1534.38	121.375
1538.5	238.569
1542.62	183.343
1546.74	213.369
1550.86	216.27
1554.98	412.274
1559.09	60.6514
1563.2	331.117
1567.31	4.36328
