Measurement: Raman, 514 nm, ccw, Raman Data Processed
Mineral: Actinolite
Rruff sample: R040064
Ideal chemistry: Ca_2_(Mg_4.5-2.5_Fe^2+^_0.5-2.5_)_=5_Si_8_O_22_(OH)_2_
Locality: Ehime Perfecture, Uma Gun, Japan
Source: University of Arizona Mineral Museum
Description: Aggregate of green acicular crystals associated with chlorite
Measured chemistry: (Ca_0.95_Na_0.04_Mn_0.01_)_2_(Mg_0.88_Fe_0.12_)_5_(Si_0.98_Al_0.02_)_8_O_22_(OH)_2_
Pin_id: M00297
Orientation: Laser parallel to c* (0 0 1). Fiducial mark perpendicular to laser is parallel to -b [0 -1 0]
Raman shift (cm-1)	intensity
54.966	0
59.164	95.237
63.36	105.134
67.554	96.078
71.747	5.495
75.937	12.652
80.125	0.474
84.311	52.916
88.496	140.64
92.678	285.155
96.858	369.045
101.036	486.85
105.212	833.989
109.387	1727.08
113.559	2415.93
117.729	2636.48
121.897	1376.79
126.063	997.779
130.228	903.31
134.39	1005.25
138.55	1256.46
142.709	1295.31
146.865	1362.46
151.019	3368.77
155.171	6851.48
159.322	8402.78
163.47	4424.72
167.617	4253.32
171.761	8454.68
175.904	12092.5
180.044	9812.71
184.183	3759.1
188.319	2263.36
192.454	1892.25
196.586	1951.6
200.717	2238.41
204.846	3006.66
208.972	4648.34
213.097	7909.43
217.22	13959.9
221.341	17124.9
225.46	12726.3
229.577	6646.35
233.692	3586.86
237.805	1883.51
241.916	1625.57
246.025	1748.76
250.132	1768.58
254.237	1566.13
258.34	1501.36
262.442	1354.19
266.541	828.587
270.639	364.522
274.734	212.311
278.828	235.935
282.919	458.386
287.009	691.07
291.097	976.837
295.183	1323.56
299.266	1766.62
303.348	1600.19
307.428	903.023
311.507	606.19
315.583	438.519
319.657	458.862
323.729	580.58
327.8	973.568
331.868	1202.82
335.935	1142.48
339.999	1435.22
344.062	2220.17
348.123	2852.32
352.182	2829.66
356.239	2418.18
360.294	2674.86
364.347	3584.71
368.398	4569.71
372.448	4184.86
376.495	3073.16
380.54	2156.6
384.584	2204.18
388.626	3171.97
392.666	3499
396.704	2116.26
400.74	1021.58
404.774	823.277
408.806	1148.8
412.836	1456.3
416.865	1322.14
420.891	786.678
424.916	435.609
428.939	520.545
432.959	627.188
436.978	448.212
440.996	126.563
445.011	33.329
449.024	94.502
453.036	72.461
457.045	131.662
461.053	61.128
465.059	49.832
469.063	21.684
473.065	8.586
477.065	22.567
481.063	52.377
485.06	56.395
489.054	24.512
493.047	17.708
497.038	69.953
501.027	109.271
505.014	358.712
508.999	687.29
512.982	959.904
516.964	1104.55
520.944	1497.29
524.921	2201.08
528.897	2509.93
532.871	1562.77
536.844	691.597
540.814	426.411
544.783	243.203
548.749	185.97
552.714	158.704
556.677	49.399
560.638	102.033
564.597	89.597
568.555	54.061
572.511	11.373
576.464	137.549
580.416	46.645
584.366	52.662
588.315	44.59
592.261	111.397
596.206	92.071
600.148	52.603
604.089	134.803
608.028	188.993
611.965	242.781
615.901	203.972
619.834	407.125
623.766	429.557
627.696	581.37
631.624	726.211
635.551	1092.78
639.475	1509.35
643.398	2202.22
647.318	2952.84
651.237	3944.93
655.155	5003.79
659.07	6985.53
662.984	12573
666.895	25671.2
670.805	42480.7
674.713	37754.3
678.62	18746.1
682.524	9896.31
686.427	7446.76
690.328	5922.59
694.227	4034.14
698.124	2503.66
702.02	1647.06
705.913	1103.13
709.805	864.09
713.695	611.921
717.584	534.836
721.47	504.496
725.355	466.442
729.238	427.747
733.119	484.388
736.998	635.329
740.876	714.249
744.752	593.917
748.626	623.488
752.498	464.334
756.368	276.594
760.237	174.126
764.104	90.747
767.969	3.454
771.832	67.225
775.693	51.066
779.553	8.955
783.411	1.804
787.267	33.566
791.122	33.289
794.974	4.914
798.825	15.697
802.674	23.499
806.522	12.537
810.367	23.566
814.211	62.87
818.053	17.514
821.893	57.601
825.732	32.609
829.568	9.531
833.403	8.075
837.236	23.495
841.068	16.788
844.898	31.008
848.726	1.173
852.552	34.283
856.376	73.351
860.199	110.043
864.02	122.38
867.839	79.354
871.656	143.356
875.472	117.353
879.286	171.38
883.098	312.506
886.909	361.662
890.717	483.796
894.524	580.922
898.33	549.092
902.133	758.318
905.935	844.591
909.735	1036.91
913.533	1177.25
917.33	1704.62
921.124	2578.38
924.918	4009.72
928.709	5777.8
932.499	5241.59
936.286	3075.93
940.073	2202.95
943.857	2197.81
947.64	2170.51
951.421	1735.48
955.2	1397.39
958.978	1209.04
962.753	1023.77
966.527	985.604
970.3	974.585
974.071	892.55
977.84	809.438
981.607	809.383
985.372	793.488
989.136	809.069
992.898	781.237
996.659	799.907
1000.42	890.543
1004.17	1012.45
1007.93	1242.88
1011.68	1677.68
1015.43	2478.88
1019.18	3512.95
1022.93	3769.84
1026.68	4242.22
1030.42	4272.06
1034.17	3529.19
1037.91	2944.47
1041.65	3333.93
1045.39	4567.06
1049.12	7114.83
1052.86	12559.6
1056.59	20649.4
1060.33	21246.7
1064.06	12411
1067.78	7267.78
1071.51	4405.21
1075.23	2781.79
1078.96	1856.76
1082.68	1425.51
1086.4	1232.28
1090.12	1126.53
1093.83	917.221
1097.55	692.894
1101.26	555.064
1104.97	497.139
1108.68	363.89
1112.39	318.969
1116.1	266.663
1119.8	287.939
1123.5	444.363
1127.2	244.148
1130.9	142.934
1134.6	99.069
1138.3	174.749
1141.99	54.697
1145.69	63.643
1149.38	66.581
1153.07	12.583
1156.76	8.558
1160.44	69.68
1164.13	22.874
1167.81	70.573
1171.49	71.404
1175.17	19.497
1178.85	42.081
1182.52	14.806
1186.2	62.375
1189.87	29.896
1193.54	59.931
1197.21	54.7
1200.88	40.15
1204.55	27.021
1208.21	7.23
1211.88	38.801
1215.54	17.23
1219.2	23.828
1222.86	41.017
1226.51	86.12
1230.17	39.188
1233.82	23.345
1237.47	26.201
1241.12	88.569
1244.77	45.94
1248.42	48.796
1252.06	106.725
1255.71	26.894
1259.35	2.852
1262.99	60.024
1266.63	82.774
1270.26	53.742
1273.9	14.618
1277.53	74.075
1281.16	82.147
1284.8	49.687
1288.42	58.666
1292.05	52.004
1295.68	64.91
1299.3	6.808
1302.92	62.514
1306.55	25.264
1310.16	137.405
1313.78	114.7
1317.4	709.529
1321.01	92.354
1324.62	67.606
1328.24	82.972
1331.85	98.102
1335.45	55.362
1339.06	40.812
1342.66	99.308
1346.27	97.446
1349.87	92.643
1353.47	87.16
1357.07	101.6
1360.66	129.984
1364.26	140.603
1367.85	99.386
1371.44	104.807
1375.04	8.597
1378.62	23.324
1382.21	123.392
1385.8	84.312
1389.38	20.547
1392.96	106.68
1396.54	89.337
1400.12	39.061
1403.7	117.284
1407.28	70.449
1410.85	76.476
1414.42	157.177
1417.99	21.558
1421.56	223.509
1425.13	64.95
1428.7	71.042
1432.26	122.823
1435.83	128.122
1439.39	145.851
1442.95	193.691
1446.51	158.49
1450.06	129.114
1453.62	179.551
1457.17	165.793
1460.73	260.277
1464.28	101.754
1467.83	132.974
1471.37	132.227
1474.92	97.26
1478.46	120.785
1482.01	92.557
1485.55	149.124
1489.09	178.787
1492.63	14.162
1496.16	131.114
1499.7	163.942
1503.23	46.739
1506.76	71.89
1510.29	43.361
1513.82	144.476
1517.35	0.077
1520.88	0
