Measurement: Raman, 514 nm, ccw, Raman Data Processed
Mineral: Actinolite
Rruff sample: R050336
Ideal chemistry: Ca_2_(Mg_4.5-2.5_Fe^2+^_0.5-2.5_)_=5_Si_8_O_22_(OH)_2_
Locality: Kragerø, Norway
Source: California Institute of Technology
Description: Dark green prismatic fragment
Measured chemistry: ([box]_0.62_Na_0.34_K_0.04_)(Ca_1.60_Na_0.40_)_Σ=2_(Mg_3.90_Fe^2+^_0.70_Al_0.20_Ti_0.10_Fe^3+^_0.10_)_Σ=5_(Si_7.52_Al_0.48_)_Σ=8_O_22_((OH)_0.97_F_0.03_)_2_
Pin_id: M00198
Orientation: Laser parallel to c* (0 0 1). Fiducial mark perpendicular to laser is parallel to a [1 0 0]
Raman shift (cm-1)	intensity
146.046	0
150.96	498.701
155.872	1088.85
160.781	1457.09
165.688	1119.29
170.592	1345.23
175.494	1706.38
180.393	1394.85
185.29	557.817
190.184	281.985
195.076	202.29
199.965	367.54
204.852	817.7
209.736	1932.29
214.618	3759.64
219.498	5174.73
224.375	4976.26
229.249	3428.56
234.121	2085.92
238.99	959.691
243.857	767.197
248.721	593.39
253.583	510.108
258.443	293.259
263.3	120.691
268.154	123.374
273.006	168.013
277.855	154.589
282.702	106.782
287.547	4.32324
292.388	246.564
297.228	306.389
302.065	256.312
306.899	295.525
311.731	213.705
316.56	233.424
321.387	402.157
326.211	383.744
331.033	586.954
335.853	639.548
340.669	884.367
345.484	1094.49
350.295	1190.19
355.105	1386.63
359.911	1585.31
364.716	2091.94
369.517	2228.58
374.317	1793.24
379.113	1470.89
383.907	1353.49
388.699	1416
393.488	1356.4
398.275	792.68
403.059	655.816
407.84	691.805
412.619	813.285
417.396	771.346
422.17	461.283
426.941	407.99
431.71	350.625
436.477	249.83
441.241	103.358
446.002	70.085
450.761	21.4214
455.517	41.709
460.271	79.4922
465.022	23.3452
469.771	179.612
474.517	92.2046
479.261	82.229
484.002	217.486
488.74	122.765
493.476	186.668
498.21	377.216
502.941	548.442
507.669	748.375
512.395	1028.02
517.119	1070.35
521.84	1157.39
526.558	1200.12
531.274	1085.53
535.987	920.674
540.698	733.62
545.406	636.273
550.111	586.661
554.814	466.897
559.515	443.224
564.213	402.029
568.908	359.08
573.601	326.125
578.292	272.957
582.979	218.603
587.665	40.9194
592.347	19.398
597.028	137.186
601.705	86.6284
606.38	9.98633
611.053	7.02637
615.723	135.583
620.39	151.167
625.055	242.399
629.718	427.135
634.377	669.054
639.035	872.689
643.689	1274.05
648.341	1937.13
652.991	2594.94
657.638	3994.49
662.283	6765.77
666.924	10774.8
671.564	12679.6
676.201	9037.78
680.835	4825.09
685.467	2922.05
690.096	1970.46
694.722	1347.86
699.346	891.642
703.968	693.83
708.587	683.851
713.203	640.767
717.817	676.269
722.428	708.237
727.037	757.421
731.643	700.019
736.246	774.186
740.847	724.999
745.446	642.753
750.042	514.664
754.635	315.393
759.226	246.539
763.814	240.927
768.4	112.901
772.983	150.672
777.563	164.37
782.141	141.005
786.716	159.586
791.289	103.125
795.859	38.6279
800.427	129.874
804.992	7.56201
809.555	13.9888
814.115	33.3066
818.672	24.4536
823.227	17.4541
827.779	43.4399
832.329	29.4961
836.876	30.5859
841.42	74.1943
845.962	70.9736
850.502	4.79297
855.038	102.491
859.573	39.9985
864.104	2.46777
868.633	49.2637
873.16	59.4907
877.684	115.275
882.205	209.517
886.724	272.084
891.24	451.938
895.754	439.99
900.265	712.206
904.773	704.609
909.279	901.296
913.783	871.326
918.283	1140.63
922.782	1447.15
927.277	1605.9
931.77	1368.84
936.261	1159.99
940.749	1149.17
945.234	1122.38
949.716	1145.02
954.197	1241.5
958.674	1236.21
963.149	1197.97
967.621	1263.53
972.091	1292.45
976.558	1220.21
981.023	1045.43
985.485	878.467
989.945	950.407
994.401	938.244
998.856	1088.92
1003.31	1323.9
1007.76	1317.11
1012.2	1523.64
1016.65	1689.26
1021.09	1774.2
1025.53	2073.21
1029.96	2115.39
1034.4	1903.79
1038.83	2074.99
1043.26	2507.33
1047.68	3234.96
1052.11	4170.2
1056.53	4500.73
1060.94	4021.73
1065.36	2974.16
1069.77	2064.97
1074.18	1358.73
1078.59	1053.14
1083	843.034
1087.4	579.238
1091.8	521.193
1096.2	450.515
1100.59	262.951
1104.98	297.017
1109.37	321.087
1113.76	334.545
1118.14	192.562
1122.53	241.546
1126.9	168.322
1131.28	155.671
1135.66	120.654
1140.03	78.7705
1144.4	104.304
1148.76	39.6909
1153.13	39.3872
1157.49	18.1362
1161.85	51.9453
1166.2	29.1328
1170.56	62.0757
1174.9	39.4487
1179.25	59.2119
1183.6	65.6846
1187.94	18.4072
1192.28	62.8975
1196.62	17.2436
1200.95	56.3491
1205.29	121.033
1209.62	35.1245
1213.94	35.4473
1218.27	81.8237
1222.59	51.0293
1226.91	105.065
1231.23	73.9253
1235.54	105.585
1239.86	82.061
1244.16	96.3384
1248.47	101.42
1252.77	34.0571
1257.08	140.525
1261.37	76.563
1265.67	43.7148
1269.96	142.983
1274.26	197.88
1278.54	116.692
1282.83	260.075
1287.11	227.399
1291.39	286.412
1295.67	264.482
1299.95	239.627
1304.22	176.444
1308.49	225.498
1312.76	221.405
1317.02	164.642
1321.28	180.666
1325.54	109.837
1329.8	135.978
1334.06	167.378
1338.31	96.9966
1342.56	228.99
1346.8	147.707
1351.05	204.246
1355.29	203.548
1359.53	139.474
1363.77	203.189
1368	89.8227
1372.23	95.7822
1376.46	163.1
1380.68	64.1577
1384.91	47.7319
1389.13	82.8735
1393.35	75.6499
1397.56	26.394
1401.78	108.538
1405.98	93.3682
1410.19	59.354
1414.4	70.1143
1418.6	175.281
1422.8	141.888
1427	107.078
1431.19	274.014
1435.38	138.974
1439.57	264.589
1443.76	293.834
1447.94	206.056
1452.13	209.01
1456.31	295.195
1460.48	220.342
1464.66	112.478
1468.83	197.611
1473	229.731
1477.16	74.7202
1481.33	181.444
1485.49	119.604
1489.64	114.018
1493.8	28.8594
1497.95	131.128
1502.1	202.726
1506.25	108.393
1510.4	71.9834
1514.54	108.406
1518.68	71.9282
1522.82	147.957
1526.95	47.9644
1531.08	46.3887
1535.21	1.75879
1539.34	67.5249
1543.46	161.327
1547.59	128.587
1551.7	69.9028
1555.82	14.4175
1559.93	2.95312
