Measurement: Raman, 514 nm, ccw, Raman Data Processed
Mineral: Adamite
Rruff sample: R050020
Ideal chemistry: Zn^2+^_2_As^5+^O_4_(OH)
Locality: Mina Ojuela, Mapimi, Durango, Mexico
Source: Eugene Schlepp
Description: Light green prismatic crystal
Measured chemistry: (Zn_1.97_Cu_0.03_)_Σ=2_((As_0.98_P_0.02_)_Σ=1_O_4_)(OH)
Pin_id: L00404
Orientation: Laser parallel to -b* (0 -1 0). Fiducial mark perpendicular to laser is parallel to c [0 0 1]
Raman shift (cm-1)	intensity
116.256	0
120.447	640.026
124.636	1854.88
128.822	4301.67
133.006	8216.42
137.188	10047.7
141.368	7628.53
145.545	3775.18
149.72	1304.83
153.893	64.897
158.064	3.477
162.233	567.92
166.399	499.556
170.563	1220.81
174.725	2651.56
178.885	1512.23
183.043	162.953
187.198	96.277
191.351	434.534
195.502	265.437
199.651	112.025
203.797	1274.08
207.942	2762.57
212.084	2384.1
216.224	1420.91
220.362	1478.49
224.497	1866.4
228.631	2095.18
232.762	2425.43
236.891	1957.02
241.018	1438.6
245.143	1380.36
249.265	2752.11
253.386	3683.82
257.504	2535.46
261.62	1317.04
265.734	1368.8
269.845	1090.97
273.955	313.741
278.062	6.96
282.167	368.676
286.27	460.475
290.371	40.649
294.47	242.451
298.567	378.578
302.661	539.18
306.753	107.891
310.843	486.744
314.931	1505.82
319.017	2250.85
323.101	2575.26
327.182	2525.73
331.261	1899.43
335.339	1072.98
339.414	176.415
343.487	384.511
347.557	1032.96
351.626	887.371
355.693	700.01
359.757	1454.85
363.819	2529.14
367.879	3962.52
371.937	6935.12
375.993	10586.6
380.047	7587.72
384.099	3598.74
388.148	1559.66
392.196	1490.46
396.241	2181.15
400.284	2601.68
404.325	3243.08
408.364	4903.54
412.401	6824.95
416.435	6430.6
420.468	4312.36
424.498	2862.24
428.527	2669.88
432.553	1921.77
436.577	988.416
440.599	561.586
444.619	909.877
448.637	984.411
452.653	411.492
456.667	48.598
460.678	445.234
464.688	811.616
468.695	626.858
472.701	117.096
476.704	450.799
480.705	1036.62
484.704	853.071
488.701	215.617
492.696	195.312
496.689	746.986
500.68	732.198
504.668	186.812
508.655	223.737
512.639	374.79
516.622	832.719
520.602	840.263
524.581	479.493
528.557	586.212
532.531	2045.61
536.503	2511.65
540.473	1848.37
544.441	1358.97
548.407	1374.06
552.371	1318.57
556.333	783.038
560.293	165
564.251	118.934
568.206	802.354
572.16	845.443
576.112	127.83
580.061	230.248
584.009	220.877
587.954	911.58
591.897	641.656
595.839	28.842
599.778	50.121
603.716	478.68
607.651	886.771
611.584	551.281
615.515	104.107
619.444	68.92
623.372	734.709
627.297	959.291
631.22	430.336
635.141	192.314
639.06	462.043
642.977	928.828
646.892	1062.34
650.805	517.418
654.716	73.062
658.625	394.838
662.532	846.316
666.437	1018.48
670.34	323.209
674.241	5.777
678.139	447.955
682.036	964.848
685.931	832.322
689.824	330.025
693.715	41.939
697.604	366.383
701.491	1174.94
705.376	763.701
709.259	142.613
713.139	228.219
717.018	380.025
720.895	927.801
724.77	1049.42
728.643	358.334
732.514	102.025
736.383	512.23
740.25	1223.21
744.115	1486.75
747.978	686.289
751.839	84.871
755.698	156.926
759.555	681.24
763.41	996.391
767.263	743.164
771.114	180.076
774.964	30.924
778.811	863.412
782.656	1872.18
786.499	2086.03
790.341	1844.16
794.18	2285.61
798.017	4244.32
801.853	7277.4
805.686	7973.8
809.518	8204.51
813.347	10420.6
817.175	17133.9
821.001	19062.8
824.824	14784.2
828.646	11746.6
832.466	10678.7
836.284	13661.9
840.1	22302.3
843.914	35644.3
847.726	34172.2
851.536	22359.1
855.344	13372.2
859.15	9201
862.954	7692.08
866.756	7635.1
870.557	7566.91
874.355	8239.67
878.152	10634
881.946	18049
885.739	35005.3
889.53	45263
893.318	31431.7
897.105	16592.6
900.89	9144.17
904.673	5887.03
908.454	5050.97
912.234	4726.02
916.011	3412.3
919.786	2409.79
923.56	1408.31
927.331	1447.99
931.101	1708.78
934.868	2260.57
938.634	2083.44
942.398	1267.31
946.16	982.266
949.92	1198.26
953.678	1385.22
957.435	1809.24
961.189	1501.68
964.941	988.859
968.692	290.865
972.441	97.219
976.187	425.516
979.932	1059.11
983.675	1051.24
987.416	796.602
991.155	7.404
994.893	410.492
998.628	108.27
1002.36	616.445
1006.09	1128.13
1009.82	1102.82
1013.55	787.197
1017.28	309.262
1021	151.428
1024.72	381.078
1028.44	1046.48
1032.16	1270.88
1035.88	1142.83
1039.59	679.195
1043.31	28.266
1047.02	14.467
1050.73	502.215
1054.43	1151.73
1058.14	1199.76
1061.84	1018.34
1065.54	617.781
1069.24	247.273
1072.94	380.568
1076.64	692.506
1080.33	1082.89
1084.03	1485.09
1087.71	1296.26
1091.4	857.502
1095.09	181.732
1098.78	158.846
1102.46	493.816
1106.14	979.941
1109.82	772.176
1113.5	483.729
1117.17	327.871
1120.85	99.494
1124.52	81.682
1128.19	56.535
1131.86	633.285
1135.52	1032.35
1139.19	989.389
1142.85	821.154
1146.51	166.236
1150.17	10.053
1153.83	48.365
1157.48	442.713
1161.14	830.66
1164.79	994.014
1168.44	987.27
1172.09	576.385
1175.73	106.348
1179.38	36.688
1183.02	102.836
1186.66	363.807
1190.3	751.775
1193.94	1322.59
1197.58	949.818
1201.21	522.979
1204.84	310.053
1208.47	32.006
1212.1	320.625
1215.72	552.498
1219.35	1166.34
1222.97	1506.06
1226.59	1453.89
1230.21	948.941
1233.83	589.189
1237.45	198.467
1241.06	124.623
1244.67	560.137
1248.28	1123.76
1251.89	1451.35
1255.5	1350.52
1259.1	944.941
1262.7	654.645
1266.31	234.467
1269.9	73.135
1273.5	61.264
1277.1	602.012
1280.69	977.742
1284.29	1212.51
1287.88	1295.98
1291.46	907.68
1295.05	467.264
1298.64	233.174
1302.22	17.646
1305.8	226.789
1309.38	513.471
1312.96	959.525
1316.54	1077.76
1320.11	1260.08
1323.68	1016.44
1327.25	527.611
1330.82	188.543
1334.39	2.85
1337.96	67.168
1341.52	434.846
1345.08	920.455
1348.64	877.166
1352.2	1272.73
1355.76	1117.74
1359.31	1162.13
1362.87	767.297
1366.42	390.176
1369.97	187.781
1373.52	75.887
1377.06	490.729
1380.61	931.367
1384.15	1227.41
1387.69	1616.43
1391.23	1684.84
1394.77	1482.7
1398.3	970.107
1401.84	398.395
1405.37	426.059
1408.9	485.299
1412.43	372.473
1415.96	684.963
1419.48	1135.71
1423.01	1339.43
1426.53	1679.23
1430.05	1496.35
1433.57	1141.48
1437.08	951.023
1440.6	540.008
1444.11	226.004
1447.62	175.93
1451.13	235.25
1454.64	534.242
1458.15	823.27
1461.65	1271.89
1465.16	1469.56
1468.66	1642.53
1472.16	1458.7
1475.65	1014.6
1479.15	697.039
1482.64	390.473
1486.14	217.152
1489.63	292.613
1493.12	210.629
1496.61	347.066
1500.09	818.561
1503.58	1269.24
1507.06	1581.7
1510.54	1018.54
