Measurement: Raman, 514 nm, ccw, Raman Data Processed
Mineral: Adamite
Rruff sample: R050020
Ideal chemistry: Zn^2+^_2_As^5+^O_4_(OH)
Locality: Mina Ojuela, Mapimi, Durango, Mexico
Source: Eugene Schlepp
Description: Light green prismatic crystal
Measured chemistry: (Zn_1.97_Cu_0.03_)_Σ=2_((As_0.98_P_0.02_)_Σ=1_O_4_)(OH)
Pin_id: L00404
Orientation: Laser parallel to -b* (0 -1 0). Fiducial mark perpendicular to laser is parallel to c [0 0 1]
Raman shift (cm-1)	intensity
112.063	0
116.256	431.525
120.447	672.372
124.636	669.501
128.822	708.67
133.006	1148.26
137.188	801.657
141.368	197.91
145.545	226.735
149.72	244.79
153.893	2.657
158.064	207.557
162.233	506.787
166.399	593.285
170.563	929.717
174.725	1684.37
178.885	1002.21
183.043	204.298
187.198	72.824
191.351	316.443
195.502	121.194
199.651	188.636
203.797	104.436
207.942	611.479
212.084	389.331
216.224	122.931
220.362	377.241
224.497	715.281
228.631	1243.63
232.762	1625.43
236.891	1273.59
241.018	727.402
245.143	544.416
249.265	1145.14
253.386	1877.83
257.504	1500.62
261.62	913.871
265.734	945.813
269.845	947.566
273.955	479.43
278.062	411.78
282.167	617.928
286.27	624.005
290.371	234.241
294.47	201.604
298.567	621.312
302.661	578.233
306.753	415.005
310.843	811.633
314.931	1477.39
319.017	2152.12
323.101	2307.09
327.182	2021.91
331.261	1296.68
335.339	681.422
339.414	166.136
343.487	150.733
347.557	335.166
351.626	199.485
355.693	48.016
359.757	164.651
363.819	301.607
367.879	184.097
371.937	73.24
375.993	129.111
380.047	431.227
384.099	193.043
388.148	105.373
392.196	86
396.241	336.95
400.284	237.374
404.325	97.242
408.364	106.833
412.401	605.824
416.435	609.176
420.468	337.237
424.498	102.127
428.527	551.731
432.553	639.362
436.577	276.848
440.599	144.201
444.619	371.408
448.637	601.682
452.653	361.488
456.667	38.37
460.678	354.858
464.688	671.748
468.695	697.691
472.701	293.459
476.704	639.063
480.705	996.966
484.704	1058.75
488.701	463.911
492.696	295.136
496.689	680.01
500.68	804.899
504.668	474.276
508.655	140.395
512.639	494.924
516.622	845.474
520.602	750.145
524.581	304.234
528.557	407.898
532.531	964.129
536.503	902.186
540.473	473.97
544.441	216.505
548.407	459.646
552.371	772.511
556.333	485.713
560.293	110.115
564.251	182.438
568.206	615.318
572.16	637.839
576.112	261.473
580.061	84.915
584.009	327.504
587.954	689.736
591.897	633.223
595.839	105.021
599.778	208.241
603.716	370.314
607.651	764.03
611.584	414.334
615.515	25.251
619.444	49.082
623.372	513.017
627.297	657.054
631.22	321.222
635.141	34.473
639.06	189.91
642.977	644.39
646.892	618.917
650.805	243.507
654.716	191.781
658.625	142.854
662.532	427.646
666.437	522.447
670.34	157.687
674.241	66.746
678.139	269.07
682.036	525.236
685.931	571.814
689.824	48.671
693.715	134.042
697.604	123.504
701.491	581.418
705.376	549.72
709.259	51.873
713.139	163.039
717.018	126.11
720.895	515.601
724.77	645.305
728.643	355.507
732.514	111.246
736.383	405.184
740.25	956.5
744.115	1206.36
747.978	718.469
751.839	310.999
755.698	493.938
759.555	867.309
763.41	1347.85
767.263	1039.09
771.114	883.281
774.964	748.444
778.811	1553.28
782.656	2389.32
786.499	2875.81
790.341	3040.31
794.18	3817.71
798.017	6049.09
801.853	9637.42
805.686	12320
809.518	16079
813.347	24199
817.175	39204.7
821.001	40926.1
824.824	28056.3
828.646	18516.1
832.466	13889.5
836.284	14111.3
840.1	19026.2
843.914	26926.1
847.726	23703.7
851.536	13879.4
855.344	7151.3
859.15	4518
862.954	3656.78
866.756	3468.69
870.557	2987.02
874.355	2645.89
878.152	2355.28
881.946	2955.18
885.739	5145.65
889.53	6908.23
893.318	4859.86
897.105	2582.26
900.89	1415.26
904.673	1048.84
908.454	1113.01
912.234	1437.84
916.011	1162.74
919.786	748.186
923.56	204.092
927.331	470.5
931.101	787.371
934.868	1134.68
938.634	1112.41
942.398	730.574
946.16	489.181
949.92	698.272
953.678	767.8
957.435	987.819
961.189	1023.04
964.941	530.22
968.692	228.479
972.441	39.762
976.187	222.725
979.932	650.927
983.675	712.705
987.416	547.245
991.155	50.902
994.893	225.075
998.628	89.031
1002.36	313.464
1006.09	815.01
1009.82	733.434
1013.55	493.253
1017.28	22.624
1021	41.086
1024.72	199.691
1028.44	696.468
1032.16	724.367
1035.88	722.479
1039.59	425.846
1043.31	143.973
1047.02	9.093
1050.73	346.456
1054.43	754.838
1058.14	832.195
1061.84	749.681
1065.54	527.748
1069.24	137.422
1072.94	179.408
1076.64	398.234
1080.33	825.971
1084.03	1063.71
1087.71	801.455
1091.4	509.172
1095.09	117.686
1098.78	127.175
1102.46	385.972
1106.14	518.91
1109.82	596.599
1113.5	353.289
1117.17	310.036
1120.85	36.177
1124.52	58.072
1128.19	25.438
1131.86	453.693
1135.52	761.131
1139.19	797.687
1142.85	684.744
1146.51	239.931
1150.17	53.806
1153.83	2.627
1157.48	446.243
1161.14	677.578
1164.79	819.429
1168.44	664.27
1172.09	560.909
1175.73	63.121
1179.38	69.302
1183.02	23.324
1186.66	379.414
1190.3	570.141
1193.94	1040.63
1197.58	811.105
1201.21	650.139
1204.84	375.229
1208.47	181.357
1212.1	89.287
1215.72	427.077
1219.35	915.749
1222.97	1152.61
1226.59	1069.17
1230.21	757.026
1233.83	463.668
1237.45	179.616
1241.06	115.245
1244.67	330.475
1248.28	705.103
1251.89	1079.33
1255.5	1088.6
1259.1	705.662
1262.7	491.705
1266.31	283.854
1269.9	49.615
1273.5	1.894
1277.1	414.552
1280.69	734.072
1284.29	934.298
1287.88	1124.21
1291.46	823.741
1295.05	466.176
1298.64	231.625
1302.22	30.059
1305.8	243.479
1309.38	347.355
1312.96	792.062
1316.54	946.491
1320.11	881.391
1323.68	766.397
1327.25	486.252
1330.82	161.563
1334.39	87.401
1337.96	44.595
1341.52	359.455
1345.08	583.225
1348.64	687.923
1352.2	972.009
1355.76	1014.26
1359.31	798.494
1362.87	670.863
1366.42	325.671
1369.97	9.413
1373.52	82.814
1377.06	459.066
1380.61	733.686
1384.15	992.479
1387.69	1217.52
1391.23	1322.76
1394.77	1004.36
1398.3	834.525
1401.84	343.639
1405.37	260.081
1408.9	136.148
1412.43	209.146
1415.96	472.631
1419.48	888.76
1423.01	814.964
1426.53	1184.19
1430.05	1026.32
1433.57	792.056
1437.08	709.976
1440.6	240.578
1444.11	205.992
1447.62	84.631
1451.13	132.108
1454.64	299.954
1458.15	649.073
1461.65	928.033
1465.16	1227.42
1468.66	1267.24
1472.16	1178.22
1475.65	799.962
1479.15	464.005
1482.64	339.413
1486.14	236.553
1489.63	174.005
1493.12	94.886
1496.61	218.205
1500.09	715.031
1503.58	1018.1
1507.06	1164.14
1510.54	766.358
