Measurement: Raman, 514 nm, ccw, Raman Data Processed
Mineral: Adamite
Rruff sample: R050020
Ideal chemistry: Zn^2+^_2_As^5+^O_4_(OH)
Locality: Mina Ojuela, Mapimi, Durango, Mexico
Source: Eugene Schlepp
Description: Light green prismatic crystal
Measured chemistry: (Zn_1.97_Cu_0.03_)_Σ=2_((As_0.98_P_0.02_)_Σ=1_O_4_)(OH)
Pin_id: L00236
Orientation: Laser parallel to -c* (0 0 -1). Fiducial mark perpendicular to laser is parallel to a [1 0 0]
Raman shift (cm-1)	intensity
46.637	0
50.856	78.55
55.072	159.976
59.287	366.457
63.499	426.873
67.709	405.121
71.917	320.162
76.123	123.391
80.327	3.894
84.529	20.003
88.728	27.923
92.926	63.731
97.121	250.167
101.314	438.904
105.505	608.733
109.694	927.598
113.881	1262.47
118.066	1669.33
122.249	2460.21
126.43	3199.48
130.608	3479.66
134.785	3499.69
138.959	2844.36
143.131	2030.41
147.301	1446.02
151.469	1140.67
155.635	1172.79
159.799	1093.42
163.961	1146.59
168.121	1326.33
172.278	1544.65
176.434	1119.54
180.587	832.031
184.739	843.119
188.888	911.807
193.035	1017.09
197.18	1446.44
201.324	2056.27
205.465	2978.35
209.603	3498.72
213.74	2986.97
217.875	2312.99
222.008	2392.33
226.139	3921.7
230.267	6020.28
234.394	5176.06
238.518	3711.71
242.641	4118.56
246.761	5990.98
250.879	7463.95
254.996	6510.87
259.11	4775.69
263.222	3511.53
267.332	2879.88
271.44	2633.76
275.546	2656.16
279.65	1906.01
283.752	1169.31
287.852	832.039
291.95	590.255
296.046	506.933
300.14	340.059
304.231	401.612
308.321	450.638
312.409	616.097
316.495	794.041
320.578	857.383
324.66	706.9
328.739	401.169
332.817	131.671
336.892	84.599
340.966	23.877
345.037	86.506
349.107	61.622
353.174	10.498
357.24	16.927
361.303	96.598
365.365	359.446
369.424	971.528
373.481	1902.86
377.537	1763.43
381.59	783.226
385.642	346.263
389.691	174.548
393.738	130.09
397.784	174.907
401.827	451.011
405.868	771.396
409.908	1161.08
413.945	1474.16
417.98	1989.63
422.014	2136.44
426.045	1326.32
430.075	641.546
434.102	345.556
438.127	237.565
442.151	245.173
446.172	286.389
450.192	341.578
454.209	577.161
458.225	628.754
462.238	647.656
466.25	727.83
470.259	988.763
474.267	1317.7
478.273	1522.09
482.276	1435.49
486.278	1533.43
490.278	2188.82
494.276	3062.74
498.271	2537.13
502.265	1361.55
506.257	798.087
510.247	591.027
514.235	438.781
518.221	461.601
522.205	589.617
526.187	973.672
530.167	1617.76
534.145	2555.88
538.122	3031.03
542.096	2629.2
546.068	1850.39
550.039	1089.6
554.007	592.828
557.973	419.062
561.938	258.302
565.901	249.544
569.861	124.785
573.82	96.02
577.777	9.244
581.732	74.426
585.685	64.479
589.636	69.564
593.585	13.893
597.532	13.603
601.477	8.99
605.42	2.707
609.361	8.597
613.301	73.719
617.238	3.882
621.174	4.709
625.108	86.522
629.039	43.655
632.969	1.958
636.897	58.286
640.823	30.503
644.747	14.616
648.669	60.392
652.589	4.703
656.508	43.796
660.424	28.18
664.339	7.486
668.251	32.777
672.162	126.066
676.071	127.272
679.978	142.458
683.883	42.629
687.786	53.789
691.687	146.939
695.586	160.085
699.484	41.236
703.379	91.396
707.273	123.569
711.165	54.762
715.055	95.969
718.943	145.193
722.829	73.438
726.713	59.709
730.595	160.008
734.476	283.039
738.354	304.657
742.231	237.577
746.106	254.688
749.978	238.854
753.849	268.461
757.719	300.187
761.586	202.094
765.451	248.597
769.315	314.509
773.177	381.042
777.036	454.494
780.894	625.657
784.75	769.634
788.605	1070.04
792.457	1590.58
796.307	2483.29
800.156	3679.41
804.003	4067.52
807.848	3871.82
811.691	4650.81
815.532	6978.62
819.371	8927.64
823.209	8273.29
827.045	7337.95
830.878	8166.25
834.71	11804.9
838.54	20403.8
842.369	35943
846.195	44572.4
850.02	30132.3
853.842	17073
857.663	10953.3
861.482	7514.72
865.299	5946.03
869.115	5267.07
872.928	5478.35
876.74	7060.22
880.55	11322
884.358	20524.2
888.164	33356.6
891.969	30899.2
895.771	17833.1
899.572	9896.38
903.371	6130
907.168	4184.91
910.963	3116.08
914.757	2340.3
918.548	1914.27
922.338	1633.49
926.126	1569.92
929.912	1387.7
933.697	1069.06
937.479	881.465
941.26	656.872
945.039	831.94
948.816	863.242
952.591	881.195
956.365	558.028
960.136	452.194
963.906	269.617
967.674	232.288
971.441	255.973
975.205	186.441
978.968	156.823
982.729	153.204
986.488	81.367
990.245	54.632
994	7.505
997.754	3.338
1001.51	96.24
1005.26	46.37
1009	50.485
1012.75	32.925
1016.5	3.085
1020.24	94.082
1023.98	182.806
1027.72	30.552
1031.46	69.018
1035.19	1.461
1038.93	87.52
1042.66	100.718
1046.39	110.268
1050.12	170.235
1053.85	44.128
1057.57	110.069
1061.29	52.507
1065.02	9.542
1068.74	89.682
1072.45	89.515
1076.17	99.711
1079.88	100.835
1083.6	44.927
1087.31	18.07
1091.02	107.841
1094.72	57.779
1098.43	138.479
1102.13	142.343
1105.84	84.168
1109.54	23.185
1113.24	52.892
1116.93	31.983
1120.63	44.727
1124.32	94.451
1128.01	115.363
1131.7	52.953
1135.39	7.476
1139.08	14.725
1142.76	93.772
1146.45	96.372
1150.13	136.199
1153.81	123.333
1157.48	72.791
1161.16	27.633
1164.84	12.219
1168.51	4.53
1172.18	10.238
1175.85	27.386
1179.52	51.671
1183.18	132.102
1186.85	108.478
1190.51	105.21
1194.17	25.479
1197.83	5.64
1201.48	75.328
1205.14	120.973
1208.79	141.317
1212.44	132.07
1216.09	147.88
1219.74	79.467
1223.39	78.019
1227.03	126.53
1230.68	98.427
1234.32	92.8
1237.96	221.682
1241.6	128.404
1245.23	182.974
1248.87	149.043
1252.5	197.299
1256.13	87.928
1259.76	119.016
1263.39	109.926
1267.02	169.771
1270.64	194.03
1274.26	244.82
1277.88	222.004
1281.5	201.957
1285.12	53.563
1288.74	22.493
1292.35	42.636
1295.96	63.111
1299.57	123.532
1303.18	111.92
1306.79	87.588
1310.4	189.396
1314	132.4
1317.6	101.148
1321.2	51.727
1324.8	48.127
1328.4	59.128
1331.99	43.524
1335.59	136.677
1339.18	148.506
1342.77	250.852
1346.36	134.227
1349.95	136.608
1353.53	110.417
1357.12	107.641
1360.7	51.6
1364.28	78.717
1367.86	85.574
1371.44	72.608
1375.01	227.929
1378.59	218.689
1382.16	229.364
1385.73	214.874
1389.3	44.493
1392.87	74.085
1396.43	4.578
1399.99	17.49
1403.56	117.665
1407.12	105.462
1410.68	191.959
1414.23	204.375
1417.79	193.41
1421.34	200.885
1424.9	93.063
1428.45	97.516
1431.99	20.543
1435.54	6.493
1439.09	120.026
1442.63	173.384
1446.17	249.288
1449.71	218.476
1453.26	203.59
1456.79	221.481
1460.33	253.768
1463.86	104.358
1467.39	162.514
1470.92	106.922
1474.45	92.274
1477.98	33.077
1481.51	92.05
1485.03	135.378
1488.56	172.972
1492.08	220.164
1495.6	226.92
1499.11	205.45
1502.63	181.071
1506.14	153.635
1509.66	72.288
1513.17	1.785
1516.68	38.687
