Measurement: Raman, 514 nm, ccw, Raman Data Processed
Mineral: Adamite
Rruff sample: R040130
Ideal chemistry: Zn^2+^_2_As^5+^O_4_(OH)
Locality: Mina Ojuela, Mapimi, Durango, Mexico
Source: Bob Downs
Description: Pale yellow spherical aggregate of bladed crystals
Measured chemistry: Zn_1.97_(As_1.01_O_4_)(OH)
Pin_id: S00040
Orientation: Laser parallel to c* (0 0 1). Fiducial mark perpendicular to laser is parallel to a [1 0 0]
Raman shift (cm-1)	intensity
114.254	0
118.424	11.514
122.592	334.087
126.758	794.383
130.922	803.164
135.083	736.121
139.243	307.582
143.401	154.031
147.557	247.754
151.711	196.883
155.863	253.148
160.013	254.158
164.161	332.279
168.308	375.357
172.452	556.236
176.594	201.619
180.734	259.395
184.872	88.85
189.008	282.047
193.143	376.822
197.275	361.916
201.405	849.182
205.534	1639.04
209.66	2100.32
213.784	1642.73
217.907	1411.4
222.027	1811.18
226.146	2657.38
230.263	4094.76
234.377	3602.4
238.49	2864.52
242.601	2924.5
246.709	3846.27
250.816	4949.51
254.921	4423.1
259.024	3018
263.125	2153.22
267.224	1667.8
271.321	1067.83
275.416	1014.35
279.51	606.305
283.601	567.115
287.69	211.49
291.778	83.09
295.863	150.531
299.947	11.471
304.029	27.674
308.108	57.01
312.186	195.719
316.262	118.582
320.336	2.525
324.408	248.5
328.478	136.742
332.546	103.951
336.612	102.955
340.677	19.164
344.739	51.549
348.799	9.586
352.858	70.166
356.915	2.141
360.969	307.385
365.022	465.982
369.073	521.713
373.122	757.037
377.169	990.738
381.215	452.986
385.258	405.709
389.299	581.244
393.339	444.016
397.376	417.965
401.412	417.484
405.446	486.912
409.478	798.395
413.508	1050.97
417.536	963.68
421.562	1223.73
425.586	1017.61
429.609	1001.8
433.629	948.17
437.648	1289.76
441.665	1175.62
445.68	1361.59
449.693	1136.84
453.704	1003.31
457.713	1308.89
461.721	1712.93
465.726	1825.42
469.73	1736.03
473.731	1416.26
477.731	1935.62
481.729	1916.53
485.725	2031.14
489.72	2679.78
493.712	3790.78
497.703	3237.93
501.691	2355.16
505.678	1905.14
509.663	1620.28
513.646	1698.58
517.627	1571.63
521.607	1354.36
525.584	1342.79
529.56	1622.46
533.534	1522.76
537.506	1706.14
541.476	1664.8
545.444	1342.19
549.41	1253.38
553.375	1152.07
557.337	1109.07
561.298	1296.45
565.257	1342.99
569.214	1061.41
573.17	1040
577.123	1010.21
581.075	919.219
585.024	847.4
588.972	1135.56
592.918	766.848
596.863	837.402
600.805	819.846
604.746	1019.85
608.685	1041.36
612.621	692.957
616.557	884.926
620.49	593.721
624.421	870.354
628.351	675.547
632.279	465.242
636.205	962.516
640.129	733.35
644.051	756.816
647.972	548.008
651.89	933.863
655.807	389.066
659.722	428.781
663.636	640.074
667.547	198.986
671.457	270.408
675.365	398.307
679.271	432.719
683.175	648.566
687.077	148.766
690.978	407.336
694.877	51.148
698.774	467.293
702.669	50.16
706.562	361.754
710.454	57.039
714.344	289.719
718.232	386.785
722.118	232.242
726.002	465.117
729.885	453.348
733.766	317.902
737.645	145.793
741.522	151.102
745.397	81.836
749.271	70.004
753.143	315.477
757.013	361.223
760.881	51.77
764.748	160.406
768.613	225.215
772.476	142.16
776.337	5.363
780.196	436.887
784.054	173.781
787.91	347.035
791.764	325.645
795.616	488.605
799.467	548.977
803.316	996.688
807.163	803.863
811.008	1092.43
814.851	1281.41
818.693	1842.69
822.533	2068.47
826.371	2209.8
830.208	3448.77
834.042	4844.65
837.875	9611.37
841.706	17780.2
845.536	24962.3
849.363	17122.2
853.189	9397.43
857.013	5914.44
860.836	4259.83
864.656	2881.72
868.475	2748.33
872.292	2596.55
876.108	2903.7
879.922	4743.97
883.733	7161.27
887.544	12567.5
891.352	12490
895.159	7358.28
898.964	4114.51
902.767	2794.88
906.568	1987.16
910.368	1389.79
914.166	1442.5
917.962	1163.43
921.757	891.988
925.55	697.707
929.341	769.629
933.13	648.914
936.918	837.785
940.703	533.328
944.488	457.949
948.27	428.59
952.051	526.547
955.83	503.402
959.607	327.02
963.383	336.996
967.156	215.961
970.928	142.781
974.699	377.453
978.468	389.895
982.234	608.117
986	543.328
989.763	285.031
993.525	533.109
997.285	576.84
1001.04	29.391
1004.8	533.641
1008.55	512.141
1012.31	646.852
1016.06	570.496
1019.81	391.402
1023.56	733.965
1027.31	404.66
1031.05	332.48
1034.79	430.438
1038.53	393.391
1042.27	488.09
1046.01	533.379
1049.75	317.09
1053.48	335.035
1057.22	509.793
1060.95	383.371
1064.68	280.324
1068.4	107.016
1072.13	382.094
1075.86	146.531
1079.58	358.098
1083.3	498.27
1087.02	300.578
1090.74	314.598
1094.45	251.699
1098.17	295.125
1101.88	134.816
1105.59	147.246
1109.3	404.605
1113.01	356.25
1116.71	47.414
1120.42	68.59
1124.12	16.188
1127.82	116.07
1131.52	39.094
1135.22	241.332
1138.91	141.469
1142.61	42.188
1146.3	192.539
1149.99	11.066
1153.68	100.48
1157.37	67.711
1161.06	68.645
1164.74	168.422
1168.42	119.066
1172.1	21.355
1175.78	332.938
1179.46	143.195
1183.14	497.703
1186.81	296.992
1190.48	157.336
1194.15	257.68
1197.83	104.105
1201.49	725.578
1205.16	450.168
1208.82	609.93
1212.49	540.863
1216.15	199.91
1219.81	558.02
1223.46	576.27
1227.12	196.656
1230.78	543.141
1234.43	801.758
1238.08	642.496
1241.73	579.898
1245.38	749.012
1249.03	785.012
1252.67	625.945
1256.31	404.125
1259.95	341.547
1263.6	693.625
1267.23	642.23
1270.87	727.723
1274.51	538.035
1278.14	745.801
1281.77	510.957
1285.4	523.449
1289.03	167.137
1292.66	407.453
1296.28	497.391
1299.91	434.441
1303.53	481.242
1307.15	568.203
1310.77	372.445
1314.38	508.254
1318	265.527
1321.61	221.336
1325.23	555.293
1328.84	252.867
1332.45	384.977
1336.06	232.234
1339.66	412.074
1343.27	429.625
1346.87	630.746
1350.47	597.078
1354.07	800.312
1357.67	852.043
1361.26	563.066
1364.86	578.434
1368.45	665.309
1372.04	587.574
1375.63	616.43
1379.22	721.199
1382.81	777.055
1386.39	339.414
1389.98	687.691
1393.56	609.625
1397.14	503.16
1400.72	614.68
1404.3	381.848
1407.87	501.676
1411.45	553.582
1415.02	610.207
1418.59	727.137
1422.16	516.18
1425.73	523.266
1429.29	470.309
1432.86	587.301
1436.42	650.66
1439.98	705.336
1443.54	702.398
1447.1	430.82
1450.66	746.594
1454.21	753.867
1457.77	543.93
1461.32	340.301
1464.87	144.543
1468.42	438.234
1471.96	50.121
1475.51	89.473
1479.06	15.703
1482.6	112.723
1486.14	2.195
1489.68	49.293
