Measurement: Raman, 514 nm, ccw, Raman Data Processed
Mineral: Adamite
Rruff sample: R050020
Ideal chemistry: Zn^2+^_2_As^5+^O_4_(OH)
Locality: Mina Ojuela, Mapimi, Durango, Mexico
Source: Eugene Schlepp
Description: Light green prismatic crystal
Measured chemistry: (Zn_1.97_Cu_0.03_)_Σ=2_((As_0.98_P_0.02_)_Σ=1_O_4_)(OH)
Pin_id: L00511
Orientation: Laser parallel to a* (1 0 0). Fiducial mark perpendicular to laser is parallel to b [0 1 0]
Raman shift (cm-1)	intensity
119.05	0
123.24	761.01
127.427	995.225
131.612	570.242
135.794	849.986
139.975	756.234
144.153	179.424
148.329	26.297
152.503	649.361
156.674	527.879
160.843	97.379
165.011	434.176
169.175	984.027
173.338	831.068
177.499	468.949
181.657	632.463
185.813	554.715
189.967	135.305
194.119	91.586
198.268	616.443
202.415	162.977
206.561	36.238
210.703	671.576
214.844	880.055
218.983	245.195
223.119	163.949
227.253	1174.03
231.385	1833.26
235.515	702.838
239.643	547.908
243.768	1117
247.891	1102
252.012	1124.6
256.131	1458.27
260.248	1307.95
264.363	859.418
268.475	585.369
272.585	1019.52
276.693	1143.35
280.799	286.885
284.903	113.895
289.005	630.91
293.104	409.293
297.201	192.031
301.296	76.344
305.389	544.344
309.48	601.816
313.569	418.584
317.655	645.154
321.74	1581
325.822	1285.81
329.902	260.16
333.98	294.008
338.056	597.32
342.129	360.008
346.201	317.914
350.27	53.207
354.337	576.24
358.402	185.869
362.465	222.111
366.526	94.246
370.585	661.385
374.642	177.76
378.696	76.779
382.748	238.271
386.799	923.109
390.847	277.822
394.893	12.238
398.936	95.793
402.978	838.379
407.018	819.98
411.055	211.5
415.091	472.822
419.124	1143.9
423.155	1094.88
427.184	405.779
431.211	596.75
435.236	1217.07
439.259	1408.28
443.28	559.287
447.298	597.762
451.315	1116.3
455.329	1286.54
459.341	787.053
463.352	520.068
467.36	1357.89
471.366	1976.9
475.37	1684.87
479.372	1067.4
483.371	1228.98
487.369	1960.65
491.365	1581.86
495.358	893.17
499.35	733.707
503.339	1518.28
507.326	1706.22
511.311	965.613
515.295	656.113
519.276	1139.75
523.255	1560.93
527.232	1413.14
531.207	629.674
535.179	1034.19
539.15	1569.09
543.119	1787.67
547.086	821.01
551.05	280.393
555.013	957.58
558.973	1362.91
562.932	1075.06
566.888	319.4
570.842	607.01
574.795	1086.49
578.745	1246.55
582.693	657.209
586.639	238.477
590.583	640.965
594.525	1423.58
598.465	1316.78
602.403	360.729
606.339	225.281
610.273	850.664
614.205	1586.91
618.135	1244.15
622.063	122.346
625.989	71.461
629.912	991.424
633.834	1422.21
637.754	833.75
641.671	96.08
645.587	29.219
649.501	843.18
653.412	1407.98
657.322	583.719
661.23	129.549
665.135	178.217
669.039	907.199
672.94	1337.36
676.84	648.621
680.738	159.109
684.633	124.18
688.527	1128.7
692.418	1044.25
696.308	360.924
700.195	281.395
704.081	142.838
707.964	736.525
711.846	806.744
715.726	257.895
719.603	189.975
723.479	73.02
727.352	957.043
731.224	1122.07
735.094	368.129
738.961	85.256
742.827	143.412
746.691	822.619
750.552	1582.9
754.412	1004.22
758.27	326.576
762.125	109.977
765.979	774.416
769.831	1459.89
773.681	1166.41
777.529	593.957
781.375	612.535
785.219	1092.14
789.06	2312.76
792.901	3173.38
796.739	3296.04
800.575	3519.74
804.409	4914.47
808.241	7610.23
812.071	12304.8
815.899	18409
819.726	19978.5
823.55	13729.1
827.372	9850.78
831.193	8899.62
835.011	9548.48
838.828	11107
842.642	13932.5
846.455	14762.9
850.266	10681.6
854.075	7017.35
857.881	4962.57
861.686	2863.29
865.489	1579.35
869.29	1651.82
873.089	2099.51
876.886	2984.14
880.682	3319.74
884.475	3866.19
888.266	4717.13
892.056	4305.5
895.843	3424.89
899.629	3100.63
903.413	2351.97
907.194	964.125
910.974	756.941
914.752	630.539
918.528	1414.83
922.302	1969.81
926.074	1285.43
929.844	831.805
933.613	188.85
937.379	426.494
941.144	1254.71
944.906	2023.52
948.667	1572.87
952.426	995.848
956.183	76.246
959.938	388.113
963.691	861.893
967.442	1313.56
971.191	1485.18
974.939	647.908
978.684	72.174
982.428	3.338
986.169	429.018
989.909	1070.09
993.647	1125.51
997.383	704.346
1001.12	478.828
1004.85	194.18
1008.58	129.029
1012.31	784.23
1016.03	1682.22
1019.76	1653.53
1023.48	1018.62
1027.2	315.721
1030.92	161.615
1034.64	535.824
1038.36	1510.13
1042.07	1930.41
1045.78	1462.45
1049.49	1020.41
1053.2	407.291
1056.9	185.797
1060.61	790.826
1064.31	1617.4
1068.01	2174.87
1071.71	1649.52
1075.41	964.521
1079.1	303.193
1082.79	387.932
1086.48	971.996
1090.17	1895.89
1093.86	1919.06
1097.55	1434.03
1101.23	916.686
1104.91	179.467
1108.59	55.941
1112.27	133.881
1115.95	926.297
1119.62	1727.49
1123.3	1395.45
1126.97	983.182
1130.63	191.949
1134.3	47.695
1137.97	251.809
1141.63	792.861
1145.29	1204.69
1148.95	1696.24
1152.61	1351.38
1156.27	473.018
1159.92	166.814
1163.57	106.275
1167.22	463.137
1170.87	1003.31
1174.52	1576.22
1178.16	1735.15
1181.81	1344.65
1185.45	389.982
1189.09	265.326
1192.73	331.836
1196.36	485.908
1200	1218.17
1203.63	1888.83
1207.26	1728.38
1210.89	1370.88
1214.52	819.703
1218.14	409.143
1221.77	72.979
1225.39	584.211
1229.01	1591.53
1232.62	1888.08
1236.24	2043
1239.86	1717.3
1243.47	921.332
1247.08	392.535
1250.69	184.018
1254.3	324.502
1257.9	1018.14
1261.5	1344.96
1265.11	2075.2
1268.71	2024.14
1272.3	1706.09
1275.9	1019.96
1279.49	100.031
1283.09	23.797
1286.68	282.172
1290.27	803.074
1293.86	1597.88
1297.44	2003.1
1301.03	1798.61
1304.61	979.238
1308.19	567.268
1311.77	151.479
1315.34	45.908
1318.92	144.441
1322.49	676.336
1326.06	1559.44
1329.63	1782.47
1333.2	2005.53
1336.77	1786.35
1340.33	1124.73
1343.89	433.33
1347.46	179.82
1351.02	239.084
1354.57	460.492
1358.13	868.4
1361.68	1968.51
1365.23	1978.27
1368.79	1908.53
1372.33	2008.61
1375.88	1266.03
1379.43	564.43
1382.97	238.547
1386.51	27.078
1390.05	300.492
1393.59	734.922
1397.13	1572.39
1400.66	2168.97
1404.19	2119.07
1407.72	2121.45
1411.25	1887.17
1414.78	1195.76
1418.31	378
1421.83	180.59
1425.36	186.238
1428.88	589.488
1432.39	894.621
1435.91	1800.18
1439.43	2284.3
1442.94	2529.92
1446.45	2096.84
1449.96	1721.52
1453.47	1070.48
1456.98	619.891
1460.48	100.18
1463.99	153.363
1467.49	45.922
1470.99	394.465
1474.49	1443.33
1477.99	1863.31
1481.48	2173.12
1484.97	2391.52
1488.46	2069.73
1491.95	1365.79
1495.44	904.906
1498.93	686.816
1502.41	143.551
1505.9	5.328
