Measurement: Raman, 514 nm, ccw, Raman Data Processed
Mineral: Adamite
Rruff sample: R040130
Ideal chemistry: Zn^2+^_2_As^5+^O_4_(OH)
Locality: Mina Ojuela, Mapimi, Durango, Mexico
Source: Bob Downs
Description: Pale yellow spherical aggregate of bladed crystals
Measured chemistry: Zn_1.97_(As_1.01_O_4_)(OH)
Pin_id: S00334
Orientation: Laser parallel to -b* (0 -1 0). Fiducial mark perpendicular to laser is parallel to c [0 0 1]
Raman shift (cm-1)	intensity
110.082	0
114.254	207.602
118.424	113.219
122.592	390.73
126.758	587.234
130.922	496.639
135.083	668.01
139.243	260.504
143.401	442.561
147.557	359.973
151.711	538.037
155.863	450.855
160.013	521.564
164.161	540.102
168.308	775.293
172.452	611.906
176.594	359.357
180.734	456.834
184.872	476.771
189.008	306.295
193.143	526.635
197.275	467.75
201.405	571.312
205.534	1090.27
209.66	1281.47
213.784	876.848
217.907	1019.95
222.027	1410.88
226.146	1420.81
230.263	1688.59
234.377	1281.68
238.49	1334.6
242.601	1386.4
246.709	1589.37
250.816	1805.39
254.921	1349.44
259.024	966.588
263.125	691.924
267.224	378.533
271.321	389.5
275.416	361.344
279.51	139.9
283.601	198.244
287.69	0.699
291.778	30.66
295.863	67.227
299.947	107.725
304.029	117.297
308.108	91.518
312.186	135.523
316.262	1.529
320.336	85.957
324.408	249.008
328.478	152.91
332.546	217.645
336.612	104.873
340.677	34.027
344.739	86.926
348.799	135.771
352.858	164.684
356.915	166.531
360.969	362.246
365.022	468.271
369.073	575.326
373.122	461.037
377.169	756.906
381.215	546.41
385.258	649.498
389.299	779.711
393.339	781.461
397.376	739.121
401.412	854.887
405.446	828.812
409.478	1312.92
413.508	1603.25
417.536	1246.83
421.562	1415.96
425.586	1411.85
429.609	1227.92
433.629	1506.78
437.648	1898.74
441.665	1629.1
445.68	1825.93
449.693	1667.66
453.704	1803.85
457.713	1801.33
461.721	2048.1
465.726	2194.61
469.73	2084.82
473.731	1879.65
477.731	2289.15
481.729	2197.39
485.725	2430.34
489.72	2594.76
493.712	2821.88
497.703	2593.86
501.691	2176.41
505.678	2142.28
509.663	2107.41
513.646	2352.86
517.627	2087.28
521.607	2043.5
525.584	1922.78
529.56	2029.07
533.534	2152.43
537.506	1898.12
541.476	2028.75
545.444	1774.58
549.41	1643.65
553.375	1678.07
557.337	1824.73
561.298	1666.87
565.257	1825.23
569.214	1802.96
573.17	1617.1
577.123	1345.66
581.075	1112.68
585.024	1235.17
588.972	1593.16
592.918	1312.79
596.863	1541.54
600.805	1334.89
604.746	1427.81
608.685	1482.42
612.621	951.867
616.557	1171.56
620.49	860.91
624.421	1711.26
628.351	883.637
632.279	964.465
636.205	1295.41
640.129	1318.69
644.051	933.492
647.972	976.246
651.89	1278.79
655.807	575.754
659.722	1033.78
663.636	1121.83
667.547	564.984
671.457	516.176
675.365	636.312
679.271	952.426
683.175	986.648
687.077	585.754
690.978	804.805
694.877	257.73
698.774	685.57
702.669	151.367
706.562	594.125
710.454	199.852
714.344	573.566
718.232	517.25
722.118	441.898
726.002	673.516
729.885	652.105
733.766	257.66
737.645	355.176
741.522	396.648
745.397	351.07
749.271	288.438
753.143	107.719
757.013	401.895
760.881	105.051
764.748	353.168
768.613	90.312
772.476	340.613
776.337	58.402
780.196	397.285
784.054	0.277
787.91	495.914
791.764	330.926
795.616	361.988
799.467	264.156
803.316	671.207
807.163	425.777
811.008	439.109
814.851	653.426
818.693	883.648
822.533	850.73
826.371	634.812
830.208	837.199
834.042	1603.02
837.875	3183.35
841.706	6000.52
845.536	7299.57
849.363	4866.94
853.189	2270.14
857.013	1483.87
860.836	1407.29
864.656	818.531
868.475	952.086
872.292	723.492
876.108	736.508
879.922	1445.89
883.733	2322.63
887.544	3960.56
891.352	3695.7
895.159	1862.89
898.964	1227.09
902.767	938.211
906.568	671.816
910.368	464.188
914.166	827.719
917.962	622.848
921.757	411.723
925.55	483.75
929.341	428.996
933.13	229.355
936.918	590.773
940.703	441.906
944.488	46.391
948.27	95.16
952.051	399.742
955.83	214.352
959.607	272.684
963.383	290.016
967.156	80.281
970.928	8.984
974.699	346.836
978.468	304.719
982.234	934.59
986	383.777
989.763	483.691
993.525	307.922
997.285	810.348
1001.04	176.902
1004.8	368.836
1008.55	400.625
1012.31	624.566
1016.06	442.566
1019.81	566.594
1023.56	837.832
1027.31	556.668
1031.05	404.105
1034.79	662.086
1038.53	706.738
1042.27	798.691
1046.01	579.867
1049.75	313.297
1053.48	544.301
1057.22	641.07
1060.95	845.156
1064.68	556.449
1068.4	338.469
1072.13	360.891
1075.86	438.07
1079.58	488.008
1083.3	498.191
1087.02	310.805
1090.74	131.957
1094.45	307.105
1098.17	13.703
1101.88	172.668
1105.59	0.02
1109.3	192.641
1113.01	54.277
1116.71	2
1120.42	171.578
1124.12	450.277
1127.82	126.043
1131.52	343.27
1135.22	650.949
1138.91	123.398
1142.61	63.984
1146.3	366.535
1149.99	137.496
1153.68	19.426
1157.37	311.266
1161.06	659.531
1164.74	437.598
1168.42	302.262
1172.1	107.152
1175.78	392.277
1179.46	161.469
1183.14	626.996
1186.81	491.047
1190.48	677.57
1194.15	447.586
1197.83	521.09
1201.49	999.098
1205.16	942.688
1208.82	797.848
1212.49	760.574
1216.15	555.859
1219.81	1048.7
1223.46	961.148
1227.12	654.23
1230.78	836.836
1234.43	975.883
1238.08	735.621
1241.73	689.746
1245.38	1197.41
1249.03	1612.25
1252.67	1146.27
1256.31	671.301
1259.95	650.527
1263.6	895.176
1267.23	834.758
1270.87	934.441
1274.51	710.082
1278.14	1051.52
1281.77	1093.12
1285.4	761.516
1289.03	720.941
1292.66	658.805
1296.28	368.621
1299.91	509.637
1303.53	836.586
1307.15	1010.56
1310.77	561.172
1314.38	972.812
1318	437.938
1321.61	795.516
1325.23	819.922
1328.84	703.43
1332.45	416.883
1336.06	461.688
1339.66	877.453
1343.27	486.453
1346.87	1117.94
1350.47	996.242
1354.07	1313.05
1357.67	1239.14
1361.26	576.57
1364.86	712.676
1368.45	700.973
1372.04	693.258
1375.63	638.551
1379.22	822.809
1382.81	957.258
1386.39	288.797
1389.98	596.492
1393.56	586.809
1397.14	211.555
1400.72	398.082
1404.3	377.664
1407.87	292.609
1411.45	652.074
1415.02	597.266
1418.59	731.16
1422.16	197.531
1425.73	294.898
1429.29	467.777
1432.86	401.762
1436.42	722.438
1439.98	465.504
1443.54	462
1447.1	137.578
1450.66	0
