Measurement: Raman, 514 nm, ccw, Raman Data Processed
Mineral: Adamite
Rruff sample: R050020
Ideal chemistry: Zn^2+^_2_As^5+^O_4_(OH)
Locality: Mina Ojuela, Mapimi, Durango, Mexico
Source: Eugene Schlepp
Description: Light green prismatic crystal
Measured chemistry: (Zn_1.97_Cu_0.03_)_Σ=2_((As_0.98_P_0.02_)_Σ=1_O_4_)(OH)
Pin_id: L00236
Orientation: Laser parallel to -c* (0 0 -1). Fiducial mark perpendicular to laser is parallel to a [1 0 0]
Raman shift (cm-1)	intensity
46.637	0
50.856	79.971
55.072	337.792
59.287	474.082
63.499	550.951
67.709	517.715
71.917	290.86
76.123	102.94
80.327	18.647
84.529	42.255
88.728	4.883
92.926	127.591
97.121	399.584
101.314	707.394
105.505	1039.75
109.694	1181.61
113.881	1136.96
118.066	1348.77
122.249	2367.02
126.43	4119.72
130.608	6225.84
134.785	7977.42
138.959	7567.09
143.131	5188.35
147.301	2628.81
151.469	1365.79
155.635	1008.13
159.799	976.279
163.961	1067.27
168.121	1536.15
172.278	2226.94
176.434	1728.96
180.587	981.62
184.739	638.221
188.888	620.761
193.035	712.23
197.18	1055.62
201.324	1647.91
205.465	2346.09
209.603	2953.13
213.74	2358.17
217.875	1690.13
222.008	1467.41
226.139	2130.7
230.267	3179.06
234.394	2688.59
238.518	1805.67
242.641	2052.18
246.761	2964.92
250.879	3787.29
254.996	3301.58
259.11	2315.01
263.222	1683.39
267.332	1290.56
271.44	1114.54
275.546	844.308
279.65	610.807
283.752	256.166
287.852	253.389
291.95	115.42
296.046	71.192
300.14	25.379
304.231	130.761
308.321	425.566
312.409	739.992
316.495	1200.05
320.578	1857.7
324.66	2117.94
328.739	1340.72
332.817	541.068
336.892	213.969
340.966	38.375
345.037	62.251
349.107	102.623
353.174	287.428
357.24	431.647
361.303	850.267
365.365	1829.28
369.424	3947.66
373.481	6982.4
377.537	6283.5
381.59	3117.91
385.642	1441.66
389.691	791.758
393.738	850.235
397.784	1244.21
401.827	2041.44
405.868	3173.18
409.908	4489.43
413.945	4881.27
417.98	4767.64
422.014	4070.62
426.045	2605.62
430.075	1360.14
434.102	727.045
438.127	480.696
442.151	343.763
446.172	313.908
450.192	329.284
454.209	348.535
458.225	534.211
462.238	414.458
466.25	345.778
470.259	430.293
474.267	518.428
478.273	715.488
482.276	610.283
486.278	583.456
490.278	738.708
494.276	1092.67
498.271	795.263
502.265	386.546
506.257	253.04
510.247	125.503
514.235	271.193
518.221	314.904
522.205	577.629
526.187	1116.36
530.167	1965.09
534.145	3230.82
538.122	4014.53
542.096	3672.23
546.068	2573.9
550.039	1460.54
554.007	848.143
557.973	532.705
561.938	339.217
565.901	200.672
569.861	151.062
573.82	61.38
577.777	7.383
581.732	20.298
585.685	29.509
589.636	65.051
593.585	26.035
597.532	2.614
601.477	93.098
605.42	19.527
609.361	94.539
613.301	63.161
617.238	35.775
621.174	35.638
625.108	39.571
629.039	57.892
632.969	9.567
636.897	62.421
640.823	46.152
644.747	26.631
648.669	106.084
652.589	59.825
656.508	84.541
660.424	86.077
664.339	20.388
668.251	94.518
672.162	124.532
676.071	178.434
679.978	116.228
683.883	141.918
687.786	113.509
691.687	113.004
695.586	296.453
699.484	185.835
703.379	139.154
707.273	83.407
711.165	66.604
715.055	156.735
718.943	218.802
722.829	170.812
726.713	141.769
730.595	284.681
734.476	406.594
738.354	469.36
742.231	466.573
746.106	373.045
749.978	270.822
753.849	415.563
757.719	415.914
761.586	346.42
765.451	279.302
769.315	369.845
773.177	471.644
777.036	619.1
780.894	805.39
784.75	1034.94
788.605	1466.05
792.457	2144.17
796.307	3588.18
800.156	5581.73
804.003	6489.46
807.848	6304.34
811.691	8189.72
815.532	13815.6
819.371	17574.1
823.209	14746.8
827.045	10445.1
830.878	9643.56
834.71	12152.3
838.54	19331.4
842.369	32220.9
846.195	39873.9
850.02	27045.2
853.842	16066.8
857.663	10807.5
861.482	7750.19
865.299	6201.57
869.115	5753.1
872.928	6414.93
876.74	8507.12
880.55	14209.6
884.358	27292.8
888.164	46065.8
891.969	43609.2
895.771	25413.1
899.572	13777.3
903.371	8502.06
907.168	5837.22
910.963	4269.86
914.757	3226.1
918.548	2511.84
922.338	2100.12
926.126	1944.98
929.912	1780.09
933.697	1394.79
937.479	996.771
941.26	793.132
945.039	874.877
948.816	922.96
952.591	959.36
956.365	687.086
960.136	467.174
963.906	310.557
967.674	227.222
971.441	264.201
975.205	278.436
978.968	242.623
982.729	221.519
986.488	44.637
990.245	14.795
994	41.761
997.754	40.142
1001.51	67.634
1005.26	32.668
1009	36.468
1012.75	13.877
1016.5	68.798
1020.24	100.341
1023.98	156.917
1027.72	167.112
1031.46	164.468
1035.19	43.722
1038.93	49.499
1042.66	67.836
1046.39	83.117
1050.12	92.942
1053.85	142.106
1057.57	114.616
1061.29	32.835
1065.02	24.285
1068.74	61.709
1072.45	183.249
1076.17	132.292
1079.88	200.902
1083.6	98.023
1087.31	66.501
1091.02	64.943
1094.72	131.997
1098.43	216.947
1102.13	147.941
1105.84	189.454
1109.54	94.956
1113.24	32.24
1116.93	48.958
1120.63	40.677
1124.32	53.239
1128.01	141.226
1131.7	104.081
1135.39	121.264
1139.08	5.15
1142.76	72.507
1146.45	70.972
1150.13	2.311
1153.81	52.211
1157.48	49.189
1161.16	125.463
1164.84	49.776
1168.51	25.231
1172.18	21.943
1175.85	42.273
1179.52	144.696
1183.18	40.786
1186.85	62.489
1190.51	29.422
1194.17	23.866
1197.83	4.106
1201.48	16.022
1205.14	10.69
1208.79	102.101
1212.44	179.873
1216.09	179.037
1219.74	144.146
1223.39	144.751
1227.03	116.31
1230.68	67.628
1234.32	88.677
1237.96	102.537
1241.6	151.123
1245.23	182.615
1248.87	146.835
1252.5	122.782
1256.13	148.62
1259.76	152.077
1263.39	130.233
1267.02	106.177
1270.64	161.873
1274.26	267.216
1277.88	184.23
1281.5	216.027
1285.12	168.111
1288.74	55.009
1292.35	41.551
1295.96	54.406
1299.57	98.256
1303.18	84.229
1306.79	142.287
1310.4	169.342
1314	186.017
1317.6	106.072
1321.2	58
1324.8	81.757
1328.4	4.517
1331.99	19.275
1335.59	126.7
1339.18	152.33
1342.77	166.058
1346.36	213.054
1349.95	148.952
1353.53	22.046
1357.12	99.553
1360.7	8.873
1364.28	70.564
1367.86	94.463
1371.44	97.617
1375.01	168.694
1378.59	147.971
1382.16	220.541
1385.73	220.71
1389.3	65.19
1392.87	65.045
1396.43	25.292
1399.99	56.016
1403.56	149.494
1407.12	113.535
1410.68	99.535
1414.23	209.756
1417.79	258.344
1421.34	207.475
1424.9	186.124
1428.45	61.368
1431.99	46.397
1435.54	30.351
1439.09	94.733
1442.63	153.928
1446.17	112.672
1449.71	111.616
1453.26	206.124
1456.79	191.325
1460.33	247.105
1463.86	215.04
1467.39	136.474
1470.92	119.444
1474.45	12.736
1477.98	67.642
1481.51	63.859
1485.03	76.235
1488.56	154.384
1492.08	158.967
1495.6	202.389
1499.11	186.554
1502.63	222.922
1506.14	161.105
1509.66	106.926
1513.17	88.357
