Measurement: Raman, 514 nm, ccw, Raman Data Processed
Mineral: Adamite
Rruff sample: R040130
Ideal chemistry: Zn^2+^_2_As^5+^O_4_(OH)
Locality: Mina Ojuela, Mapimi, Durango, Mexico
Source: Bob Downs
Description: Pale yellow spherical aggregate of bladed crystals
Measured chemistry: Zn_1.97_(As_1.01_O_4_)(OH)
Pin_id: S00233
Orientation: Laser parallel to -a* (-1 0 0). Fiducial mark perpendicular to laser is parallel to b [0 1 0]
Raman shift (cm-1)	intensity
110.082	0
114.254	420.445
118.424	401.59
122.592	626.939
126.758	1475.09
130.922	1659.74
135.083	2114.07
139.243	1037.62
143.401	810.24
147.557	500.088
151.711	410.256
155.863	306.158
160.013	424.73
164.161	452.219
168.308	658.553
172.452	1274.95
176.594	555.354
180.734	315.711
184.872	200.531
189.008	269.068
193.143	394.217
197.275	125.723
201.405	595.832
205.534	970.348
209.66	1146.95
213.784	654.432
217.907	373.322
222.027	589.467
226.146	1258.91
230.263	1998.31
234.377	1697.28
238.49	1131.05
242.601	1264.86
246.709	1520.63
250.816	1918.99
254.921	1693.02
259.024	1266.87
263.125	1075.61
267.224	1042.3
271.321	1147.99
275.416	1085.44
279.51	719.439
283.601	343.07
287.69	235.398
291.778	322.754
295.863	217.729
299.947	106.914
304.029	191.139
308.108	339.359
312.186	635.623
316.262	927.959
320.336	1317.37
324.408	853.758
328.478	618.076
332.546	80.678
336.612	73.988
340.677	27.746
344.739	199.342
348.799	180.488
352.858	149.627
356.915	101.572
360.969	140.93
365.022	186.848
369.073	577.795
373.122	692.969
377.169	1004.3
381.215	483.051
385.258	105.029
389.299	268.064
393.339	139.438
397.376	304.037
401.412	239.039
405.446	353.58
409.478	822.906
413.508	1230.89
417.536	1227.53
421.562	506.014
425.586	752.398
429.609	643.709
433.629	609.973
437.648	804.184
441.665	621.129
445.68	752.494
449.693	820.268
453.704	621.4
457.713	878.514
461.721	1412.92
465.726	1548.87
469.73	1739.77
473.731	1635.66
477.731	2145.36
481.729	1916.96
485.725	1560.47
489.72	1558.42
493.712	1611.18
497.703	1605.05
501.691	1467.88
505.678	1194.37
509.663	1031.08
513.646	1254.66
517.627	1259.25
521.607	1018.75
525.584	1032.39
529.56	1368.93
533.534	1663.06
537.506	1733.44
541.476	1620.35
545.444	1455.29
549.41	1135.74
553.375	1059.47
557.337	1078.54
561.298	1040.93
565.257	1144.29
569.214	1181.77
573.17	1080.74
577.123	859.725
581.075	756.609
585.024	778.436
588.972	1065.23
592.918	718.258
596.863	809.047
600.805	787.877
604.746	987.928
608.685	928
612.621	637.316
616.557	708.035
620.49	366.258
624.421	849.031
628.351	139.23
632.279	502.732
636.205	809.508
640.129	684.578
644.051	341.967
647.972	390.707
651.89	563.926
655.807	234.998
659.722	337.129
663.636	468.352
667.547	3.973
671.457	8.973
675.365	221.25
679.271	99.59
683.175	405.898
687.077	4.062
690.978	391.543
694.877	101.328
698.774	167.352
702.669	292.301
706.562	166.629
710.454	102.719
714.344	221.484
718.232	175.125
722.118	66.297
726.002	333.156
729.885	322.555
733.766	225.578
737.645	600.297
741.522	458.719
745.397	550.844
749.271	258.668
753.143	348.203
757.013	476.441
760.881	544.387
764.748	64.035
768.613	266.387
772.476	695.441
776.337	729.176
780.196	786.598
784.054	1349.69
787.91	1970.46
791.764	2516.94
795.616	4177.21
799.467	6659.27
803.316	7978.15
807.163	7481.93
811.008	9452.47
814.851	15510.8
818.693	21034.7
822.533	15327.2
826.371	8955.32
830.208	7299.14
834.042	7532.72
837.875	10755.4
841.706	18204.6
845.536	21721.9
849.363	12731.7
853.189	6629.39
857.013	3924.88
860.836	2979.55
864.656	2098.48
868.475	2290.08
872.292	2090.59
876.108	2473.41
879.922	3650.86
883.733	6247.57
887.544	11078.4
891.352	10903.6
895.159	5792.92
898.964	3262.38
902.767	2276.72
906.568	1738.44
910.368	1158.24
914.166	1256.85
917.962	1053.56
921.757	447.191
925.55	482.734
929.341	467.223
933.13	594.414
936.918	762.34
940.703	449.789
944.488	408.281
948.27	305.559
952.051	504.922
955.83	535.289
959.607	416.574
963.383	229.984
967.156	339.719
970.928	160.699
974.699	292.133
978.468	353.707
982.234	605.012
986	308.328
989.763	152.742
993.525	442.938
997.285	396.984
1001.04	160.914
1004.8	262.832
1008.55	516.406
1012.31	284.777
1016.06	471.586
1019.81	274.457
1023.56	445.34
1027.31	5.75
1031.05	254.82
1034.79	261.395
1038.53	408.445
1042.27	446.391
1046.01	335.539
1049.75	165.648
1053.48	297.043
1057.22	364.977
1060.95	307.309
1064.68	180.59
1068.4	181.285
1072.13	127.008
1075.86	284.383
1079.58	242.078
1083.3	386.824
1087.02	234.156
1090.74	286.289
1094.45	162.613
1098.17	146.062
1101.88	126.012
1105.59	150.484
1109.3	101.098
1113.01	169.645
1116.71	115.594
1120.42	255.102
1124.12	182.422
1127.82	61.312
1131.52	2.387
1135.22	338.871
1138.91	3.527
1142.61	9.906
1146.3	139.254
1149.99	103.781
1153.68	5.156
1157.37	56
1161.06	0.566
1164.74	292.133
1168.42	439.93
1172.1	5.832
1175.78	307.922
1179.46	227.258
1183.14	463.809
1186.81	319.191
1190.48	446.211
1194.15	234.414
1197.83	204.02
1201.49	706.926
1205.16	409.203
1208.82	376.895
1212.49	429.004
1216.15	279.484
1219.81	320.293
1223.46	493.445
1227.12	717.746
1230.78	662.777
1234.43	789.137
1238.08	487.125
1241.73	564.203
1245.38	552.617
1249.03	631.863
1252.67	838.004
1256.31	392.926
1259.95	347.719
1263.6	513.438
1267.23	515.496
1270.87	542.211
1274.51	518.125
1278.14	627.688
1281.77	631.824
1285.4	561.18
1289.03	296.32
1292.66	444.121
1296.28	231.652
1299.91	415.156
1303.53	406.828
1307.15	395.711
1310.77	176.34
1314.38	502.77
1318	269.906
1321.61	416.043
1325.23	482.535
1328.84	193.055
1332.45	304.934
1336.06	359.23
1339.66	463.883
1343.27	616.473
1346.87	858.59
1350.47	694.598
1354.07	610.883
1357.67	745.074
1361.26	478.121
1364.86	452.211
1368.45	699.277
1372.04	712.562
1375.63	589.883
1379.22	494.938
1382.81	861.293
1386.39	686.246
1389.98	735.363
1393.56	584.633
1397.14	463.984
1400.72	399.199
1404.3	248.723
1407.87	509.047
1411.45	473.133
1415.02	569.898
1418.59	552.758
1422.16	367.121
1425.73	438.281
1429.29	212.719
1432.86	197.422
1436.42	639.52
1439.98	301.875
1443.54	348.629
1447.1	206.09
1450.66	467.211
1454.21	487.684
1457.77	440.434
1461.32	112.484
