Measurement: Raman, 514 nm, ccw, Raman Data Processed
Mineral: Adamite
Rruff sample: R050020
Ideal chemistry: Zn^2+^_2_As^5+^O_4_(OH)
Locality: Mina Ojuela, Mapimi, Durango, Mexico
Source: Eugene Schlepp
Description: Light green prismatic crystal
Measured chemistry: (Zn_1.97_Cu_0.03_)_Σ=2_((As_0.98_P_0.02_)_Σ=1_O_4_)(OH)
Pin_id: L00236
Orientation: Laser parallel to -c* (0 0 -1). Fiducial mark perpendicular to laser is parallel to a [1 0 0]
Raman shift (cm-1)	intensity
46.637	0
50.856	85.514
55.072	228.22
59.287	378.797
63.499	385.951
67.709	379.418
71.917	253.318
76.123	102.026
80.327	5.236
84.529	17.723
88.728	7.412
92.926	40.056
97.121	135.46
101.314	259.063
105.505	370.969
109.694	730.708
113.881	1113.26
118.066	1744.61
122.249	2629.75
126.43	3303.79
130.608	3122.61
134.785	2510.24
138.959	1742.48
143.131	1199.06
147.301	1018.79
151.469	1019.19
155.635	1063.64
159.799	1067.52
163.961	1141.86
168.121	1375.66
172.278	1557.95
176.434	1124.72
180.587	773.729
184.739	763.699
188.888	847.911
193.035	1015.6
197.18	1297.81
201.324	2010.85
205.465	3347.29
209.603	4122.72
213.74	3637.37
217.875	3041.58
222.008	3247.92
226.139	5457.14
230.267	8607.43
234.394	7467.87
238.518	5196.21
242.641	5768.85
246.761	8556.17
250.879	10641.2
254.996	9337.38
259.11	6856.2
263.222	4961.01
267.332	4034.29
271.44	3903.99
275.546	3976.1
279.65	2915.58
283.752	1832.44
287.852	1209.69
291.95	908.29
296.046	704.261
300.14	515.579
304.231	465.205
308.321	501.138
312.409	579.366
316.495	638.942
320.578	664.869
324.66	639.073
328.739	313.528
332.817	132.262
336.892	86.291
340.966	85.592
345.037	5.843
349.107	22.048
353.174	9.062
357.24	49.108
361.303	12.471
365.365	151.004
369.424	482.697
373.481	1055.57
377.537	1030.61
381.59	492.796
385.642	205.135
389.691	53.64
393.738	0.678
397.784	9.017
401.827	12.273
405.868	52.895
409.908	113.972
413.945	268.614
417.98	474.075
422.014	609.478
426.045	380.682
430.075	279.152
434.102	168.412
438.127	185.901
442.151	190.074
446.172	251.001
450.192	312.711
454.209	379.378
458.225	593.039
462.238	765.598
466.25	995.408
470.259	1497.7
474.267	1846.66
478.273	2140.93
482.276	1963.04
486.278	2097.04
490.278	3210.92
494.276	4631.1
498.271	3836.29
502.265	2074.58
506.257	1091.92
510.247	665.739
514.235	484.064
518.221	296.875
522.205	327.116
526.187	412.365
530.167	515.622
534.145	829.884
538.122	962.148
542.096	871.414
546.068	617.678
550.039	332.94
554.007	217.113
557.973	75.328
561.938	74.358
565.901	44.581
569.861	15.732
573.82	25.757
577.777	21.316
581.732	47.539
585.685	25.959
589.636	41.559
593.585	21.344
597.532	8.691
601.477	17.605
605.42	16.337
609.361	9.891
613.301	21.74
617.238	76.419
621.174	24.428
625.108	36.674
629.039	20.917
632.969	1.296
636.897	13.877
640.823	48.364
644.747	11.572
648.669	23.254
652.589	7.204
656.508	0.269
660.424	10.423
664.339	46.335
668.251	16.083
672.162	79.853
676.071	107.638
679.978	130.428
683.883	68.228
687.786	70.041
691.687	109.873
695.586	190.735
699.484	148.622
703.379	101.55
707.273	93.521
711.165	87.55
715.055	107.623
718.943	83.75
722.829	115.596
726.713	119.256
730.595	165.732
734.476	150.533
738.354	258.328
742.231	140.373
746.106	187.22
749.978	225.618
753.849	214.549
757.719	249.666
761.586	237.893
765.451	238.378
769.315	256.611
773.177	314.187
777.036	417.659
780.894	565.172
784.75	611.432
788.605	802.484
792.457	1163.57
796.307	1727.41
800.156	2383.67
804.003	2876.75
807.848	3201.52
811.691	4274.96
815.532	7091.62
819.371	9371.73
823.209	8927.73
827.045	8006.69
830.878	9125.9
834.71	13425.4
838.54	23945.1
842.369	45165.2
846.195	57166.2
850.02	38006.8
853.842	21158.3
857.663	13209.8
861.482	8912.66
865.299	6774.89
869.115	5637.19
872.928	5461.87
876.74	6502.33
880.55	9775.08
884.358	17438.1
888.164	29111.5
891.969	27035.1
895.771	15449.1
899.572	8553.44
903.371	5298.11
907.168	3771.1
910.963	2742.37
914.757	2099.08
918.548	1639.98
922.338	1426.2
926.126	1318.35
929.912	1143.15
933.697	943.391
937.479	811.736
941.26	662.369
945.039	743.31
948.816	861.462
952.591	927.879
956.365	648.52
960.136	439.427
963.906	333.126
967.674	187.165
971.441	250.003
975.205	209.398
978.968	245.042
982.729	202.1
986.488	115.209
990.245	80.652
994	16.138
997.754	44.604
1001.51	45.32
1005.26	18.977
1009	4.794
1012.75	33.074
1016.5	9.264
1020.24	8.258
1023.98	29.66
1027.72	106.906
1031.46	70.962
1035.19	13.81
1038.93	51.997
1042.66	34.638
1046.39	81.62
1050.12	124.782
1053.85	75.135
1057.57	113.691
1061.29	4.365
1065.02	7.073
1068.74	66.751
1072.45	104.489
1076.17	114.995
1079.88	127.831
1083.6	32.787
1087.31	23.451
1091.02	102.998
1094.72	13.503
1098.43	137.337
1102.13	79.766
1105.84	157.169
1109.54	95.496
1113.24	21.693
1116.93	16.443
1120.63	8.29
1124.32	33.165
1128.01	124.296
1131.7	55.104
1135.39	82.693
1139.08	3.931
1142.76	45.612
1146.45	41.693
1150.13	12.798
1153.81	97.265
1157.48	98.813
1161.16	63.217
1164.84	58.274
1168.51	26.883
1172.18	61.237
1175.85	40.361
1179.52	82.796
1183.18	129.27
1186.85	156.504
1190.51	83.682
1194.17	6.707
1197.83	16.429
1201.48	17.899
1205.14	44.44
1208.79	86.499
1212.44	139.555
1216.09	155.459
1219.74	186.23
1223.39	126.261
1227.03	81.945
1230.68	75.139
1234.32	90.362
1237.96	170.461
1241.6	168.428
1245.23	176.316
1248.87	204.999
1252.5	135.546
1256.13	60.738
1259.76	125.912
1263.39	114.569
1267.02	85.667
1270.64	118.877
1274.26	247.869
1277.88	219.481
1281.5	177.09
1285.12	75.301
1288.74	39.136
1292.35	23.349
1295.96	4.589
1299.57	57.721
1303.18	112.657
1306.79	149.806
1310.4	123.865
1314	189.408
1317.6	180.25
1321.2	91.123
1324.8	36.056
1328.4	56.056
1331.99	48.72
1335.59	98.915
1339.18	123.299
1342.77	145.108
1346.36	192.514
1349.95	136.456
1353.53	157.417
1357.12	89.695
1360.7	85.737
1364.28	48.741
1367.86	22.703
1371.44	98.161
1375.01	140.498
1378.59	162.79
1382.16	175.785
1385.73	159.977
1389.3	143.374
1392.87	104.15
1396.43	22.855
1399.99	73.806
1403.56	92.01
1407.12	51.458
1410.68	131.699
1414.23	192.068
1417.79	228.806
1421.34	202.709
1424.9	157.237
1428.45	115.132
1431.99	93.3
1435.54	14.098
1439.09	6.213
1442.63	74.657
1446.17	107.189
1449.71	167.044
1453.26	221.849
1456.79	223.724
1460.33	185.225
1463.86	198.065
1467.39	172.069
1470.92	122.332
1474.45	13.458
1477.98	49.806
1481.51	32.562
1485.03	41.885
1488.56	143.446
1492.08	128.555
1495.6	175.91
1499.11	244.074
1502.63	234.777
1506.14	180.139
1509.66	124.016
1513.17	76.071
1516.68	0
