Measurement: Raman, 514 nm, ccw, Raman Data Processed
Mineral: Adamite
Rruff sample: R040130
Ideal chemistry: Zn^2+^_2_As^5+^O_4_(OH)
Locality: Mina Ojuela, Mapimi, Durango, Mexico
Source: Bob Downs
Description: Pale yellow spherical aggregate of bladed crystals
Measured chemistry: Zn_1.97_(As_1.01_O_4_)(OH)
Pin_id: S00334
Orientation: Laser parallel to -b* (0 -1 0). Fiducial mark perpendicular to laser is parallel to c [0 0 1]
Raman shift (cm-1)	intensity
126.758	0
130.922	293.969
135.083	519.639
139.243	126.828
143.401	242.533
147.557	263.723
151.711	230.514
155.863	260.969
160.013	440.607
164.161	603.002
168.308	581.953
172.452	777.969
176.594	413.664
180.734	500.68
184.872	550.465
189.008	405.584
193.143	464.219
197.275	418.268
201.405	363.021
205.534	682.893
209.66	704.664
213.784	473.248
217.907	631.002
222.027	720.598
226.146	825.426
230.263	955.523
234.377	835.686
238.49	792.002
242.601	667.588
246.709	481.834
250.816	827.863
254.921	912.232
259.024	619.381
263.125	441.094
267.224	573.051
271.321	486.232
275.416	376.738
279.51	26.543
283.601	89.451
287.69	94.691
291.778	126.104
295.863	78.879
299.947	138.377
304.029	208
308.108	308.102
312.186	199.98
316.262	404.551
320.336	799.885
324.408	446.99
328.478	87.857
332.546	113.596
336.612	133.232
340.677	32.373
344.739	16.887
348.799	74.387
352.858	36.191
356.915	54.891
360.969	178.734
365.022	304.648
369.073	245.678
373.122	199.957
377.169	591.35
381.215	231.465
385.258	152.254
389.299	416.648
393.339	296.752
397.376	390.83
401.412	460.633
405.446	462.467
409.478	682.24
413.508	919.611
417.536	645.484
421.562	335.795
425.586	769.695
429.609	542.861
433.629	672.797
437.648	1011.97
441.665	798.727
445.68	914.152
449.693	750.193
453.704	508.635
457.713	796.914
461.721	1029.82
465.726	1169.61
469.73	1084.28
473.731	969.582
477.731	1246.86
481.729	1146.19
485.725	1052.77
489.72	1012.09
493.712	1151.32
497.703	1153.56
501.691	1198.22
505.678	1357.5
509.663	1370.06
513.646	1379.51
517.627	1389.94
521.607	1141.69
525.584	930.641
529.56	1356.36
533.534	1230.35
537.506	1168.21
541.476	1338.98
545.444	1353.78
549.41	1092.63
553.375	940.27
557.337	1160.61
561.298	1150.96
565.257	1061.65
569.214	1058.84
573.17	1054.08
577.123	983.383
581.075	747.586
585.024	761.855
588.972	1166.23
592.918	796.785
596.863	963.551
600.805	771.301
604.746	990.504
608.685	472.391
612.621	544.664
616.557	571.402
620.49	485.902
624.421	737.191
628.351	332.961
632.279	368.203
636.205	659.734
640.129	780.535
644.051	496.602
647.972	216.984
651.89	681.773
655.807	214.168
659.722	513.172
663.636	565.754
667.547	11.961
671.457	262.707
675.365	259.02
679.271	254.832
683.175	496.094
687.077	178.207
690.978	389.836
694.877	349.898
698.774	437.449
702.669	250.719
706.562	367.461
710.454	123.922
714.344	268.078
718.232	434.41
722.118	159.141
726.002	400.363
729.885	544.078
733.766	113.297
737.645	148.016
741.522	264.262
745.397	282.035
749.271	342.332
753.143	370.148
757.013	464.48
760.881	60.32
764.748	70.336
768.613	354.449
772.476	635.715
776.337	348.441
780.196	687.617
784.054	627.234
787.91	1133.29
791.764	1244.8
795.616	1699.78
799.467	2178.29
803.316	3331.44
807.163	3954.2
811.008	5905.59
814.851	10251.8
818.693	13772.7
822.533	9588.39
826.371	5595.65
830.208	3818.97
834.042	3713.25
837.875	5049.53
841.706	7490.81
845.536	8185.44
849.363	5353.28
853.189	2488.48
857.013	1697.55
860.836	1585.04
864.656	1083.72
868.475	1171.54
872.292	1168.52
876.108	858.293
879.922	1417.69
883.733	1611.27
887.544	2628.8
891.352	2477.44
895.159	1366.05
898.964	1154.58
902.767	819.992
906.568	824.242
910.368	706.266
914.166	1189.03
917.962	894.254
921.757	523.41
925.55	517.18
929.341	692.559
933.13	625.504
936.918	780.098
940.703	714.336
944.488	530.777
948.27	344.332
952.051	290.906
955.83	488.48
959.607	592.121
963.383	403.68
967.156	541.297
970.928	92.469
974.699	531.578
978.468	563.242
982.234	915.523
986	336.957
989.763	263.855
993.525	316.941
997.285	709.449
1001.04	430.078
1004.8	373.07
1008.55	680.133
1012.31	594.762
1016.06	500.363
1019.81	516.508
1023.56	835.77
1027.31	403.445
1031.05	467.215
1034.79	422.02
1038.53	769.594
1042.27	788.215
1046.01	363.316
1049.75	336.238
1053.48	361.359
1057.22	481.719
1060.95	597.586
1064.68	562.328
1068.4	140.902
1072.13	235.164
1075.86	416.047
1079.58	506.441
1083.3	603.941
1087.02	94.727
1090.74	19.461
1094.45	364.398
1098.17	279.805
1101.88	106.082
1105.59	156.809
1109.3	28.383
1113.01	21.57
1116.71	184.762
1120.42	7.633
1124.12	115.293
1127.82	157.754
1131.52	56.711
1135.22	568.348
1138.91	98.75
1142.61	233.266
1146.3	208.875
1149.99	43.211
1153.68	38.742
1157.37	4.363
1161.06	235.789
1164.74	530.117
1168.42	204.973
1172.1	359.574
1175.78	377.293
1179.46	320.207
1183.14	490.059
1186.81	628.133
1190.48	354.816
1194.15	385.555
1197.83	340.645
1201.49	933.797
1205.16	671.25
1208.82	544.043
1212.49	603.152
1216.15	688.441
1219.81	994.035
1223.46	725
1227.12	535.34
1230.78	754.09
1234.43	869.02
1238.08	793.125
1241.73	956.766
1245.38	1176.5
1249.03	1245.53
1252.67	963.547
1256.31	306
1259.95	624.059
1263.6	1028.81
1267.23	843.961
1270.87	820.488
1274.51	840.32
1278.14	834.863
1281.77	732.562
1285.4	669.504
1289.03	278.832
1292.66	586.109
1296.28	624.605
1299.91	698.113
1303.53	492.199
1307.15	928.984
1310.77	522.707
1314.38	969.477
1318	499.945
1321.61	170.383
1325.23	850.469
1328.84	608.855
1332.45	308.309
1336.06	344.797
1339.66	802.926
1343.27	687.719
1346.87	1196.34
1350.47	995.277
1354.07	1152.44
1357.67	963.488
1361.26	646.031
1364.86	885.828
1368.45	903.332
1372.04	506.438
1375.63	722.309
1379.22	717.992
1382.81	969.273
1386.39	328.812
1389.98	632.84
1393.56	853.598
1397.14	357.273
1400.72	465.469
1404.3	324.477
1407.87	397.145
1411.45	655.949
1415.02	627.258
1418.59	523.094
1422.16	103.469
1425.73	176.363
1429.29	41.824
1432.86	359.695
1436.42	612.785
1439.98	354.188
1443.54	459.836
1447.1	288.762
1450.66	707.508
1454.21	630.652
