Measurement: Raman, 514 nm, ccw, Raman Data Processed
Mineral: Adamite
Rruff sample: R040130
Ideal chemistry: Zn^2+^_2_As^5+^O_4_(OH)
Locality: Mina Ojuela, Mapimi, Durango, Mexico
Source: Bob Downs
Description: Pale yellow spherical aggregate of bladed crystals
Measured chemistry: Zn_1.97_(As_1.01_O_4_)(OH)
Pin_id: S00334
Orientation: Laser parallel to -b* (0 -1 0). Fiducial mark perpendicular to laser is parallel to c [0 0 1]
Raman shift (cm-1)	intensity
123.981	0
128.146	9.15
132.309	266.262
136.47	193.375
140.63	355.426
144.787	262.791
148.942	278.691
153.096	554.994
157.247	534.172
161.396	325.256
165.544	478.176
169.689	557.564
173.833	642.043
177.974	617.336
182.114	546.752
186.251	673.521
190.387	605.859
194.52	331.971
198.652	741.834
202.782	456.688
206.909	411.41
211.035	738.346
215.159	754.631
219.281	925.771
223.4	813.383
227.518	1154.1
231.634	1069.37
235.748	848.99
239.86	822.203
243.97	981.707
248.079	1298.19
252.185	855.93
256.289	1045.76
260.391	709.676
264.492	562.611
268.59	207.586
272.687	671.805
276.781	620.303
280.874	265.943
284.964	128.084
289.053	248.068
293.14	183.105
297.225	84.955
301.308	150.328
305.389	7.021
309.468	184.502
313.545	94.064
317.62	172.74
321.693	247.66
325.765	292.121
329.834	13.16
333.902	224.535
337.967	210.25
342.031	75.148
346.093	135.045
350.153	168.455
354.21	452.949
358.267	394.172
362.321	342.971
366.373	458.955
370.423	630.766
374.471	620.527
378.518	366.98
382.563	451.242
386.605	888.723
390.646	598.035
394.685	718.422
398.722	820.02
402.757	1234.86
406.79	881.539
410.821	1205.94
414.851	1342.85
418.878	1244.14
422.904	1385.34
426.927	1652.25
430.949	1430.02
434.969	1847.36
438.987	1561.14
443.003	1867.99
447.018	1789.83
451.03	1694.86
455.041	1674.26
459.049	1683.91
463.056	1731.79
467.061	2005.18
471.064	1901.59
475.065	2120.09
479.064	2215.02
483.062	2214.4
487.057	2140.82
491.051	2310.7
495.043	1933.68
499.032	2126.52
503.02	1838.91
507.007	1756.15
510.991	1961.36
514.973	1852.85
518.954	1818.24
522.933	2074.18
526.91	2222.41
530.885	1599.6
534.858	2035.84
538.829	1931.06
542.799	1625.51
546.766	1717.01
550.732	2183.83
554.696	1670.44
558.658	1915.75
562.618	1429.69
566.576	1364.69
570.533	1597.03
574.488	1517.31
578.44	1496.39
582.391	1623.89
586.341	1470.86
590.288	1554.36
594.233	1391.9
598.177	1225.91
602.119	1230.86
606.059	1379.06
609.997	1103.37
613.933	1290.41
617.868	1197.73
621.801	1320.17
625.731	775.074
629.66	839.766
633.588	1054.59
637.513	702.344
641.437	1135.91
645.358	954.285
649.278	796.781
653.196	779.324
657.113	701.898
661.027	736.375
664.94	141.918
668.851	779.668
672.76	1018.31
676.667	556.844
680.572	205.328
684.476	551.719
688.378	774.988
692.278	387.859
696.176	910.875
700.072	431.43
703.967	446.871
707.86	121.809
711.751	495.34
715.64	115.625
719.527	93.258
723.413	132.066
727.297	196.199
731.179	299.332
735.059	251.785
738.937	405.152
742.814	144.426
746.689	7.398
750.562	518.656
754.433	248.539
758.303	99.762
762.17	244.719
766.036	618.969
769.901	501.797
773.763	339.633
777.624	279.469
781.482	102.281
785.339	491.832
789.195	149.789
793.048	251.84
796.9	1153.91
800.75	886.848
804.598	837.703
808.445	1884.73
812.289	2905.98
816.132	4804.13
819.973	5006.82
823.813	3377.63
827.65	2049.63
831.486	1764.1
835.32	2734.38
839.152	3759.55
842.983	5938.61
846.812	5557.16
850.639	3220.22
854.464	1493.62
858.288	1191.5
862.11	459.648
865.93	894.336
869.748	985.906
873.564	746.508
877.379	1022.9
881.192	1290.98
885.004	1969.84
888.813	2726.77
892.621	2070.74
896.427	1182.71
900.232	763.461
904.034	564.891
907.835	857.008
911.634	850.434
915.432	606.488
919.227	390.168
923.021	594.789
926.813	372.34
930.604	610.805
934.393	655.852
938.18	123.156
941.965	370.539
945.749	642.465
949.53	186.219
953.311	348.062
957.089	336.527
960.866	179.887
964.641	192.75
968.414	161.523
972.185	420.453
975.955	354.555
979.723	319.645
983.49	231.293
987.254	26.645
991.017	605.07
994.779	681.336
998.538	173.309
1002.3	777.133
1006.05	585.965
1009.81	679.129
1013.56	673.785
1017.31	726.105
1021.06	759.875
1024.81	340.227
1028.55	1181.6
1032.3	716.613
1036.04	786.602
1039.78	1248.75
1043.52	1171.35
1047.26	583.184
1050.99	1209.25
1054.73	593.039
1058.46	618.402
1062.19	698.164
1065.92	445.23
1069.65	503.746
1073.37	646.324
1077.1	216.637
1080.82	624.215
1084.54	191.383
1088.26	394.93
1091.97	177.086
1095.69	26.184
1099.4	579.863
1103.12	52.949
1106.83	354.09
1110.54	81.871
1114.24	342.75
1117.95	234.383
1121.65	225.676
1125.35	1.633
1129.06	497.98
1132.75	35.812
1136.45	295.418
1140.15	47.645
1143.84	172.602
1147.53	184.02
1151.22	186.273
1154.91	415.035
1158.6	295.176
1162.28	338.887
1165.97	310.77
1169.65	652.582
1173.33	161.816
1177.01	137.746
1180.69	505.793
1184.36	482.961
1188.04	404.277
1191.71	611.785
1195.38	607.52
1199.05	952.441
1202.71	1135.31
1206.38	958.988
1210.04	700.617
1213.71	649.469
1217.37	1171.59
1221.03	824.988
1224.68	764.359
1228.34	1084.65
1231.99	661.887
1235.65	882.254
1239.3	957.609
1242.95	1006.5
1246.59	1244.11
1250.24	1065.58
1253.88	1052.74
1257.53	725.516
1261.17	942.922
1264.81	744.91
1268.45	1034.61
1272.08	896.336
1275.72	1136.91
1279.35	856.273
1282.98	737.941
1286.61	742.84
1290.24	1078.02
1293.87	953.977
1297.49	721.895
1301.11	864.434
1304.73	315.016
1308.36	411.293
1311.97	727.73
1315.59	607.781
1319.2	912.059
1322.82	777.391
1326.43	617.219
1330.04	430.488
1333.65	729.863
1337.26	972.184
1340.86	716.887
1344.47	1065.94
1348.07	1093.29
1351.67	1073.71
1355.27	567.504
1358.87	909.098
1362.46	1078.81
1366.06	890.793
1369.65	677.156
1373.24	867.16
1376.83	746.746
1380.42	792.203
1384	1011.4
1387.59	887.402
1391.17	554.848
1394.75	419.746
1398.33	851.887
1401.91	870.34
1405.49	872.367
1409.06	1039.47
1412.64	679.992
1416.21	784.324
1419.78	432.93
1423.35	852.117
1426.91	705.039
1430.48	739.219
1434.05	853.219
1437.61	544.344
1441.17	578.898
1444.73	28.488
1448.29	621.125
1451.84	326.09
1455.4	254.809
1458.95	40.578
1462.5	145.18
