Measurement: Raman, 514 nm, ccw, Raman Data Processed
Mineral: Adamite
Rruff sample: R040130
Ideal chemistry: Zn^2+^_2_As^5+^O_4_(OH)
Locality: Mina Ojuela, Mapimi, Durango, Mexico
Source: Bob Downs
Description: Pale yellow spherical aggregate of bladed crystals
Measured chemistry: Zn_1.97_(As_1.01_O_4_)(OH)
Pin_id: S00233
Orientation: Laser parallel to -a* (-1 0 0). Fiducial mark perpendicular to laser is parallel to b [0 1 0]
Raman shift (cm-1)	intensity
112.864	0
117.034	204.252
121.203	462.447
125.369	891.811
129.534	1128.12
133.696	571.535
137.857	678.959
142.016	173.584
146.172	307.959
150.327	182.029
154.48	261.904
158.63	236.119
162.779	383.703
166.926	505.596
171.07	925.119
175.213	977.619
179.354	526.383
183.493	247.703
187.63	36.928
191.765	34.438
195.898	12.24
200.029	48.197
204.158	393.293
208.285	468.941
212.41	394.303
216.533	384.15
220.654	112.529
224.773	705.129
228.891	1403.56
233.006	1706.61
237.119	950.811
241.231	925.363
245.34	1252.01
249.448	1444.17
253.553	1736.33
257.657	1210.6
261.758	975.43
265.858	834.848
269.956	1039.89
274.052	944.605
278.146	962.545
282.237	568.697
286.327	384.992
290.416	331.125
294.502	295.535
298.586	129.492
302.668	79.871
306.749	101.143
310.827	318.676
314.903	525.812
318.978	1104.51
323.051	1390.74
327.121	664.422
331.19	278.506
335.257	110.982
339.322	64.26
343.385	53.551
347.446	223.996
351.505	81.6
355.563	47.486
359.618	58.838
363.672	10.498
367.723	62.27
371.773	60.566
375.821	51.65
379.866	251.695
383.91	105.377
387.952	91.027
391.992	216.939
396.031	338.402
400.067	311.617
404.101	311.035
408.134	586.254
412.165	593.982
416.193	734.855
420.22	1135.94
424.245	974.229
428.268	668.732
432.289	1028.46
436.309	751.445
440.326	909.682
444.342	1117.05
448.355	1032.71
452.367	1050.71
456.377	1171.73
460.385	1405.96
464.391	1548.88
468.395	1749.63
472.398	2132.66
476.398	2077.21
480.397	2060.04
484.394	1872.06
488.389	1669.42
492.382	1923.99
496.373	1602.74
500.362	1708.3
504.349	1579.94
508.335	1357.54
512.319	1496.13
516.3	1633.58
520.28	1616.15
524.259	1295.81
528.235	1520.85
532.209	1285.04
536.182	1530.57
540.152	1432.58
544.121	1472.9
548.088	1425.89
552.053	1421.41
556.017	1277.68
559.978	1179.36
563.938	1215.65
567.895	1388.47
571.851	824.67
575.805	1301.23
579.758	1502.2
583.708	1376.84
587.657	1466.48
591.603	1063.13
595.548	1293.81
599.491	1142.51
603.432	1029.42
607.372	732.279
611.309	896.389
615.245	762.902
619.179	817.883
623.111	905.41
627.041	978.422
630.97	1179.71
634.896	441.201
638.821	869.9
642.744	598.826
646.665	659.992
650.584	370.418
654.502	613.217
658.418	829.449
662.331	429.469
666.244	548.385
670.154	443.188
674.062	350.785
677.969	557.076
681.874	389.002
685.777	166.492
689.678	157.465
693.577	412.789
697.475	29.297
701.371	125.279
705.265	427.66
709.157	278.373
713.047	131.625
716.936	21.293
720.823	68.402
724.708	104.555
728.591	317.109
732.472	107.961
736.352	511.34
740.23	167.109
744.106	319.348
747.98	231.051
751.853	144.227
755.723	9.855
759.592	485.945
763.459	417.48
767.325	245.473
771.188	515.926
775.05	678.809
778.91	628.121
782.768	1016.84
786.625	1249.95
790.479	2080.45
794.332	3232.41
798.183	4473.81
802.033	5902.66
805.88	7489.96
809.726	10014.9
813.57	17379.8
817.413	26965.9
821.253	25254.4
825.092	15322.3
828.929	10401.9
832.764	8925.28
836.598	11284.7
840.429	17843.5
844.259	25285.8
848.088	18388.6
851.914	9394.76
855.739	5720.88
859.562	3383.48
863.383	2707.33
867.203	2056.43
871.02	1789.85
874.836	1663.36
878.65	2216.07
882.463	3353.48
886.274	5612.17
890.083	7253.93
893.89	5013.62
897.695	3080.2
901.499	1954.66
905.301	1396.94
909.102	856.02
912.9	904.703
916.697	556.246
920.492	760.355
924.285	658.219
928.077	458.703
931.867	277.863
935.655	66.52
939.442	243.641
943.226	493.418
947.009	280.863
950.791	286.172
954.57	269.406
958.348	124.086
962.124	38.363
965.899	234.164
969.671	315.066
973.442	44.539
977.211	199.215
980.979	10.227
984.745	165.738
988.509	412.785
992.271	85.133
996.032	345.004
999.791	409.359
1003.55	287.387
1007.3	407.5
1011.06	300.191
1014.81	195.094
1018.56	66.906
1022.31	316.949
1026.06	389.316
1029.8	429.551
1033.55	492.949
1037.29	374.699
1041.03	196.406
1044.77	197.078
1048.5	761.41
1052.24	345.121
1055.97	479.496
1059.7	364.26
1063.43	258.92
1067.16	178.176
1070.89	282.166
1074.61	393.184
1078.34	450.703
1082.06	111.189
1085.78	145.846
1089.5	231.525
1093.21	63.607
1096.93	76.592
1100.64	161.203
1104.35	80.137
1108.06	19.326
1111.77	9.408
1115.48	119.516
1119.18	136.656
1122.89	48.58
1126.59	13.404
1130.29	0.113
1133.99	32.275
1137.68	246.551
1141.38	148.895
1145.07	242.6
1148.76	155.672
1152.45	201.801
1156.14	70.309
1159.83	258.914
1163.51	205.004
1167.19	326.582
1170.88	137.027
1174.56	326.586
1178.23	346.961
1181.91	423.5
1185.59	234.148
1189.26	398.152
1192.93	134.961
1196.6	348.484
1200.27	310.809
1203.94	700.977
1207.6	226.039
1211.27	533.871
1214.93	550.516
1218.59	376.09
1222.25	488.352
1225.9	702.426
1229.56	678.23
1233.21	893.973
1236.86	810.602
1240.51	775.777
1244.16	659.91
1247.81	668.961
1251.45	699.449
1255.1	782.996
1258.74	813.504
1262.38	571.391
1266.02	514.629
1269.66	340.609
1273.29	563.25
1276.93	266.531
1280.56	321.828
1284.19	497.957
1287.82	497.469
1291.45	246.363
1295.07	408.688
1298.7	649.34
1302.32	387.766
1305.94	560.555
1309.56	671.293
1313.18	151.066
1316.8	591.062
1320.41	412.422
1324.02	204.32
1327.63	38.953
1331.24	607.012
1334.85	528.711
1338.46	429.531
1342.06	600.664
1345.67	756.914
1349.27	671.254
1352.87	816.289
1356.47	878.734
1360.07	1089.91
1363.66	1023.53
1367.25	866.578
1370.85	909.441
1374.44	832.094
1378.03	610.121
1381.61	694.457
1385.2	798.461
1388.78	853.211
1392.37	675.375
1395.95	720.039
1399.53	620.246
1403.1	820.148
1406.68	599.32
1410.26	460.312
1413.83	655.621
1417.4	423.746
1420.97	769.969
1424.54	736.156
1428.1	660.035
1431.67	737.918
1435.23	856.988
1438.8	674.613
1442.36	576.176
1445.91	497.555
1449.47	650.961
1453.03	554.836
1456.58	570.281
1460.13	693.652
1463.68	715.734
1467.23	190.316
1470.78	625.328
1474.33	448.309
1477.87	312.711
1481.42	117.309
1484.96	148.949
1488.5	12.707
1492.04	0
