Measurement: Raman, 514 nm, ccw, Raman Data Processed
Mineral: Adamite
Rruff sample: R040130
Ideal chemistry: Zn^2+^_2_As^5+^O_4_(OH)
Locality: Mina Ojuela, Mapimi, Durango, Mexico
Source: Bob Downs
Description: Pale yellow spherical aggregate of bladed crystals
Measured chemistry: Zn_1.97_(As_1.01_O_4_)(OH)
Pin_id: S00040
Orientation: Laser parallel to c* (0 0 1). Fiducial mark perpendicular to laser is parallel to a [1 0 0]
Raman shift (cm-1)	intensity
117.034	0
121.203	322.486
125.369	815.434
129.534	1271.19
133.696	1017.88
137.857	1313.9
142.016	788.459
146.172	548.752
150.327	304.908
154.48	289.199
158.63	252.783
162.779	448.51
166.926	463.074
171.07	641.229
175.213	559.209
179.354	434.826
183.493	466.217
187.63	167.211
191.765	230.793
195.898	575.6
200.029	922.785
204.158	1191.65
208.285	1691.79
212.41	1716.85
216.533	1370.33
220.654	1022.92
224.773	1715.54
228.891	2550.37
233.006	2784.3
237.119	1799.14
241.231	2014.76
245.34	2774.01
249.448	3197.77
253.553	3295.75
257.657	2437.94
261.758	1729.37
265.858	1255.97
269.956	1171.78
274.052	554.871
278.146	473.285
282.237	397.699
286.327	467.184
290.416	264.523
294.502	31.537
298.586	27.426
302.668	114.807
306.749	91.887
310.827	49.779
314.903	90.307
318.978	114.453
323.051	312.76
327.121	112.904
331.19	152.121
335.257	47.938
339.322	15.42
343.385	120.43
347.446	62.002
351.505	117.086
355.563	80.41
359.618	96.881
363.672	313.703
367.723	687.246
371.773	946.641
375.821	1284.49
379.866	946.793
383.91	405.113
387.952	55.217
391.992	131.029
396.031	515.234
400.067	517.936
404.101	558.793
408.134	1091.41
412.165	1167.96
416.193	1541.55
420.22	2170.99
424.245	1654.38
428.268	742.764
432.289	1300.14
436.309	507.551
440.326	640
444.342	852.291
448.355	602.217
452.367	1300.2
456.377	698.215
460.385	1050.6
464.391	922.242
468.395	928.453
472.398	1215.49
476.398	925.957
480.397	1142.1
484.394	1169.44
488.389	1472.87
492.382	1916.1
496.373	1721.34
500.362	1364.33
504.349	1045.82
508.335	837.912
512.319	984.533
516.3	1285.34
520.28	1152.7
524.259	1015.44
528.235	1543.11
532.209	1755.63
536.182	2391.18
540.152	2386.21
544.121	2073.77
548.088	1481.1
552.053	1120.72
556.017	989.16
559.978	502.758
563.938	574.137
567.895	809.021
571.851	386.975
575.805	476.91
579.758	519.744
583.708	514.258
587.657	694.59
591.603	192.758
595.548	741.783
599.491	702.684
603.432	488.154
607.372	384.979
611.309	420.631
615.245	286.213
619.179	473.359
623.111	276.818
627.041	709.576
630.97	686.688
634.896	108.791
638.821	282.861
642.744	235.654
646.665	300.887
650.584	120.428
654.502	693.447
658.418	644.01
662.331	203.135
666.244	432.035
670.154	71.604
674.062	142.783
677.969	188.527
681.874	514.688
685.777	161.125
689.678	208.809
693.577	469.793
697.475	88.113
701.371	138.785
705.265	580.773
709.157	613.145
713.047	170.777
716.936	68.258
720.823	196.008
724.708	62.328
728.591	266.605
732.472	5.191
736.352	411.441
740.23	231.512
744.106	267.746
747.98	151
751.853	11.426
755.723	49.305
759.592	248.633
763.459	313.391
767.325	145.48
771.188	101.973
775.05	280.883
778.91	272.242
782.768	365.691
786.625	138.945
790.479	658.031
794.332	690.652
798.183	716.316
802.033	970.402
805.88	1373.21
809.726	1523.16
813.57	2521.49
817.413	3322.76
821.253	3744.91
825.092	3143.63
828.929	3775.67
832.764	4974.52
836.598	8189.18
840.429	14260.5
844.259	21484.2
848.088	17417.9
851.914	9807.97
855.739	6734.5
859.562	4309.12
863.383	3687.13
867.203	3053.75
871.02	2963.52
874.836	3653.89
878.65	5428.7
882.463	9486.53
886.274	16084.8
890.083	19845.4
893.89	13259.3
897.695	7805.35
901.499	4474.52
905.301	2948.75
909.102	2098.13
912.9	1617.89
916.697	1174.34
920.492	1532.43
924.285	1313.88
928.077	1111.26
931.867	922.539
935.655	591.691
939.442	634.648
943.226	366.402
947.009	615.23
950.791	704.781
954.57	682.246
958.348	471.215
962.124	399.633
965.899	568.648
969.671	496.07
973.442	434.293
977.211	193.527
980.979	276.199
984.745	648.102
988.509	643.117
992.271	417.598
996.032	386.875
999.791	770.547
1003.55	305.316
1007.3	408.66
1011.06	313.438
1014.81	452.535
1018.56	189.344
1022.31	339.402
1026.06	711.758
1029.8	664.77
1033.55	832.961
1037.29	793.469
1041.03	455.969
1044.77	479.555
1048.5	825.469
1052.24	662.141
1055.97	739.223
1059.7	366.555
1063.43	331.766
1067.16	612.223
1070.89	650.137
1074.61	417.438
1078.34	178.648
1082.06	300.43
1085.78	107.234
1089.5	169.352
1093.21	37.191
1096.93	45.09
1100.64	77
1104.35	215.75
1108.06	203.23
1111.77	314.742
1115.48	225.957
1119.18	33.121
1122.89	159.418
1126.59	59.172
1130.29	80.512
1133.99	142.59
1137.68	63.883
1141.38	52.367
1145.07	3.379
1148.76	80.98
1152.45	98.254
1156.14	34.84
1159.83	415.379
1163.51	71.562
1167.19	295.82
1170.88	178.465
1174.56	297.684
1178.23	78.141
1181.91	600.094
1185.59	171.414
1189.26	130.57
1192.93	234.129
1196.6	553.008
1200.27	256.73
1203.94	691.699
1207.6	145.402
1211.27	424.062
1214.93	397.328
1218.59	443.379
1222.25	250.203
1225.9	302.82
1229.56	768.211
1233.21	703.359
1236.86	515.234
1240.51	649.426
1244.16	513.109
1247.81	373.129
1251.45	518.461
1255.1	654.391
1258.74	771.512
1262.38	639.168
1266.02	546.195
1269.66	441.375
1273.29	452.102
1276.93	413.652
1280.56	494.027
1284.19	441.504
1287.82	509.84
1291.45	424.258
1295.07	312.355
1298.7	316.883
1302.32	351.453
1305.94	538.266
1309.56	450.199
1313.18	78.777
1316.8	367.773
1320.41	105.402
1324.02	82.832
1327.63	39.902
1331.24	422.297
1334.85	374.57
1338.46	163.73
1342.06	356.957
1345.67	415.41
1349.27	592.461
1352.87	571.902
1356.47	548.371
1360.07	795.258
1363.66	907.648
1367.25	591.168
1370.85	509.848
1374.44	488.469
1378.03	454.758
1381.61	390.211
1385.2	565.961
1388.78	340.43
1392.37	489.289
1395.95	631.898
1399.53	338.988
1403.1	338.684
1406.68	220.594
1410.26	63.496
1413.83	381.602
1417.4	292.289
1420.97	315.27
1424.54	383.27
1428.1	298.742
1431.67	433.012
1435.23	573.375
1438.8	325.828
1442.36	242.238
1445.91	328.441
1449.47	129.121
1453.03	314.598
1456.58	304.527
1460.13	604.52
1463.68	577.75
1467.23	13.867
1470.78	428.426
1474.33	200.074
