Measurement: Raman, 514 nm, ccw, Raman Data Processed
Mineral: Adamite
Rruff sample: R050020
Ideal chemistry: Zn^2+^_2_As^5+^O_4_(OH)
Locality: Mina Ojuela, Mapimi, Durango, Mexico
Source: Eugene Schlepp
Description: Light green prismatic crystal
Measured chemistry: (Zn_1.97_Cu_0.03_)_Σ=2_((As_0.98_P_0.02_)_Σ=1_O_4_)(OH)
Pin_id: L00511
Orientation: Laser parallel to a* (1 0 0). Fiducial mark perpendicular to laser is parallel to b [0 1 0]
Raman shift (cm-1)	intensity
126.031	0
130.217	2067.51
134.4	3703.43
138.581	3944.86
142.76	2799.9
146.937	1550.38
151.112	16.848
155.284	107.52
159.454	206.609
163.622	193.303
167.787	377.471
171.951	1130.55
176.112	1513.11
180.271	567.557
184.428	211.455
188.583	810.051
192.735	471.564
196.885	157.623
201.033	804.205
205.179	1599.46
209.323	1871.35
213.464	1654.35
217.603	1656.67
221.741	1465.97
225.875	1308.27
230.008	1830.4
234.139	2264.93
238.267	1448.52
242.393	1064.33
246.517	1606.4
250.639	2660.28
254.759	1952.77
258.876	1453.72
262.991	1448.72
267.104	1386.56
271.215	543.041
275.324	388.033
279.431	651.555
283.535	481.891
287.638	51.037
291.738	191.83
295.836	352.102
299.932	113.131
304.025	119.572
308.117	324.395
312.206	836.533
316.293	1285.08
320.378	1268.87
324.461	1455.8
328.542	1412.97
332.621	770.16
336.697	175.586
340.772	144.98
344.844	799.119
348.914	739.174
352.982	141.691
357.048	625.992
361.111	1176.31
365.173	1369.41
369.232	2268.78
373.29	4555.72
377.345	5399.81
381.398	2741.3
385.449	741.396
389.497	880.66
393.544	1181.85
397.589	1069.04
401.631	1064.58
405.672	2026.14
409.71	3369.48
413.746	3184.35
417.78	2236.3
421.812	2027.59
425.842	2068.21
429.869	1410.53
433.895	288.039
437.918	261.188
441.94	773.197
445.959	448.844
449.976	252.627
453.991	284.33
458.004	447.877
462.015	571.684
466.024	119.156
470.031	59.131
474.035	423.381
478.038	714.242
482.038	562.471
486.037	479.875
490.033	56.703
494.027	342.535
498.019	571.207
502.009	52.119
505.997	214.982
509.983	507.975
513.967	758.877
517.949	225.484
521.929	165.074
525.906	513.824
529.882	1315.18
533.855	1396.44
537.827	1297.68
541.796	1149.1
545.764	1070.45
549.729	1362.24
553.692	662.91
557.653	260.926
561.612	332.863
565.569	985.004
569.524	457.316
573.477	29.922
577.428	132.879
581.377	266.238
585.324	700.031
589.269	384.25
593.212	144.758
597.152	193.691
601.091	908.484
605.028	1161.8
608.962	352.031
612.895	112.023
616.825	264.98
620.754	1045.56
624.68	784.105
628.605	298.473
632.527	176.695
636.447	748.242
640.366	1200.32
644.282	902.156
648.196	215.906
652.109	55.848
656.019	922.945
659.927	1167.12
663.834	976.582
667.738	454.652
671.64	149.73
675.54	822.891
679.439	1300.26
683.335	971.219
687.229	213.68
691.121	387.707
695.012	953.32
698.9	1480.56
702.786	1309.43
706.67	149.992
710.552	389.457
714.433	943.449
718.311	1379.17
722.187	1249.31
726.061	628.465
729.934	377.141
733.804	619.832
737.672	1534.35
741.539	1440.7
745.403	736.371
749.265	56.469
753.126	611.785
756.984	1460.97
760.84	1636.99
764.695	848.859
768.547	296.27
772.398	668.797
776.246	968.734
780.093	1405.69
783.937	1449.4
787.78	526.762
791.621	1150.23
795.459	2445.82
799.296	4633.77
803.131	4753.79
806.964	3996.04
810.795	4560.48
814.623	7957.44
818.45	11406.9
822.275	10269.1
826.098	7023.43
829.92	5139.97
833.739	6448.81
837.556	9829.81
841.371	16086.5
845.184	20261.2
848.996	15124.5
852.805	9646.1
856.613	6606.05
860.418	5230.96
864.222	4806.65
868.023	4233.61
871.823	3793.42
875.621	4105.77
879.417	7379.79
883.211	14325.9
887.003	22814.2
890.793	21646.6
894.581	12459.1
898.367	7003.9
902.152	5250.86
905.934	4169.84
909.714	3170.73
913.493	2553.43
917.27	1337.39
921.044	733.848
924.817	1332.05
928.588	1652.03
932.357	2243.84
936.124	1287.36
939.889	562.48
943.652	389.23
947.414	1147.51
951.173	1719.35
954.931	1964.12
958.686	1256.84
962.44	675.348
966.192	54.527
969.942	134.566
973.69	719.348
977.436	1342.49
981.18	990.094
984.922	282.055
988.663	166.801
992.401	272.59
996.138	222.414
999.873	972.641
1003.61	1191.3
1007.34	1126.89
1011.07	105.375
1014.79	293.258
1018.52	502.152
1022.24	1424.77
1025.96	1881.81
1029.68	1524.27
1033.4	674.348
1037.12	49.766
1040.83	121.246
1044.54	764.844
1048.25	1593.98
1051.96	1959.57
1055.67	1177.96
1059.37	867.016
1063.08	440.703
1066.78	470.855
1070.48	930.043
1074.17	1648.15
1077.87	1926
1081.56	1466.95
1085.26	984.227
1088.94	146.172
1092.63	279.449
1096.32	652.016
1100	901.102
1103.69	1768.14
1107.37	1381.02
1111.05	312.656
1114.72	142.172
1118.4	536.855
1122.07	388.602
1125.74	645.582
1129.41	1347.42
1133.08	1279.11
1136.75	1210.99
1140.41	433.992
1144.07	92.934
1147.73	172.43
1151.39	428.914
1155.05	1337.62
1158.7	1563.83
1162.36	1434.16
1166.01	619.301
1169.66	130.309
1173.3	122.629
1176.95	40.344
1180.59	479.719
1184.24	1277.42
1187.88	1378.04
1191.52	950.23
1195.15	436.992
1198.79	376.496
1202.42	370.281
1206.05	394.996
1209.68	935.828
1213.31	1805.68
1216.93	1902.63
1220.56	1760.69
1224.18	1287.37
1227.8	679.262
1231.42	368.371
1235.04	356.191
1238.65	870.066
1242.26	1383.98
1245.88	2256.8
1249.48	1994.34
1253.09	1451.89
1256.7	1004.3
1260.3	533.172
1263.9	58.582
1267.51	578.512
1271.11	874.926
1274.7	1525.36
1278.3	1869.36
1281.89	1733.78
1285.48	933.848
1289.07	457.41
1292.66	301.441
1296.25	144.5
1299.83	211.527
1303.41	841.887
1306.99	1607.97
1310.57	1499.38
1314.15	1526.21
1317.73	1078.4
1321.3	258.25
1324.87	80.82
1328.44	174.578
1332.01	6.371
1335.58	478.098
1339.14	1234.79
1342.71	1583.5
1346.27	1809.2
1349.83	1703.78
1353.39	775.727
1356.94	627.43
1360.5	88.793
1364.05	149.441
1367.6	933.562
1371.15	673.176
1374.7	1461.28
1378.24	2098.66
1381.79	2121.76
1385.33	2040.73
1388.87	1499.02
1392.41	896.48
1395.95	545.055
1399.48	334.898
1403.02	757.316
1406.55	788.422
1410.08	1530.26
1413.61	2100.59
1417.13	2253.7
1420.66	2261.2
1424.18	1822.88
1427.7	1290.28
1431.22	733.148
1434.74	518.168
1438.26	26.125
1441.77	300.672
1445.28	990.297
1448.79	1542.32
1452.3	1920.81
1455.81	2047.04
1459.32	2079.73
1462.82	1930.91
1466.32	1563.29
1469.82	858.156
1473.32	397.676
1476.82	31.078
1480.32	262.875
1483.81	316.094
1487.3	855.133
1490.79	1479.31
1494.28	1949.89
1497.77	1875.09
1501.25	1837.1
1504.74	1860.57
1508.22	1270.85
1511.7	0
