Measurement: Raman, 514 nm, ccw, Raman Data Processed
Mineral: Adamite
Rruff sample: R050020
Ideal chemistry: Zn^2+^_2_As^5+^O_4_(OH)
Locality: Mina Ojuela, Mapimi, Durango, Mexico
Source: Eugene Schlepp
Description: Light green prismatic crystal
Measured chemistry: (Zn_1.97_Cu_0.03_)_Σ=2_((As_0.98_P_0.02_)_Σ=1_O_4_)(OH)
Pin_id: L00404
Orientation: Laser parallel to -b* (0 -1 0). Fiducial mark perpendicular to laser is parallel to c [0 0 1]
Raman shift (cm-1)	intensity
119.05	0
123.24	866.269
127.427	1500.88
131.612	2745.16
135.794	4541.35
139.975	3733.53
144.153	1511
148.329	321.529
152.503	339.357
156.674	183.813
160.843	57.662
165.011	415.977
169.175	886.213
173.338	1127.15
177.499	840.864
181.657	508.793
185.813	206.19
189.967	326.762
194.119	290.216
198.268	557.351
202.415	330.932
206.561	469.831
210.703	1161.68
214.844	858.977
218.983	86.325
223.119	283.104
227.253	1269.69
231.385	1652.23
235.515	652.068
239.643	585.119
243.768	849.947
247.891	1011.99
252.012	1264.05
256.131	1537.27
260.248	1163.24
264.363	484.952
268.475	346.94
272.585	699.041
276.693	531.291
280.799	72.733
284.903	133.569
289.005	714.416
293.104	559.292
297.201	84.527
301.296	265.937
305.389	946.236
309.48	1214.68
313.569	1642.89
317.655	2760.3
321.74	3254.85
325.822	2669.83
329.902	1074.01
333.98	679.358
338.056	634.681
342.129	191.568
346.201	203.446
350.27	43.463
354.337	424.815
358.402	135.535
362.465	45.52
366.526	914.146
370.585	2047.33
374.642	2860.33
378.696	2043.12
382.748	1235.64
386.799	948.139
390.847	230.477
394.893	117.32
398.936	404.175
402.978	1131.88
407.018	1475.07
411.055	1394.43
415.091	1740.43
419.124	2090.66
423.155	1211.81
427.184	501.573
431.211	519.335
435.236	743.891
439.259	565.356
443.28	46.29
447.298	5.565
451.315	583.199
455.329	571.056
459.341	164.019
463.352	101.323
467.36	803.562
471.366	1258.05
475.37	1144.23
479.372	1049.1
483.371	1304.98
487.369	1446.06
491.365	946.199
495.358	221.482
499.35	157.322
503.339	722.377
507.326	674.416
511.311	23.061
515.295	6.646
519.276	565.687
523.255	947.804
527.232	614.421
531.207	381.032
535.179	914.781
539.15	1438.4
543.119	1301.89
547.086	613.213
551.05	221.197
555.013	563.275
558.973	767.738
562.932	350.576
566.888	86.775
570.842	145.543
574.795	667.746
578.745	479.793
582.693	101.596
586.639	66.734
590.583	324.711
594.525	794.199
598.465	553.66
602.403	22.174
606.339	70.619
610.273	544.201
614.205	932.285
618.135	459.166
622.063	81.104
625.989	10.172
629.912	630.752
633.834	811.674
637.754	272.561
641.671	96.492
645.587	114.453
649.501	765.518
653.412	896.666
657.322	227.221
661.23	7.521
665.135	259.254
669.039	665.656
672.94	884.48
676.84	305.795
680.738	71.463
684.633	281.887
688.527	785.574
692.418	729.615
696.308	124.041
700.195	201.195
704.081	203.732
707.964	628.912
711.846	434.24
715.726	179.844
719.603	28.943
723.479	393.9
727.352	1000.65
731.224	1042.24
735.094	869.898
738.961	616.861
742.827	918.719
746.691	1236.56
750.552	1480.85
754.412	1038.97
758.27	428.588
762.125	464.426
765.979	1121.72
769.831	1604.52
773.681	1360.27
777.529	1198.21
781.375	1411.45
785.219	2630.53
789.06	4316.68
792.901	6254.57
796.739	9166.63
800.575	12944.8
804.409	15169
808.241	15358.5
812.071	18347
815.899	24718.6
819.726	26501.2
823.55	18991.9
827.372	13646.1
831.193	11898.2
835.011	12531.7
838.828	15251.6
842.642	20602
846.455	22736.8
850.266	16935.5
854.075	11227.2
857.881	7550.69
861.686	4586.09
865.489	3168.03
869.29	3318.49
873.089	3942.18
876.886	5226.79
880.682	7062.27
884.475	11438.6
888.266	16366.7
892.056	14225
895.843	9156.91
899.629	5897.74
903.413	3678.97
907.194	2081.04
910.974	1433.86
914.752	1467.48
918.528	1731.96
922.302	1847.21
926.074	963.355
929.844	600.314
933.613	218.049
937.379	646.59
941.144	955.85
944.906	1685.93
948.667	1536.72
952.426	738.254
956.183	170.51
959.938	473.543
963.691	772.744
967.442	1020.52
971.191	955.535
974.939	311.148
978.684	130.898
982.428	116.08
986.169	467.641
989.909	627.527
993.647	495.869
997.383	317.004
1001.12	136.133
1004.85	131.691
1008.58	129.537
1012.31	880.279
1016.03	1220.27
1019.76	1009.09
1023.48	567.848
1027.2	61.793
1030.92	154.998
1034.64	300.191
1038.36	927.523
1042.07	1288.34
1045.78	724.719
1049.49	427.359
1053.2	63.705
1056.9	189.047
1060.61	714.648
1064.31	1074.23
1068.01	1251.43
1071.71	927.625
1075.41	562
1079.1	91.059
1082.79	259.848
1086.48	786.643
1090.17	1333.86
1093.86	1041.93
1097.55	880.51
1101.23	457.84
1104.91	37.1
1108.59	330.426
1112.27	114.178
1115.95	632.379
1119.62	1137.53
1123.3	802.951
1126.97	350.068
1130.63	32.291
1134.3	10.926
1137.97	144.762
1141.63	458.768
1145.29	758.605
1148.95	892.869
1152.61	615.627
1156.27	108.557
1159.92	75.07
1163.57	42.375
1167.22	519.648
1170.87	718.691
1174.52	1145.89
1178.16	1064.64
1181.81	669.25
1185.45	3.703
1189.09	235.689
1192.73	99.574
1196.36	447.734
1200	972.678
1203.63	1338.26
1207.26	1032.48
1210.89	707.57
1214.52	442.328
1218.14	7.434
1221.77	148.84
1225.39	589.811
1229.01	1231.09
1232.62	1273.11
1236.24	1242.28
1239.86	890.908
1243.47	361.316
1247.08	189.75
1250.69	77.186
1254.3	393.451
1257.9	866.158
1261.5	935.16
1265.11	1229.21
1268.71	1063.06
1272.3	844.182
1275.9	551.633
1279.49	91.119
1283.09	31.07
1286.68	280.971
1290.27	617.771
1293.86	1136.12
1297.44	1170.99
1301.03	1086.22
1304.61	493.213
1308.19	221.293
1311.77	34.303
1315.34	2.334
1318.92	333.465
1322.49	555.605
1326.06	975.088
1329.63	1105.6
1333.2	1123.58
1336.77	838.879
1340.33	492.221
1343.89	158.311
1347.46	94.664
1351.02	88.627
1354.57	353.066
1358.13	776.869
1361.68	1293.33
1365.23	1285.51
1368.79	1010.56
1372.33	983.588
1375.88	570.598
1379.43	319.809
1382.97	37.811
1386.51	151.586
1390.05	330.02
1393.59	742.32
1397.13	1097.35
1400.66	1402.72
1404.19	1263.1
1407.72	1143.17
1411.25	956.203
1414.78	615.74
1418.31	203.773
1421.83	310.152
1425.36	151.648
1428.88	478.293
1432.39	698.295
1435.91	1221.88
1439.43	1493.16
1442.94	1377.03
1446.45	1035.85
1449.96	852.604
1453.47	579.072
1456.98	216.707
1460.48	15.176
1463.99	70.756
1467.49	117.137
1470.99	344.762
1474.49	970.477
1477.99	1189.3
1481.48	1228.33
1484.97	1218.36
1488.46	1018.76
1491.95	600.809
1495.44	225.076
1498.93	155.664
1502.41	2.15
1505.9	8.457
1509.38	139.471
1512.86	0
