Measurement: Raman, 514 nm, ccw, Raman Data Processed
Mineral: Adamite
Rruff sample: R040130
Ideal chemistry: Zn^2+^_2_As^5+^O_4_(OH)
Locality: Mina Ojuela, Mapimi, Durango, Mexico
Source: Bob Downs
Description: Pale yellow spherical aggregate of bladed crystals
Measured chemistry: Zn_1.97_(As_1.01_O_4_)(OH)
Pin_id: S00233
Orientation: Laser parallel to -a* (-1 0 0). Fiducial mark perpendicular to laser is parallel to b [0 1 0]
Raman shift (cm-1)	intensity
110.082	0
114.254	117.5
118.424	358.943
122.592	1298.99
126.758	3017.31
130.922	5123.44
135.083	7287.15
139.243	6335.2
143.401	3525.82
147.557	1443.45
151.711	436.731
155.863	380.793
160.013	371.226
164.161	560.879
168.308	1196.43
172.452	2196.74
176.594	1129.44
180.734	487.44
184.872	319.496
189.008	305.201
193.143	403.704
197.275	493.812
201.405	842.58
205.534	1872.99
209.66	2446.34
213.784	1784.92
217.907	1226.94
222.027	1159.1
226.146	1617.19
230.263	1935.12
234.377	1579.85
238.49	1182.36
242.601	1207.18
246.709	1779.16
250.816	2353.31
254.921	1659.63
259.024	1131.12
263.125	863.816
267.224	654.766
271.321	305.003
275.416	94.578
279.51	56.398
283.601	143.334
287.69	51.343
291.778	111.962
295.863	85.287
299.947	141.637
304.029	90.299
308.108	164.845
312.186	235.476
316.262	916.014
320.336	1972.32
324.408	2061.64
328.478	1126.85
332.546	164.056
336.612	185.226
340.677	70.36
344.739	167.374
348.799	270.302
352.858	312.315
356.915	546.46
360.969	1016.14
365.022	1846.91
369.073	4232.38
373.122	7634.69
377.169	6148.17
381.215	2729.34
385.258	1327.15
389.299	917.447
393.339	850.732
397.376	1191.48
401.412	1985.99
405.446	3183.28
409.478	4494.35
413.508	4467.24
417.536	3358.96
421.562	2296.91
425.586	1511.93
429.609	894.214
433.629	545.835
437.648	494.521
441.665	178.981
445.68	119.479
449.693	37.934
453.704	192.426
457.713	13.451
461.721	213.232
465.726	36.178
469.73	149.973
473.731	112.512
477.731	74.898
481.729	242.189
485.725	181.414
489.72	246.596
493.712	388.084
497.703	233.092
501.691	160.459
505.678	63.922
509.663	135.873
513.646	216.119
517.627	374.666
521.607	288.551
525.584	440.668
529.56	961.059
533.534	1335.77
537.506	1680.22
541.476	1528.99
545.444	1109.81
549.41	733.684
553.375	649.582
557.337	534.133
561.298	567.73
565.257	388.842
569.214	363.473
573.17	446.34
577.123	210.062
581.075	289.363
585.024	174.258
588.972	566.766
592.918	337.939
596.863	293.814
600.805	211.459
604.746	580.377
608.685	438.885
612.621	167.768
616.557	259.799
620.49	163.92
624.421	341.287
628.351	151.254
632.279	119.162
636.205	451.539
640.129	184.68
644.051	152.76
647.972	310.793
651.89	335.816
655.807	76.879
659.722	283.109
663.636	320.652
667.547	52.533
671.457	152.6
675.365	190.77
679.271	196.045
683.175	287.475
687.077	41.018
690.978	103.691
694.877	24.619
698.774	262.164
702.669	158.879
706.562	259.168
710.454	25.748
714.344	312.439
718.232	224.787
722.118	228.371
726.002	197.225
729.885	314.279
733.766	286.562
737.645	282.113
741.522	325.936
745.397	270.037
749.271	124.424
753.143	293.102
757.013	391.07
760.881	13.336
764.748	32.07
768.613	332.906
772.476	500.393
776.337	417.355
780.196	522.719
784.054	753.371
787.91	1304.7
791.764	1763.4
795.616	2966.35
799.467	4240.54
803.316	5065.98
807.163	5049.67
811.008	6438.62
814.851	11144.8
818.693	15852.3
822.533	12004
826.371	7688.86
830.208	6751.17
834.042	7777.37
837.875	12877.7
841.706	22736
845.536	28473.9
849.363	17429.4
853.189	10259.2
857.013	6926.46
860.836	5172.78
864.656	3940.85
868.475	3714.64
872.292	4014.59
876.108	5103.19
879.922	8408.8
883.733	16480
887.544	31616
891.352	31700.2
895.159	17429.4
898.964	9470.75
902.767	6032.1
906.568	4009.43
910.368	2961.7
914.166	2585.86
917.962	1968.54
921.757	1531.39
925.55	1340.08
929.341	1085.56
933.13	922.822
936.918	1045.98
940.703	643.896
944.488	617.26
948.27	342.244
952.051	453.82
955.83	441.289
959.607	280.307
963.383	281.92
967.156	261.863
970.928	78.631
974.699	255.258
978.468	97.404
982.234	276.211
986	58.678
989.763	23.148
993.525	165.932
997.285	271.383
1001.04	58.871
1004.8	94.838
1008.55	73.168
1012.31	293.854
1016.06	300.145
1019.81	35.27
1023.56	165.859
1027.31	184.109
1031.05	129.203
1034.79	235.225
1038.53	372.805
1042.27	279.898
1046.01	232.377
1049.75	159.107
1053.48	133.119
1057.22	179.275
1060.95	207.561
1064.68	268.131
1068.4	102.025
1072.13	89.666
1075.86	222.533
1079.58	63.625
1083.3	213.09
1087.02	84.283
1090.74	98.303
1094.45	128.74
1098.17	59.375
1101.88	114.213
1105.59	83.539
1109.3	38.977
1113.01	18.756
1116.71	55.6
1120.42	83.752
1124.12	69.816
1127.82	56.48
1131.52	34.049
1135.22	59.967
1138.91	10.645
1142.61	101.975
1146.3	5.715
1149.99	72.424
1153.68	44.068
1157.37	53.74
1161.06	41.311
1164.74	31.238
1168.42	3.859
1172.1	36.496
1175.78	176.277
1179.46	110.135
1183.14	96.307
1186.81	184.586
1190.48	9.367
1194.15	0.09
1197.83	241.707
1201.49	246.227
1205.16	199.459
1208.82	229.443
1212.49	377.188
1216.15	216.75
1219.81	143.049
1223.46	289.018
1227.12	74.717
1230.78	187.135
1234.43	282.139
1238.08	314.824
1241.73	317.412
1245.38	296.703
1249.03	407.734
1252.67	372.186
1256.31	246.078
1259.95	131.061
1263.6	381.801
1267.23	289.352
1270.87	372.641
1274.51	323.291
1278.14	391.264
1281.77	222.686
1285.4	282.965
1289.03	336.012
1292.66	289.807
1296.28	196.754
1299.91	264.824
1303.53	249.881
1307.15	272.656
1310.77	222.295
1314.38	341.834
1318	136.99
1321.61	118.668
1325.23	447.201
1328.84	222.475
1332.45	172.754
1336.06	217.336
1339.66	385.252
1343.27	220.666
1346.87	377.475
1350.47	408.682
1354.07	545.059
1357.67	573.752
1361.26	344.729
1364.86	448.836
1368.45	532.668
1372.04	422.213
1375.63	526.322
1379.22	554.023
1382.81	523.662
1386.39	388.988
1389.98	430.842
1393.56	562.441
1397.14	364.059
1400.72	419.525
1404.3	351.658
1407.87	379.373
1411.45	345.883
1415.02	525.564
1418.59	555.523
1422.16	388.24
1425.73	430.805
1429.29	386.938
1432.86	339.727
1436.42	454.713
1439.98	516.781
1443.54	344.541
1447.1	404.529
1450.66	662.723
1454.21	537.613
1457.77	535.137
1461.32	394.07
1464.87	192.479
1468.42	314.982
1471.96	126.305
1475.51	147.191
1479.06	230.426
1482.6	158.268
1486.14	132.018
1489.68	41.689
1493.22	202.229
1496.75	168.609
