Measurement: Raman, 514 nm, ccw, Raman Data Processed
Mineral: Adamite
Rruff sample: R050020
Ideal chemistry: Zn^2+^_2_As^5+^O_4_(OH)
Locality: Mina Ojuela, Mapimi, Durango, Mexico
Source: Eugene Schlepp
Description: Light green prismatic crystal
Measured chemistry: (Zn_1.97_Cu_0.03_)_Σ=2_((As_0.98_P_0.02_)_Σ=1_O_4_)(OH)
Pin_id: L00511
Orientation: Laser parallel to a* (1 0 0). Fiducial mark perpendicular to laser is parallel to b [0 1 0]
Raman shift (cm-1)	intensity
121.843	0
126.031	743.26
130.217	1735.69
134.4	1838.2
138.581	1726.14
142.76	1472.79
146.937	599.988
151.112	114.037
155.284	399.008
159.454	556.293
163.622	15.984
167.787	381.906
171.951	1003.93
176.112	829.982
180.271	191.865
184.428	491.961
188.583	681.398
192.735	177.041
196.885	182.756
201.033	807.973
205.179	779.256
209.323	813.318
213.464	906.662
217.603	1198.77
221.741	559.139
225.875	467.641
230.008	1388.09
234.139	1480.35
238.267	783.293
242.393	377.129
246.517	1386.57
250.639	1817.43
254.759	1246.33
258.876	1089.47
262.991	1326.73
267.104	941.746
271.215	175.928
275.324	709.338
279.431	934.717
283.535	427.689
287.638	91.459
291.738	342.256
295.836	628.611
299.932	95.16
304.025	209.518
308.117	795.328
312.206	1089.57
316.293	1181.03
320.378	1133.61
324.461	1455.22
328.542	1065.78
332.621	195.539
336.697	95.875
340.772	271.305
344.844	457.002
348.914	89.006
352.982	186.717
357.048	576.9
361.111	486.352
365.173	74.473
369.232	511.01
373.29	1606.2
377.345	1619.2
381.398	530.973
385.449	92.275
389.497	553.055
393.544	533.053
397.589	11.227
401.631	77.254
405.672	1150.3
409.71	1484.03
413.746	917.508
417.78	710.766
421.812	1284.48
425.842	1406.35
429.869	777.799
433.895	162.828
437.918	611.674
441.94	1130.38
445.959	663.496
449.976	196.121
453.991	490.787
458.004	1210.52
462.015	1060.35
466.024	535.162
470.031	638.676
474.035	1648.72
478.038	1775.77
482.038	1215.56
486.037	645.244
490.033	1174.86
494.027	1406.47
498.019	1045.91
502.009	304.578
505.997	625.768
509.983	1298.37
513.967	1278.13
517.949	388.863
521.929	357.645
525.906	1110.88
529.882	1611.93
533.855	978.406
537.827	983.379
541.796	1185.63
545.764	1400.43
549.729	1316.74
553.692	507.082
557.653	278.805
561.612	986.352
565.569	1303.46
569.524	289.762
573.477	16.781
577.428	254.539
581.377	923.051
585.324	1052.34
589.269	121.355
593.212	30.777
597.152	592.723
601.091	1284.18
605.028	994.074
608.962	69.07
612.895	115.309
616.825	972.254
620.754	1341.08
624.68	751.188
628.605	72.602
632.527	144.879
636.447	1148.61
640.366	933.156
644.282	568.848
648.196	25.711
652.109	153.824
656.019	1173.3
659.927	1054.44
663.834	327.281
667.738	12.074
671.64	218.758
675.54	1077.19
679.439	1087.16
683.335	278.777
687.229	198.055
691.121	356.48
695.012	942.605
698.9	1090.09
702.786	538.941
706.67	540.629
710.552	321.102
714.433	1074.71
718.311	1009.74
722.187	496.312
726.061	254.383
729.934	453.977
733.804	1285.11
737.672	1406.82
741.539	1071.1
745.403	96.941
749.265	194.383
753.126	923.41
756.984	1454.04
760.84	1226.32
764.695	460.188
768.547	315.645
772.398	1197.8
776.246	1636.3
780.093	1702.27
783.937	1254.07
787.78	933.375
791.621	2314.61
795.459	4891.14
799.296	8419.24
803.131	7588.96
806.964	6430.3
810.795	7083.43
814.623	11168.6
818.45	15115.8
822.275	12704.7
826.098	7675.25
829.92	5294.62
833.739	6198.34
837.556	8783.2
841.371	12685
845.184	14302.7
848.996	10209.5
852.805	6220.65
856.613	4883.95
860.418	3930.05
864.222	3288.22
868.023	2340.92
871.823	2009.57
875.621	2128.22
879.417	4039.94
883.211	7733.13
887.003	11147.8
890.793	9796.86
894.581	5554.35
898.367	3363.5
902.152	3134.21
905.934	2896.16
909.714	2069.28
913.493	1393.55
917.27	549
921.044	475.547
924.817	1353.21
928.588	1842.01
932.357	1931.98
936.124	722.945
939.889	194.906
943.652	247.891
947.414	1531.82
951.173	2149.62
954.931	1765.35
958.686	834.363
962.44	148.77
966.192	161.262
969.942	920.215
973.69	1173.69
977.436	1330.84
981.18	500.438
984.922	113.008
988.663	259.746
992.401	176.895
996.138	586.176
999.873	1350.39
1003.61	1199.07
1007.34	568.688
1011.07	66.398
1014.79	192.273
1018.52	800.938
1022.24	2048.57
1025.96	2125.82
1029.68	1357.46
1033.4	467.164
1037.12	34.961
1040.83	456.945
1044.54	1108.48
1048.25	1839.11
1051.96	1795.27
1055.67	914.059
1059.37	453.469
1063.08	566.207
1066.78	684.523
1070.48	1360.83
1074.17	1900.49
1077.87	1687.84
1081.56	1273.31
1085.26	630.348
1088.94	396.766
1092.63	413.922
1096.32	993.172
1100	1616.79
1103.69	1860.96
1107.37	990.973
1111.05	205.809
1114.72	346.871
1118.4	75.723
1122.07	927.426
1125.74	1195.68
1129.41	1284.12
1133.08	1219.45
1136.75	1030.64
1140.41	401.438
1144.07	2.508
1147.73	356.637
1151.39	1102.55
1155.05	1423.79
1158.7	1634.93
1162.36	1156.47
1166.01	303.168
1169.66	139.75
1173.3	79.797
1176.95	443.484
1180.59	995.82
1184.24	1508.67
1187.88	986.863
1191.52	657.637
1195.15	154.137
1198.79	406.23
1202.42	367.441
1206.05	563.109
1209.68	1479.09
1213.31	2258.02
1216.93	2054.89
1220.56	1572.57
1224.18	968.844
1227.8	517.766
1231.42	551.574
1235.04	601.641
1238.65	1320.67
1242.26	2038.38
1245.88	2494.34
1249.48	1819.54
1253.09	1480.88
1256.7	915.953
1260.3	333.406
1263.9	189.707
1267.51	747.852
1271.11	1318.47
1274.7	1785.63
1278.3	1979.26
1281.89	1527.37
1285.48	650.039
1289.07	269.961
1292.66	98.766
1296.25	37.777
1299.83	484.809
1303.41	1449.97
1306.99	1905.32
1310.57	1759.34
1314.15	1380.17
1317.73	803.059
1321.3	205.254
1324.87	38.266
1328.44	81.633
1332.01	130.07
1335.58	771.355
1339.14	1485.58
1342.71	2096
1346.27	1877.13
1349.83	1409.97
1353.39	337.707
1356.94	258.688
1360.5	31.648
1364.05	62.828
1367.6	491.152
1371.15	1153.37
1374.7	2058.98
1378.24	2511.48
1381.79	2028.11
1385.33	1882.21
1388.87	1217.35
1392.41	489.469
1395.95	401.328
1399.48	511.047
1403.02	987.75
1406.55	1160.97
1410.08	1840.97
1413.61	2137.25
1417.13	2245.21
1420.66	2040.68
1424.18	1471.43
1427.7	904.988
1431.22	378.57
1434.74	204.484
1438.26	26.672
1441.77	262.641
1445.28	1038.5
1448.79	1747.89
1452.3	2152.52
1455.81	2186.98
1459.32	2232.66
1462.82	1878.41
1466.32	1316.46
1469.82	592.293
1473.32	176.164
1476.82	18.457
1480.32	496.227
1483.81	441.594
1487.3	1121.41
1490.79	1810.98
1494.28	2058.15
1497.77	2035.36
1501.25	1678.21
1504.74	1448.59
1508.22	0
