Measurement: Raman, 514 nm, ccw, Raman Data Processed
Mineral: Adamite
Rruff sample: R040130
Ideal chemistry: Zn^2+^_2_As^5+^O_4_(OH)
Locality: Mina Ojuela, Mapimi, Durango, Mexico
Source: Bob Downs
Description: Pale yellow spherical aggregate of bladed crystals
Measured chemistry: Zn_1.97_(As_1.01_O_4_)(OH)
Pin_id: S00040
Orientation: Laser parallel to c* (0 0 1). Fiducial mark perpendicular to laser is parallel to a [1 0 0]
Raman shift (cm-1)	intensity
107.3	0
111.473	12.039
115.644	500.529
119.813	822.676
123.981	1769.19
128.146	2928.25
132.309	4764.68
136.47	5650.85
140.63	4808.32
144.787	2795.33
148.942	1180.44
153.096	888.584
157.247	530.803
161.396	543.111
165.544	861.012
169.689	1107.47
173.833	1615.08
177.974	1199.25
182.114	540.484
186.251	586.43
190.387	466.801
194.52	309.951
198.652	801.168
202.782	937.164
206.909	1449.68
211.035	1694.11
215.159	1476.97
219.281	1168.3
223.4	1262.54
227.518	1388.82
231.634	1613.99
235.748	1151.09
239.86	1051.56
243.97	1228.98
248.079	1969.35
252.185	1861.66
256.289	1435
260.391	970.816
264.492	710.789
268.59	626.559
272.687	417.035
276.781	233.428
280.874	0.502
284.964	114.873
289.053	19.83
293.14	81.598
297.225	31.98
301.308	85.262
305.389	53.473
309.468	366.176
313.545	572.066
317.62	1093.47
321.693	1722.59
325.765	1912.7
329.834	1107.61
333.902	667.014
337.967	313.139
342.031	222.969
346.093	177.861
350.153	554.965
354.21	522.768
358.267	844.641
362.321	1358.67
366.373	2662.11
370.423	4805.43
374.471	6756
378.518	4360.82
382.563	2204.86
386.605	1419.1
390.646	859.5
394.685	1052.02
398.722	1610.69
402.757	2156.78
406.79	3215.24
410.821	4159.84
414.851	3783.09
418.878	2946.63
422.904	2111.65
426.927	1732.11
430.949	785.014
434.969	789.457
438.987	343.807
443.003	281.648
447.018	294.191
451.03	215.947
455.041	203.02
459.049	90.736
463.056	78.727
467.061	5.895
471.064	225.756
475.065	147.938
479.064	186.121
483.062	124.346
487.057	41.326
491.051	114.039
495.043	25.207
499.032	265.637
503.02	239.389
507.007	112.242
510.991	160.643
514.973	163.082
518.954	218.045
522.933	308.783
526.91	605.916
530.885	546.395
534.858	1293.25
538.829	1304.5
542.799	918.18
546.766	531.301
550.732	285.893
554.696	202.979
558.658	54.582
562.618	65.549
566.576	224.15
570.533	214.314
574.488	108.402
578.44	180.027
582.391	301.039
586.341	198.551
590.288	83.631
594.233	61.098
598.177	14.893
602.119	6.377
606.059	9.596
609.997	103.404
613.933	42.314
617.868	79.379
621.801	211.312
625.731	234.801
629.66	101.121
633.588	139.449
637.513	2.15
641.437	343.119
645.358	365.494
649.278	72.875
653.196	242.574
657.113	200.143
661.027	225.578
664.94	113.025
668.851	355.436
672.76	456.391
676.667	214.461
680.572	211.455
684.476	460.836
688.378	577.365
692.278	691.59
696.176	578.938
700.072	603.049
703.967	485.092
707.86	344.098
711.751	980.1
715.64	711.842
719.527	899.842
723.413	713.121
727.297	372.451
731.179	693.953
735.059	813.535
738.937	1058.03
742.814	806.535
746.689	752.057
750.562	1147.56
754.433	949.102
758.303	631.826
762.17	776.123
766.036	1186.73
769.901	1026.2
773.763	1143.93
777.624	1091.89
781.482	1117.91
785.339	1133.41
789.195	1263.46
793.048	1285.62
796.9	1892.34
800.75	2192.3
804.598	2376.41
808.445	3748.36
812.289	6147.07
816.132	10906.1
819.973	12609.2
823.813	9268.44
827.65	6700.74
831.486	6261.28
835.32	8300.09
839.152	13178.8
842.983	21700.8
846.812	21997.9
850.639	13566.8
854.464	8758.69
858.288	6148.56
862.11	4821.49
865.93	4211.9
869.748	3918.35
873.564	4359.77
877.379	6406.29
881.192	10136.9
885.004	19395.3
888.813	30016.7
892.621	24603
896.427	13451.1
900.232	7816.13
904.034	5145.92
907.835	4034.52
911.634	3044.93
915.432	2423.11
919.227	1932.04
923.021	1881.73
926.813	1371.11
930.604	1342.1
934.393	1380.71
938.18	824.043
941.965	955.102
945.749	728.396
949.53	822.955
953.311	766.006
957.089	594.244
960.866	614.053
964.641	512.23
968.414	358.859
972.185	499.996
975.955	436.25
979.723	424.289
983.49	11.037
987.254	216.953
991.017	422.82
994.779	553.93
998.538	243.92
1002.3	520.742
1006.05	609.541
1009.81	575.555
1013.56	452.916
1017.31	502.07
1021.06	616.889
1024.81	233.848
1028.55	775.971
1032.3	452.176
1036.04	418.367
1039.78	627.691
1043.52	776.219
1047.26	295.842
1050.99	611.68
1054.73	480.768
1058.46	309.633
1062.19	334.979
1065.92	122.084
1069.65	71.965
1073.37	132.494
1077.1	75.166
1080.82	337.994
1084.54	165.865
1088.26	82.756
1091.97	28.645
1095.69	200.238
1099.4	248.758
1103.12	11.965
1106.83	81.592
1110.54	154.465
1114.24	19.691
1117.95	19.662
1121.65	48.848
1125.35	90.605
1129.06	2.605
1132.75	263.48
1136.45	270.609
1140.15	162.756
1143.84	110.617
1147.53	183.844
1151.22	57.266
1154.91	187.34
1158.6	37.965
1162.28	68.352
1165.97	8.582
1169.65	63.918
1173.33	17.705
1177.01	136.518
1180.69	167.129
1184.36	124.17
1188.04	266.568
1191.71	396.111
1195.38	365.875
1199.05	418.732
1202.71	52.236
1206.38	386.596
1210.04	346.207
1213.71	310.758
1217.37	363.014
1221.03	345.383
1224.68	529.484
1228.34	468.928
1231.99	330.631
1235.65	351.758
1239.3	537.982
1242.95	484.186
1246.59	641.338
1250.24	408.248
1253.88	315.312
1257.53	507.818
1261.17	449.609
1264.81	492.643
1268.45	370.395
1272.08	296.996
1275.72	254.051
1279.35	254.754
1282.98	82.986
1286.61	120.656
1290.24	202.936
1293.87	317.756
1297.49	88.947
1301.11	571.234
1304.73	7.395
1308.36	100.811
1311.97	187.266
1315.59	16.119
1319.2	87.012
1322.82	201.652
1326.43	171.219
1330.04	187.963
1333.65	265.9
1337.26	322.201
1340.86	207.834
1344.47	520.006
1348.07	470.834
1351.67	491.705
1355.27	413.305
1358.87	491.498
1362.46	451.83
1366.06	636.641
1369.65	545.504
1373.24	573.924
1376.83	648.334
1380.42	605.65
1384	662.373
1387.59	629.271
1391.17	435.721
1394.75	380.256
1398.33	405.156
1401.91	314.625
1405.49	296.793
1409.06	333.598
1412.64	256.156
1416.21	482.469
1419.78	373.375
1423.35	314.568
1426.91	175.088
1430.48	158.775
1434.05	330.338
1437.61	322.693
1441.17	232.984
1444.73	10.002
1448.29	323.436
1451.84	232.986
1455.4	67.752
1458.95	266.678
1462.5	134.553
1466.05	302.395
1469.6	245.359
1473.15	248
