Measurement: Raman, 514 nm, ccw, Raman Data Processed
Mineral: Aegirine
Rruff sample: R040054
Ideal chemistry: NaFe^3+^Si_2_O_6_
Locality: Mont Saint-Hilaire, Rouville County, Quebec, Canada
Source: Bob Downs
Description: Black cleavage fragments
Measured chemistry: (Na_0.96_Ca_0.04_)(Fe_0.86_Ti_0.07_Mn_0.06_Mg_0.02_)(Si_0.97_Al_0.03_)_2_O_6_
Pin_id: M00355
Orientation: Laser parallel to [1 0 1]. Fiducial mark perpendicular to laser is parallel to b* (0 1 0)
Raman shift (cm-1)	intensity
171.949	0
176.077	202.621
180.204	830.563
184.328	1671.79
188.45	371.658
192.571	508.259
196.689	942.712
200.806	1580.39
204.921	2169.41
209.033	3503.39
213.144	6093.75
217.253	8089.63
221.36	6303.54
225.465	3479.55
229.568	2021.8
233.67	1206.43
237.769	766.286
241.867	505.213
245.962	230.934
250.056	115.917
254.147	11.356
258.237	1.612
262.325	2.318
266.411	66.189
270.495	137.442
274.577	76.688
278.658	273.573
282.736	423.337
286.812	412.27
290.887	368.923
294.96	415.604
299.03	557.537
303.099	639.991
307.166	688.538
311.232	749.126
315.295	740.656
319.356	710.853
323.416	610.437
327.473	748.478
331.529	1080.59
335.583	1826.1
339.635	3305.04
343.685	4335.73
347.733	4070.84
351.779	2980.93
355.824	2323.72
359.866	2410.85
363.907	3084.97
367.946	4507.2
371.983	5780.06
376.018	5449.56
380.051	5058.92
384.082	6208.16
388.112	7867.15
392.139	8322.71
396.165	7314.62
400.189	3386.89
404.211	1963.68
408.231	1282.73
412.249	897.671
416.266	586.362
420.28	393.329
424.293	265.947
428.304	156.598
432.313	12.961
436.32	18.333
440.326	30.865
444.329	17.465
448.331	29.831
452.331	31.863
456.328	120.591
460.325	186.812
464.319	166.898
468.311	113.681
472.302	40.092
476.291	77.668
480.278	151.423
484.263	329.163
488.246	532.725
492.227	970.54
496.207	2114.27
500.185	3618.61
504.161	3328.67
508.135	2101.3
512.107	1664.41
516.077	1344.15
520.046	1201.73
524.013	1437.78
527.978	1893.17
531.941	2899.48
535.902	4601.22
539.862	8352.89
543.82	14286.5
547.776	16590.1
551.73	13083.7
555.682	9667.41
559.632	8191.44
563.581	6596.1
567.528	5661.12
571.473	4744.69
575.416	4005.98
579.358	3428.56
583.297	2932.74
587.235	2462.94
591.171	1974.27
595.105	1609.33
599.038	1175.48
602.968	795.255
606.897	431.056
610.824	291.872
614.75	160.687
618.673	79.043
622.595	44.71
626.515	51.448
630.433	71.021
634.349	70.604
638.263	31.69
642.176	66.059
646.087	121.526
649.996	169.164
653.904	280.034
657.809	296.523
661.713	380.045
665.615	495.879
669.515	637.08
673.414	962.352
677.311	1577.81
681.205	1691.08
685.099	1150.95
688.99	771.423
692.88	478.507
696.768	372.192
700.654	266.477
704.538	214.351
708.421	148.8
712.301	149.835
716.18	153.008
720.058	144.743
723.933	130.683
727.807	112.247
731.679	118.522
735.549	178.463
739.418	121.049
743.284	133.261
747.149	89.317
751.013	75.488
754.874	110.47
758.734	128.192
762.592	94.152
766.448	30.981
770.302	44.722
774.155	12.135
778.006	109.021
781.855	71.423
785.703	104.233
789.549	92.474
793.393	87.908
797.235	28.88
801.076	47.506
804.914	77.745
808.752	7.64
812.587	24.908
816.421	26.503
820.252	118.711
824.083	121.775
827.911	199.708
831.738	300.525
835.563	430.803
839.386	580.863
843.208	769.16
847.027	977.918
850.845	1215.66
854.662	1477.1
858.476	1582.66
862.289	1839.93
866.101	1942.11
869.91	1978.35
873.718	1837.13
877.524	1521.91
881.328	1290.87
885.131	1056.02
888.932	953.022
892.731	812.262
896.529	731.549
900.325	839.798
904.119	792.023
907.911	808.114
911.702	938.385
915.491	1020.3
919.278	1083.18
923.064	1189.94
926.848	1557.16
930.63	1750.06
934.41	2035.08
938.189	2585.83
941.966	3433.56
945.742	4684.58
949.515	6817.16
953.287	8456.64
957.058	8383
960.827	7877.94
964.594	7143.29
968.359	6039.1
972.122	5225.4
975.884	4463.14
979.645	3454.18
983.403	2892.99
987.16	2408.08
990.915	2017.63
994.669	1796.66
998.421	1660.15
1002.17	1462.14
1005.92	1380.61
1009.67	1293.54
1013.41	1341.92
1017.15	1294.75
1020.9	1309.06
1024.64	1380.87
1028.38	1477.17
1032.11	1934.07
1035.85	2551.29
1039.58	3174.49
1043.31	3977.17
1047.04	3693.51
1050.77	2838.35
1054.5	2440.16
1058.22	2296.26
1061.95	2145.97
1065.67	1932.58
1069.39	1755.24
1073.11	1688.85
1076.82	1682.79
1080.54	1749.09
1084.25	1615.08
1087.96	1556.9
1091.67	1394.96
1095.38	1328.3
1099.09	1345.86
1102.8	1486.82
1106.5	1401.05
1110.2	1458.87
1113.9	1536.57
1117.6	1540.26
1121.3	1473.06
1124.99	1582.79
1128.69	1720.82
1132.38	1782.99
1136.07	1929.61
1139.76	1729.22
1143.45	1371.78
1147.13	889.018
1150.82	510.158
1154.5	204.43
1158.18	74.246
1161.86	27.123
1165.54	4.055
1169.21	23.683
1172.89	71.902
1176.56	88.825
1180.23	93.313
1183.9	43.964
1187.57	19.945
1191.23	59.179
1194.9	27.046
1198.56	28.445
1202.22	35.56
1205.88	36.324
1209.54	28.659
1213.2	35.98
1216.85	26.378
1220.5	22.288
1224.16	97.804
1227.81	36.801
1231.45	128.613
1235.1	116.931
1238.75	39.923
1242.39	70.625
1246.03	90.968
1249.67	87.008
1253.31	91.818
1256.95	94.264
1260.58	126.54
1264.22	46.319
1267.85	99.717
1271.48	110.801
1275.11	157.651
1278.74	99.096
1282.36	111.181
1285.99	102.905
1289.61	107.245
1293.23	197.264
1296.85	126.708
1300.47	97.948
1304.09	127.246
1307.7	154.884
1311.32	88.826
1314.93	48.266
1318.54	96.276
1322.14	123.291
1325.75	188.856
1329.36	150.935
1332.96	53.089
1336.56	58.945
1340.16	101.292
1343.76	69.055
1347.36	76.34
1350.96	68.396
1354.55	98.019
1358.14	163.176
1361.73	138.145
1365.32	127.211
1368.91	100.235
1372.5	94.167
1376.08	70.632
1379.67	54.039
1383.25	145.315
1386.83	138.64
1390.41	92.874
1393.98	107.208
1397.56	141.519
1401.13	135.013
1404.71	164.347
1408.28	65.507
1411.85	54.94
1415.41	62.979
1418.98	27.36
1422.55	88.89
1426.11	71.246
1429.67	98.686
1433.23	159.33
1436.79	85.725
1440.35	91.028
1443.9	42.984
1447.45	58.963
1451.01	107.907
1454.56	38.745
1458.11	55.538
1461.65	36.995
1465.2	74.549
1468.74	122.225
1472.29	131.098
1475.83	96.228
1479.37	86.892
1482.91	99.926
1486.44	15.181
1489.98	87.617
1493.51	7.313
1497.05	92.42
1500.58	68.495
1504.11	5.3
1507.63	48.546
1511.16	51.35
1514.68	87.038
1518.21	136.009
1521.73	108.377
1525.25	100.541
