Measurement: Raman, 514 nm, ccw, Raman Data Processed
Mineral: Aegirine
Rruff sample: R050074
Ideal chemistry: NaFe^3+^Si_2_O_6_
Locality: Mt. Malosa, Zomba, Chilwa, Alkaline Area, Malawi
Source: Rock Currier
Description: Black prismatic single crystal
Measured chemistry: (Na_0.98_Ca_0.02_)_Σ=1_(Fe^3+^_0.96_Ti_0.01_Mn_0.03_)_Σ=1_Si_2.00_O_6_
Pin_id: L00155
Orientation: Laser parallel to -c* (0 0 -1). Fiducial mark perpendicular to laser is parallel to a [1 0 0]
Raman shift (cm-1)	intensity
95.702	0
99.886	45.724
104.069	51.431
108.249	72.915
112.427	427.745
116.603	567.834
120.778	415.969
124.95	426.367
129.119	430.092
133.287	962.92
137.453	950.106
141.617	378.027
145.779	92.72
149.938	54.12
154.096	37.198
158.251	674.177
162.405	1303.7
166.556	520.295
170.705	145.298
174.853	496.06
178.998	1512.68
183.141	1396.9
187.282	685.373
191.421	1288.39
195.558	1300.96
199.693	854.354
203.826	1078.23
207.957	2396.46
212.086	6413.63
216.213	7864.35
220.337	3412.15
224.46	877.458
228.581	244.295
232.699	22.702
236.816	44.308
240.931	45.103
245.043	13.556
249.154	59.642
253.262	172.145
257.369	343.924
261.473	788.043
265.576	1300.65
269.676	992.973
273.775	782.474
277.871	1001.22
281.965	1240.12
286.058	1902.52
290.148	3470.75
294.236	5025.67
298.323	4175.07
302.407	2688.11
306.489	2256.32
310.57	2580.84
314.648	2388.93
318.724	1719.79
322.799	1488.17
326.871	1780.84
330.941	2684.47
335.01	4877.81
339.076	8297.31
343.14	12451.5
347.203	17065.5
351.263	13028.6
355.321	6620.9
359.378	3852.26
363.432	3237.37
367.484	3369.25
371.535	3298.9
375.583	3382.34
379.63	4648.58
383.674	7051.62
387.717	8062.48
391.757	5584.93
395.796	2931.85
399.832	1587.82
403.867	906.43
407.899	590.086
411.93	405.228
415.959	244.08
419.986	103.853
424.01	61.121
428.033	24.727
432.054	28.146
436.073	69.149
440.09	60.811
444.105	26.941
448.118	24.783
452.129	72.048
456.138	258.821
460.145	401.767
464.15	676.203
468.153	647.68
472.155	383.104
476.154	269.606
480.151	213.423
484.147	220.76
488.14	314.471
492.132	712.855
496.122	1412.15
500.109	1646.39
504.095	1053.5
508.079	756.436
512.061	714.21
516.041	727.825
520.019	873.272
523.995	1239.55
527.969	1820.66
531.941	2932.61
535.911	5009.39
539.88	10136
543.846	15110.9
547.811	12626
551.773	9061.19
555.734	8829.33
559.693	11318.8
563.65	11174.8
567.605	8062.35
571.558	5065.24
575.509	3443.08
579.458	2519.96
583.405	1903.99
587.351	1390.93
591.294	1089.5
595.236	711.437
599.175	516.686
603.113	353.073
607.049	216.906
610.983	159.52
614.915	89.323
618.845	87.691
622.774	70.075
626.7	57.371
630.625	88.13
634.547	65.907
638.468	112.136
642.387	155.896
646.304	193.075
650.219	215.993
654.132	248.576
658.043	313.768
661.952	336.539
665.86	472.131
669.766	756.545
673.669	1232.78
677.571	1842.85
681.471	1591.74
685.369	804.47
689.266	445.032
693.16	223.43
697.053	120.669
700.943	77.745
704.832	39.648
708.719	21.375
712.604	5.904
716.487	18.07
720.368	14.03
724.248	4.767
728.125	41.249
732.001	8.491
735.875	21.472
739.747	7.71
743.617	9.14
747.486	14.277
751.352	79.661
755.217	195.057
759.079	332.442
762.94	91.796
766.799	23.87
770.657	82.231
774.512	6.085
778.365	47.878
782.217	36.144
786.067	65.487
789.915	73.303
793.761	63.277
797.606	24.049
801.448	0.59
805.289	4.195
809.128	7.149
812.965	24.46
816.8	113.752
820.633	157.039
824.465	235.328
828.294	292.625
832.122	421.937
835.948	636.269
839.772	907.629
843.595	1342.02
847.415	1922.46
851.234	2604.88
855.051	3526.84
858.866	4696.49
862.679	6730.81
866.491	8402.18
870.301	7703.09
874.109	5491.42
877.915	3689.28
881.719	2638.37
885.521	2044.88
889.322	1662.69
893.121	1432.25
896.918	1353.61
900.713	1329.81
904.506	1373.56
908.298	1502.71
912.088	1425.07
915.876	1528.62
919.662	1657.38
923.447	1955.04
927.229	2246.38
931.01	2665.76
934.789	3257.37
938.566	4271.13
942.342	5952.15
946.116	8985.19
949.888	13767.7
953.658	14959.7
957.426	13147.1
961.193	14426.1
964.957	18825.4
968.72	30565.3
972.482	48225.3
976.241	34925.7
979.999	17716.3
983.755	10917.1
987.509	7728.24
991.261	5507.61
995.012	4050.24
998.761	3028.13
1002.51	2355.28
1006.25	1950.68
1010	1637.35
1013.74	1528.13
1017.48	1600.5
1021.22	1789.26
1024.95	2095.46
1028.69	2605.64
1032.42	3985.91
1036.15	7019.71
1039.88	14322.8
1043.61	23115.2
1047.34	13366.4
1051.06	5937.98
1054.78	3339.53
1058.5	2120.45
1062.22	1463.89
1065.94	1039.97
1069.65	850.238
1073.37	801.277
1077.08	710.785
1080.79	623.464
1084.5	611.224
1088.2	554.356
1091.91	543.379
1095.61	562.182
1099.31	580.153
1103.01	615.73
1106.71	673.437
1110.41	651.307
1114.1	684.3
1117.8	767.024
1121.49	831.12
1125.18	900.482
1128.86	894.352
1132.55	981.521
1136.23	899.495
1139.92	745.058
1143.6	518.533
1147.28	248.653
1150.95	117.882
1154.63	39.204
1158.3	21.614
1161.97	33.846
1165.64	15.445
1169.31	54.86
1172.98	79.934
1176.65	68.19
1180.31	42.57
1183.97	17.224
1187.63	34.092
1191.29	13.288
1194.95	35.714
1198.6	26.63
1202.26	45.399
1205.91	5.32
1209.56	23.833
1213.2	37.452
1216.85	19.735
1220.5	13.751
1224.14	33.768
1227.78	23.03
1231.42	27.729
1235.06	27.366
1238.69	76.199
1242.33	64.644
1245.96	40.725
1249.59	74.068
1253.22	63.733
1256.85	45.285
1260.48	69.535
1264.1	57.925
1267.72	65.979
1271.35	36.051
1274.97	101.855
1278.58	125.458
1282.2	131.663
1285.81	73.664
1289.43	125.068
1293.04	128.77
1296.65	90.118
1300.26	108.36
1303.86	133.394
1307.47	116.226
1311.07	81.416
1314.67	122.549
1318.27	66.681
1321.87	80.187
1325.46	81.596
1329.06	61.309
1332.65	55.882
1336.24	51.16
1339.83	80.983
1343.42	57.48
1347	21.314
1350.59	36.526
1354.17	77.53
1357.75	25.602
1361.33	42.743
1364.91	39.43
1368.49	18.54
1372.06	34.762
1375.63	49.801
1379.2	16.67
1382.78	20.711
1386.34	30.576
1389.91	40.311
1393.47	35.942
1397.04	48.591
1400.6	55.564
1404.16	14.949
1407.72	28.055
1411.27	53.943
1414.83	14.958
1418.38	43.298
1421.93	34.047
1425.48	33.755
1429.03	28.668
1432.58	17.723
1436.12	42.115
1439.66	24.305
1443.21	23.168
1446.75	33.849
1450.29	24.016
1453.82	35.886
1457.36	16.826
1460.89	45.106
1464.42	35.823
1467.95	30.836
1471.48	4.509
1475.01	31.321
1478.54	35.606
1482.06	30.109
1485.58	37.535
1489.1	12.816
1492.62	19.031
1496.14	31.623
1499.65	24.698
1503.17	60.771
1506.68	32.675
1510.19	45.232
1513.7	2.214
1517.21	39.658
1520.72	0
