Measurement: Raman, 514 nm, ccw, Raman Data Processed
Mineral: Aegirine
Rruff sample: R050074
Ideal chemistry: NaFe^3+^Si_2_O_6_
Locality: Mt. Malosa, Zomba, Chilwa, Alkaline Area, Malawi
Source: Rock Currier
Description: Black prismatic single crystal
Measured chemistry: (Na_0.98_Ca_0.02_)_Σ=1_(Fe^3+^_0.96_Ti_0.01_Mn_0.03_)_Σ=1_Si_2.00_O_6_
Pin_id: L00435
Orientation: Laser parallel to a* (1 0 0). Fiducial mark perpendicular to laser is parallel to -b [0 -1 0]
Raman shift (cm-1)	intensity
148.552	0
152.71	102.844
156.866	10.057
161.02	175.761
165.172	81.029
169.322	135.672
173.47	566.066
177.616	1299.59
181.76	2311.89
185.902	3206.19
190.042	8512.59
194.179	14045
198.315	8108.21
202.449	3037.23
206.58	1797.1
210.71	2065.69
214.837	2766.47
218.963	1523.71
223.086	526.49
227.207	184.766
231.327	97.462
235.444	16.532
239.559	16.017
243.673	11.611
247.784	6.762
251.893	32.451
256	30.849
260.105	77.479
264.208	133.536
268.31	251.04
272.409	567.918
276.506	901.796
280.601	878.161
284.694	554.12
288.785	473.778
292.874	427.86
296.961	536.079
301.046	507.487
305.129	658.536
309.21	803.328
313.289	969.944
317.366	1060.83
321.441	1401.64
325.514	2032.18
329.585	3475.7
333.654	5936.04
337.721	9856.73
341.786	11705.2
345.849	8322.64
349.91	4673.18
353.969	2927.79
358.026	2479
362.081	2351.11
366.134	2568.99
370.185	2323.05
374.234	1770.68
378.281	1648.06
382.326	2054.23
386.369	2479.13
390.411	2157.14
394.45	1401.36
398.487	797.38
402.522	475.493
406.555	290.373
410.587	175.473
414.616	138.333
418.644	85.685
422.669	38.849
426.692	23.873
430.714	30.905
434.733	24.096
438.751	31.797
442.767	43.362
446.78	13.561
450.792	33.991
454.802	112.989
458.809	96.063
462.815	169.344
466.819	214.732
470.821	163.57
474.821	144.663
478.819	228.403
482.815	387.364
486.809	572.172
490.802	1391.95
494.792	3083.82
498.78	4650.99
502.767	2865.79
506.751	1324.32
510.734	784.555
514.714	604.527
518.693	533.216
522.67	592.645
526.644	684.831
530.617	983.785
534.588	1544.51
538.557	2852.45
542.524	4888.31
546.489	5354.45
550.453	3837.37
554.414	3154.37
558.374	2452.33
562.331	2305.3
566.287	1957.88
570.24	1796.74
574.192	1481.57
578.142	1268.94
582.09	1043.77
586.036	888.489
589.98	710.247
593.922	505.706
597.862	342.369
601.801	170.677
605.737	93.833
609.672	84.95
613.605	44.892
617.536	50.258
621.464	23.795
625.391	5.267
629.317	18.622
633.24	21.692
637.161	9.06
641.081	77.198
644.998	87.715
648.914	120.371
652.828	147.114
656.74	181.701
660.65	238.177
664.558	316.628
668.464	542.105
672.368	925.41
676.271	1304.38
680.171	1191.2
684.07	832.883
687.967	397.424
691.862	263.828
695.755	173.097
699.646	116.234
703.536	150.24
707.423	114.117
711.309	76.864
715.193	84.58
719.075	73.955
722.955	70.301
726.833	40.532
730.709	76.655
734.584	24.687
738.457	60.644
742.327	101.644
746.196	92.677
750.063	70.627
753.929	53.735
757.792	53.735
761.654	96.472
765.513	62.678
769.371	53.202
773.227	1.687
777.081	31.553
780.933	3.568
784.784	3.485
788.633	52.952
792.479	75.669
796.324	35.229
800.167	5.707
804.009	10.093
807.848	49.041
811.686	20.337
815.522	13.263
819.355	17.77
823.188	1.188
827.018	80.518
830.846	90.808
834.673	113.06
838.498	184.277
842.321	382.462
846.142	431.619
849.961	570.75
853.779	729.784
857.595	970.837
861.409	1264.78
865.221	1585.37
869.031	1741.04
872.839	1499.56
876.646	1141.09
880.451	899.65
884.254	724.245
888.055	678.705
891.855	614.213
895.652	612.223
899.448	566.395
903.242	582.057
907.034	558.5
910.825	561.657
914.613	553.139
918.4	564.495
922.185	560.495
925.969	592.298
929.75	712.054
933.53	776.325
937.308	988.646
941.084	1266.85
944.858	2081.47
948.63	3593.88
952.401	4501.44
956.17	3323.62
959.937	3222.01
963.703	2883.25
967.466	2040.04
971.228	1717.5
974.988	1550.71
978.746	1189.29
982.503	905.951
986.258	782.682
990.011	719.489
993.762	653.385
997.511	668.365
1001.26	662.401
1005	678.49
1008.75	720.719
1012.49	752.99
1016.23	798.338
1019.97	835.815
1023.71	767.355
1027.44	762.969
1031.18	805.754
1034.91	972.141
1038.64	1236.73
1042.37	2121.86
1046.09	1942.73
1049.82	1130.49
1053.54	918.438
1057.26	829.947
1060.98	740.273
1064.7	676.824
1068.41	643.252
1072.13	594.796
1075.84	628.375
1079.55	704.83
1083.26	771.641
1086.97	882.641
1090.67	678.777
1094.38	535.933
1098.08	451.41
1101.78	412.51
1105.48	380.733
1109.18	394.325
1112.87	393.875
1116.57	368.515
1120.26	323.251
1123.95	300.237
1127.63	249.107
1131.32	311.914
1135.01	225.099
1138.69	201.395
1142.37	144.219
1146.05	157.274
1149.73	57.616
1153.4	43.431
1157.08	17.178
1160.75	77.184
1164.42	2.948
1168.09	13.859
1171.76	12.501
1175.42	32.925
1179.09	63.375
1182.75	4.448
1186.41	4.109
1190.07	15.682
1193.73	12.524
1197.38	11.882
1201.04	43.928
1204.69	18.013
1208.34	25.304
1211.99	25.335
1215.64	15.931
1219.28	37.521
1222.92	7.873
1226.57	8.835
1230.21	9.593
1233.85	28.495
1237.48	26.582
1241.12	6.531
1244.75	36.392
1248.38	42.162
1252.01	4.136
1255.64	39.519
1259.27	57.248
1262.89	72.799
1266.52	27.217
1270.14	28.532
1273.76	47.768
1277.38	30.926
1280.99	56.968
1284.61	58.904
1288.22	40.724
1291.83	20.377
1295.44	39.091
1299.05	89.648
1302.66	26.128
1306.26	30.529
1309.87	80.801
1313.47	18.048
1317.07	14.178
1320.67	52.243
1324.26	51.472
1327.86	18.258
1331.45	30.323
1335.04	63.174
1338.63	15.904
1342.22	53.054
1345.81	15.737
1349.39	53.515
1352.98	70.991
1356.56	75.998
1360.14	41.293
1363.72	57.274
1367.29	60.155
1370.87	25.512
1374.44	40.297
1378.02	16.039
1381.59	31.527
1385.15	42.163
1388.72	31.107
1392.29	83.479
1395.85	55.777
1399.41	46.532
1402.97	10.465
1406.53	23.152
1410.09	34.037
1413.64	35.167
1417.2	29.099
1420.75	42.282
1424.3	54.498
1427.85	56.902
1431.39	63.212
1434.94	75.488
1438.48	30.379
1442.03	39.599
1445.57	105.727
1449.11	16.934
1452.64	81.14
1456.18	52.498
1459.71	99.898
1463.25	99.75
1466.78	112.85
1470.31	99.105
1473.83	98.473
1477.36	78.161
1480.88	102.105
1484.41	86.214
1487.93	43.47
1491.45	53.9
1494.97	24.434
1498.48	54.622
1502	3.877
1505.51	80.121
1509.02	52.779
1512.53	48.208
1516.04	29.925
1519.55	71.149
1523.05	20.508
