Measurement: Raman, 514 nm, ccw, Raman Data Processed
Mineral: Aegirine
Rruff sample: R040054
Ideal chemistry: NaFe^3+^Si_2_O_6_
Locality: Mont Saint-Hilaire, Rouville County, Quebec, Canada
Source: Bob Downs
Description: Black cleavage fragments
Measured chemistry: (Na_0.96_Ca_0.04_)(Fe_0.86_Ti_0.07_Mn_0.06_Mg_0.02_)(Si_0.97_Al_0.03_)_2_O_6_
Pin_id: L00298
Orientation: Laser parallel to a [1 0 0]. Fiducial mark perpendicular to laser is parallel to b* (0 1 0)
Raman shift (cm-1)	intensity
145.48	0
149.635	84.971
153.788	103.898
157.939	493.083
162.088	770.386
166.235	268.476
170.38	26.348
174.523	322.134
178.664	625.154
182.803	424.082
186.94	612.217
191.076	1259.24
195.209	1491.68
199.34	1478.93
203.47	1583.42
207.597	2119.12
211.722	2547.62
215.846	2206.7
219.967	1343.81
224.087	693.615
228.204	393.632
232.32	174.547
236.434	125.649
240.545	3.182
244.655	15.47
248.763	9.28
252.869	1.537
256.973	110.673
261.075	323.952
265.175	440.364
269.273	273.907
273.369	210.266
277.463	338.814
281.556	488.948
285.646	635.455
289.734	798.509
293.821	1064.62
297.905	1280.47
301.988	1883.59
306.069	2712.18
310.147	3467.84
314.224	3299.44
318.299	2249.06
322.372	1554.87
326.443	1313.76
330.512	1396.09
334.579	1996.24
338.645	2703.52
342.708	2786.46
346.769	2351.78
350.829	1956.67
354.887	1858.02
358.942	2061.9
362.996	2670.86
367.048	3138.82
371.098	2861.04
375.146	2361.48
379.192	2403.33
383.236	2668.77
387.279	2863.6
391.319	2341.28
395.358	1636.81
399.394	981.522
403.429	651.494
407.462	422.748
411.493	254.783
415.522	205.109
419.549	90.398
423.575	59.372
427.598	2.234
431.619	8.662
435.639	42.826
439.657	13.708
443.673	36.151
447.687	68.039
451.699	108.577
455.709	208.956
459.717	335.105
463.724	334.958
467.728	370.952
471.731	356.682
475.732	268.058
479.731	283.826
483.728	341.018
487.723	461.272
491.716	675.485
495.708	1273.79
499.697	1400.47
503.685	1043.32
507.671	796.561
511.655	799.53
515.637	832.585
519.617	997.155
523.596	1495.27
527.572	2063.96
531.547	2276.23
535.52	2753.09
539.491	3858.08
543.46	4672.79
547.427	4544.16
551.393	4121.44
555.356	3915.18
559.318	3630.66
563.278	3484.12
567.236	3233.01
571.192	2881.64
575.147	2527.47
579.099	2270.87
583.05	1961.6
586.999	1764.71
590.946	1464.54
594.891	1089.54
598.834	706.742
602.776	482.902
606.715	283.045
610.653	142.427
614.589	84.892
618.523	49.013
622.456	25.605
626.386	13.438
630.315	0.643
634.242	3.938
638.167	22.481
642.09	38.03
646.012	137.871
649.931	182.154
653.849	171.029
657.765	159.022
661.679	176.288
665.592	206.812
669.502	295.87
673.411	562.226
677.318	692.306
681.223	538.118
685.126	369.667
689.028	292.959
692.927	165.999
696.825	171.783
700.721	169.313
704.616	137.589
708.508	79.736
712.399	174.33
716.288	96.32
720.175	49.098
724.06	123.676
727.944	128.19
731.825	158.902
735.705	107.475
739.584	105.926
743.46	197.281
747.334	247.612
751.207	351.927
755.078	795.189
758.947	927.422
762.815	366.625
766.68	161.579
770.544	48.289
774.406	14.427
778.267	27.91
782.125	43.13
785.982	35.665
789.837	79.831
793.69	60.978
797.542	71.297
801.391	76.145
805.239	28.057
809.085	5.08
812.93	71.274
816.772	131.847
820.613	222.528
824.452	346.042
828.29	421.688
832.125	606.332
835.959	861.979
839.791	1140.64
843.621	1585.31
847.45	1897.76
851.277	2147.01
855.102	2329.12
858.925	2278.11
862.746	2266.74
866.566	2185.28
870.384	2138.19
874.2	1987.15
878.015	1565.63
881.828	1309.38
885.639	1401.69
889.448	1547.34
893.256	1271.84
897.061	960.971
900.865	889.306
904.668	842.833
908.468	828.595
912.267	856.541
916.064	883.678
919.86	921.976
923.653	971.163
927.445	1037.19
931.236	1283.68
935.024	1378.78
938.811	1669.78
942.596	2182.29
946.379	2677.94
950.161	3615.06
953.94	3752.35
957.719	3507.75
961.495	3586.02
965.27	3399.7
969.043	3243.99
972.814	2995.5
976.583	2533.22
980.351	2247.15
984.117	1988.27
987.882	1944.61
991.644	1793.15
995.405	1597.92
999.165	1504.91
1002.92	1462.14
1006.68	1463.58
1010.43	1482.25
1014.18	1449.53
1017.93	1409.04
1021.68	1327.55
1025.43	1381.73
1029.18	1511.01
1032.92	1679.7
1036.66	1961.28
1040.4	2309.64
1044.14	2387.06
1047.88	2086.58
1051.62	1844.4
1055.35	1806.37
1059.08	1787.95
1062.81	1799.62
1066.54	1820.92
1070.27	1596.1
1073.99	1515.35
1077.72	1561.19
1081.44	1567.5
1085.16	1497.38
1088.88	1382.05
1092.59	1319.2
1096.31	1230.76
1100.02	1110.22
1103.73	1082.61
1107.44	1040.25
1111.15	1102.35
1114.86	1034.46
1118.57	1023.71
1122.27	1193.35
1125.97	1137.47
1129.67	1034.6
1133.37	872.109
1137.07	816.461
1140.76	682.473
1144.45	554.679
1148.15	368.041
1151.84	157.025
1155.53	51.59
1159.21	23.559
1162.9	51.968
1166.58	18.865
1170.26	0.479
1173.94	20.105
1177.62	36.119
1181.3	85.657
1184.97	2.805
1188.65	2.854
1192.32	78.988
1195.99	0.636
1199.66	42.245
1203.33	67.958
1206.99	20.677
1210.65	21.94
1214.32	17.871
1217.98	16.032
1221.64	35.817
1225.29	109.509
1228.95	92.134
1232.6	30.874
1236.26	17.854
1239.91	16.991
1243.56	32.992
1247.2	3.125
1250.85	22.586
1254.49	78.107
1258.13	113.498
1261.78	75.602
1265.41	95.031
1269.05	77.14
1272.69	67.661
1276.32	85.099
1279.95	55.519
1283.59	97.323
1287.21	24.936
1290.84	37.354
1294.47	58.577
1298.09	69.609
1301.72	28.458
1305.34	37.1
1308.96	88.165
1312.58	57.02
1316.19	85.87
1319.81	66.168
1323.42	101.646
1327.03	51.232
1330.64	36.142
1334.25	73.155
1337.86	47.586
1341.46	100.478
1345.07	49.584
1348.67	71.576
1352.27	37.418
1355.87	91.134
1359.46	80.257
1363.06	96.761
1366.65	116.727
1370.25	37.618
1373.84	63.997
1377.43	94.063
1381.02	104.659
1384.6	127.828
1388.18	40.867
1391.77	42.527
1395.35	97.183
1398.93	123.289
1402.51	79.369
1406.08	101.631
1409.66	51.025
1413.23	77.51
1416.8	42.449
1420.37	72.32
1423.94	28.975
1427.51	64.8
1431.08	138.355
1434.64	81.393
1438.2	127.034
1441.76	127.552
1445.32	83.789
1448.88	68.602
1452.43	22.239
1455.99	50.149
1459.54	74.652
1463.09	47.634
1466.64	86.861
1470.19	19.219
1473.74	100.624
1477.28	2.772
1480.83	33.282
1484.37	53.823
1487.91	30.796
1491.45	16.108
1494.98	0.7
1498.52	6.652
1502.05	0.264
