Measurement: Raman, 514 nm, ccw, Raman Data Processed
Mineral: Aegirine
Rruff sample: R040054
Ideal chemistry: NaFe^3+^Si_2_O_6_
Locality: Mont Saint-Hilaire, Rouville County, Quebec, Canada
Source: Bob Downs
Description: Black cleavage fragments
Measured chemistry: (Na_0.96_Ca_0.04_)(Fe_0.86_Ti_0.07_Mn_0.06_Mg_0.02_)(Si_0.97_Al_0.03_)_2_O_6_
Pin_id: L00298
Orientation: Laser parallel to a [1 0 0]. Fiducial mark perpendicular to laser is parallel to b* (0 1 0)
Raman shift (cm-1)	intensity
120.508	0
124.675	29.816
128.84	535.128
133.003	1762.62
137.164	1327.66
141.323	483.925
145.48	398.487
149.635	293.278
153.788	132.321
157.939	29.601
162.088	72.375
166.235	81.07
170.38	4.281
174.523	465.373
178.664	1170.82
182.803	565.384
186.94	418.782
191.076	879.292
195.209	1385.59
199.34	1903.99
203.47	2725.43
207.597	4277.31
211.722	5556.47
215.846	4802.78
219.967	3208.31
224.087	1932.27
228.204	1167.07
232.32	667.953
236.434	513.479
240.545	251.422
244.655	125.748
248.763	85.434
252.869	71.496
256.973	64.044
261.075	0.794
265.175	106.242
269.273	13.624
273.369	166.185
277.463	265.999
281.556	336.872
285.646	350.476
289.734	396.148
293.821	447.625
297.905	576.034
301.988	754.567
306.069	850.804
310.147	816.533
314.224	900.861
318.299	813.507
322.372	862.218
326.443	1015.86
330.512	1484.8
334.579	2417.09
338.645	3497.25
342.708	3502.64
346.769	2824.44
350.829	2297.41
354.887	2010.13
358.942	2437.11
362.996	3413.86
367.048	4451.08
371.098	4298.86
375.146	3923.28
379.192	4315.4
383.236	5164.21
387.279	5749.72
391.319	4885.93
395.358	3257.32
399.394	1905.86
403.429	1187.57
407.462	818.815
411.493	663.985
415.522	452.865
419.549	265.968
423.575	157.65
427.598	65.91
431.619	18.518
435.639	33.132
439.657	5.186
443.673	46.188
447.687	114.809
451.699	112.876
455.709	167.021
459.717	179.792
463.724	200.62
467.728	92.458
471.731	88.57
475.732	155.099
479.731	269.577
483.728	416.571
487.723	639.335
491.716	1317.62
495.708	2568.07
499.697	2886.96
503.685	2028.28
507.671	1493.3
511.655	1184.06
515.637	1020.57
519.617	1052.84
523.596	1393.86
527.572	1952.66
531.547	3073.23
535.52	5380.57
539.491	8862.68
543.46	10893.7
547.427	10104.9
551.393	8175.95
555.356	6897.08
559.318	5866.83
563.278	5302.89
567.236	4607.82
571.192	3941.27
575.147	3369.8
579.099	2858.76
583.05	2503.87
586.999	2232.53
590.946	1758.86
594.891	1357.03
598.834	880.274
602.776	603.105
606.715	337.665
610.653	92.545
614.589	71.075
618.523	26.926
622.456	8.801
626.386	41.13
630.315	15.067
634.242	0.06
638.167	26.234
642.09	55.628
646.012	63.13
649.931	111.67
653.849	171.544
657.765	222.895
661.679	256.948
665.592	354.77
669.502	580.363
673.411	956.73
677.318	1237.87
681.223	987.795
685.126	555.497
689.028	372.981
692.927	251.251
696.825	182.309
700.721	179.155
704.616	132.785
708.508	124.194
712.399	99.38
716.288	71.346
720.175	62.067
724.06	83.606
727.944	86.907
731.825	70.993
735.705	45.88
739.584	41.579
743.46	106.115
747.334	83.506
751.207	34.749
755.078	64.842
758.947	109.799
762.815	18.623
766.68	29.056
770.544	5.479
774.406	32.044
778.267	52.626
782.125	53.38
785.982	72.008
789.837	46.532
793.69	46.248
797.542	50.089
801.391	106.258
805.239	26.247
809.085	39.338
812.93	47.141
816.772	87.918
820.613	173.019
824.452	212.213
828.29	337.742
832.125	382.201
835.959	462.594
839.791	559.929
843.621	755.21
847.45	923.444
851.277	1015.63
855.102	1154.65
858.925	1204.12
862.746	1245.56
866.566	1244.65
870.384	1229.9
874.2	1096.77
878.015	981.812
881.828	774.241
885.639	825.414
889.448	769.706
893.256	796.379
897.061	792.726
900.865	818.792
904.668	835.445
908.468	827.258
912.267	927.238
916.064	1004.55
919.86	1067
923.653	1263.38
927.445	1415.28
931.236	1624.15
935.024	1930.44
938.811	2391.88
942.596	3054.7
946.379	4048.35
950.161	5245.82
953.94	5791.51
957.719	5537.99
961.495	5581.52
965.27	5152.77
969.043	4539.26
972.814	4063.91
976.583	3507.74
980.351	3160.74
984.117	2822.93
987.882	2526.33
991.644	2267.93
995.405	2059.71
999.165	1823.67
1002.92	1690.82
1006.68	1658.15
1010.43	1574.68
1014.18	1563.4
1017.93	1403.35
1021.68	1429.56
1025.43	1478.03
1029.18	1625.98
1032.92	1809.18
1036.66	2020.99
1040.4	2292.83
1044.14	2405.68
1047.88	2264.07
1051.62	2204.51
1055.35	2293.77
1059.08	2329.58
1062.81	2156.67
1066.54	2148.27
1070.27	1992.43
1073.99	1948.12
1077.72	1859.02
1081.44	1777.14
1085.16	1774.85
1088.88	1664.56
1092.59	1538.8
1096.31	1467.82
1100.02	1410.46
1103.73	1395.66
1107.44	1405.78
1111.15	1468.43
1114.86	1510.91
1118.57	1556.9
1122.27	1832.31
1125.97	1811.95
1129.67	1654.64
1133.37	1644.73
1137.07	1624.85
1140.76	1393.84
1144.45	1075.66
1148.15	708.838
1151.84	358.904
1155.53	169.005
1159.21	71.927
1162.9	46.387
1166.58	27.972
1170.26	20.606
1173.94	33.632
1177.62	16.641
1181.3	9.808
1184.97	67.177
1188.65	65.358
1192.32	75.455
1195.99	12.761
1199.66	41.948
1203.33	7.675
1206.99	35.826
1210.65	54.201
1214.32	19.795
1217.98	6.625
1221.64	34.781
1225.29	5.159
1228.95	57.731
1232.6	1.467
1236.26	26.097
1239.91	5.615
1243.56	29.007
1247.2	20.541
1250.85	55.454
1254.49	52.46
1258.13	38.252
1261.78	40.858
1265.41	59.305
1269.05	91.134
1272.69	44.654
1276.32	10.562
1279.95	0.257
1283.59	22.739
1287.21	57.06
1290.84	65.157
1294.47	73.754
1298.09	70.534
1301.72	76.152
1305.34	54.605
1308.96	59.891
1312.58	60.002
1316.19	75.391
1319.81	114.364
1323.42	152.28
1327.03	88.445
1330.64	108.574
1334.25	72.945
1337.86	86.571
1341.46	30.209
1345.07	47.204
1348.67	71.362
1352.27	92.111
1355.87	81.195
1359.46	97.214
1363.06	154.864
1366.65	91.389
1370.25	76.949
1373.84	104.852
1377.43	91.01
1381.02	104.915
1384.6	71.344
1388.18	94.3
1391.77	94.561
1395.35	84.344
1398.93	69.326
1402.51	110.235
1406.08	107.286
1409.66	89.329
1413.23	92.703
1416.8	36.04
1420.37	81.188
1423.94	110.424
1427.51	65.138
1431.08	71.94
1434.64	116.299
1438.2	73.311
1441.76	33.043
1445.32	92.964
1448.88	51.852
1452.43	41.511
1455.99	50.809
1459.54	77.797
1463.09	24.642
1466.64	78.307
1470.19	85.209
1473.74	42.36
1477.28	88.617
1480.83	33.096
1484.37	37.638
1487.91	4.354
1491.45	30.36
1494.98	86.68
1498.52	5.511
1502.05	62.952
1505.59	20.566
1509.12	75.409
1512.65	48.99
1516.17	0
