Measurement: Raman, 514 nm, ccw, Raman Data Processed
Mineral: Aegirine
Rruff sample: R050074
Ideal chemistry: NaFe^3+^Si_2_O_6_
Locality: Mt. Malosa, Zomba, Chilwa, Alkaline Area, Malawi
Source: Rock Currier
Description: Black prismatic single crystal
Measured chemistry: (Na_0.98_Ca_0.02_)_Σ=1_(Fe^3+^_0.96_Ti_0.01_Mn_0.03_)_Σ=1_Si_2.00_O_6_
Pin_id: L00512
Orientation: Laser parallel to -b* (0 -1 0). Fiducial mark perpendicular to laser is parallel to c [0 0 1]
Raman shift (cm-1)	intensity
118.066	0
122.249	32.33
126.43	44.447
130.608	290.939
134.785	452.468
138.959	335.516
143.131	277.946
147.301	181.182
151.469	101.401
155.635	27.261
159.799	19.557
163.961	55.405
168.121	130.688
172.278	682.464
176.434	1333.67
180.587	1059.14
184.739	1057.83
188.888	1439.38
193.035	1573.85
197.18	1174.09
201.324	733.141
205.465	639.848
209.603	560.689
213.74	406.528
217.875	190.092
222.008	78.327
226.139	28.302
230.267	58.563
234.394	45.993
238.518	67.104
242.641	9.794
246.761	6.068
250.879	55.982
254.996	55.031
259.11	97.744
263.222	175.856
267.332	237.771
271.44	342.421
275.546	421.315
279.65	372.699
283.752	323.536
287.852	334.002
291.95	320.154
296.046	406.773
300.14	387.996
304.231	466.712
308.321	591.473
312.409	606.458
316.495	743.948
320.578	883.224
324.66	1255.37
328.739	1818.42
332.817	2584.92
336.892	2685.45
340.966	2214.07
345.037	1824.75
349.107	1718.06
353.174	1858.48
357.24	2365.31
361.303	3144.75
365.365	3370.88
369.424	2886.16
373.481	2660.96
377.537	2999.63
381.59	3629.41
385.642	3796.12
389.691	3015.62
393.738	2035.1
397.784	1209.67
401.827	738.772
405.868	486.459
409.908	385.41
413.945	293.719
417.98	249.117
422.014	101.009
426.045	63.596
430.075	102.706
434.102	102.128
438.127	28.475
442.151	20.857
446.172	94.393
450.192	28.151
454.209	67.325
458.225	56.678
462.238	47.669
466.25	85.083
470.259	70.893
474.267	92.512
478.273	98.648
482.276	166.786
486.278	250.36
490.278	464.606
494.276	798.499
498.271	780.228
502.265	508.775
506.257	385.168
510.247	323.4
514.235	332.472
518.221	452.39
522.205	556.159
526.187	819.781
530.167	1284.26
534.145	2284.61
538.122	3635.84
542.096	4679.01
546.068	4214.29
550.039	3239.81
554.007	2444.41
557.973	1932.6
561.938	1515.65
565.901	1267.84
569.861	1032.27
573.82	852.337
577.777	710.12
581.732	499.345
585.685	425.275
589.636	308.253
593.585	238.881
597.532	110.716
601.477	69.949
605.42	15.384
609.361	40.606
613.301	13.675
617.238	54.331
621.174	26.364
625.108	11.296
629.039	4.848
632.969	18.47
636.897	9.553
640.823	30.239
644.747	51.317
648.669	131.856
652.589	176.813
656.508	164.807
660.424	247.716
664.339	356.715
668.251	649.142
672.162	1022.47
676.071	1104.7
679.978	750.844
683.883	431.898
687.786	231.863
691.687	118.742
695.586	80.534
699.484	63.242
703.379	61.862
707.273	77.389
711.165	65.82
715.055	62.149
718.943	61.367
722.829	19.467
726.713	35.434
730.595	6.294
734.476	14.965
738.354	5.633
742.231	50.133
746.106	46.562
749.978	38.921
753.849	2.781
757.719	17.198
761.586	9.733
765.451	6.493
769.315	13.11
773.177	44.652
777.036	4.633
780.894	8.237
784.75	9.92
788.605	10.415
792.457	36.246
796.307	38.167
800.156	33.83
804.003	36.299
807.848	5.147
811.691	15.493
815.532	40.247
819.371	13.875
823.209	36.95
827.045	98.984
830.878	110.976
834.71	98.93
838.54	172.847
842.369	256.235
846.195	284.582
850.02	367.39
853.842	446.106
857.663	523.024
861.482	527.133
865.299	590.411
869.115	626.178
872.928	608.363
876.74	569.175
880.55	599.225
884.358	602.381
888.164	639.343
891.969	644.846
895.771	706.992
899.572	626.408
903.371	690.765
907.168	755.795
910.963	824.407
914.757	803.766
918.548	875.608
922.338	993.142
926.126	1096.22
929.912	1236.11
933.697	1545.05
937.479	1896.03
941.26	2387.21
945.039	3212.03
948.816	4028.1
952.591	4290.79
956.365	4009.74
960.136	3757.61
963.906	3243.15
967.674	2786.33
971.441	2259.26
975.205	1748.26
978.968	1471.31
982.729	1140.43
986.488	981.607
990.245	861.844
994	739.145
997.754	609.509
1001.51	553.935
1005.26	535.425
1009	508.984
1012.75	556.616
1016.5	521.32
1020.24	487.163
1023.98	565.945
1027.72	582.524
1031.46	627.661
1035.19	698.678
1038.93	739.195
1042.66	650.495
1046.39	548.131
1050.12	546.44
1053.85	538.985
1057.57	505.782
1061.29	402.56
1065.02	396.279
1068.74	399.194
1072.45	409.114
1076.17	361.783
1079.88	433.09
1083.6	407.289
1087.31	413.306
1091.02	388.599
1094.72	397.415
1098.43	394.296
1102.13	457.998
1105.84	420.688
1109.54	504.075
1113.24	522.902
1116.93	559.693
1120.63	612.667
1124.32	629.513
1128.01	671.45
1131.7	704.342
1135.39	669.226
1139.08	514.171
1142.76	356.203
1146.45	219.106
1150.13	165.011
1153.81	33.047
1157.48	31.309
1161.16	13.464
1164.84	0.538
1168.51	29.675
1172.18	19.15
1175.85	4.049
1179.52	48.019
1183.18	39.811
1186.85	2.2
1190.51	15.269
1194.17	5.278
1197.83	1.262
1201.48	18.451
1205.14	43.235
1208.79	9.633
1212.44	4.376
1216.09	24.559
1219.74	8.96
1223.39	10.262
1227.03	42.323
1230.68	4.94
1234.32	18.606
1237.96	8.064
1241.6	11.439
1245.23	11.272
1248.87	51.908
1252.5	1.752
1256.13	25.423
1259.76	71.394
1263.39	24.304
1267.02	53.295
1270.64	46.075
1274.26	40.783
1277.88	62.404
1281.5	40.938
1285.12	30.414
1288.74	81.817
1292.35	64.1
1295.96	53.399
1299.57	70.601
1303.18	21.637
1306.79	42.596
1310.4	61.39
1314	1.147
1317.6	33.103
1321.2	34.878
1324.8	40.683
1328.4	37.718
1331.99	51.131
1335.59	23.589
1339.18	1.485
1342.77	53.791
1346.36	3.652
1349.95	61.75
1353.53	41.771
1357.12	43.419
1360.7	24.375
1364.28	16.933
1367.86	27.032
1371.44	27.577
1375.01	8.848
1378.59	27.521
1382.16	28.986
1385.73	22.681
1389.3	60.042
1392.87	15.018
1396.43	56.808
1399.99	62.514
1403.56	83.132
1407.12	6.512
1410.68	31.749
1414.23	32.198
1417.79	38.696
1421.34	25.347
1424.9	28.912
1428.45	75.012
1431.99	83.674
1435.54	63.644
1439.09	48.364
1442.63	43.596
1446.17	23.378
1449.71	16.224
1453.26	95.522
1456.79	32.405
1460.33	47.44
1463.86	50.191
1467.39	81.479
1470.92	72.139
1474.45	22.882
1477.98	28.728
1481.51	30.217
1485.03	17.451
1488.56	52.8
1492.08	56.793
1495.6	68.899
1499.11	31.097
1502.63	31.41
1506.14	61.285
1509.66	33.041
1513.17	31.881
1516.68	16.755
1520.19	0
