Measurement: Raman, 514 nm, ccw, Raman Data Processed
Mineral: Aegirine
Rruff sample: R040054
Ideal chemistry: NaFe^3+^Si_2_O_6_
Locality: Mont Saint-Hilaire, Rouville County, Quebec, Canada
Source: Bob Downs
Description: Black cleavage fragments
Measured chemistry: (Na_0.96_Ca_0.04_)(Fe_0.86_Ti_0.07_Mn_0.06_Mg_0.02_)(Si_0.97_Al_0.03_)_2_O_6_
Pin_id: M00470
Orientation: Laser parallel to -c [0 0 -1]. Fiducial mark perpendicular to laser is parallel to -b* (0 -1 0)
Raman shift (cm-1)	intensity
173.326	0
177.453	235.849
181.579	1455.19
185.702	1791.98
189.824	172.588
193.944	115.991
198.062	410.774
202.178	720.331
206.292	1391.59
210.404	3243.23
214.514	6231.54
218.622	7579.89
222.729	4206.66
226.833	1541.38
230.936	513.493
235.036	79.542
239.135	71.539
243.232	25.221
247.327	24.183
251.42	19.02
255.511	191.838
259.6	494.972
263.687	760.104
267.773	1469.85
271.856	720.938
275.938	867.43
280.017	1202.03
284.095	1291.26
288.171	1702.73
292.245	2572.75
296.317	3353.92
300.387	3671.16
304.455	3396.77
308.522	3349.54
312.586	3982
316.649	4108.65
320.709	3400.07
324.768	2647.47
328.825	2421.97
332.88	3050.53
336.934	4829.85
340.985	7498.11
345.034	11304.3
349.082	14089.2
353.128	13902.6
357.171	9602.18
361.213	5929.63
365.253	4284.75
369.291	3973.74
373.328	3713.58
377.362	3542.26
381.395	4391.96
385.426	6216.39
389.454	7804.26
393.481	6992.18
397.506	4547.09
401.53	2648.64
405.551	1530.94
409.571	917.846
413.588	553.478
417.604	331.847
421.618	281.945
425.63	78.767
429.641	47.937
433.649	71.611
437.656	33.064
441.66	34.012
445.663	49.457
449.664	47.301
453.663	146.04
457.661	320.017
461.656	551.612
465.65	826.984
469.642	944.553
473.632	681.721
477.62	424.885
481.606	315.927
485.591	330.939
489.573	411.64
493.554	477.57
497.533	771.891
501.51	1039.54
505.486	968.98
509.459	866.911
513.431	812.424
517.401	860.018
521.369	1161.63
525.335	1733.01
529.299	2409.11
533.262	3381.23
537.222	4605.55
541.181	7361.81
545.139	10557.8
549.094	10583.4
553.047	8968.63
556.999	8793.58
560.949	9678.05
564.897	9560.99
568.843	7582.69
572.788	5556.37
576.73	4330.24
580.671	3382.85
584.61	2571.71
588.547	1989.24
592.483	1529.62
596.416	1130.16
600.348	751.934
604.278	509.15
608.206	254.595
612.133	120.78
616.058	83.22
619.98	57.349
623.902	18.769
627.821	1.368
631.738	91.432
635.654	105.601
639.568	54.888
643.48	159.72
647.39	211.082
651.299	428.238
655.206	450.128
659.111	452.592
663.014	576.593
666.915	721.458
670.815	1086.94
674.713	1689.28
678.609	2273.57
682.503	1876.93
686.396	1181.68
690.287	699.855
694.176	457.46
698.063	353.5
701.949	358.975
705.832	184.903
709.714	233.287
713.595	230.203
717.473	196.845
721.35	217.272
725.225	170.413
729.098	196.254
732.969	181.771
736.839	224.862
740.707	203.499
744.573	233.663
748.437	289.368
752.3	383.437
756.161	710.446
760.02	864.64
763.877	346.686
767.733	79.157
771.587	11.094
775.439	74.657
779.289	68.499
783.138	107.717
786.985	130.189
790.83	111.998
794.674	79.762
798.515	103.542
802.355	160.262
806.194	79.931
810.03	67.335
813.865	53.348
817.698	5.289
821.529	107.821
825.359	142.287
829.187	242.707
833.013	422.103
836.837	611.365
840.66	1039.38
844.481	1324.68
848.3	1753.86
852.118	2181.9
855.934	2707.81
859.748	3376.27
863.56	4016.39
867.371	4601.12
871.18	4478.51
874.987	4024.07
878.792	3305.92
882.596	2837.48
886.398	2228.61
890.199	2035.02
893.997	1743.74
897.794	1688.85
901.589	1597.45
905.383	1712.08
909.175	1770.84
912.965	1663.29
916.753	1755.55
920.54	2003.36
924.325	2187.17
928.109	2322.32
931.89	2689.93
935.67	3061.39
939.448	3540.31
943.225	4453.12
947	6196.74
950.773	8387.6
954.544	10879.6
958.314	12722.6
962.082	15986.4
965.849	21870.9
969.614	30606.1
973.377	36052.1
977.138	28878.8
980.898	19006.3
984.656	13424.6
988.412	10573.6
992.167	8223.44
995.92	6474.03
999.671	4925.42
1003.42	3823.57
1007.17	2980.49
1010.91	2376.18
1014.66	2156.62
1018.4	2061.81
1022.14	2272.74
1025.88	2515.74
1029.62	3233.28
1033.36	4569.3
1037.09	7121.12
1040.83	11218.1
1044.56	13366.7
1048.29	9644.15
1052.01	5864.63
1055.74	3687.34
1059.46	2828.39
1063.19	2161.21
1066.91	1763.99
1070.63	1820.11
1074.35	1405.79
1078.06	1334.88
1081.78	1216.55
1085.49	1169.73
1089.2	1069.38
1092.91	1109.6
1096.62	1111.8
1100.33	1275.4
1104.03	1344.74
1107.73	1467.76
1111.44	1444.63
1115.13	1516.07
1118.83	1735.96
1122.53	1773.82
1126.22	2045.12
1129.92	2224.29
1133.61	2187.64
1137.3	2132.27
1140.99	1749.85
1144.67	1336.37
1148.36	745.574
1152.04	397.458
1155.73	127.963
1159.41	14.231
1163.09	51.439
1166.76	86.708
1170.44	115.04
1174.11	137.815
1177.78	91.521
1181.45	89.378
1185.12	130.244
1188.79	56.967
1192.45	41.766
1196.12	26.386
1199.78	44.578
1203.44	39.675
1207.1	33.792
1210.76	1.764
1214.41	56.58
1218.07	38.219
1221.72	77.637
1225.37	112.47
1229.02	107.771
1232.67	67.577
1236.32	134.042
1239.96	108.375
1243.6	110.886
1247.25	155.798
1250.89	161.208
1254.52	191.375
1258.16	186.969
1261.8	172.158
1265.43	176.75
1269.06	183.024
1272.69	141.802
1276.32	243.073
1279.95	214.85
1283.57	236.071
1287.2	235.899
1290.82	243.426
1294.44	267.831
1298.06	242.001
1301.68	227.459
1305.29	168.985
1308.91	172.066
1312.52	200.635
1316.13	161.625
1319.74	145.84
1323.35	135.305
1326.95	93.709
1330.56	104.798
1334.16	63.737
1337.76	70.263
1341.36	64.675
1344.96	118.62
1348.56	86.681
1352.15	59.492
1355.75	46.627
1359.34	78.187
1362.93	52.994
1366.52	36.461
1370.11	57.666
1373.69	129.381
1377.28	87.204
1380.86	102.212
1384.44	88.26
1388.02	67.771
1391.6	120.254
1395.18	113.938
1398.75	91.652
1402.33	61.144
1405.9	89.6
1409.47	66.829
1413.04	36.047
1416.6	72.657
1420.17	75.799
1423.73	94.292
1427.3	148.923
1430.86	81.056
1434.42	125.643
1437.97	39.889
1441.53	68.248
1445.09	73.229
1448.64	73.389
1452.19	45.472
1455.74	114.663
1459.29	56.979
1462.84	91.687
1466.38	162.141
1469.93	102.783
1473.47	126.62
1477.01	37.757
1480.55	102.626
1484.09	43.79
1487.62	58.422
1491.16	50.427
1494.69	108.761
1498.22	71.096
1501.75	130.597
1505.28	140.902
1508.81	101.089
1512.33	152.38
1515.86	118.289
1519.38	94.638
1522.9	88.46
1526.42	13.309
