Measurement: Raman, 514 nm, ccw, Raman Data Processed
Mineral: Aegirine
Rruff sample: R040054
Ideal chemistry: NaFe^3+^Si_2_O_6_
Locality: Mont Saint-Hilaire, Rouville County, Quebec, Canada
Source: Bob Downs
Description: Black cleavage fragments
Measured chemistry: (Na_0.96_Ca_0.04_)(Fe_0.86_Ti_0.07_Mn_0.06_Mg_0.02_)(Si_0.97_Al_0.03_)_2_O_6_
Pin_id: L00298
Orientation: Laser parallel to a [1 0 0]. Fiducial mark perpendicular to laser is parallel to b* (0 1 0)
Raman shift (cm-1)	intensity
148.25	0
152.403	134.667
156.555	140.68
160.705	38.921
164.853	106.504
168.998	80.831
173.142	388.662
177.284	940.942
181.424	1146.59
185.562	1840.6
189.698	3911.18
193.831	4377.6
197.963	2782.55
202.093	1736.47
206.221	1338.84
210.347	1092.05
214.472	860.785
218.594	638.158
222.714	387.834
226.832	291.651
230.948	213.386
235.063	88.944
239.175	29.605
243.286	17.619
247.394	70.308
251.501	28.846
255.605	47.381
259.708	65.885
263.808	57.847
267.907	107.128
272.004	195.833
276.099	309.613
280.192	514.376
284.283	485.073
288.372	496.929
292.459	581.254
296.544	605.016
300.627	708.14
304.709	889.003
308.788	1079.7
312.865	1033.35
316.941	1056.13
321.015	1204.37
325.086	1521.78
329.156	2059.6
333.224	3122.9
337.29	4853.87
341.354	5407.85
345.416	4408.89
349.476	3578.16
353.534	3119.7
357.591	3463.28
361.645	4541.34
365.698	5552.9
369.748	4955.46
373.797	3522.62
377.844	2821.59
381.889	2617.48
385.932	2531.21
389.973	2331.76
394.012	1713.19
398.049	1134.99
402.084	763.729
406.118	456.287
410.15	315.733
414.179	223.967
418.207	138.006
422.233	108.797
426.257	45.891
430.279	20.008
434.299	8.543
438.318	36.36
442.334	12.312
446.349	9.124
450.361	87.773
454.372	80.642
458.381	87.526
462.388	106.653
466.394	60.352
470.397	79.178
474.398	78.635
478.398	7.79
482.396	68.867
486.391	184.14
490.385	342.602
494.377	725.401
498.368	971.75
502.356	744.725
506.342	385.761
510.327	340.617
514.31	210.016
518.291	208.993
522.27	245.764
526.247	372.344
530.222	480.748
534.196	669.979
538.167	976.037
542.137	1378.92
546.105	1761.88
550.071	2096.91
554.035	2269.65
557.998	2332.29
561.958	2250.2
565.917	2217.88
569.874	2200.2
573.829	2084.76
577.782	2036.12
581.733	1930.43
585.683	1620.94
589.63	1419.84
593.576	1129.41
597.52	878.847
601.462	594.284
605.402	273.472
609.341	152.938
613.277	56.446
617.212	16.295
621.145	7.022
625.076	31.312
629.006	36.927
632.933	13.404
636.859	73.731
640.783	41.54
644.705	81.154
648.625	153.689
652.543	190.91
656.46	225.602
660.375	199.882
664.288	283.956
668.199	333.827
672.108	670.499
676.016	915.965
679.921	806.246
683.825	562.336
687.727	349.236
691.628	249.951
695.526	185.481
699.423	134.83
703.318	80.996
707.211	147.974
711.102	109.772
714.992	122.389
718.879	96.824
722.765	128.076
726.649	90.156
730.532	134.064
734.412	143.815
738.291	113.426
742.168	145.902
746.043	150.258
749.916	115.501
753.788	183.631
757.658	151.663
761.526	73.589
765.392	73.409
769.257	0.671
773.119	14.919
776.98	5.205
780.839	30.639
784.697	45.485
788.552	60.693
792.406	53.082
796.258	59.534
800.108	38.777
803.957	47.593
807.804	11.268
811.649	29.079
815.492	86.466
819.333	130.89
823.173	253.289
827.011	344.669
830.847	457.034
834.681	657.392
838.514	847.747
842.345	1011.99
846.174	1221.47
850.001	1465.85
853.827	1744.13
857.651	1920.1
861.473	1918.35
865.293	1895
869.112	1848.98
872.928	1869.41
876.744	1811.81
880.557	1610.33
884.369	1466.07
888.178	1388.15
891.987	1332.35
895.793	1500.71
899.598	1529.25
903.401	1452.01
907.202	1519.93
911.001	1587.03
914.799	1589.17
918.595	1569.35
922.389	1668.83
926.182	1699.39
929.972	1953.49
933.761	2121.92
937.549	2397.81
941.334	3126.07
945.118	4016.67
948.9	5094.03
952.681	5512.58
956.459	4768.98
960.236	4294.22
964.012	3864.36
967.785	3335.46
971.557	2849.74
975.327	2481.2
979.095	2273.85
982.862	1833.69
986.627	1551.75
990.39	1467.99
994.152	1359.41
997.912	1371.02
1001.67	1345.82
1005.43	1321.81
1009.18	1374.99
1012.93	1366.67
1016.68	1365.47
1020.43	1244.38
1024.18	1177.15
1027.93	1103.11
1031.67	1159.08
1035.42	1311.38
1039.16	1368.17
1042.9	1496.34
1046.63	1451.14
1050.37	1369.27
1054.11	1443.02
1057.84	1547.17
1061.57	1585.16
1065.3	1530.8
1069.03	1611.85
1072.75	1621.24
1076.47	1610.54
1080.2	1472.1
1083.92	1481.84
1087.64	1324.35
1091.36	1252.75
1095.07	1152.94
1098.79	1093.68
1102.5	1009.56
1106.21	919.389
1109.92	779.649
1113.62	703.742
1117.33	653.009
1121.04	737.451
1124.74	966.936
1128.44	612.31
1132.14	471.894
1135.83	427.389
1139.53	327.696
1143.22	262.969
1146.92	243.199
1150.61	139.866
1154.3	104.824
1157.98	36.01
1161.67	37.499
1165.35	18.013
1169.04	46.498
1172.72	34.053
1176.4	9.134
1180.07	33.266
1183.75	19.039
1187.42	29.301
1191.1	33.213
1194.77	64.125
1198.44	74.254
1202.1	21.371
1205.77	100.912
1209.43	234.882
1213.1	8.222
1216.76	37.457
1220.42	21.873
1224.07	11.454
1227.73	13.236
1231.38	74.213
1235.04	1.126
1238.69	58.894
1242.34	36.564
1245.99	77.215
1249.63	76.319
1253.28	30.005
1256.92	51.182
1260.56	82.208
1264.2	85.096
1267.84	138.823
1271.48	48.383
1275.11	25.77
1278.74	55.962
1282.38	110.974
1286.01	92.819
1289.63	45.49
1293.26	90
1296.89	37.363
1300.51	95.575
1304.13	121.64
1307.75	84.002
1311.37	94.774
1314.99	60.214
1318.6	63.454
1322.22	59.386
1325.83	73.254
1329.44	44.148
1333.05	63.237
1336.66	70.272
1340.26	57.065
1343.87	41.886
1347.47	53.102
1351.07	55.66
1354.67	77.4
1358.27	41.437
1361.86	74.453
1365.46	79.057
1369.05	116.598
1372.64	90.333
1376.23	108.609
1379.82	101.992
1383.41	102.395
1386.99	83.593
1390.57	75.362
1394.16	77.701
1397.74	23.742
1401.32	52.744
1404.89	83.621
1408.47	115.564
1412.04	91.762
1415.61	109.961
1419.18	73.245
1422.75	62.83
1426.32	110.39
1429.89	30.658
1433.45	61.741
1437.01	65.025
1440.58	54.354
1444.13	56.786
1447.69	93.593
1451.25	69.17
1454.81	62.108
1458.36	81.566
1461.91	94.081
1465.46	95.098
1469.01	68.633
1472.56	79.485
1476.1	63.741
1479.64	46.335
1483.19	27.115
1486.73	89.201
1490.27	9.669
1493.81	54.676
1497.34	43.067
1500.88	1.746
1504.41	4.191
1507.94	53.085
1511.47	8.159
1515	32.017
1518.53	0
