Measurement: Raman, 514 nm, ccw, Raman Data Processed
Mineral: Aegirine
Rruff sample: R040054
Ideal chemistry: NaFe^3+^Si_2_O_6_
Locality: Mont Saint-Hilaire, Rouville County, Quebec, Canada
Source: Bob Downs
Description: Black cleavage fragments
Measured chemistry: (Na_0.96_Ca_0.04_)(Fe_0.86_Ti_0.07_Mn_0.06_Mg_0.02_)(Si_0.97_Al_0.03_)_2_O_6_
Pin_id: M00470
Orientation: Laser parallel to -c [0 0 -1]. Fiducial mark perpendicular to laser is parallel to -b* (0 -1 0)
Raman shift (cm-1)	intensity
173.326	0
177.453	137.145
181.579	1109.69
185.702	1142.86
189.824	51.08
193.944	295.809
198.062	936.67
202.178	1583.49
206.292	2448.66
210.404	4199.85
214.514	6947.71
218.622	7551.35
222.729	4955.56
226.833	2802.62
230.936	1603.33
235.036	917.306
239.135	514.913
243.232	248.707
247.327	178.126
251.42	113.539
255.511	72.566
259.6	1.382
263.687	70.011
267.773	205.943
271.856	228.1
275.938	9.49
280.017	269.711
284.095	248.46
288.171	304.444
292.245	346.741
296.317	443.391
300.387	555.753
304.455	686.722
308.522	805.156
312.586	750.522
316.649	806.977
320.709	759.578
324.768	742.895
328.825	885.576
332.88	1399.01
336.934	2837.02
340.985	3844.44
345.034	4310.54
349.082	3650.08
353.128	3049.34
357.171	2629.49
361.213	2571.13
365.253	3339.19
369.291	4841.98
373.328	5282.62
377.362	4783
381.395	5273.25
385.426	6753.45
389.454	8262.25
393.481	7348.66
397.506	4972.91
401.53	2898.72
405.551	1769.16
409.571	1122.98
413.588	750.606
417.604	558.693
421.618	372.315
425.63	153.169
429.641	66.523
433.649	17.36
437.656	7.971
441.66	64.079
445.663	1.085
449.664	2.948
453.663	59.736
457.661	99.07
461.656	150.236
465.65	203.284
469.642	183.172
473.632	67.626
477.62	113.705
481.606	209.266
485.591	330.882
489.573	683.642
493.554	1161.91
497.533	2313.79
501.51	3359.89
505.486	2597.53
509.459	1802.11
513.431	1236.96
517.401	1184.88
521.369	1269.68
525.335	1651.51
529.299	2249.33
533.262	3360.07
537.222	5775.81
541.181	10400.5
545.139	14845.1
549.094	14469.8
553.047	11084.6
556.999	8779.5
560.949	7374.33
564.897	6289.65
568.843	5304.57
572.788	4338.01
576.73	3729.65
580.671	3196.33
584.61	2610.1
588.547	2051.36
592.483	1702.91
596.416	1382.45
600.348	922.72
604.278	531.895
608.206	356.39
612.133	206.417
616.058	137.644
619.98	32.182
623.902	47.562
627.821	25.289
631.738	10.726
635.654	0.837
639.568	4.885
643.48	46.998
647.39	112.073
651.299	269.793
655.206	251.259
659.111	278.328
663.014	399.578
666.915	567.736
670.815	839.951
674.713	1387.29
678.609	1819.08
682.503	1512.44
686.396	994.239
690.287	605.598
694.176	482.514
698.063	331.985
701.949	245.011
705.832	220.584
709.714	246.7
713.595	224.379
717.473	162.64
721.35	111.482
725.225	131.954
729.098	124.124
732.969	171.913
736.839	135.309
740.707	176.286
744.573	162.858
748.437	81.028
752.3	109.648
756.161	183.759
760.02	150.206
763.877	152.137
767.733	33.479
771.587	31.463
775.439	0.248
779.289	71.051
783.138	34.414
786.985	113.237
790.83	122.642
794.674	50.669
798.515	26.4
802.355	84.662
806.194	83.604
810.03	63.081
813.865	42.032
817.698	4.482
821.529	75.746
825.359	41.947
829.187	60.984
833.013	221.924
836.837	319.78
840.66	407.428
844.481	589.852
848.3	698.396
852.118	839.398
855.934	1129.92
859.748	1297.81
863.56	1557.85
867.371	1682.55
871.18	1601.31
874.987	1604.06
878.792	1454.43
882.596	1314.23
886.398	1138.4
890.199	1054.67
893.997	1031.56
897.794	1002.05
901.589	999.674
905.383	1059.77
909.175	1085.18
912.965	1138.12
916.753	1191.4
920.54	1314.54
924.325	1676.83
928.109	1721.39
931.89	2105.98
935.67	2457.78
939.448	3019.66
943.225	3928.24
947	5673.14
950.773	7754.94
954.544	9251.47
958.314	9045.82
962.082	9600.62
965.849	10385.9
969.614	11561.6
973.377	12207.9
977.138	10024.6
980.898	7101.92
984.656	5339.7
988.412	4320
992.167	3562.82
995.92	3016.18
999.671	2453.06
1003.42	2028.46
1007.17	1750.42
1010.91	1509.9
1014.66	1523.91
1018.4	1597.42
1022.14	1664.46
1025.88	1836.02
1029.62	2022.28
1033.36	2570.1
1037.09	3274.68
1040.83	4595.69
1044.56	5317.1
1048.29	4249.04
1052.01	3250.74
1055.74	2735.65
1059.46	2482.89
1063.19	2216.55
1066.91	2004.49
1070.63	1864.68
1074.35	1847.06
1078.06	1756.8
1081.78	1754.59
1085.49	1588.39
1089.2	1434.49
1092.91	1422.12
1096.62	1360.88
1100.33	1451.16
1104.03	1518.93
1107.73	1500.82
1111.44	1523.77
1115.13	1516.55
1118.83	1618.8
1122.53	1725.75
1126.22	1931.57
1129.92	1980.37
1133.61	2125.21
1137.3	2058.38
1140.99	1681.64
1144.67	1292.95
1148.36	863.62
1152.04	389.026
1155.73	190.082
1159.41	11.46
1163.09	46.362
1166.76	32.342
1170.44	1.43
1174.11	81.007
1177.78	118.161
1181.45	11.185
1185.12	52.587
1188.79	52.634
1192.45	8.047
1196.12	51.384
1199.78	21.1
1203.44	78.817
1207.1	1.098
1210.76	11.767
1214.41	18.909
1218.07	8.021
1221.72	46.761
1225.37	77.124
1229.02	93.171
1232.67	66.469
1236.32	36.975
1239.96	57.229
1243.6	70.079
1247.25	90.655
1250.89	130.873
1254.52	137.691
1258.16	127.185
1261.8	137.436
1265.43	99.259
1269.06	137.918
1272.69	70.021
1276.32	112.286
1279.95	93.652
1283.57	181.9
1287.2	126.667
1290.82	202.753
1294.44	154.896
1298.06	201.193
1301.68	151.561
1305.29	130.034
1308.91	143.217
1312.52	146.526
1316.13	173.433
1319.74	201.682
1323.35	128.919
1326.95	104.286
1330.56	86.762
1334.16	70.739
1337.76	74.769
1341.36	70.512
1344.96	86.148
1348.56	82.389
1352.15	76.904
1355.75	116.562
1359.34	45.009
1362.93	91.128
1366.52	64.488
1370.11	73.448
1373.69	82.972
1377.28	127.874
1380.86	136.011
1384.44	174.356
1388.02	138.784
1391.6	164.304
1395.18	103.21
1398.75	125.5
1402.33	3.07
1405.9	104.85
1409.47	39.634
1413.04	45.093
1416.6	67.171
1420.17	92.984
1423.73	81.178
1427.3	93.661
1430.86	114.625
1434.42	91.547
1437.97	67.214
1441.53	67.19
1445.09	40.528
1448.64	76.27
1452.19	88.073
1455.74	76.183
1459.29	52.094
1462.84	128.326
1466.38	112.842
1469.93	95.232
1473.47	109.402
1477.01	77.688
1480.55	57.283
1484.09	56.107
1487.62	20.043
1491.16	3.838
1494.69	30.517
1498.22	58.881
1501.75	132.975
1505.28	96.708
1508.81	91.651
1512.33	117.93
1515.86	127.022
1519.38	87.96
1522.9	39.66
1526.42	0.399
