Measurement: Raman, 514 nm, ccw, Raman Data Processed
Mineral: Aegirine
Rruff sample: R040054
Ideal chemistry: NaFe^3+^Si_2_O_6_
Locality: Mont Saint-Hilaire, Rouville County, Quebec, Canada
Source: Bob Downs
Description: Black cleavage fragments
Measured chemistry: (Na_0.96_Ca_0.04_)(Fe_0.86_Ti_0.07_Mn_0.06_Mg_0.02_)(Si_0.97_Al_0.03_)_2_O_6_
Pin_id: M00470
Orientation: Laser parallel to -c [0 0 -1]. Fiducial mark perpendicular to laser is parallel to -b* (0 -1 0)
Raman shift (cm-1)	intensity
171.949	0
176.077	448.902
180.204	2771.05
184.328	5801.36
188.45	2360.03
192.571	767.631
196.689	563.046
200.806	582.194
204.921	564.393
209.033	1042.42
213.144	1638.34
217.253	1953.82
221.36	1567.17
225.465	824.644
229.568	268.3
233.67	151.417
237.769	7.109
241.867	114.974
245.962	88.754
250.056	71.648
254.147	17.045
258.237	110.609
262.325	377.262
266.411	511.221
270.495	737.925
274.577	1106.33
278.658	1847
282.736	1985.46
286.812	1436.37
290.887	977.252
294.96	889.291
299.03	875.594
303.099	935.146
307.166	1061.53
311.232	1222.12
315.295	1316.96
319.356	1276.98
323.416	1367.7
327.473	1823.99
331.529	2612.53
335.583	4024.04
339.635	6517.98
343.685	8246.65
347.733	7383.11
351.779	5506.99
355.824	4223.49
359.866	3661.93
363.907	3597.92
367.946	3695.93
371.983	4021.07
376.018	4936.11
380.051	7142.73
384.082	10960.1
388.112	14962.9
392.139	16112.1
396.165	11968.3
400.189	6893.85
404.211	3798.93
408.231	2378.57
412.249	1525.95
416.266	1070.84
420.28	770.73
424.293	439.623
428.304	267.541
432.313	156.526
436.32	8.61
440.326	56.771
444.329	50.999
448.331	44.753
452.331	8.454
456.328	65.591
460.325	92.65
464.319	149.715
468.311	79.578
472.302	13.764
476.291	15.095
480.278	74.96
484.263	35.692
488.246	58.115
492.227	91.639
496.207	253.486
500.185	387.696
504.161	430.079
508.135	524.736
512.107	735.63
516.077	810.698
520.046	929.015
524.013	1259.6
527.978	2035.54
531.941	3252.06
535.902	5645.14
539.862	9791.06
543.82	15358.2
547.776	17865.4
551.73	14562.6
555.682	10229.6
559.632	7836.56
563.581	6583.34
567.528	5479.97
571.473	4391.64
575.416	3627.24
579.358	2857.49
583.297	2461.38
587.235	2187.21
591.171	1708.78
595.105	1263.28
599.038	938.814
602.968	603.595
606.897	360.659
610.824	221.151
614.75	50.042
618.673	48.775
622.595	16.652
626.515	29.254
630.433	43.714
634.349	7.14
638.263	24.604
642.176	176.454
646.087	329.625
649.996	407.662
653.904	550.238
657.809	670.85
661.713	861.271
665.615	1230.02
669.515	1695.04
673.414	2860.62
677.311	4255.7
681.205	4540.35
685.099	2903.64
688.99	1635.85
692.88	896.968
696.768	585.453
700.654	449.482
704.538	412.056
708.421	294.116
712.301	189.84
716.18	187.029
720.058	146.739
723.933	137.986
727.807	173.779
731.679	151.187
735.549	149.192
739.418	147.759
743.284	169.875
747.149	123.526
751.013	114.715
754.874	147.102
758.734	203.821
762.592	162.611
766.448	48.8
770.302	62.757
774.155	28.345
778.006	64.324
781.855	3.007
785.703	91.978
789.549	28.011
793.393	63.818
797.235	60.455
801.076	57.948
804.914	92.188
808.752	71.949
812.587	73.048
816.421	37.494
820.252	12.256
824.083	21.761
827.911	34.587
831.738	117.237
835.563	109.725
839.386	234.069
843.208	343.281
847.027	400.379
850.845	520.874
854.662	668.493
858.476	790.107
862.289	986.451
866.101	1186.12
869.91	1274.71
873.718	1253.09
877.524	1103.73
881.328	931.27
885.131	890.479
888.932	822.104
892.731	759.028
896.529	834.818
900.325	914.438
904.119	1026.27
907.911	1212.69
911.702	1385.42
915.491	1469.96
919.278	1686.48
923.064	1809.92
926.848	2139.7
930.63	2518.68
934.41	2979.57
938.189	3571.73
941.966	4297.04
945.742	5634.01
949.515	7410.99
953.287	9051.34
957.058	9610.48
960.827	10074.1
964.594	10548.1
968.359	11222.6
972.122	12317.7
975.884	11053.2
979.645	7929.21
983.403	5945.69
987.16	4773.66
990.915	3893.12
994.669	3174.07
998.421	2514.55
1002.17	2062.52
1005.92	1799
1009.67	1594.99
1013.41	1454.47
1017.15	1372.44
1020.9	1331.92
1024.64	1403.89
1028.38	1544.36
1032.11	1944.3
1035.85	2611.73
1039.58	3746.73
1043.31	4953.13
1047.04	4303.75
1050.77	2917.86
1054.5	2166.58
1058.22	1787.7
1061.95	1560.27
1065.67	1511.54
1069.39	1380.78
1073.11	1378.85
1076.82	1442.01
1080.54	1537.52
1084.25	1637.61
1087.96	1696.65
1091.67	1758.56
1095.38	1776.85
1099.09	1897.71
1102.8	2102.7
1106.5	2138.28
1110.2	2374.36
1113.9	2590.59
1117.6	2713.61
1121.3	2876.1
1124.99	3079.85
1128.69	3397.44
1132.38	3584.44
1136.07	4133.78
1139.76	3524.38
1143.45	2796.83
1147.13	2032.45
1150.82	1098.97
1154.5	464.69
1158.18	234.378
1161.86	93.721
1165.54	35.82
1169.21	18.525
1172.89	33.8
1176.56	54.843
1180.23	103.109
1183.9	114.728
1187.57	35.88
1191.23	20.31
1194.9	64.818
1198.56	50.278
1202.22	1.725
1205.88	19.256
1209.54	4.775
1213.2	8.07
1216.85	40.29
1220.5	38.179
1224.16	93.476
1227.81	66.386
1231.45	54.002
1235.1	69.524
1238.75	36.87
1242.39	10.981
1246.03	55.491
1249.67	46.782
1253.31	144.159
1256.95	140.512
1260.58	162.853
1264.22	146.732
1267.85	113.32
1271.48	168.604
1275.11	134.568
1278.74	163.938
1282.36	144.964
1285.99	173.785
1289.61	167.101
1293.23	228.245
1296.85	233.846
1300.47	293.074
1304.09	230.989
1307.7	94.498
1311.32	62.832
1314.93	126.229
1318.54	142.13
1322.14	85.932
1325.75	106.894
1329.36	145.417
1332.96	64.763
1336.56	97.724
1340.16	44.219
1343.76	78.258
1347.36	69.399
1350.96	72.999
1354.55	50.383
1358.14	210.933
1361.73	99.832
1365.32	61.799
1368.91	121.177
1372.5	90.462
1376.08	41.006
1379.67	11.435
1383.25	110.059
1386.83	69.281
1390.41	54.623
1393.98	79.722
1397.56	53.082
1401.13	48.141
1404.71	74.485
1408.28	130.368
1411.85	56.638
1415.41	63.427
1418.98	77.926
1422.55	44.54
1426.11	58.355
1429.67	72.266
1433.23	96.817
1436.79	91.151
1440.35	49.702
1443.9	114.875
1447.45	98.244
1451.01	116.843
1454.56	40.378
1458.11	0.73
1461.65	29.997
1465.2	104.706
1468.74	126.05
1472.29	39.328
1475.83	55.506
1479.37	176.405
1482.91	80.745
1486.44	43.216
1489.98	32.749
1493.51	67.582
1497.05	48.67
1500.58	23.169
1504.11	42.18
1507.63	50.71
1511.16	84.938
1514.68	79.275
1518.21	24.989
1521.73	145.875
1525.25	65.367
