Measurement: Raman, 514 nm, ccw, Raman Data Processed
Mineral: Aegirine
Rruff sample: R040054
Ideal chemistry: NaFe^3+^Si_2_O_6_
Locality: Mont Saint-Hilaire, Rouville County, Quebec, Canada
Source: Bob Downs
Description: Black cleavage fragments
Measured chemistry: (Na_0.96_Ca_0.04_)(Fe_0.86_Ti_0.07_Mn_0.06_Mg_0.02_)(Si_0.97_Al_0.03_)_2_O_6_
Pin_id: M00355
Orientation: Laser parallel to [1 0 1]. Fiducial mark perpendicular to laser is parallel to b* (0 1 0)
Raman shift (cm-1)	intensity
171.949	0
176.077	153.726
180.204	600.461
184.328	1741.96
188.45	3071.58
192.571	7589.81
196.689	12794.5
200.806	9943.15
204.921	4890.56
209.033	3109.13
213.144	2653.53
217.253	2416.53
221.36	1673.09
225.465	945.334
229.568	585.095
233.67	281.142
237.769	132.541
241.867	71.228
245.962	58.958
250.056	47.113
254.147	52.478
258.237	84.359
262.325	22.491
266.411	110.545
270.495	75.211
274.577	101.27
278.658	873.572
282.736	919.329
286.812	747.6
290.887	709.536
294.96	741.53
299.03	800.452
303.099	875.705
307.166	1040.1
311.232	1225.23
315.295	1383.69
319.356	1580.84
323.416	1973.81
327.473	2691.28
331.529	3988.92
335.583	6156.09
339.635	9506.45
343.685	11454.3
347.733	8809.98
351.779	5503.69
355.824	3711.49
359.866	3027.33
363.907	2530.94
367.946	2235.95
371.983	2151.35
376.018	2224.6
380.051	2505.77
384.082	2854.05
388.112	3277.72
392.139	3345.68
396.165	2603.66
400.189	1616.83
404.211	908.905
408.231	633.528
412.249	449.328
416.266	250.492
420.28	182.264
424.293	87.897
428.304	13.559
432.313	8.965
436.32	53.874
440.326	5.98
444.329	19.389
448.331	24.811
452.331	24.456
456.328	150.738
460.325	244.604
464.319	173.25
468.311	99.449
472.302	130.114
476.291	216.984
480.278	267.062
484.263	440.781
488.246	767.372
492.227	1598.72
496.207	3296.31
500.185	4980.52
504.161	3836.61
508.135	2125.46
512.107	1423.32
516.077	1029.74
520.046	842.204
524.013	878.621
527.978	1057.97
531.941	1426.36
535.902	2075.96
539.862	3405.84
543.82	5590.94
547.776	6673.26
551.73	6075.72
555.682	5215.16
559.632	4512.24
563.581	4359.55
567.528	4095.47
571.473	3549.73
575.416	3170.98
579.358	2767.93
583.297	2682.51
587.235	2262.17
591.171	1798.52
595.105	1369.86
599.038	1056.34
602.968	677
606.897	375.926
610.824	220.781
614.75	101.608
618.673	63.982
622.595	0.792
626.515	11.351
630.433	5.422
634.349	22.404
638.263	25.694
642.176	87.947
646.087	67.731
649.996	112.677
653.904	193.506
657.809	234.743
661.713	294.491
665.615	378.466
669.515	633.043
673.414	1090.27
677.311	1574.05
681.205	1615.58
685.099	1073.84
688.99	660.487
692.88	426.844
696.768	300.904
700.654	258.667
704.538	200.143
708.421	170.343
712.301	144.289
716.18	96.026
720.058	140.559
723.933	138.938
727.807	88.178
731.679	113.245
735.549	169.122
739.418	138.794
743.284	155.217
747.149	174.39
751.013	131.317
754.874	119.718
758.734	157.233
762.592	113.529
766.448	55.093
770.302	42.847
774.155	15.683
778.006	15.435
781.855	29.996
785.703	14.573
789.549	9.214
793.393	27.295
797.235	74.859
801.076	17.111
804.914	15.369
808.752	26.688
812.587	15.977
816.421	4.586
820.252	4.467
824.083	60.486
827.911	154.328
831.738	101.066
835.563	292.708
839.386	422.251
843.208	556.649
847.027	790.705
850.845	1025.49
854.662	1226.81
858.476	1409.41
862.289	1611.7
866.101	1730.12
869.91	1733.47
873.718	1721.81
877.524	1487.61
881.328	1197.54
885.131	1048.62
888.932	884.201
892.731	729.726
896.529	725.432
900.325	686.395
904.119	629.738
907.911	626.215
911.702	644.021
915.491	518.852
919.278	559.481
923.064	607.902
926.848	617.671
930.63	644.273
934.41	641.239
938.189	633.975
941.966	671.036
945.742	752.622
949.515	943.98
953.287	1230.73
957.058	1371.95
960.827	1517.98
964.594	1586.52
968.359	1644.65
972.122	1669.01
975.884	1596.59
979.645	1326.38
983.403	1110.39
987.16	991.648
990.915	874.147
994.669	869.887
998.421	859.874
1002.17	956.389
1005.92	1042.59
1009.67	1044.3
1013.41	1056.27
1017.15	1085.48
1020.9	1076.92
1024.64	1071.68
1028.38	1131.62
1032.11	1429.59
1035.85	1747.1
1039.58	2523.76
1043.31	3053.04
1047.04	2610.54
1050.77	1981.16
1054.5	1689.7
1058.22	1571.22
1061.95	1509.95
1065.67	1414.74
1069.39	1296.77
1073.11	1352.73
1076.82	1307.96
1080.54	1397.74
1084.25	1344.75
1087.96	1185.98
1091.67	1056.95
1095.38	1018.45
1099.09	972.672
1102.8	939.96
1106.5	861.714
1110.2	908.214
1113.9	822.807
1117.6	777.417
1121.3	696.72
1124.99	595.854
1128.69	575.869
1132.38	555.848
1136.07	489.247
1139.76	525.245
1143.45	400.195
1147.13	238.383
1150.82	141.827
1154.5	8.965
1158.18	15.435
1161.86	58.556
1165.54	22.219
1169.21	34.756
1172.89	34.764
1176.56	18.825
1180.23	59.102
1183.9	0.597
1187.57	35.96
1191.23	34.516
1194.9	38.956
1198.56	52.313
1202.22	42.289
1205.88	3.261
1209.54	12.272
1213.2	27.28
1216.85	48.116
1220.5	15.757
1224.16	16.476
1227.81	147.175
1231.45	64.512
1235.1	69.682
1238.75	52.645
1242.39	69.452
1246.03	167.142
1249.67	13.674
1253.31	70.011
1256.95	146.177
1260.58	129.218
1264.22	53.025
1267.85	83.643
1271.48	49.091
1275.11	36.338
1278.74	85.375
1282.36	46.217
1285.99	61.861
1289.61	109.241
1293.23	159.462
1296.85	98.631
1300.47	106.963
1304.09	78.341
1307.7	90.262
1311.32	26.136
1314.93	28.308
1318.54	30.317
1322.14	64.742
1325.75	97.194
1329.36	77.488
1332.96	71.811
1336.56	46.146
1340.16	88.959
1343.76	65.348
1347.36	64.699
1350.96	58.639
1354.55	23.646
1358.14	87.534
1361.73	123.623
1365.32	106.494
1368.91	127.863
1372.5	45.59
1376.08	75.219
1379.67	51.709
1383.25	97.791
1386.83	37.978
1390.41	56.998
1393.98	97.816
1397.56	105.429
1401.13	171.922
1404.71	134.362
1408.28	89.008
1411.85	54.481
1415.41	123.025
1418.98	109.661
1422.55	77.587
1426.11	118.681
1429.67	27.403
1433.23	117.017
1436.79	139.545
1440.35	151.287
1443.9	118.705
1447.45	135.4
1451.01	157.532
1454.56	142.477
1458.11	58.781
1461.65	63.104
1465.2	169.371
1468.74	162.684
1472.29	185.021
1475.83	111.604
1479.37	141.943
1482.91	67.516
1486.44	146.227
1489.98	32.094
1493.51	31.204
1497.05	60.683
1500.58	27.328
1504.11	27.267
1507.63	38.481
1511.16	115.546
1514.68	91.058
1518.21	51.932
1521.73	52.449
1525.25	78.436
