Measurement: Raman, 514 nm, ccw, Raman Data Processed
Mineral: Aegirine
Rruff sample: R050074
Ideal chemistry: NaFe^3+^Si_2_O_6_
Locality: Mt. Malosa, Zomba, Chilwa, Alkaline Area, Malawi
Source: Rock Currier
Description: Black prismatic single crystal
Measured chemistry: (Na_0.98_Ca_0.02_)_Σ=1_(Fe^3+^_0.96_Ti_0.01_Mn_0.03_)_Σ=1_Si_2.00_O_6_
Pin_id: L00202
Orientation: Laser parallel to (1 0 1). Fiducial mark perpendicular to laser is parallel to -b [0 -1 0]
Raman shift (cm-1)	intensity
104.109	0
108.298	148.942
112.486	246.601
116.672	376.425
120.855	156.598
125.036	206.905
129.216	628.589
133.393	1250.75
137.568	1086.41
141.741	529.519
145.911	223.928
150.08	65.946
154.247	149.694
158.411	249.468
162.574	279.773
166.734	61.451
170.893	54.538
175.049	618.698
179.203	940.984
183.355	564.952
187.505	527.056
191.653	855.598
195.799	1064.34
199.943	1282.79
204.084	2182.86
208.224	3913.89
212.362	5108.19
216.497	3696.53
220.631	1732.38
224.762	770.826
228.891	338.448
233.018	113.147
237.144	50.908
241.267	10.306
245.388	30.192
249.507	40.435
253.624	20.866
257.739	19.836
261.852	63.72
265.962	97.883
270.071	83.304
274.178	233.366
278.283	378.004
282.385	593.822
286.486	857.569
290.584	1204.87
294.681	1289.42
298.775	1021.53
302.868	913.42
306.958	991.726
311.047	993.768
315.133	894.969
319.217	843.213
323.299	945.761
327.38	1285.7
331.458	2124.32
335.534	3228.75
339.608	4115.86
343.681	4518.81
347.751	4322.67
351.819	3316.51
355.885	2448.93
359.949	2480.21
364.011	3047.09
368.071	3243.56
372.129	3193.61
376.185	3369.26
380.239	4366.51
384.291	5594.37
388.341	5475.71
392.389	3950.69
396.435	2411.15
400.479	1375
404.521	842.153
408.561	584.932
412.599	407.432
416.636	316.343
420.67	179.719
424.702	57.644
428.732	29.459
432.76	8.461
436.786	15.983
440.81	13.918
444.832	9.391
448.852	11.604
452.87	87.813
456.887	158.548
460.901	244.055
464.913	209.625
468.923	143.56
472.931	174.24
476.938	191.336
480.942	243.014
484.944	354.519
488.945	632.503
492.943	1261.05
496.94	1704.49
500.934	1528.78
504.927	1021.08
508.917	845.087
512.906	731.847
516.892	758.353
520.877	937.575
524.86	1367.52
528.841	2062.18
532.82	3232.56
536.796	5867.77
540.771	9394.11
544.744	11051.4
548.715	9088.5
552.684	6935.95
556.652	6083.8
560.617	5811.91
564.58	5015.41
568.541	3785.33
572.501	3014.6
576.458	2207.14
580.414	1758.8
584.367	1410.04
588.319	1012.1
592.268	761.032
596.216	537.822
600.162	379.475
604.106	207.634
608.048	149.714
611.988	78.202
615.926	77.102
619.862	47.765
623.797	27.197
627.729	56.627
631.659	23.768
635.588	70.441
639.515	71.996
643.439	139.447
647.362	121.401
651.283	151.371
655.202	218.249
659.119	278.294
663.034	299.899
666.947	471.144
670.859	787.175
674.768	1136
678.676	1096.61
682.581	773.017
686.485	412.224
690.387	267.232
694.287	132.044
698.185	100.458
702.081	92.06
705.975	40.259
709.868	1.752
713.758	54.994
717.647	41.538
721.533	28.865
725.418	3.962
729.301	6.828
733.182	35.484
737.061	64.165
740.939	66.302
744.814	58.939
748.688	46.595
752.559	96.576
756.429	87.468
760.297	52.279
764.163	28.102
768.027	41.401
771.89	27.594
775.75	6.678
779.609	32.9
783.465	6.899
787.32	65.484
791.173	16.77
795.024	61.393
798.873	11.582
802.721	46.082
806.566	5.359
810.41	19.455
814.252	18.803
818.092	44.789
821.93	125.706
825.766	168.565
829.601	262.374
833.433	325.135
837.264	487.855
841.093	704.539
844.92	940.192
848.745	1363.59
852.568	1701.57
856.39	2175.39
860.209	2760
864.027	3507.18
867.843	3602.02
871.657	3305.38
875.47	2557.47
879.28	2037.64
883.089	1640.22
886.896	1411.62
890.701	1221.11
894.504	1219.68
898.305	1125.39
902.105	1036.3
905.902	1056.37
909.698	1073.11
913.492	1111.8
917.285	1159.55
921.075	1301.44
924.864	1432.41
928.65	1599.64
932.435	1915.99
936.218	2271.09
940	2768.41
943.779	3858.55
947.557	5561.85
951.333	6817.83
955.107	7105.84
958.879	7307.9
962.65	8041.04
966.418	9434.63
970.185	11860.5
973.95	10876.7
977.714	7313.1
981.475	5037.62
985.235	3930.29
988.993	3061.12
992.749	2468.11
996.503	1963.26
1000.26	1623.56
1004.01	1389.03
1007.75	1205.67
1011.5	1137.76
1015.25	1248.95
1018.99	1378.66
1022.73	1564.35
1026.47	1890.62
1030.21	2353.28
1033.95	3391.41
1037.68	5134.28
1041.41	6994.05
1045.15	6027.03
1048.88	3616.02
1052.6	2483.23
1056.33	1877.4
1060.05	1520.27
1063.78	1162.99
1067.5	1016.5
1071.21	907.914
1074.93	838.956
1078.65	783.984
1082.36	780.889
1086.07	703.06
1089.78	669.762
1093.49	706.761
1097.2	714.71
1100.9	743.772
1104.6	757.962
1108.3	715.73
1112	823.024
1115.7	846.538
1119.4	918.411
1123.09	952.315
1126.78	1106.92
1130.47	1167.52
1134.16	1094.93
1137.85	971.716
1141.54	741.405
1145.22	479.938
1148.9	188.334
1152.58	119.023
1156.26	38.751
1159.94	23.863
1163.61	14.722
1167.28	10.798
1170.95	53.797
1174.62	28.839
1178.29	6.766
1181.96	22.394
1185.62	38.286
1189.29	45.354
1192.95	2.946
1196.61	43.729
1200.26	55.896
1203.92	23.88
1207.57	19.372
1211.23	9.362
1214.88	5.451
1218.53	46.396
1222.17	28.719
1225.82	65.074
1229.46	67.772
1233.11	24.6
1236.74	65.138
1240.38	73.746
1244.02	118.529
1247.66	53.73
1251.29	47.053
1254.92	3.261
1258.55	64.36
1262.18	50.966
1265.81	49.12
1269.43	80.662
1273.06	105.472
1276.68	69.399
1280.3	58.986
1283.91	67.395
1287.53	92.233
1291.15	52.679
1294.76	104.049
1298.37	80.825
1301.98	74.494
1305.59	136.97
1309.19	94.324
1312.8	103.252
1316.4	65.851
1320	73.072
1323.6	106.552
1327.2	85.085
1330.8	37.336
1334.39	61.783
1337.98	88.473
1341.58	78.138
1345.16	56.555
1348.75	118.823
1352.34	40.291
1355.92	38.53
1359.51	17.354
1363.09	73.856
1366.67	100.254
1370.24	54.738
1373.82	123.932
1377.39	99.831
1380.97	101.358
1384.54	15.894
1388.11	101.691
1391.68	13.788
1395.24	116.697
1398.81	34.616
1402.37	61.551
1405.93	89.909
1409.49	89.634
1413.05	43.292
1416.6	109.551
1420.16	67.787
1423.71	16.442
1427.26	16.303
1430.81	47.405
1434.36	26.996
1437.91	9.434
1441.45	124.558
1444.99	137.42
1448.54	106.261
1452.08	117.343
1455.61	99.501
1459.15	37.844
1462.68	83.691
1466.22	85.11
1469.75	143.74
1473.28	55.878
1476.81	65.407
1480.33	43.666
1483.86	87.4
1487.38	35.247
1490.9	48.132
1494.42	57.164
1497.94	89.329
1501.46	65.04
1504.97	91.269
1508.49	63.889
1512	122.573
1515.51	27.48
1519.02	19.618
1522.52	7.739
