Measurement: Raman, 514 nm, ccw, Raman Data Processed
Mineral: Aegirine
Rruff sample: R040054
Ideal chemistry: NaFe^3+^Si_2_O_6_
Locality: Mont Saint-Hilaire, Rouville County, Quebec, Canada
Source: Bob Downs
Description: Black cleavage fragments
Measured chemistry: (Na_0.96_Ca_0.04_)(Fe_0.86_Ti_0.07_Mn_0.06_Mg_0.02_)(Si_0.97_Al_0.03_)_2_O_6_
Pin_id: L00062
Orientation: Laser parallel to -b* (0 -1 0). Fiducial mark perpendicular to laser is parallel to c [0 0 1]
Raman shift (cm-1)	intensity
126.063	0
130.228	321.255
134.39	910.059
138.55	694.396
142.709	213.042
146.865	197.863
151.019	28.655
155.171	48.883
159.322	0.896
163.47	97.679
167.617	62.641
171.761	474.946
175.904	1967.65
180.044	3129.28
184.183	3089.12
188.319	5043.31
192.454	6297.98
196.586	4115.84
200.717	2016.42
204.846	1395.43
208.972	1342.16
213.097	1388.83
217.22	978.352
221.341	515.546
225.46	218.834
229.577	62.565
233.692	36.188
237.805	68.24
241.916	87.937
246.025	21.454
250.132	20.782
254.237	4.112
258.34	147.105
262.442	212.493
266.541	351.362
270.639	660.854
274.734	1038.15
278.828	1151.79
282.919	835.603
287.009	496.049
291.097	522.345
295.183	563.702
299.266	681.81
303.348	814.281
307.428	879.38
311.507	979.35
315.583	1087.11
319.657	1351.15
323.729	1600.9
327.8	2312.27
331.868	3834.43
335.935	6065.62
339.999	7732.35
344.062	6936.78
348.123	4907.95
352.182	3785.36
356.239	3960.86
360.294	5359.37
364.347	7963.37
368.398	8628.1
372.448	7002.48
376.495	6006.42
380.54	6819.99
384.584	8530.19
388.626	8574.61
392.666	6170.63
396.704	3647.84
400.74	2052.68
404.774	1434.33
408.806	952.182
412.836	595.009
416.865	322.575
420.891	203.659
424.916	78.103
428.939	10.073
432.959	16.969
436.978	36.287
440.996	42.687
445.011	35.036
449.024	32.698
453.036	106.279
457.045	106.761
461.053	170.498
465.059	154.813
469.063	118.574
473.065	137.901
477.065	259.442
481.063	367.467
485.06	593.331
489.054	1075.19
493.047	2163.38
497.038	3471.22
501.027	2735.69
505.014	1684.82
508.999	1261.62
512.982	1005.14
516.964	960.393
520.944	1044.4
524.921	1361.17
528.897	2088.69
532.871	3510.97
536.844	6613.02
540.814	10913.8
544.783	11814.7
548.749	8895.39
552.714	6392.72
556.677	4843.27
560.638	3994.01
564.597	3354.92
568.555	2851.84
572.511	2480.01
576.464	2207.33
580.416	1954.87
584.366	1713.95
588.315	1423.59
592.261	1168.11
596.206	800.1
600.148	550.799
604.089	310.233
608.028	168.608
611.965	17.86
615.901	51.137
619.834	24.502
623.766	68.562
627.696	22.514
631.624	27.417
635.551	0.189
639.475	83.044
643.398	173.747
647.318	209.096
651.237	262.308
655.155	359.764
659.07	406.751
662.984	481.16
666.895	734.352
670.805	1226.33
674.713	2150.09
678.62	2362.65
682.524	1502
686.427	824.139
690.328	654.077
694.227	291.815
698.124	212.355
702.02	149.696
705.913	112.834
709.805	86.761
713.695	75.467
717.584	59.949
721.47	73.205
725.355	90.24
729.238	84.048
733.119	89.635
736.998	96.026
740.876	85.24
744.752	49.296
748.626	49.213
752.498	22.549
756.368	28.431
760.237	14.191
764.104	10.352
767.969	65.35
771.832	24.457
775.693	10.468
779.553	30.375
783.411	55.163
787.267	77.798
791.122	64.089
794.974	47.049
798.825	14.695
802.674	14.764
806.522	3.849
810.367	2.943
814.211	55.623
818.053	148.206
821.893	192.7
825.732	286.114
829.568	377.451
833.403	473.716
837.236	589.916
841.068	684.056
844.898	756.141
848.726	934.176
852.552	1146.17
856.376	1213.74
860.199	1324.27
864.02	1389.12
867.839	1312.87
871.656	1234.59
875.472	1142.49
879.286	1129.62
883.098	1088.27
886.909	1014.86
890.717	1042.15
894.524	1125.39
898.33	1214.66
902.133	1346.98
905.935	1444.23
909.735	1492.94
913.533	1627.79
917.33	1889.04
921.124	2064.39
924.918	2448.99
928.709	2761.44
932.499	3349.38
936.286	4021.32
940.073	5311.66
943.857	7233.89
947.64	10593.6
951.421	13013.7
955.2	11663.2
958.978	9261.39
962.753	7739.89
966.527	6056.63
970.3	4547.72
974.071	3650.97
977.84	3013.37
981.607	2507.94
985.372	2191.66
989.136	1893.56
992.898	1593.63
996.659	1471.87
1000.42	1334.28
1004.17	1304.86
1007.93	1144.6
1011.68	1128.51
1015.43	1065.61
1019.18	1047.89
1022.93	964.772
1026.68	932.229
1030.42	996.78
1034.17	1046.62
1037.91	1103.28
1041.65	1230.62
1045.39	1201.56
1049.12	1177.85
1052.86	1175.18
1056.59	1104.55
1060.33	1076.57
1064.06	1083.62
1067.78	1021.26
1071.51	1022.9
1075.23	1078.04
1078.96	1135.3
1082.68	1076.37
1086.4	1028.56
1090.12	1104.62
1093.83	1045.85
1097.55	992.977
1101.26	1065.51
1104.97	1049.3
1108.68	1073.44
1112.39	1132.96
1116.1	1241.6
1119.8	1322.12
1123.5	1567.6
1127.2	1422.13
1130.9	1368.94
1134.6	1405.19
1138.3	1315.3
1141.99	1156.82
1145.69	839.939
1149.38	512.739
1153.07	278.159
1156.76	114.302
1160.44	64.638
1164.13	49.425
1167.81	8.899
1171.49	24.202
1175.17	13.635
1178.85	7.038
1182.52	25.268
1186.2	43.455
1189.87	9.212
1193.54	77.676
1197.21	84.887
1200.88	68.467
1204.55	26.544
1208.21	18.627
1211.88	15.436
1215.54	3.139
1219.2	1.261
1222.86	18.189
1226.51	17.114
1230.17	57.797
1233.82	66.041
1237.47	42.561
1241.12	57.53
1244.77	76.748
1248.42	13.904
1252.06	159.432
1255.71	41.498
1259.35	32.182
1262.99	91.845
1266.63	82.212
1270.26	85.432
1273.9	63.497
1277.53	108.409
1281.16	38.194
1284.8	42.74
1288.42	54.156
1292.05	73.622
1295.68	110.356
1299.3	117.216
1302.92	88.925
1306.55	113.449
1310.16	103.797
1313.78	141.828
1317.4	100.885
1321.01	34.279
1324.62	70.406
1328.24	62.183
1331.85	110.834
1335.45	35.944
1339.06	138.239
1342.66	93.95
1346.27	76.148
1349.87	70.96
1353.47	53.045
1357.07	40.407
1360.66	31.543
1364.26	63.402
1367.85	79.406
1371.44	113.531
1375.04	13.375
1378.62	55.008
1382.21	5.683
1385.8	81.552
1389.38	55.056
1392.96	1.735
1396.54	100.545
1400.12	48.905
1403.7	36.454
1407.28	69.621
1410.85	73.114
1414.42	83.139
1417.99	111.168
1421.56	80.87
1425.13	97.254
1428.7	39.912
1432.26	46.546
1435.83	46.291
1439.39	53.379
1442.95	125.918
1446.51	99.728
1450.06	84.714
1453.62	57.433
1457.17	64.999
1460.73	100.713
1464.28	37.84
1467.83	38.246
1471.37	63.468
1474.92	46.828
1478.46	22.576
1482.01	24.35
1485.55	42.289
1489.09	85.47
1492.63	81.967
1496.16	80.735
1499.7	29.872
1503.23	6.589
1506.76	23.285
1510.29	62.056
1513.82	30.115
1517.35	13.719
