Measurement: Raman, 514 nm, ccw, Raman Data Processed
Mineral: Aegirine
Rruff sample: R050074
Ideal chemistry: NaFe^3+^Si_2_O_6_
Locality: Mt. Malosa, Zomba, Chilwa, Alkaline Area, Malawi
Source: Rock Currier
Description: Black prismatic single crystal
Measured chemistry: (Na_0.98_Ca_0.02_)_Σ=1_(Fe^3+^_0.96_Ti_0.01_Mn_0.03_)_Σ=1_Si_2.00_O_6_
Pin_id: L00435
Orientation: Laser parallel to a* (1 0 0). Fiducial mark perpendicular to laser is parallel to -b [0 -1 0]
Raman shift (cm-1)	intensity
151.324	0
155.481	17.746
159.636	74.959
163.789	119.655
167.939	9.329
172.088	88.967
176.234	460.923
180.379	670.719
184.521	247.989
188.662	214.509
192.8	320.006
196.937	580.63
201.071	914.978
205.203	1605.55
209.333	2635.14
213.462	3517.83
217.588	2539.2
221.712	1029.65
225.834	442.421
229.954	223.609
234.072	117.351
238.188	40.409
242.302	10.276
246.414	5.988
250.523	35.292
254.631	8.451
258.737	98.428
262.841	150.104
266.943	182.489
271.042	145.477
275.14	142.166
279.236	185.294
283.33	283.479
287.421	345.828
291.511	596.383
295.599	686.409
299.684	617.755
303.768	668.62
307.85	724.658
311.929	833.399
316.007	805.532
320.083	690.99
324.156	747.118
328.228	987.858
332.298	1660.32
336.365	2304.26
340.431	2759.18
344.495	3109.42
348.556	3227.05
352.616	2318.51
356.674	1717.14
360.729	1741.96
364.783	2114.53
368.835	2306.32
372.884	2275.74
376.932	2508.9
380.978	3510.87
385.022	4466.7
389.064	4303.39
393.104	3022.6
397.141	1766.88
401.177	1012.49
405.211	656.857
409.243	445.908
413.273	373.77
417.301	228.517
421.327	81.203
425.351	54.051
429.374	37.263
433.394	15.975
437.412	52.157
441.428	11.998
445.443	0.083
449.455	11.105
453.465	166.388
457.474	168.714
461.48	179.528
465.485	191.677
469.487	156.506
473.488	139.921
477.487	101.226
481.483	232.08
485.478	247.367
489.471	485.972
493.462	854.881
497.451	1217.55
501.438	1012.02
505.423	662.173
509.406	502.102
513.388	466.818
517.367	543.32
521.344	708.913
525.32	1023.71
529.293	1519.61
533.265	2422.34
537.234	4277.83
541.202	6786.29
545.168	7936.14
549.132	6292.78
553.094	4884.45
557.054	4180.65
561.012	3801.84
564.968	3308.72
568.923	2426.8
572.875	1966.29
576.825	1515.91
580.774	1177.08
584.721	894.257
588.665	729.248
592.608	493.322
596.549	377.734
600.488	248.189
604.425	142.539
608.361	71.528
612.294	54.779
616.225	34.145
620.155	6.697
624.083	7.136
628.008	0.292
631.932	10.745
635.854	32.357
639.774	56.4
643.693	85.216
647.609	148.594
651.523	131.535
655.436	122.9
659.346	217.081
663.255	275.727
667.162	458.722
671.067	711.551
674.97	964.218
678.871	922.723
682.771	571.071
686.668	353.263
690.564	242.302
694.458	152.189
698.35	70.927
702.24	63.506
706.128	81.926
710.014	93.186
713.898	40.29
717.781	61.24
721.662	50.043
725.541	11.698
729.418	42.192
733.293	26.542
737.166	33.764
741.037	4.123
744.907	74.895
748.775	70.87
752.64	123.849
756.504	200.853
760.367	82.825
764.227	55.041
768.085	2.037
771.942	16.528
775.797	71.654
779.65	3.444
783.501	29.091
787.35	22.52
791.197	32.162
795.043	9.422
798.887	54.517
802.728	1.8
806.568	2.796
810.407	23.386
814.243	19.048
818.078	27.395
821.91	58.704
825.741	57.983
829.57	110.238
833.398	197.472
837.223	274.688
841.047	389.893
844.868	478.088
848.688	676.278
852.507	879.188
856.323	1097.7
860.137	1337.34
863.95	1607.76
867.761	1812.26
871.57	1621.97
875.377	1322.83
879.183	1174.15
882.987	972.862
886.788	899.869
890.588	916.055
894.387	825.052
898.183	751.5
901.978	720.181
905.771	727.189
909.562	791.269
913.351	792.427
917.138	894.408
920.924	939.775
924.708	981.364
928.49	1131.18
932.27	1327.6
936.048	1551.02
939.825	1972.68
943.6	2698.72
947.373	3895.07
951.144	4824.96
954.914	4824.22
958.682	4815.51
962.448	5329.5
966.212	6060.72
969.974	7015.27
973.735	7123.42
977.494	4779.71
981.251	3344.11
985.006	2619.64
988.76	2055.3
992.512	1682.08
996.262	1368.98
1000.01	1102.02
1003.76	993.177
1007.5	932.47
1011.24	893.901
1014.99	928.804
1018.72	999.73
1022.46	1122.59
1026.2	1251.56
1029.93	1485.05
1033.66	1846.76
1037.39	2602.47
1041.12	3746.66
1044.85	3422.92
1048.58	2048.47
1052.3	1519.05
1056.02	1249.07
1059.74	1067.63
1063.46	871.739
1067.18	792.497
1070.89	776.517
1074.6	679.427
1078.32	620.473
1082.03	558.417
1085.73	599.094
1089.44	544.291
1093.14	574.572
1096.85	568.255
1100.55	566.472
1104.25	590.683
1107.94	586.516
1111.64	628.484
1115.33	659.439
1119.03	768.796
1122.72	825.455
1126.4	851.896
1130.09	939.016
1133.78	911.327
1137.46	742.898
1141.14	535.187
1144.82	314.934
1148.5	183.297
1152.18	99.674
1155.85	15.456
1159.53	7.988
1163.2	30.601
1166.87	15.197
1170.54	39.498
1174.2	48.228
1177.87	12.855
1181.53	22.051
1185.19	15.11
1188.85	15.603
1192.51	7.912
1196.16	27.826
1199.82	44.232
1203.47	2.088
1207.12	35.055
1210.77	7.928
1214.42	3.88
1218.07	30.041
1221.71	10.395
1225.35	59.21
1228.99	4.454
1232.63	24.577
1236.27	67.689
1239.91	37.666
1243.54	25.518
1247.17	14.324
1250.8	49.036
1254.43	34.599
1258.06	62.546
1261.69	75.435
1265.31	33.712
1268.93	24.903
1272.55	65.415
1276.17	39.91
1279.79	30.712
1283.4	73.362
1287.02	32.897
1290.63	51.37
1294.24	60.649
1297.85	43.717
1301.46	36.714
1305.06	89.081
1308.67	9.561
1312.27	31.124
1315.87	49.812
1319.47	77.609
1323.07	33.523
1326.66	56.583
1330.26	18.591
1333.85	75.685
1337.44	19.214
1341.03	31.78
1344.61	66.459
1348.2	52.486
1351.78	42.204
1355.37	31.027
1358.95	52.476
1362.53	19.708
1366.1	49.469
1369.68	91.396
1373.25	67.033
1376.82	32.721
1380.39	35.463
1383.96	45.949
1387.53	43.204
1391.1	26.619
1394.66	65.105
1398.22	59.936
1401.79	74.797
1405.34	72.105
1408.9	48.811
1412.46	9.779
1416.01	52.681
1419.56	81.832
1423.12	57.238
1426.66	65.442
1430.21	34.381
1433.76	34.479
1437.3	52.744
1440.85	37.911
1444.39	10.574
1447.93	17.287
1451.46	57.803
1455	31.288
1458.54	6.551
1462.07	55.874
1465.6	21.037
1469.13	49.395
1472.66	35.309
1476.18	80.489
1479.71	28.478
1483.23	28.052
1486.76	25.287
1490.28	41.531
1493.79	46.782
1497.31	10.336
1500.83	36.285
1504.34	72.5
1507.85	49.398
1511.36	71.931
1514.87	19.644
1518.38	29.193
1521.88	9.555
