Measurement: Raman, 514 nm, ccw, Raman Data Processed
Mineral: Aegirine
Rruff sample: R050074
Ideal chemistry: NaFe^3+^Si_2_O_6_
Locality: Mt. Malosa, Zomba, Chilwa, Alkaline Area, Malawi
Source: Rock Currier
Description: Black prismatic single crystal
Measured chemistry: (Na_0.98_Ca_0.02_)_Σ=1_(Fe^3+^_0.96_Ti_0.01_Mn_0.03_)_Σ=1_Si_2.00_O_6_
Pin_id: L00512
Orientation: Laser parallel to -b* (0 -1 0). Fiducial mark perpendicular to laser is parallel to c [0 0 1]
Raman shift (cm-1)	intensity
99.917	0
104.109	5.216
108.298	321.54
112.486	394.077
116.672	640.505
120.855	435.377
125.036	511.668
129.216	596.261
133.393	700.168
137.568	444.308
141.741	358.692
145.911	134.66
150.08	82.373
154.247	113.126
158.411	26.82
162.574	97.053
166.734	221.008
170.893	1111.1
175.049	2997.02
179.203	2972.41
183.355	1290.82
187.505	775.764
191.653	609.934
195.799	605.097
199.943	418.177
204.084	527.188
208.224	654.761
212.362	711.307
216.497	479.458
220.631	256.685
224.762	65.191
228.891	29.273
233.018	46.426
237.144	111.692
241.267	28.74
245.388	54.736
249.507	10.979
253.624	76.939
257.739	227.292
261.852	385.482
265.962	598.649
270.071	866.572
274.178	1192.89
278.283	1161.94
282.385	1030.71
286.486	857.284
290.584	819.802
294.681	785.761
298.775	812.022
302.868	929.114
306.958	1076.72
311.047	1155.35
315.133	1197.24
319.217	1390.69
323.299	1797.4
327.38	2622.09
331.458	3980.25
335.534	4713.35
339.608	4231.21
343.681	3232.89
347.751	2686.03
351.819	2273.88
355.885	2250.1
359.949	2257.13
364.011	2418.08
368.071	2705.3
372.129	3433.91
376.185	4988.79
380.239	7643.45
384.291	9296.39
388.341	8543.7
392.389	5915.4
396.435	3514.23
400.479	2139.71
404.521	1339.71
408.561	996.723
412.599	706.079
416.636	507.429
420.67	348.304
424.702	279.81
428.732	157.878
432.76	139.394
436.786	122.596
440.81	130.19
444.832	137.225
448.852	155.274
452.87	168.478
456.887	216.052
460.901	168.648
464.913	70.566
468.923	46.625
472.931	28.437
476.938	36.027
480.942	111.373
484.944	67.462
488.945	155.637
492.943	190.798
496.94	269.929
500.934	283.008
504.927	295.034
508.917	405.01
512.906	441.932
516.892	572.83
520.877	909.723
524.86	1456.62
528.841	2289.52
532.82	3854.41
536.796	6838.28
540.771	9838.13
544.744	10063
548.715	7918.16
552.684	5672.75
556.652	4140.82
560.617	3179.39
564.58	2542.26
568.541	1975.76
572.501	1539.12
576.458	1301.34
580.414	989.834
584.367	798.95
588.319	609.67
592.268	346.57
596.216	250.166
600.162	142.168
604.106	34.636
608.048	9.215
611.988	32.127
615.926	46.126
619.862	8.888
623.797	14.137
627.729	17.501
631.659	25.8
635.588	67.699
639.515	91.109
643.439	174.883
647.362	231.793
651.283	324.422
655.202	382.024
659.119	480.94
663.034	775.854
666.947	1266.14
670.859	2190.12
674.768	2919.93
678.676	2358.54
682.581	1292.08
686.485	659.527
690.387	346.898
694.287	189.188
698.185	90.394
702.081	73.517
705.975	79.55
709.868	66.486
713.758	16.314
717.647	34.2
721.533	10.421
725.418	2.064
729.301	8.363
733.182	27.507
737.061	0.497
740.939	10.31
744.814	2.962
748.688	6.482
752.559	68.883
756.429	37.178
760.297	0.27
764.163	9.052
768.027	6.45
771.89	17.81
775.75	0.878
779.609	87.544
783.465	19.49
787.32	20.843
791.173	54.209
795.024	10.729
798.873	31.263
802.721	10.817
806.566	20.082
810.41	23.001
814.252	10.74
818.092	14.306
821.93	19.578
825.766	29.074
829.601	74.311
833.433	53.456
837.264	94.513
841.093	111.483
844.92	168.368
848.745	226.171
852.568	291.891
856.39	299.465
860.209	342.859
864.027	409.853
867.843	423.403
871.657	450.083
875.47	453.597
879.28	512.733
883.089	523.454
886.896	519.447
890.701	547.828
894.504	567.422
898.305	607.188
902.105	639.582
905.902	760.833
909.698	834.288
913.492	902.163
917.285	1094.7
921.075	1128.89
924.864	1416.39
928.65	1563.9
932.435	1869.82
936.218	2267.05
940	2784.99
943.779	3747.68
947.557	4875.18
951.333	5166.42
955.107	5079.56
958.879	4729.37
962.65	4266.4
966.418	3808.95
970.185	3155.68
973.95	2503.99
977.714	1910.57
981.475	1584.33
985.235	1371.18
988.993	1126.09
992.749	1007.06
996.503	835.081
1000.26	757.165
1004.01	683.307
1007.75	643.51
1011.5	636.779
1015.25	722.119
1018.99	809.541
1022.73	820.067
1026.47	830.061
1030.21	878.428
1033.95	991.948
1037.68	1095.14
1041.41	1122.62
1045.15	1053.03
1048.88	871.795
1052.6	846.266
1056.33	772.252
1060.05	703.98
1063.78	706.534
1067.5	717.362
1071.21	724.343
1074.93	737.643
1078.65	737.827
1082.36	709.8
1086.07	730.54
1089.78	784.486
1093.49	847.419
1097.2	892.549
1100.9	899.437
1104.6	963.463
1108.3	1060.49
1112	1115.71
1115.7	1226.06
1119.4	1429.4
1123.09	1702.97
1126.78	1617.76
1130.47	1773.1
1134.16	1675.47
1137.85	1479.46
1141.54	1062.35
1145.22	639.198
1148.9	414.69
1152.58	214.199
1156.26	106.754
1159.94	33.437
1163.61	31.062
1167.28	26.625
1170.95	35.103
1174.62	13.155
1178.29	43.137
1181.96	53.234
1185.62	5.271
1189.29	24.927
1192.95	11.596
1196.61	32.328
1200.26	0.224
1203.92	23.595
1207.57	8.861
1211.23	12.341
1214.88	0.115
1218.53	16.682
1222.17	11.474
1225.82	11.969
1229.46	32.51
1233.11	13.388
1236.74	59.239
1240.38	41.933
1244.02	62.606
1247.66	66.225
1251.29	56.839
1254.92	24.212
1258.55	18.621
1262.18	32.022
1265.81	27.339
1269.43	46.865
1273.06	101.987
1276.68	57.156
1280.3	49.044
1283.91	57.831
1287.53	15.522
1291.15	44.434
1294.76	61.881
1298.37	50.421
1301.98	49.67
1305.59	32.824
1309.19	29.869
1312.8	0.814
1316.4	42.645
1320	44.991
1323.6	54.938
1327.2	55.792
1330.8	21.813
1334.39	13.295
1337.98	46.887
1341.58	42.046
1345.16	17.156
1348.75	45.952
1352.34	58.991
1355.92	34.733
1359.51	39.886
1363.09	33.725
1366.67	11.415
1370.24	17.551
1373.82	81.052
1377.39	9.735
1380.97	36.528
1384.54	33.063
1388.11	41.996
1391.68	10.206
1395.24	19.054
1398.81	27.219
1402.37	82.89
1405.93	30.378
1409.49	60.213
1413.05	61.328
1416.6	75.516
1420.16	33.654
1423.71	56.65
1427.26	39.949
1430.81	36.193
1434.36	17.201
1437.91	54.152
1441.45	34.517
1444.99	43.042
1448.54	27.57
1452.08	44.946
1455.61	21.435
1459.15	49.562
1462.68	14.679
1466.22	42.848
1469.75	57.099
1473.28	34.284
1476.81	60.052
1480.33	38.931
1483.86	10.418
1487.38	80.585
1490.9	79.813
1494.42	37.129
1497.94	79.756
1501.46	57.784
1504.97	16.433
1508.49	18.714
1512	33.305
1515.51	21.265
1519.02	7.992
1522.52	66.132
