Measurement: Raman, 514 nm, ccw, Raman Data Processed
Mineral: Aegirine
Rruff sample: R050074
Ideal chemistry: NaFe^3+^Si_2_O_6_
Locality: Mt. Malosa, Zomba, Chilwa, Alkaline Area, Malawi
Source: Rock Currier
Description: Black prismatic single crystal
Measured chemistry: (Na_0.98_Ca_0.02_)_Σ=1_(Fe^3+^_0.96_Ti_0.01_Mn_0.03_)_Σ=1_Si_2.00_O_6_
Pin_id: L00435
Orientation: Laser parallel to a* (1 0 0). Fiducial mark perpendicular to laser is parallel to -b [0 -1 0]
Raman shift (cm-1)	intensity
138.841	0
143.004	117.505
147.165	178.808
151.324	33.001
155.481	209.048
159.636	506.162
163.789	550.59
167.939	127.917
172.088	143.228
176.234	359.616
180.379	553.935
184.521	647.67
188.662	1299.08
192.8	2189.27
196.937	2032.47
201.071	1233.03
205.203	903.571
209.333	1008.01
213.462	1324.54
217.588	955.878
221.712	363.925
225.834	127.471
229.954	61.468
234.072	17.374
238.188	16.384
242.302	61.235
246.414	93.432
250.523	49.048
254.631	58.973
258.737	5.179
262.841	161.684
266.943	223.309
271.042	201.781
275.14	295.12
279.236	386.327
283.33	517.703
287.421	715.432
291.511	937.078
295.599	904.407
299.684	754.666
303.768	761.631
307.85	1075.76
311.929	1408.71
316.007	1169.66
320.083	1005.75
324.156	1014.81
328.228	1268.71
332.298	1863.54
336.365	2538.69
340.431	2837.45
344.495	2490.65
348.556	1988.72
352.616	1491.26
356.674	1263.24
360.729	1379.17
364.783	1526.85
368.835	1569.85
372.884	1443.39
376.932	1354.56
380.978	1566.38
385.022	1880.43
389.064	1778.59
393.104	1247.23
397.141	697.886
401.177	425.007
405.211	257.911
409.243	205.927
413.273	130.407
417.301	107.253
421.327	13.424
425.351	27.147
429.374	45.35
433.394	61.632
437.412	2.283
441.428	36.442
445.443	67.532
449.455	31.969
453.465	108.73
457.474	135.642
461.48	176.208
465.485	175.416
469.487	140.128
473.488	81.012
477.487	104.676
481.483	150.879
485.478	290.795
489.471	397.731
493.462	837.256
497.451	1185.99
501.438	920.666
505.423	574.256
509.406	497.466
513.388	475.314
517.367	554.818
521.344	704.99
525.32	925.843
529.293	1228.39
533.265	1429.63
537.234	2050.61
541.202	3162.53
545.168	3879.29
549.132	3358.88
553.094	2894.34
557.054	2980.6
561.012	3158.49
564.968	2864.53
568.923	2212.98
572.875	1753.3
576.825	1374.93
580.774	1087.01
584.721	875.229
588.665	615.838
592.608	475.137
596.549	355.626
600.488	234.133
604.425	120.573
608.361	87.344
612.294	60.69
616.225	25.853
620.155	27.233
624.083	23.652
628.008	12.414
631.932	20.67
635.854	37.82
639.774	9.622
643.693	63.981
647.609	56.813
651.523	134.777
655.436	78.132
659.346	142.871
663.255	203.932
667.162	278.072
671.067	456.163
674.97	597.104
678.871	585.899
682.771	370.553
686.668	220.071
690.564	132.456
694.458	80.003
698.35	52.839
702.24	22.835
706.128	42.703
710.014	44.446
713.898	48.144
717.781	27.567
721.662	35.967
725.541	7.715
729.418	47.504
733.293	59.666
737.166	93.789
741.037	59.921
744.907	40.06
748.775	96.257
752.64	201.513
756.504	292.856
760.367	163.959
764.227	79.261
768.085	40.627
771.942	31.713
775.797	17.019
779.65	17.421
783.501	41.014
787.35	12.707
791.197	55.8
795.043	85.764
798.887	35.678
802.728	43.364
806.568	1.205
810.407	3.39
814.243	53.194
818.078	8.818
821.91	75.148
825.741	120.121
829.57	200.103
833.398	317.099
837.223	393.11
841.047	644.141
844.868	869.196
848.688	1263.1
852.507	1565.84
856.323	1975.46
860.137	2484.24
863.95	3132.91
867.761	3244.69
871.57	2769.64
875.377	2140.75
879.183	1563.81
882.987	1224.22
886.788	1061.38
890.588	849.169
894.387	737.647
898.183	677.527
901.978	633.729
905.771	563.025
909.562	549.432
913.351	550.927
917.138	548.51
920.924	495.149
924.708	598.76
928.49	614.361
932.27	701.091
936.048	782.272
939.825	985.615
943.6	1373.32
947.373	1986.45
951.144	2542.99
954.914	2443.25
958.682	2298.24
962.448	2392.34
966.212	2515.29
969.974	2610.8
973.735	2725.97
977.494	1870.24
981.251	1291.62
985.006	1028.1
988.76	842.68
992.512	789.821
996.262	674.487
1000.01	699.047
1003.76	685.049
1007.5	684.159
1011.24	737.461
1014.99	785.829
1018.72	848.87
1022.46	942.777
1026.2	1014.09
1029.93	1196.96
1033.66	1658.2
1037.39	2350.43
1041.12	3375.21
1044.85	3217.75
1048.58	1672.24
1052.3	1134.46
1056.02	869.832
1059.74	717.675
1063.46	689.853
1067.18	623.383
1070.89	571.15
1074.6	482.951
1078.32	480.844
1082.03	493.998
1085.73	481.192
1089.44	428.351
1093.14	447.793
1096.85	374.764
1100.55	355.215
1104.25	337.937
1107.94	334.796
1111.64	342.633
1115.33	366.462
1119.03	379.046
1122.72	394.552
1126.4	364.322
1130.09	367.197
1133.78	373.882
1137.46	311.981
1141.14	241.999
1144.82	120.54
1148.5	110.428
1152.18	78.435
1155.85	14.582
1159.53	4.364
1163.2	22.225
1166.87	37.913
1170.54	38.364
1174.2	13.152
1177.87	8.012
1181.53	4.802
1185.19	36.396
1188.85	5.062
1192.51	4.485
1196.16	9.517
1199.82	36.133
1203.47	1.315
1207.12	10.021
1210.77	12.233
1214.42	7.278
1218.07	25.259
1221.71	19.232
1225.35	25.127
1228.99	20.933
1232.63	31.897
1236.27	27.771
1239.91	7.85
1243.54	46.896
1247.17	12.271
1250.8	15.567
1254.43	39.757
1258.06	32.786
1261.69	22.938
1265.31	6.884
1268.93	89.732
1272.55	51.504
1276.17	45.095
1279.79	39.628
1283.4	46.007
1287.02	58.225
1290.63	42.334
1294.24	67.485
1297.85	39.769
1301.46	69.587
1305.06	116.131
1308.67	54.813
1312.27	5.726
1315.87	41.659
1319.47	4.45
1323.07	51.122
1326.66	30.996
1330.26	15.234
1333.85	39.889
1337.44	10.323
1341.03	30.211
1344.61	52.938
1348.2	48.81
1351.78	21.575
1355.37	89.289
1358.95	53.532
1362.53	34.397
1366.1	28.807
1369.68	38.887
1373.25	85.18
1376.82	24.071
1380.39	16.581
1383.96	36.729
1387.53	74.116
1391.1	65.686
1394.66	57.679
1398.22	55.421
1401.79	57.217
1405.34	40.796
1408.9	59.465
1412.46	27.88
1416.01	95.485
1419.56	47.909
1423.12	22.67
1426.66	41.747
1430.21	54.465
1433.76	88.3
1437.3	5.908
1440.85	22.521
1444.39	89.688
1447.93	39.903
1451.46	64.877
1455	91.923
1458.54	17.881
1462.07	79.724
1465.6	62.38
1469.13	13.944
1472.66	61.723
1476.18	51.043
1479.71	67.537
1483.23	68.534
1486.76	42.59
1490.28	33.653
1493.79	51.781
1497.31	32.873
1500.83	23.829
1504.34	37.792
1507.85	42.974
1511.36	17.289
1514.87	68.608
1518.38	27.974
