Measurement: Raman, 514 nm, ccw, Raman Data Processed
Mineral: Aegirine
Rruff sample: R050074
Ideal chemistry: NaFe^3+^Si_2_O_6_
Locality: Mt. Malosa, Zomba, Chilwa, Alkaline Area, Malawi
Source: Rock Currier
Description: Black prismatic single crystal
Measured chemistry: (Na_0.98_Ca_0.02_)_Σ=1_(Fe^3+^_0.96_Ti_0.01_Mn_0.03_)_Σ=1_Si_2.00_O_6_
Pin_id: L00512
Orientation: Laser parallel to -b* (0 -1 0). Fiducial mark perpendicular to laser is parallel to c [0 0 1]
Raman shift (cm-1)	intensity
109.694	0
113.881	350.706
118.066	318.043
122.249	71.505
126.43	100.962
130.608	32.482
134.785	174.281
138.959	314.688
143.131	173.422
147.301	143.644
151.469	68.037
155.635	30.823
159.799	28.368
163.961	102.903
168.121	139.39
172.278	628.349
176.434	1072.46
180.587	1301.48
184.739	1925.36
188.888	3180.06
193.035	3511.86
197.18	2470.43
201.324	1460.43
205.465	929.557
209.603	651.458
213.74	460.515
217.875	275.692
222.008	66.782
226.139	35.094
230.267	48.256
234.394	10.369
238.518	32.28
242.641	31.988
246.761	19.428
250.879	53.311
254.996	0.527
259.11	0.176
263.222	46.632
267.332	34.021
271.44	120.725
275.546	157.309
279.65	197.722
283.752	298.394
287.852	287.207
291.95	347.317
296.046	387.216
300.14	526.403
304.231	624.964
308.321	739.432
312.409	832.27
316.495	935.253
320.578	1216.76
324.66	1740.47
328.739	2743.56
332.817	3775.04
336.892	3913.34
340.966	3037.32
345.037	2204.87
349.107	1760.22
353.174	1720.27
357.24	1945.52
361.303	2053.88
365.365	1891.15
369.424	1570.63
373.481	1393.31
377.537	1340.95
381.59	1455.57
385.642	1436.19
389.691	1240.13
393.738	903.445
397.784	633.583
401.827	447.375
405.868	311.028
409.908	264.242
413.945	244.102
417.98	158.527
422.014	93.707
426.045	37.362
430.075	70.183
434.102	25.088
438.127	77.61
442.151	82.852
446.172	3.546
450.192	120.548
454.209	79.171
458.225	106.157
462.238	65.84
466.25	103.89
470.259	58.428
474.267	116.657
478.273	125.927
482.276	138.165
486.278	337.789
490.278	701.514
494.276	1122.5
498.271	1015.87
502.265	667.948
506.257	347.764
510.247	315.345
514.235	281.656
518.221	353.707
522.205	385.505
526.187	451.056
530.167	603.366
534.145	897.442
538.122	1332.33
542.096	1883.12
546.068	2000.9
550.039	1881.86
554.007	1681.39
557.973	1448.09
561.938	1273.57
565.901	1246.47
569.861	1123.61
573.82	987.37
577.777	835.213
581.732	675.284
585.685	535.164
589.636	417.808
593.585	329.171
597.532	161.793
601.477	92.602
605.42	66.416
609.361	22.595
613.301	17.652
617.238	4.788
621.174	1.325
625.108	28.24
629.039	17.935
632.969	9.441
636.897	43.913
640.823	90.915
644.747	57.913
648.669	100.132
652.589	168.065
656.508	149.774
660.424	162.361
664.339	304
668.251	477.046
672.162	709.52
676.071	744.834
679.978	497.046
683.883	306.156
687.786	204.168
691.687	110.084
695.586	71.906
699.484	83.634
703.379	60.27
707.273	79.806
711.165	58.248
715.055	72.598
718.943	34.856
722.829	72.025
726.713	60.117
730.595	79.138
734.476	49.099
738.354	30.01
742.231	68.877
746.106	93.704
749.978	70.494
753.849	55.281
757.719	49.658
761.586	38.523
765.451	34.708
769.315	2.743
773.177	0.574
777.036	20.33
780.894	7.73
784.75	17.05
788.605	10.463
792.457	45.022
796.307	38.131
800.156	18.177
804.003	13.434
807.848	3.505
811.691	16.476
815.532	43.392
819.371	19.551
823.209	4.413
827.045	29.243
830.878	70.046
834.71	82.824
838.54	143.58
842.369	197.315
846.195	222.031
850.02	299.591
853.842	331.222
857.663	429.57
861.482	494.819
865.299	491.284
869.115	584.75
872.928	561.247
876.74	544.582
880.55	516.93
884.358	535.48
888.164	545.115
891.969	583.722
895.771	594.466
899.572	547.173
903.371	508.035
907.168	574.809
910.963	516.629
914.757	548.279
918.548	538.073
922.338	544.287
926.126	587.637
929.912	626.779
933.697	690.82
937.479	894.069
941.26	1168.77
945.039	1531.33
948.816	1861.27
952.591	2085.96
956.365	2095.94
960.136	2133.76
963.906	1976.82
967.674	1705.45
971.441	1419.65
975.205	1188.68
978.968	978.813
982.729	897.006
986.488	774.259
990.245	685.57
994	610.938
997.754	551.367
1001.51	584.856
1005.26	544.406
1009	557.018
1012.75	555.259
1016.5	569.785
1020.24	573.625
1023.98	579.484
1027.72	547.144
1031.46	516.138
1035.19	549.627
1038.93	584.12
1042.66	557.407
1046.39	538.684
1050.12	588.013
1053.85	564.216
1057.57	563.93
1061.29	574.52
1065.02	578.9
1068.74	522.207
1072.45	499.672
1076.17	562.306
1079.88	502.087
1083.6	423.008
1087.31	455.963
1091.02	413.161
1094.72	347.345
1098.43	306.524
1102.13	299.942
1105.84	307.849
1109.54	298.182
1113.24	306.653
1116.93	328.677
1120.63	289.455
1124.32	307.077
1128.01	240.694
1131.7	222.401
1135.39	191.102
1139.08	170.74
1142.76	163.901
1146.45	63.186
1150.13	57.6
1153.81	57.708
1157.48	35.334
1161.16	7.466
1164.84	16.305
1168.51	8.875
1172.18	33.818
1175.85	10.533
1179.52	23.165
1183.18	29.148
1186.85	17.604
1190.51	7.696
1194.17	41.099
1197.83	8.595
1201.48	0.468
1205.14	7.256
1208.79	10.377
1212.44	40.645
1216.09	30.067
1219.74	2.125
1223.39	56.929
1227.03	17.246
1230.68	56.512
1234.32	45.725
1237.96	17.895
1241.6	53.572
1245.23	28.137
1248.87	12.164
1252.5	54.309
1256.13	78.226
1259.76	25.085
1263.39	66.886
1267.02	40.629
1270.64	89.374
1274.26	58.909
1277.88	31.412
1281.5	61.842
1285.12	51.201
1288.74	88.465
1292.35	75.658
1295.96	46.786
1299.57	70.16
1303.18	48.802
1306.79	34.21
1310.4	20.173
1314	62.595
1317.6	28.261
1321.2	86.018
1324.8	8.41
1328.4	65.158
1331.99	31.142
1335.59	57.479
1339.18	17.258
1342.77	61.794
1346.36	12.687
1349.95	69.08
1353.53	53.827
1357.12	65.546
1360.7	68.264
1364.28	78.072
1367.86	56.565
1371.44	68.901
1375.01	38.078
1378.59	31.165
1382.16	20.568
1385.73	72.236
1389.3	52.49
1392.87	55.807
1396.43	72.766
1399.99	66.447
1403.56	79.089
1407.12	40.51
1410.68	13.77
1414.23	74.354
1417.79	44.849
1421.34	70.699
1424.9	28.269
1428.45	61.149
1431.99	65.616
1435.54	59.15
1439.09	36.323
1442.63	70.612
1446.17	81.838
1449.71	58.005
1453.26	98.992
1456.79	28.582
1460.33	55.425
1463.86	38.147
1467.39	85.834
1470.92	81.742
1474.45	111.799
1477.98	105.009
1481.51	91.427
1485.03	55.041
1488.56	60.777
1492.08	66.748
1495.6	4.03
1499.11	4.129
1502.63	7.211
1506.14	18.112
1509.66	32.963
1513.17	11.911
1516.68	0
