Measurement: Raman, 514 nm, ccw, Raman Data Processed
Mineral: Aegirine
Rruff sample: R050074
Ideal chemistry: NaFe^3+^Si_2_O_6_
Locality: Mt. Malosa, Zomba, Chilwa, Alkaline Area, Malawi
Source: Rock Currier
Description: Black prismatic single crystal
Measured chemistry: (Na_0.98_Ca_0.02_)_Σ=1_(Fe^3+^_0.96_Ti_0.01_Mn_0.03_)_Σ=1_Si_2.00_O_6_
Pin_id: L00155
Orientation: Laser parallel to -c* (0 0 -1). Fiducial mark perpendicular to laser is parallel to a [1 0 0]
Raman shift (cm-1)	intensity
101.281	0
105.462	9.798
109.642	101.841
113.82	422.129
117.995	330.295
122.168	149.909
126.34	279.308
130.509	810.324
134.676	1754.83
138.841	1251.67
143.004	446.068
147.165	156.27
151.324	119.181
155.481	42.897
159.636	7.672
163.789	83.042
167.939	187.225
172.088	585.079
176.234	2201.68
180.379	4710.41
184.521	3122.33
188.662	2354.03
192.8	3921.04
196.937	3171.18
201.071	1357.73
205.203	752.594
209.333	806.248
213.462	1235.08
217.588	968.866
221.712	384.799
225.834	89.127
229.954	5.147
234.072	61.981
238.188	99.387
242.302	75.335
246.414	15.945
250.523	20.052
254.631	8.545
258.737	64.14
262.841	184.461
266.943	378.273
271.042	661.567
275.14	1088.15
279.236	1164.45
283.33	812.423
287.421	694.209
291.511	811.057
295.599	888.424
299.684	837.518
303.768	906.413
307.85	1029.33
311.929	1170.12
316.007	1229.33
320.083	1400.63
324.156	1928.03
328.228	2780.09
332.298	5031.7
336.365	9534.76
340.431	12881.8
344.495	10227.7
348.556	6261.94
352.616	4056.96
356.674	2860.88
360.729	2614.66
364.783	2790.3
368.835	3568.76
372.884	4591.65
376.932	6911.86
380.978	12365.9
385.022	19455.6
389.064	18466.8
393.104	11058.2
397.141	5833.65
401.177	3277.88
405.211	1985.87
409.243	1339.8
413.273	953.721
417.301	663.989
421.327	428.444
425.351	279.581
429.374	172.153
433.394	134.652
437.412	99.957
441.428	66.892
445.443	17.475
449.455	45.525
453.465	136.527
457.474	175.498
461.48	157.386
465.485	162.278
469.487	122.146
473.488	75.007
477.487	111.957
481.483	193.083
485.478	256.375
489.471	537.812
493.462	1113.37
497.451	2145.03
501.438	1940.72
505.423	1196.44
509.406	945.207
513.388	882.009
517.367	1034.85
521.344	1320.73
525.32	2024.65
529.293	3374.61
533.265	6008.64
537.234	12699.7
541.202	25832.8
545.168	31226
549.132	20199.4
553.094	11313.1
557.054	7535.76
561.012	5660.91
564.968	4337.62
568.923	3265.01
572.875	2639.29
576.825	2053.73
580.774	1659.43
584.721	1346.19
588.665	1127.92
592.608	907.417
596.549	665.861
600.488	439.369
604.425	304.703
608.361	197.009
612.294	166.702
616.225	127.565
620.155	134.736
624.083	69.209
628.008	70.08
631.932	148.585
635.854	129.465
639.774	185.895
643.693	263.967
647.609	386.277
651.523	401.975
655.436	591.018
659.346	648.89
663.255	933.699
667.162	1355.15
671.067	2287.53
674.97	3995.85
678.871	4879.11
682.771	3302.29
686.668	1609.41
690.564	847.457
694.458	447.678
698.35	241.324
702.24	165.142
706.128	116.88
710.014	86.533
713.898	49.087
717.781	6.524
721.662	29.838
725.541	23.002
729.418	5.012
733.293	26.155
737.166	4.396
741.037	41.348
744.907	48.426
748.775	11.838
752.64	15.532
756.504	1.438
760.367	4.498
764.227	32.748
768.085	33.364
771.942	17.373
775.797	78.743
779.65	37.564
783.501	15.69
787.35	8.113
791.197	41.899
795.043	6.089
798.887	15.64
802.728	5.211
806.568	9.258
810.407	14.922
814.243	50.81
818.078	39.588
821.91	60.266
825.741	119.853
829.57	160.35
833.398	189.762
837.223	246.089
841.047	311.337
844.868	397.508
848.688	605.604
852.507	703.629
856.323	983.585
860.137	1243.48
863.95	1717.25
867.761	1915.25
871.57	1697.22
875.377	1321.4
879.183	1028.23
882.987	959.518
886.788	875.197
890.588	876.023
894.387	948.715
898.183	1007.73
901.978	1092.37
905.771	1154.19
909.562	1312.56
913.351	1598.63
917.138	1868.81
920.924	2198.39
924.708	2726.49
928.49	3267.82
932.27	4220.36
936.048	5527.17
939.825	7835
943.6	12064.5
947.373	19666.9
951.144	26331.1
954.914	21977.3
958.682	15995.2
962.448	13944.1
966.212	11533.4
969.974	12732.6
973.735	13522.3
977.494	8282.01
981.251	5104.89
985.006	3689.88
988.76	2709.01
992.512	2072.25
996.262	1645.62
1000.01	1359.11
1003.76	1074.72
1007.5	951.464
1011.24	879.931
1014.99	792.326
1018.72	799.816
1022.46	892.588
1026.2	1026.55
1029.93	1194.18
1033.66	1603.97
1037.39	2613.76
1041.12	4868.98
1044.85	5715.11
1048.58	2920.34
1052.3	1643.47
1056.02	1141.66
1059.74	857.899
1063.46	743.542
1067.18	663.312
1070.89	652.584
1074.6	681.523
1078.32	633.801
1082.03	665.513
1085.73	657.081
1089.44	694.573
1093.14	715.929
1096.85	763.662
1100.55	784.495
1104.25	883.041
1107.94	945.138
1111.64	995.812
1115.33	1087.44
1119.03	1227.21
1122.72	1381.34
1126.4	1444.72
1130.09	1544.57
1133.78	1562.63
1137.46	1463.58
1141.14	1174.5
1144.82	791.531
1148.5	463.475
1152.18	245.464
1155.85	86.55
1159.53	36.561
1163.2	24.566
1166.87	23.75
1170.54	9.831
1174.2	13.775
1177.87	12.919
1181.53	33.415
1185.19	29.562
1188.85	34.891
1192.51	36.992
1196.16	60.486
1199.82	33.699
1203.47	30.042
1207.12	7.751
1210.77	2.535
1214.42	13.433
1218.07	7.496
1221.71	12.671
1225.35	30.138
1228.99	9.654
1232.63	38.278
1236.27	51.797
1239.91	23.22
1243.54	4.557
1247.17	32.458
1250.8	25.314
1254.43	57.537
1258.06	84.44
1261.69	57.967
1265.31	47.387
1268.93	85.527
1272.55	86.912
1276.17	37.856
1279.79	62.012
1283.4	80.056
1287.02	58.733
1290.63	114.237
1294.24	95.587
1297.85	82.667
1301.46	90.801
1305.06	125.787
1308.67	100.739
1312.27	67.453
1315.87	73.958
1319.47	97.697
1323.07	78.182
1326.66	52.02
1330.26	62.239
1333.85	50.525
1337.44	55.198
1341.03	43.526
1344.61	43.21
1348.2	44.433
1351.78	51.185
1355.37	44.721
1358.95	41.865
1362.53	46.008
1366.1	40.379
1369.68	19.817
1373.25	28.168
1376.82	29.24
1380.39	30.548
1383.96	20.354
1387.53	24.156
1391.1	45.729
1394.66	64.604
1398.22	8.379
1401.79	60.497
1405.34	56.436
1408.9	45.508
1412.46	59.166
1416.01	8.506
1419.56	3.954
1423.12	19.577
1426.66	30.411
1430.21	38.207
1433.76	79.416
1437.3	11.581
1440.85	54.898
1444.39	49.406
1447.93	42.339
1451.46	51.06
1455	42.843
1458.54	39.342
1462.07	0.135
1465.6	61.408
1469.13	55.064
1472.66	70.911
1476.18	60.91
1479.71	11.762
1483.23	7.678
1486.76	25.999
1490.28	55.016
1493.79	45.765
1497.31	16.693
1500.83	6.958
1504.34	27.274
1507.85	50.156
1511.36	25.306
1514.87	2.439
1518.38	40.087
1521.88	0.035
