Measurement: Raman, 514 nm, ccw, Raman Data Processed
Mineral: Aegirine
Rruff sample: R050074
Ideal chemistry: NaFe^3+^Si_2_O_6_
Locality: Mt. Malosa, Zomba, Chilwa, Alkaline Area, Malawi
Source: Rock Currier
Description: Black prismatic single crystal
Measured chemistry: (Na_0.98_Ca_0.02_)_Σ=1_(Fe^3+^_0.96_Ti_0.01_Mn_0.03_)_Σ=1_Si_2.00_O_6_
Pin_id: L00202
Orientation: Laser parallel to (1 0 1). Fiducial mark perpendicular to laser is parallel to -b [0 -1 0]
Raman shift (cm-1)	intensity
102.712	0
106.902	121.44
111.09	171.903
115.277	611.689
119.461	1376.75
123.643	406.032
127.823	732.582
132.001	1343.94
136.176	1364.59
140.35	649.56
144.521	139.709
148.691	32.829
152.858	57.703
157.024	710.917
161.187	863.107
165.348	393.821
169.507	308.534
173.664	765.913
177.819	1472.76
181.971	1226.69
186.122	1213.41
190.271	1951.29
194.417	2054.13
198.562	1755.58
202.704	1750.6
206.844	2776.59
210.983	4049.61
215.119	3419.59
219.253	1370.07
223.385	255.535
227.515	37.294
231.643	104.65
235.769	77.279
239.893	60.569
244.014	94.5
248.134	164.69
252.252	255.639
256.367	307.119
260.481	264.457
264.592	225.085
268.702	212.958
272.809	364.195
276.915	702.77
281.018	1196.66
285.119	2167.18
289.218	2971.33
293.316	3290.74
297.411	2712.14
301.504	1937.59
305.595	1731.47
309.684	1700.6
313.771	1624.16
317.856	1698.35
321.939	1954.74
326.02	2752.41
330.099	4428.57
334.176	6869.39
338.251	9090.95
342.323	10367
346.394	10902.3
350.463	8766.94
354.53	5888.98
358.594	4468.67
362.657	4232.05
366.718	4359.09
370.777	4359.79
374.833	4614.15
378.888	6090.2
382.941	8039.92
386.992	8676.53
391.04	6899.86
395.087	4328.31
399.132	2526.69
403.174	1416.67
407.215	854.171
411.254	718.834
415.29	562.311
419.325	286.097
423.358	137.496
427.389	34.846
431.417	56.633
435.444	17.665
439.469	15.386
443.492	2.716
447.512	11.685
451.531	104.769
455.548	199.458
459.563	292.727
463.576	404.825
467.587	420.69
471.596	212.021
475.603	251.247
479.608	363.952
483.611	457.721
487.612	623.723
491.611	1316.88
495.608	2229.82
499.603	2231.59
503.596	1466.12
507.587	1112.37
511.577	1030.38
515.564	996.128
519.549	1329.63
523.533	1702.88
527.514	2492.87
531.493	4058.62
535.471	7046.12
539.447	12156.4
543.42	15767.1
547.392	14447.7
551.362	12118.5
555.329	10739.8
559.295	11221.1
563.259	10352.7
567.221	8124.67
571.181	5972.93
575.139	4279.53
579.095	3205.1
583.049	2420.62
587.002	1844.37
590.952	1317.5
594.9	891.581
598.847	578.634
602.792	339.056
606.734	180.37
610.675	116.259
614.614	24.048
618.55	41.094
622.485	102.07
626.418	3.572
630.349	56.311
634.279	43.618
638.206	155.722
642.131	203.026
646.055	235.112
649.976	275.723
653.896	335.216
657.814	359.373
661.729	504.268
665.643	740.902
669.555	1180.28
673.465	1927.4
677.373	2248.27
681.28	1663.89
685.184	908.269
689.087	463.402
692.987	330.297
696.886	140.956
700.783	100.371
704.677	66.536
708.57	30.448
712.462	90.097
716.351	75.489
720.238	36.62
724.124	40.487
728.007	41.075
731.889	20.398
735.769	2.1
739.647	19.809
743.523	4.586
747.397	16.759
751.269	12.853
755.139	26.808
759.008	23.654
762.875	65.68
766.739	42.126
770.602	68.795
774.463	72.416
778.323	54.524
782.18	28.777
786.035	76.479
789.889	18.44
793.741	32.552
797.591	84.982
801.439	29.272
805.285	23.27
809.129	6.559
812.971	59.3
816.812	117.978
820.651	215.6
824.488	351.175
828.323	484.711
832.156	684.216
835.987	944.697
839.817	1256.16
843.644	1783.62
847.47	2497.08
851.294	3266.36
855.116	4265.94
858.936	5333.51
862.755	6778.77
866.571	7646.25
870.386	7188.73
874.199	5881.29
878.01	4565.78
881.82	3597.8
885.627	2974.93
889.433	2612.69
893.236	2315.36
897.038	2134.11
900.838	2010.96
904.637	1979.71
908.433	1921.63
912.228	2037.98
916.021	2146.77
919.812	2164.23
923.601	2393.33
927.388	2687.71
931.174	3060.82
934.958	3552.88
938.739	4386.04
942.52	5607.94
946.298	7630.3
950.074	10298.8
953.849	11492.8
957.622	11888.4
961.393	13216.5
965.162	16556.1
968.93	21175.9
972.696	22306
976.459	16546.4
980.222	11277.1
983.982	8688.08
987.74	6969.35
991.497	5225.9
995.252	4090.74
999.005	3213.87
1002.76	2651.28
1006.51	2300.98
1010.25	2136.32
1014	2105.68
1017.74	2214.3
1021.49	2495.57
1025.23	2985.3
1028.96	3824.01
1032.7	5473.4
1036.44	8510.84
1040.17	12190.5
1043.9	12281.1
1047.63	7925.26
1051.36	4807.38
1055.09	3241.11
1058.81	2354
1062.54	1703.38
1066.26	1349.63
1069.97	1191.82
1073.69	1065.9
1077.41	1005.15
1081.12	941.94
1084.84	857.779
1088.55	871.235
1092.25	826.989
1095.96	835.177
1099.67	844.531
1103.37	929.436
1107.07	983.192
1110.77	989.123
1114.47	1063.16
1118.16	1193.42
1121.86	1237.19
1125.55	1332.64
1129.24	1428.91
1132.93	1489.55
1136.62	1371.53
1140.31	1081.52
1143.99	772.178
1147.67	363.046
1151.35	153.773
1155.03	100.674
1158.71	8.638
1162.39	7.689
1166.06	17.892
1169.73	43.757
1173.4	42.818
1177.07	53.255
1180.74	43.369
1184.4	91.504
1188.07	26.813
1191.73	42.806
1195.39	4.429
1199.05	34.344
1202.7	2.631
1206.36	29.718
1210.01	16.218
1213.66	35.817
1217.31	21.115
1220.96	36.671
1224.6	53.841
1228.25	76.571
1231.89	23.961
1235.53	22.04
1239.17	39.054
1242.81	92.375
1246.44	44.44
1250.08	70.569
1253.71	81.728
1257.34	98.462
1260.97	76.797
1264.6	170.861
1268.22	73.706
1271.85	48.333
1275.47	111.714
1279.09	103.828
1282.71	149.691
1286.33	126.276
1289.94	148.807
1293.56	130.925
1297.17	95.771
1300.78	92.376
1304.39	142.408
1307.99	129.513
1311.6	90.007
1315.2	104.094
1318.8	90.281
1322.4	114.456
1326	136.237
1329.6	63.396
1333.19	63.486
1336.79	111.744
1340.38	54.98
1343.97	86.617
1347.56	67.885
1351.14	60.122
1354.73	69.664
1358.31	41.633
1361.89	57.271
1365.47	88.3
1369.05	59.869
1372.63	71.487
1376.2	70.56
1379.78	50.572
1383.35	83.048
1386.92	106.497
1390.49	83.575
1394.05	28.514
1397.62	42.253
1401.18	71.071
1404.74	70.958
1408.3	59.734
1411.86	48.727
1415.42	109.923
1418.97	49.719
1422.53	38.026
1426.08	91.722
1429.63	42.467
1433.18	18.267
1436.72	62.99
1440.27	58.811
1443.81	85.803
1447.36	44.343
1450.89	20.604
1454.43	78.281
1457.97	34.586
1461.51	47.138
1465.04	54.351
1468.57	57.162
1472.1	70.935
1475.63	62.182
1479.16	62.678
1482.68	60.176
1486.21	16.968
1489.73	38.739
1493.25	8.757
1496.77	46.427
1500.29	27.259
1503.8	66.253
1507.32	55.293
1510.83	57.69
1514.34	65.508
1517.85	42.447
1521.36	4.43
1524.86	0
