Measurement: Raman, 514 nm, ccw, Raman Data Processed
Mineral: Aegirine
Rruff sample: R040054
Ideal chemistry: NaFe^3+^Si_2_O_6_
Locality: Mont Saint-Hilaire, Rouville County, Quebec, Canada
Source: Bob Downs
Description: Black cleavage fragments
Measured chemistry: (Na_0.96_Ca_0.04_)(Fe_0.86_Ti_0.07_Mn_0.06_Mg_0.02_)(Si_0.97_Al_0.03_)_2_O_6_
Pin_id: L00062
Orientation: Laser parallel to -b* (0 -1 0). Fiducial mark perpendicular to laser is parallel to c [0 0 1]
Raman shift (cm-1)	intensity
126.063	0
130.228	100.146
134.39	26.242
138.55	255.795
142.709	133.86
146.865	88.586
151.019	42.523
155.171	44.705
159.322	46.284
163.47	139.392
167.617	180.519
171.761	709.634
175.904	1791.85
180.044	2644.98
184.183	4113.09
188.319	9266.67
192.454	11952.4
196.586	7736.94
200.717	3716.18
204.846	2438.04
208.972	2135.13
213.097	2037.9
217.22	1398.25
221.341	796.42
225.46	416.81
229.577	263.021
233.692	104.018
237.805	23.231
241.916	2.008
246.025	69.474
250.132	16.689
254.237	49.6
258.34	79.804
262.442	113.202
266.541	178.033
270.639	391.645
274.734	764.532
278.828	937.621
282.919	867.677
287.009	670.106
291.097	726.668
295.183	807.069
299.266	990.202
303.348	1111.92
307.428	1333.48
311.507	1422.76
315.583	1503.18
319.657	1897.36
323.729	2394.65
327.8	3485.75
331.868	5593.95
335.935	9054.43
339.999	11104.3
344.062	9621.33
348.123	6332.06
352.182	4520.25
356.239	4012.09
360.294	4377.78
364.347	5250.88
368.398	5006.71
372.448	3814.28
376.495	3241.58
380.54	3135.57
384.584	3227.14
388.626	3067.45
392.666	2456.9
396.704	1680.46
400.74	1011.59
404.774	834.79
408.806	534.143
412.836	408.781
416.865	174.508
420.891	127.805
424.916	84.561
428.939	38.6
432.959	33.092
436.978	0.823
440.996	31.975
445.011	3.161
449.024	62.306
453.036	146.724
457.045	168.348
461.053	200.83
465.059	212.91
469.063	179.863
473.065	141.537
477.065	247.634
481.063	312.588
485.06	582.471
489.054	1095.3
493.047	2508.3
497.038	3854.53
501.027	2865.29
505.014	1514.7
508.999	949.734
512.982	654.458
516.964	521.896
520.944	519.067
524.921	629.976
528.897	752.625
532.871	1130.01
536.844	1933.14
540.814	3239.05
544.783	3852.87
548.749	3718.56
552.714	3473.35
556.677	3240.22
560.638	3099.14
564.597	2949.42
568.555	2892.03
572.511	2694.63
576.464	2608.52
580.416	2455.74
584.366	2279.78
588.315	1932.59
592.261	1536.03
596.206	1178.14
600.148	774.459
604.089	465.499
608.028	206.12
611.965	108.245
615.901	75.191
619.834	20.72
623.766	12.628
627.696	56.714
631.624	68.719
635.551	3.675
639.475	11.517
643.398	93.777
647.318	148.75
651.237	177.911
655.155	212.284
659.07	220.898
662.984	329.374
666.895	418.378
670.805	802.17
674.713	1325.75
678.62	1322.12
682.524	914.294
686.427	542.261
690.328	392.03
694.227	293.603
698.124	165.982
702.02	161.168
705.913	145.752
709.805	111.956
713.695	112.552
717.584	115.243
721.47	116.143
725.355	142.155
729.238	104.983
733.119	111.649
736.998	114.169
740.876	300.554
744.752	105.829
748.626	140.989
752.498	67.035
756.368	82.974
760.237	17.192
764.104	18.438
767.969	16.212
771.832	0.748
775.693	24.036
779.553	1.646
783.411	20.447
787.267	64.123
791.122	53.444
794.974	26.583
798.825	51.167
802.674	72.433
806.522	52.583
810.367	66.784
814.211	2.607
818.053	102.237
821.893	139.022
825.732	161.751
829.568	272.432
833.403	404.067
837.236	486.665
841.068	647.228
844.898	747.763
848.726	963.274
852.552	1227.64
856.376	1465.91
860.199	1572.02
864.02	1686.76
867.839	1706.46
871.656	1766.08
875.472	1621.39
879.286	1564.62
883.098	1415.01
886.909	1359.41
890.717	1283.76
894.524	1226.56
898.33	1371.43
902.133	1424.24
905.935	1437.09
909.735	1408.77
913.533	1450.26
917.33	1570.98
921.124	1581.41
924.918	1770.85
928.709	1988.98
932.499	2181.49
936.286	2577.65
940.073	3257.89
943.857	4388.73
947.64	6365.16
951.421	7499.21
955.2	6528.57
958.978	5693.18
962.753	4915.44
966.527	3992.7
970.3	3044.68
974.071	2443.82
977.84	2093.1
981.607	1745.54
985.372	1532.15
989.136	1358.93
992.898	1383.87
996.659	1337.5
1000.42	1350.21
1004.17	1337.63
1007.93	1367.2
1011.68	1496.94
1015.43	1444.1
1019.18	1358.16
1022.93	1330.8
1026.68	1199.45
1030.42	984.535
1034.17	1152.49
1037.91	1157.42
1041.65	1264.97
1045.39	1368.49
1049.12	1411.87
1052.86	1444.07
1056.59	1586.22
1060.33	1612.14
1064.06	1506.96
1067.78	1517.81
1071.51	1663.3
1075.23	1607.51
1078.96	1518.2
1082.68	1434.01
1086.4	1353.82
1090.12	1312.7
1093.83	1117.78
1097.55	1106.12
1101.26	1043.58
1104.97	882.239
1108.68	852.163
1112.39	748.469
1116.1	719.731
1119.8	757.277
1123.5	831.97
1127.2	671.036
1130.9	603.844
1134.6	510.122
1138.3	379.65
1141.99	346.168
1145.69	226.19
1149.38	178.855
1153.07	109.179
1156.76	103.986
1160.44	67.434
1164.13	16.979
1167.81	14.578
1171.49	21.149
1175.17	2.286
1178.85	31.441
1182.52	45.765
1186.2	19.827
1189.87	61.054
1193.54	20.136
1197.21	50.425
1200.88	30.673
1204.55	36.507
1208.21	56.796
1211.88	31.343
1215.54	10.892
1219.2	24.081
1222.86	4.28
1226.51	9.348
1230.17	0.831
1233.82	46.192
1237.47	62.476
1241.12	62.721
1244.77	54.851
1248.42	68.875
1252.06	67.378
1255.71	37.619
1259.35	66.273
1262.99	40.797
1266.63	226.183
1270.26	144.434
1273.9	66.551
1277.53	49.507
1281.16	60.829
1284.8	113.932
1288.42	33.422
1292.05	56.751
1295.68	31.944
1299.3	86.002
1302.92	104.935
1306.55	97.748
1310.16	107.183
1313.78	146.753
1317.4	85.536
1321.01	96.837
1324.62	75.057
1328.24	104.967
1331.85	62.218
1335.45	70.813
1339.06	85.627
1342.66	48.175
1346.27	31.091
1349.87	79.511
1353.47	56.325
1357.07	41.195
1360.66	77.101
1364.26	34.887
1367.85	77.381
1371.44	98.503
1375.04	79.923
1378.62	71.981
1382.21	96.618
1385.8	99.02
1389.38	39.14
1392.96	70.492
1396.54	64.235
1400.12	69.696
1403.7	95.405
1407.28	107.281
1410.85	56.463
1414.42	72.273
1417.99	94.562
1421.56	133.012
1425.13	127.382
1428.7	128.464
1432.26	97.519
1435.83	134.165
1439.39	71.561
1442.95	61.316
1446.51	130.328
1450.06	70.378
1453.62	126.155
1457.17	103.87
1460.73	163.553
1464.28	111.362
1467.83	114.303
1471.37	44.491
1474.92	115.963
1478.46	66.865
1482.01	23.029
1485.55	58.374
1489.09	18.994
1492.63	39.034
1496.16	44.605
1499.7	26.787
1503.23	42.683
1506.76	96.585
1510.29	62.376
1513.82	85.479
1517.35	22.452
