Measurement: Raman, 514 nm, ccw, Raman Data Processed
Mineral: Aegirine
Rruff sample: R040054
Ideal chemistry: NaFe^3+^Si_2_O_6_
Locality: Mont Saint-Hilaire, Rouville County, Quebec, Canada
Source: Bob Downs
Description: Black cleavage fragments
Measured chemistry: (Na_0.96_Ca_0.04_)(Fe_0.86_Ti_0.07_Mn_0.06_Mg_0.02_)(Si_0.97_Al_0.03_)_2_O_6_
Pin_id: L00062
Orientation: Laser parallel to -b* (0 -1 0). Fiducial mark perpendicular to laser is parallel to c [0 0 1]
Raman shift (cm-1)	intensity
120.508	0
124.675	141.055
128.84	416.227
133.003	936.089
137.164	922.776
141.323	438.204
145.48	250.796
149.635	54.982
153.788	314.632
157.939	29.269
162.088	90.031
166.235	520.021
170.38	634.132
174.523	3568.32
178.664	7926.73
182.803	6165.35
186.94	2876.54
191.076	2744.61
195.209	2030.55
199.34	1229.38
203.47	1002.26
207.597	1327.15
211.722	1863.86
215.846	1572.15
219.967	928.006
224.087	312.736
228.204	54.846
232.32	142.207
236.434	79.657
240.545	60.01
244.655	67.546
248.763	30.97
252.869	21.068
256.973	264.236
261.075	571.137
265.175	880.17
269.273	1401.96
273.369	2173.81
277.463	2385.44
281.556	1929.69
285.646	1241.89
289.734	992.332
293.821	956.732
297.905	1125.25
301.988	1450.6
306.069	1514.17
310.147	1685.35
314.224	1739.22
318.299	1944.18
322.372	2377.64
326.443	3314.48
330.512	5146.97
334.579	8730.62
338.645	12698.8
342.708	12323.7
346.769	9225.11
350.829	6463.92
354.887	5101.6
358.942	4488.06
362.996	4718.48
367.048	5023.26
371.098	6248.7
375.146	8615.97
379.192	13363.1
383.236	20149.3
387.279	23997.9
391.319	19577.1
395.358	12083.4
399.394	6813.53
403.429	3877.15
407.462	2516
411.493	1576.94
415.522	1060.57
419.549	614.985
423.575	322.736
427.598	156.161
431.619	109.577
435.639	1.931
439.657	9.61
443.673	54.8
447.687	45.729
451.699	106.862
455.709	133.725
459.717	200.896
463.724	109.522
467.728	87.529
471.731	54.277
475.732	99.827
479.731	165.133
483.728	249.823
487.723	376.496
491.716	766.315
495.708	1303.22
499.697	1630.02
503.685	1445.72
507.671	1488.35
511.655	1507.94
515.637	1596.51
519.617	1836.06
523.596	2622.58
527.572	4145.08
531.547	7189.58
535.52	13215
539.491	23410.5
543.46	28885.9
547.427	23731.3
551.393	16646.8
555.356	12343.2
559.318	9570.48
563.278	7918.53
567.236	6427.22
571.192	5422.4
575.147	4413.89
579.099	3854.51
583.05	3302.52
586.999	3017.9
590.946	2434.98
594.891	1797.64
598.834	1147.67
602.776	688.46
606.715	428.85
610.653	138.713
614.589	79.027
618.523	43.19
622.456	3.897
626.386	43.268
630.315	50.272
634.242	84.724
638.167	151.018
642.09	295.287
646.012	478.615
649.931	684.429
653.849	822.179
657.765	976.556
661.679	1333.28
665.592	1838.3
669.502	3138.1
673.411	5207.67
677.318	6682
681.223	4880.09
685.126	2547.95
689.028	1382.56
692.927	808.93
696.825	546.055
700.721	324.934
704.616	266.564
708.508	153.944
712.399	188.058
716.288	138.893
720.175	128.428
724.06	116.652
727.944	130.556
731.825	100.136
735.705	59.387
739.584	74.302
743.46	107.871
747.334	22.083
751.207	19.936
755.078	37.575
758.947	0.434
762.815	52.015
766.68	98.145
770.544	58.175
774.406	56.593
778.267	76.351
782.125	33.067
785.982	94.412
789.837	87.172
793.69	61.23
797.542	40.246
801.391	47.891
805.239	29.131
809.085	62.163
812.93	63.196
816.772	120.998
820.613	179.588
824.452	273.978
828.29	351.171
832.125	358.177
835.959	465
839.791	523.647
843.621	560.125
847.45	671.441
851.277	811.6
855.102	852.61
858.925	922.477
862.746	943.937
866.566	940.171
870.384	1009.68
874.2	990.896
878.015	961.919
881.828	978.884
885.639	1107.61
889.448	1132.27
893.256	1206.75
897.061	1345.78
900.865	1552.13
904.668	1742.53
908.468	1996.27
912.267	2309.25
916.064	2490.14
919.86	2942.8
923.653	3483.15
927.445	4159.95
931.236	4943.54
935.024	5941.92
938.811	7380.69
942.596	9550.33
946.379	13104
950.161	17257.3
953.94	17371.7
957.719	15108.3
961.495	14015
965.27	11262.6
969.043	8931.06
972.814	7179.89
976.583	6002.92
980.351	5150.15
984.117	4541.57
987.882	4047.2
991.644	3443.03
995.405	3003.07
999.165	2670.32
1002.92	2362.77
1006.68	2199.45
1010.43	1997.34
1014.18	1880.45
1017.93	1583.78
1021.68	1530.35
1025.43	1503.73
1029.18	1595.15
1032.92	2123.43
1036.66	2204.37
1040.4	2040.33
1044.14	2202.68
1047.88	1979.81
1051.62	1915.36
1055.35	1845.61
1059.08	1874.56
1062.81	1728.55
1066.54	1792
1070.27	1778.87
1073.99	1863.5
1077.72	2022.38
1081.44	2126.84
1085.16	2110.62
1088.88	2080.07
1092.59	2107.09
1096.31	2197.34
1100.02	2284.88
1103.73	2389.09
1107.44	2563.72
1111.15	2820.61
1114.86	2946.01
1118.57	3188.82
1122.27	3583.84
1125.97	3738.34
1129.67	3822.28
1133.37	3957.94
1137.07	3951.96
1140.76	3558.21
1144.45	2627.69
1148.15	1705.98
1151.84	994.052
1155.53	544.76
1159.21	313.166
1162.9	179.552
1166.58	84.809
1170.26	27.615
1173.94	6.597
1177.62	38.863
1181.3	36.048
1184.97	1.887
1188.65	56.888
1192.32	67.768
1195.99	36.538
1199.66	17.54
1203.33	52.256
1206.99	46.181
1210.65	95.111
1214.32	62.715
1217.98	22.249
1221.64	13.463
1225.29	11.879
1228.95	0.629
1232.6	4.086
1236.26	30.889
1239.91	17.211
1243.56	37.73
1247.2	31.381
1250.85	53.169
1254.49	58.404
1258.13	58.751
1261.78	73.31
1265.41	30.887
1269.05	81.158
1272.69	98.139
1276.32	45.994
1279.95	44.604
1283.59	96.904
1287.21	112.976
1290.84	85.828
1294.47	143.392
1298.09	79.723
1301.72	103.832
1305.34	118.766
1308.96	102.448
1312.58	113.878
1316.19	92.5
1319.81	98.333
1323.42	116.646
1327.03	129.15
1330.64	107.272
1334.25	102.624
1337.86	107.233
1341.46	85.658
1345.07	56.958
1348.67	66.403
1352.27	81.709
1355.87	93.667
1359.46	103.417
1363.06	99.539
1366.65	68.702
1370.25	26.69
1373.84	106.323
1377.43	43.157
1381.02	27.591
1384.6	4.39
1388.18	27.387
1391.77	85.805
1395.35	85.627
1398.93	12.11
1402.51	94.489
1406.08	55.305
1409.66	36.453
1413.23	76.453
1416.8	52.062
1420.37	37.28
1423.94	53.833
1427.51	76.972
1431.08	92.088
1434.64	68.038
1438.2	93.502
1441.76	65.272
1445.32	22.392
1448.88	39.727
1452.43	89.904
1455.99	45.665
1459.54	57.969
1463.09	29.88
1466.64	31.166
1470.19	16.457
1473.74	5.602
1477.28	49.045
1480.83	16.316
1484.37	8.376
1487.91	24.672
1491.45	54.389
1494.98	23.419
1498.52	44.196
1502.05	51.676
1505.59	19.628
1509.12	55.298
1512.65	36.267
1516.17	61.317
