Measurement: Raman, 514 nm, ccw, Raman Data Processed
Mineral: Aegirine
Rruff sample: R050074
Ideal chemistry: NaFe^3+^Si_2_O_6_
Locality: Mt. Malosa, Zomba, Chilwa, Alkaline Area, Malawi
Source: Rock Currier
Description: Black prismatic single crystal
Measured chemistry: (Na_0.98_Ca_0.02_)_Σ=1_(Fe^3+^_0.96_Ti_0.01_Mn_0.03_)_Σ=1_Si_2.00_O_6_
Pin_id: L00155
Orientation: Laser parallel to -c* (0 0 -1). Fiducial mark perpendicular to laser is parallel to a [1 0 0]
Raman shift (cm-1)	intensity
94.307	0
98.492	81.841
102.675	62.995
106.856	33.195
111.035	250.081
115.212	692.12
119.386	353.569
123.559	305.701
127.73	500.435
131.898	1600.8
136.065	2333.1
140.229	1172.14
144.392	359.213
148.552	135.539
152.71	76.118
156.866	64.333
161.02	144.595
165.172	74.089
169.322	66.357
173.47	210.044
177.616	1113.53
181.76	1558.33
185.902	611.814
190.042	585.393
194.179	982.246
198.315	987.488
202.449	1360.84
206.58	2654.45
210.71	6393.68
214.837	8985.06
218.963	4970.79
223.086	1894.96
227.207	863.552
231.327	388.67
235.444	189.343
239.559	54.583
243.673	14.592
247.784	59.268
251.893	44.754
256	20.436
260.105	21.827
264.208	67.685
268.31	139.969
272.409	259.993
276.506	440.463
280.601	468.574
284.694	403.032
288.785	494.321
292.874	697.577
296.961	715.049
301.046	619.201
305.129	518.532
309.21	567.861
313.289	587.967
317.366	504.693
321.441	525.384
325.514	698.08
329.585	1060.93
333.654	2007.61
337.721	3866.36
341.786	4696.14
345.849	3819.96
349.91	2852.58
353.969	1840.19
358.026	1794.77
362.081	2630.2
366.134	4299.35
370.185	5104.24
374.234	4345.88
378.281	4467.31
382.326	6482.55
386.369	8297.61
390.411	6654.49
394.45	3876.91
398.487	2112.46
402.522	1217.27
406.555	829.273
410.587	580.328
414.616	459.6
418.644	281.714
422.669	154.377
426.692	111.076
430.714	78.471
434.733	31.683
438.751	15.677
442.767	16.37
446.78	25.458
450.792	1.275
454.802	89.533
458.809	105.557
462.815	144.585
466.819	128.571
470.821	73.398
474.821	95.113
478.819	166.261
482.815	300.908
486.809	428.88
490.802	934.596
494.792	2240.5
498.78	3590.49
502.767	2379.42
506.751	1330.22
510.734	955.912
514.714	795.522
518.693	882.031
522.67	1092.43
526.644	1475.71
530.617	2477.89
534.588	4713.96
538.557	9643.92
542.524	17498.8
546.489	16913.6
550.453	10328.7
554.414	6658.27
558.374	5189.34
562.331	4507.55
566.287	3581.91
570.24	2752.86
574.192	2204.02
578.142	1731.45
582.09	1403.62
586.036	1178.07
589.98	940.151
593.922	666.125
597.862	497.469
601.801	322.124
605.737	181.085
609.672	112.86
613.605	74.957
617.536	74.821
621.464	48.297
625.391	48.575
629.317	17.537
633.24	5.102
637.161	13.682
641.081	45.743
644.998	102.618
648.914	95.062
652.828	115.381
656.74	163.852
660.65	213.477
664.558	280.985
668.464	438.375
672.368	796.65
676.271	1263.81
680.171	1274.85
684.07	800.783
687.967	398.6
691.862	217.305
695.755	139.899
699.646	102.383
703.536	38.757
707.423	40.014
711.309	58.125
715.193	36.103
719.075	26.957
722.955	2.683
726.833	8.739
730.709	7.651
734.584	4.123
738.457	17.09
742.327	7.26
746.196	3.578
750.063	3.071
753.929	22.304
757.792	17.58
761.654	7.772
765.513	2.119
769.371	24.149
773.227	9.369
777.081	24.212
780.933	55.427
784.784	8.225
788.633	5.143
792.479	43.831
796.324	37.872
800.167	46.685
804.009	22.002
807.848	11.442
811.686	32.04
815.522	3.467
819.355	34.842
823.188	69.169
827.018	110.588
830.846	178.695
834.673	204.901
838.498	281.075
842.321	426.219
846.142	556.339
849.961	785.436
853.779	1035.52
857.595	1408.29
861.409	1875.89
865.221	2441.04
869.031	2580.45
872.839	2073.77
876.646	1500.71
880.451	1136.91
884.254	911.467
888.055	814.497
891.855	763.181
895.652	725.119
899.448	700.334
903.242	705.52
907.034	749.867
910.825	797.844
914.613	911.946
918.4	1096.87
922.185	1224.44
925.969	1381.89
929.75	1738.69
933.53	2194.36
937.308	2975.02
941.084	4155.77
944.858	6382.25
948.63	9986.69
952.401	12027.5
956.17	9711.67
959.937	8866.17
963.703	8165.61
967.466	8615.18
971.228	11954.9
974.988	11154.7
978.746	6513.7
982.503	4024.81
986.258	2878.06
990.011	2191.44
993.762	1684.95
997.511	1354.6
1001.26	1131.38
1005	1005.31
1008.75	936.366
1012.49	889.57
1016.23	850.94
1019.97	950.009
1023.71	1077.39
1027.44	1295.67
1031.18	1587.04
1034.91	2315.55
1038.64	4025.58
1042.37	6959.4
1046.09	5742.1
1049.82	2891.73
1053.54	1877.61
1057.26	1460.97
1060.98	1125.51
1064.7	953.355
1068.41	799.14
1072.13	775.915
1075.84	734.052
1079.55	742.132
1083.26	689.733
1086.97	644.028
1090.67	668.917
1094.38	613.551
1098.08	663.709
1101.78	659.993
1105.48	700.881
1109.18	737.549
1112.87	728.917
1116.57	829.717
1120.26	844.372
1123.95	1029.55
1127.63	1000.32
1131.32	999.079
1135.01	971.394
1138.69	892.344
1142.37	658.174
1146.05	389.925
1149.73	239.016
1153.4	92.146
1157.08	16.061
1160.75	141.258
1164.42	30.224
1168.09	6.021
1171.76	5.146
1175.42	28.331
1179.09	40.091
1182.75	62.339
1186.41	25.526
1190.07	34.419
1193.73	36.059
1197.38	36.021
1201.04	15.435
1204.69	4.12
1208.34	20.87
1211.99	24.239
1215.64	11.22
1219.28	8.106
1222.92	15.113
1226.57	15.636
1230.21	32.229
1233.85	28.398
1237.48	40.507
1241.12	37.774
1244.75	13.949
1248.38	10.026
1252.01	39.851
1255.64	45.607
1259.27	27.254
1262.89	15.775
1266.52	26.268
1270.14	42.804
1273.76	54.997
1277.38	21.029
1280.99	30.975
1284.61	58.888
1288.22	53.604
1291.83	74.155
1295.44	57.238
1299.05	87.497
1302.66	65.642
1306.26	49.711
1309.87	65.66
1313.47	74.269
1317.07	60.753
1320.67	28.748
1324.26	51.93
1327.86	35.426
1331.45	46.068
1335.04	31.195
1338.63	27.646
1342.22	46.568
1345.81	49.578
1349.39	64.812
1352.98	60.887
1356.56	45.43
1360.14	80.476
1363.72	70.375
1367.29	28.589
1370.87	35.869
1374.44	26.237
1378.02	13.879
1381.59	60.195
1385.15	79.541
1388.72	70.919
1392.29	53.976
1395.85	56.181
1399.41	37.678
1402.97	44.147
1406.53	45.261
1410.09	19.241
1413.64	32.178
1417.2	63.75
1420.75	23.902
1424.3	24.826
1427.85	25.886
1431.39	82.199
1434.94	60.684
1438.48	51.281
1442.03	77.798
1445.57	40.528
1449.11	11.999
1452.64	40.869
1456.18	42.407
1459.71	50.015
1463.25	34.626
1466.78	44.228
1470.31	70.869
1473.83	48.269
1477.36	22.453
1480.88	56.929
1484.41	22.41
1487.93	3.347
1491.45	24.343
1494.97	63.824
1498.48	3.107
1502	51.453
1505.51	20.983
1509.02	39.892
1512.53	50.176
1516.04	40.9
1519.55	38.311
1523.05	10.128
