Measurement: Raman, 514 nm, ccw, Raman Data Processed
Mineral: Aegirine
Rruff sample: R050074
Ideal chemistry: NaFe^3+^Si_2_O_6_
Locality: Mt. Malosa, Zomba, Chilwa, Alkaline Area, Malawi
Source: Rock Currier
Description: Black prismatic single crystal
Measured chemistry: (Na_0.98_Ca_0.02_)_Σ=1_(Fe^3+^_0.96_Ti_0.01_Mn_0.03_)_Σ=1_Si_2.00_O_6_
Pin_id: L00202
Orientation: Laser parallel to (1 0 1). Fiducial mark perpendicular to laser is parallel to -b [0 -1 0]
Raman shift (cm-1)	intensity
97.121	0
101.314	78.525
105.505	6.495
109.694	52.397
113.881	310.79
118.066	383.595
122.249	418.905
126.43	589.016
130.608	906.138
134.785	1127.29
138.959	692.73
143.131	311.252
147.301	116.332
151.469	53.539
155.635	57.832
159.799	176.696
163.961	325.21
168.121	354.515
172.278	767.773
176.434	1399.71
180.587	1637.3
184.739	2036.59
188.888	3399.27
193.035	4083.82
197.18	3127.88
201.324	1893.26
205.465	1256.4
209.603	1183.42
213.74	1163.11
217.875	687.55
222.008	253.943
226.139	12.782
230.267	67.017
234.394	80.329
238.518	58.468
242.641	51.567
246.761	62.541
250.879	18.792
254.996	21.363
259.11	58.895
263.222	52.549
267.332	182.556
271.44	287.704
275.546	364.681
279.65	548.538
283.752	697.034
287.852	1076.36
291.95	1336.7
296.046	1328.73
300.14	1251.88
304.231	1264.82
308.321	1390.72
312.409	1506.38
316.495	1744.03
320.578	2160.31
324.66	2914.08
328.739	4506.36
332.817	6634.33
336.892	8290.6
340.966	7509.31
345.037	6155.1
349.107	5183.93
353.174	3961.05
357.24	3257.68
361.303	3109.94
365.365	3422.86
369.424	3648.41
373.481	4082.56
377.537	5178.44
381.59	7009.41
385.642	8322.72
389.691	7255.06
393.738	5043.17
397.784	3165.08
401.827	1995.44
405.868	1321.03
409.908	1088.95
413.945	844.928
417.98	645.339
422.014	413.257
426.045	247.06
430.075	168.359
434.102	167.003
438.127	162.406
442.151	114.947
446.172	132.908
450.192	223.951
454.209	274.033
458.225	276.063
462.238	255.024
466.25	245.833
470.259	214.902
474.267	226.347
478.273	314.647
482.276	355.448
486.278	514.594
490.278	1065.58
494.276	1967.59
498.271	2240.59
502.265	1685.48
506.257	1161.24
510.247	926.874
514.235	930.398
518.221	1060.82
522.205	1415.13
526.187	1961.34
530.167	3111.45
534.145	5451.47
538.122	9345.4
542.096	13400.2
546.068	13065.3
550.039	10040.7
554.007	7816.59
557.973	6483.99
561.938	5772.44
565.901	4607.89
569.861	3498.03
573.82	2652.21
577.777	2090.55
581.732	1633.47
585.685	1263.28
589.636	929.177
593.585	681.63
597.532	409.573
601.477	188.078
605.42	109.224
609.361	3.741
613.301	31.461
617.238	14.354
621.174	2.713
625.108	28.31
629.039	4.596
632.969	32.737
636.897	58.167
640.823	116.385
644.747	194.113
648.669	244.459
652.589	335.222
656.508	381.371
660.424	477.792
664.339	711.993
668.251	1209.09
672.162	2045.08
676.071	2662.96
679.978	2202.74
683.883	1322.4
687.786	682.967
691.687	345.423
695.586	184.772
699.484	136.016
703.379	120.152
707.273	94.169
711.165	80.06
715.055	28.816
718.943	38.419
722.829	16.864
726.713	27.144
730.595	10.918
734.476	8.812
738.354	2.111
742.231	14.597
746.106	11.261
749.978	35.874
753.849	43.143
757.719	22.386
761.586	65.871
765.451	1.277
769.315	12.728
773.177	8.002
777.036	31.312
780.894	51.657
784.75	86.73
788.605	30.076
792.457	61.721
796.307	2.939
800.156	32.15
804.003	50.508
807.848	18.788
811.691	16.926
815.532	38.951
819.371	81.881
823.209	107.717
827.045	200.463
830.878	274.124
834.71	441.702
838.54	426.201
842.369	596.624
846.195	855.976
850.02	1120.26
853.842	1448.48
857.663	1902.47
861.482	2331.02
865.299	2771.43
869.115	2825.63
872.928	2510.43
876.74	2052.48
880.55	1707.62
884.358	1540.15
888.164	1375.29
891.969	1273.08
895.771	1289.04
899.572	1252.17
903.371	1240.85
907.168	1309.04
910.963	1360.52
914.757	1470.94
918.548	1680.03
922.338	1805.65
926.126	1970.91
929.912	2170.38
933.697	2568.5
937.479	3228.78
941.26	4159.01
945.039	5596.47
948.816	7460.16
952.591	8611.64
956.365	7870.4
960.136	7526.23
963.906	7484.24
967.674	8313.09
971.441	9122.06
975.205	7311.16
978.968	5074.38
982.729	3799.74
986.488	3120.24
990.245	2548.86
994	1992.62
997.754	1643.51
1001.51	1308.54
1005.26	1156.7
1009	1008
1012.75	1122.44
1016.5	1142.34
1020.24	1140.93
1023.98	1300.41
1027.72	1606.85
1031.46	2004.73
1035.19	2852.89
1038.93	3970.52
1042.66	4984.44
1046.39	3934.43
1050.12	2482.15
1053.85	1678.85
1057.57	1251.29
1061.29	981.074
1065.02	831.385
1068.74	759.475
1072.45	708.825
1076.17	669.842
1079.88	622.083
1083.6	595.483
1087.31	621.776
1091.02	618.36
1094.72	587.103
1098.43	604.98
1102.13	615.008
1105.84	702.398
1109.54	834.709
1113.24	845.175
1116.93	892.827
1120.63	958.678
1124.32	1082.21
1128.01	1118.94
1131.7	1123.46
1135.39	1053.42
1139.08	999.536
1142.76	738.266
1146.45	427.75
1150.13	226.647
1153.81	57.52
1157.48	24.547
1161.16	2.24
1164.84	9.309
1168.51	21.799
1172.18	14.419
1175.85	5.431
1179.52	49.726
1183.18	24.894
1186.85	45.349
1190.51	21.589
1194.17	44.192
1197.83	16.186
1201.48	21.666
1205.14	26.405
1208.79	17.497
1212.44	27.854
1216.09	21.754
1219.74	18.234
1223.39	3.511
1227.03	19.99
1230.68	41.364
1234.32	36.037
1237.96	33.332
1241.6	6.145
1245.23	50.824
1248.87	79.773
1252.5	48.558
1256.13	51.164
1259.76	60.639
1263.39	29.082
1267.02	65.078
1270.64	47.192
1274.26	37.171
1277.88	38.97
1281.5	50.794
1285.12	73.292
1288.74	31.641
1292.35	61.829
1295.96	72.87
1299.57	72.073
1303.18	69.5
1306.79	69.062
1310.4	48.084
1314	55.064
1317.6	42.271
1321.2	79.689
1324.8	55.427
1328.4	39.646
1331.99	66.678
1335.59	65.142
1339.18	22.692
1342.77	37.69
1346.36	53.229
1349.95	49.048
1353.53	24.3
1357.12	61.984
1360.7	22.595
1364.28	24.874
1367.86	58.696
1371.44	71.925
1375.01	59.578
1378.59	65.238
1382.16	33.937
1385.73	0.906
1389.3	37.889
1392.87	54.28
1396.43	95.221
1399.99	59.047
1403.56	36.473
1407.12	94.855
1410.68	41.74
1414.23	39.159
1417.79	57.373
1421.34	25.371
1424.9	86.853
1428.45	75.384
1431.99	57.495
1435.54	53.362
1439.09	77.636
1442.63	86.58
1446.17	91.306
1449.71	63.154
1453.26	38.321
1456.79	33.969
1460.33	29.658
1463.86	0.357
1467.39	47.089
1470.92	77.549
1474.45	33.559
1477.98	79.086
1481.51	52.656
1485.03	88.22
1488.56	27.361
1492.08	25.339
1495.6	48.936
1499.11	6.141
1502.63	21.728
1506.14	50.687
1509.66	34.272
1513.17	3.532
1516.68	70.122
1520.19	31.038
