Measurement: Raman, 514 nm, ccw, Raman Data Processed
Mineral: Aegirine
Rruff sample: R040054
Ideal chemistry: NaFe^3+^Si_2_O_6_
Locality: Mont Saint-Hilaire, Rouville County, Quebec, Canada
Source: Bob Downs
Description: Black cleavage fragments
Measured chemistry: (Na_0.96_Ca_0.04_)(Fe_0.86_Ti_0.07_Mn_0.06_Mg_0.02_)(Si_0.97_Al_0.03_)_2_O_6_
Pin_id: M00355
Orientation: Laser parallel to [1 0 1]. Fiducial mark perpendicular to laser is parallel to b* (0 1 0)
Raman shift (cm-1)	intensity
154.038	0
158.175	182.152
162.309	1140.49
166.442	1975.7
170.573	627.91
174.702	28.86
178.828	209.281
182.953	834.647
187.076	754.325
191.198	1589.28
195.317	3601.4
199.434	3845.74
203.549	2638.46
207.663	2301.62
211.774	2631.63
215.884	3189.12
219.991	2773.94
224.097	1697.51
228.201	767.726
232.303	331.123
236.403	194.751
240.501	50.703
244.597	41.582
248.691	78.605
252.784	19.891
256.874	91.938
260.963	31.942
265.049	153.128
269.134	215.378
273.217	104.225
277.298	435.595
281.377	786.143
285.454	1089.72
289.529	1487.23
293.602	2051.39
297.674	2454.43
301.743	2251.69
305.811	1925.6
309.877	2169.83
313.941	2546.53
318.003	2484.96
322.063	1808.35
326.121	1544.06
330.177	1766.93
334.232	2476.69
338.284	3723.98
342.335	5242.57
346.384	5367.68
350.431	4484.25
354.476	3308.55
358.519	2493.98
362.56	2405.44
366.6	2808.44
370.637	3020.17
374.673	2748.59
378.707	2723.53
382.739	3010.77
386.769	3502.56
390.797	3709.37
394.823	3057.85
398.848	1958.55
402.87	1085.37
406.891	602.813
410.91	414.058
414.927	336.963
418.942	224.771
422.956	113.521
426.967	7.609
430.977	4.227
434.985	12.366
438.991	13.345
442.995	46.678
446.997	36.527
450.997	52.63
454.996	73.962
458.993	124.552
462.988	232.442
466.981	213.698
470.972	129.415
474.961	141.665
478.949	195.774
482.935	263.98
486.918	454.027
490.9	609.148
494.881	1225.36
498.859	2576.43
502.836	2667.7
506.81	1685.67
510.783	1135.66
514.754	1022.7
518.723	972.726
522.691	1087.83
526.656	1457.88
530.62	2029.94
534.582	2634.07
538.542	3805.3
542.501	5954.73
546.457	7695.29
550.412	7366.03
554.365	6766.64
558.316	6726.82
562.265	7295.02
566.213	6991.99
570.158	6081.04
574.102	4882.59
578.044	3883.22
581.984	3221.67
585.923	2615.31
589.859	2068.23
593.794	1553.64
597.727	1130.66
601.658	734.463
605.588	432.776
609.516	254.348
613.441	125.254
617.365	18.391
621.288	65.151
625.208	2.208
629.127	18.483
633.044	25.298
636.959	65.188
640.872	5.489
644.784	86.418
648.693	209.274
652.601	166.306
656.508	163.47
660.412	267.859
664.315	304.661
668.215	387.86
672.115	561.453
676.012	935.628
679.907	1083.8
683.801	943.597
687.693	583.025
691.583	365.081
695.472	244.762
699.358	238.073
703.243	197.033
707.127	168.66
711.008	164.968
714.888	78.97
718.765	92.657
722.641	113.093
726.516	104.251
730.388	102.127
734.259	141.722
738.128	134.043
741.996	283.209
745.861	183.882
749.725	193.395
753.587	130.216
757.447	431.548
761.306	530.924
765.163	157.819
769.018	78.292
772.871	149.714
776.723	0.076
780.573	32.731
784.421	73.552
788.267	42.881
792.112	110.77
795.954	91.331
799.796	132.064
803.635	58.085
807.473	18.275
811.309	9.886
815.143	41.346
818.975	122.525
822.806	299.669
826.635	438.793
830.462	675.909
834.288	919.031
838.112	1303.84
841.934	1860.54
845.754	2679.99
849.573	3496.6
853.39	4362.94
857.205	4954.4
861.019	5569.06
864.83	6024.66
868.64	6380.55
872.449	5976.68
876.255	4844.13
880.06	3595.29
883.864	2621.05
887.665	1910.48
891.465	1618.18
895.263	1328.13
899.059	1129.36
902.854	989.934
906.647	830.848
910.438	706.674
914.228	780.445
918.016	710.686
921.802	722.809
925.586	754.134
929.369	835.577
933.15	904.199
936.93	1088.53
940.707	1376.8
944.483	1840.44
948.258	2511.07
952.03	3358.09
955.801	3800.84
959.57	3872.07
963.338	4127.77
967.104	4343.92
970.868	4682.5
974.631	4342.52
978.391	3041
982.151	2211.95
985.908	1817.38
989.664	1527.27
993.418	1339.65
997.17	1167.49
1000.92	1113.8
1004.67	1063.6
1008.42	1128.91
1012.16	1272.68
1015.91	1370.88
1019.65	1485.54
1023.39	1621.63
1027.13	1954.46
1030.87	2502.44
1034.6	3745.11
1038.34	5866.98
1042.07	8904.24
1045.8	8860.3
1049.53	5246
1053.26	3244.48
1056.98	2351.5
1060.71	1922.24
1064.43	1715.2
1068.15	1515.79
1071.87	1359.7
1075.59	1287.95
1079.3	1274.01
1083.02	1261.96
1086.73	1196.18
1090.44	1102.33
1094.15	1118.37
1097.86	1087.16
1101.56	894.076
1105.27	889.194
1108.97	834.723
1112.67	891.832
1116.37	911.222
1120.07	874.383
1123.76	1077.37
1127.46	977.385
1131.15	882.44
1134.84	899.31
1138.53	709.75
1142.22	627.955
1145.9	497.899
1149.59	250.097
1153.27	116.042
1156.95	1.418
1160.63	50.66
1164.31	55.728
1167.99	46.646
1171.66	57.813
1175.34	4.914
1179.01	34.049
1182.68	34.446
1186.35	102.963
1190.01	53.517
1193.68	65.254
1197.34	73.335
1201	42.34
1204.66	14.02
1208.32	24.922
1211.98	53.525
1215.63	55.734
1219.29	12.654
1222.94	46.409
1226.59	31.073
1230.24	88.924
1233.89	103.034
1237.53	93.803
1241.18	78.605
1244.82	75.66
1248.46	77.101
1252.1	135.364
1255.74	92.208
1259.37	152.747
1263.01	116.99
1266.64	175.911
1270.27	164.51
1273.9	199.607
1277.53	171.526
1281.15	189.049
1284.78	92.232
1288.4	157.038
1292.03	119.532
1295.65	214.128
1299.26	216.896
1302.88	167.13
1306.5	165.15
1310.11	147.64
1313.72	62.075
1317.33	90.215
1320.94	104.418
1324.55	48.498
1328.16	24.964
1331.76	33.408
1335.36	145.501
1338.96	101.2
1342.56	133.331
1346.16	111.33
1349.76	4.387
1353.35	6.672
1356.95	103.972
1360.54	92.188
1364.13	81.19
1367.72	101.094
1371.3	126.411
1374.89	73.175
1378.47	133.736
1382.06	126.924
1385.64	119.474
1389.21	102.536
1392.79	57.141
1396.37	23.225
1399.94	40.9
1403.52	139.53
1407.09	116.819
1410.66	182.473
1414.22	96.344
1417.79	85.176
1421.36	110.25
1424.92	89.584
1428.48	54.993
1432.04	6.416
1435.6	93.581
1439.16	49.165
1442.72	112.994
1446.27	101.424
1449.82	178.567
1453.37	116.708
1456.92	137.513
1460.47	161.411
1464.02	115.221
1467.56	68.216
1471.11	41.341
1474.65	46.811
1478.19	46.697
1481.73	62.039
1485.27	112.701
1488.8	80.642
1492.34	58.902
1495.87	94.635
1499.4	63.009
1502.93	47.171
1506.46	35.233
1509.98	34.39
1513.51	54.981
1517.03	9.704
1520.55	5.526
1524.08	27.966
