Measurement: Raman, 514 nm, ccw, Raman Data Processed
Mineral: Aenigmatite
Rruff sample: R061088
Ideal chemistry: Na_4_(Fe^2+^_10_Ti_2_)O_4_[Si_12_O_36_]
Locality: Naujakasik, Greenland
Source: Michael Scott
Description: Black prismatic crystals
Measured chemistry: (Na_1.72_Ca_0.28_)_Σ=2_(Fe^2+^_4.90_Mn_0.08_Mg_0.02_)_Σ=5_(Ti_0.85_Al_0.14_Fe^3+^_0.01_)_Σ=1_(Si_5.87_Al_0.13_)_Σ=6_O_20_
Pin_id: L01392
Orientation: Laser parallel to (1 0 1). Fiducial mark perpendicular to laser is parallel to b [0 1 0]
Raman shift (cm-1)	intensity
151.232	0
156.179	335.315
161.122	1018.35
166.062	785.712
170.999	304.94
175.933	94.1064
180.864	72.3555
185.791	1365.3
190.715	1073.88
195.636	1794.14
200.554	2715.58
205.469	2330.89
210.38	2041.02
215.288	2130.38
220.194	1483.14
225.096	737.929
229.994	296.302
234.89	18.2632
239.783	108.668
244.672	80.9224
249.558	254.566
254.441	647.522
259.321	1040.19
264.198	358.373
269.072	113.819
273.943	110.56
278.81	214.599
283.675	330.329
288.536	487.085
293.395	813.39
298.25	974.919
303.102	1144.23
307.951	1023.67
312.797	676.966
317.64	593.099
322.48	460.037
327.317	196.497
332.151	197.054
336.982	78.0879
341.81	88.8955
346.634	59.9468
351.456	176.437
356.275	588.821
361.091	876.469
365.903	863.95
370.713	680.169
375.52	540.634
380.323	354.651
385.124	166.385
389.922	85.1245
394.717	198.148
399.508	135.893
404.297	219.903
409.083	250.33
413.866	174.317
418.646	216.275
423.423	337.834
428.197	584.753
432.968	857.359
437.736	739.963
442.502	693.884
447.264	515.858
452.024	409.112
456.78	302.9
461.534	364.434
466.284	311.359
471.032	256.944
475.777	346.407
480.519	445.705
485.258	574.727
489.995	728.732
494.728	681.713
499.459	405.722
504.186	454.87
508.911	334.373
513.633	298.249
518.352	544.625
523.069	593.067
527.782	858.625
532.493	1113.65
537.2	1064.15
541.905	901.893
546.608	811.996
551.307	787.291
556.003	643.275
560.697	494.867
565.388	213.208
570.076	40.8184
574.761	88.3901
579.444	24.7925
584.124	62.7188
588.801	127.201
593.475	459.219
598.146	1252.36
602.815	1994.19
607.481	2360.78
612.144	2499.46
616.805	2629.97
621.462	2962.7
626.117	4176.19
630.769	6713.2
635.419	11038.1
640.066	15926.8
644.71	18717.9
649.351	17473.3
653.99	13749.7
658.625	9777.66
663.259	7228.76
667.889	6257.84
672.517	6257.81
677.142	6699.78
681.765	7088.75
686.384	6670.69
691.001	5734.59
695.616	3824.45
700.228	2463.27
704.837	1448.02
709.443	940.706
714.047	669.61
718.648	553.365
723.246	355.867
727.842	490.671
732.435	674.039
737.026	368.357
741.614	117.626
746.199	78.8071
750.782	24.7905
755.362	21.7036
759.94	136.502
764.514	223.64
769.087	146.722
773.656	144.661
778.224	76.2485
782.788	7.52197
787.35	97.0176
791.909	77.3574
796.466	98.4077
801.02	25.8535
805.572	98.8359
810.121	80.7666
814.668	119.65
819.212	177.489
823.753	305.291
828.292	237.056
832.829	545.793
837.362	513.521
841.894	586.137
846.423	863.071
850.949	1268.78
855.473	1673.79
859.994	1881.8
864.513	1645.96
869.029	1678.08
873.543	1829.87
878.054	2626.83
882.563	3369.17
887.069	4557.68
891.573	5340.87
896.074	4845.81
900.573	3442.8
905.069	2397.88
909.563	1671.45
914.055	1321.62
918.544	1106.66
923.03	1000.98
927.514	744.271
931.996	596.75
936.475	621.627
940.952	527.801
945.426	708.179
949.898	1056.77
954.368	1187.56
958.835	1282.58
963.299	1241.81
967.762	1057.01
972.221	1106.69
976.679	1278.84
981.134	1948.37
985.587	2411.72
990.037	2167.45
994.485	1870.01
998.93	1109.93
1003.37	684.278
1007.81	575.087
1012.25	561.693
1016.69	665.301
1021.12	737.467
1025.55	1135.75
1029.98	1309.3
1034.41	1582.93
1038.83	1439.82
1043.26	1274.08
1047.67	873.59
1052.09	660.478
1056.51	545.152
1060.92	484.768
1065.33	294.109
1069.74	243.91
1074.14	188.901
1078.55	198.027
1082.95	169.286
1087.35	109.67
1091.74	87.1773
1096.14	41.8023
1100.53	57.5308
1104.92	10.6582
1109.31	33.7612
1113.69	24.1172
1118.07	151.064
1122.45	292.614
1126.83	1.19629
1131.21	24.6987
1135.58	47.8227
1139.95	59.6216
1144.32	0.038086
1148.69	74.6304
1153.05	1.76269
1157.42	2.99316
1161.78	84.0273
1166.13	45.0352
1170.49	131.133
1174.85	143.302
1179.2	77.6504
1183.55	139.935
1187.89	265.839
1192.24	294.242
1196.58	348.99
1200.92	362.791
1205.26	460.339
1209.59	424.424
1213.93	486.244
1218.26	330.016
1222.59	296.771
1226.91	306.475
1231.24	216.35
1235.56	146.651
1239.88	355.775
1244.2	179.023
1248.52	170.218
1252.83	346.258
1257.14	374.086
1261.45	459.644
1265.76	608.492
1270.07	755.641
1274.37	899.065
1278.67	1094.52
1282.97	1169.68
1287.27	1490.09
1291.57	1546.54
1295.86	1658.04
1300.15	1605.21
1304.44	1541.01
1308.72	1552.82
1313.01	1637.73
1317.29	1509.12
1321.57	1669.51
1325.85	1450.35
1330.12	1590.18
1334.4	1476.35
1338.67	1229.73
1342.94	1124.34
1347.21	1083.68
1351.47	974.469
1355.74	880.295
1360	785.665
1364.26	591.767
1368.52	648.484
1372.77	551.778
1377.03	493.158
1381.28	468.541
1385.53	266.842
1389.77	277.507
1394.02	187.097
1398.26	255.956
1402.5	177.888
1406.74	118.068
1410.98	47.6294
1415.21	85.543
1419.45	33.0029
1423.68	67.4619
1427.91	50.4351
1432.13	23.5342
1436.36	24.8418
1440.58	12.4438
1444.8	12.6924
1449.02	83.3535
1453.24	27.4556
1457.46	84.3813
1461.67	55.9898
1465.88	162.538
1470.09	116.334
1474.3	10.6318
1478.5	80.1968
1482.71	227.248
1486.91	70.4507
1491.11	264.46
1495.3	136.598
1499.5	96.1318
1503.69	191.304
1507.88	167.188
1512.08	177.959
1516.26	152.713
1520.45	167.752
1524.63	128.352
1528.81	161.735
1532.99	103.553
1537.17	77.5742
1541.35	150.136
1545.52	74.8389
