Measurement: Raman, 514 nm, ccw, Raman Data Processed
Mineral: Aenigmatite
Rruff sample: R061088
Ideal chemistry: Na_4_(Fe^2+^_10_Ti_2_)O_4_[Si_12_O_36_]
Locality: Naujakasik, Greenland
Source: Michael Scott
Description: Black prismatic crystals
Measured chemistry: (Na_1.72_Ca_0.28_)_Σ=2_(Fe^2+^_4.90_Mn_0.08_Mg_0.02_)_Σ=5_(Ti_0.85_Al_0.14_Fe^3+^_0.01_)_Σ=1_(Si_5.87_Al_0.13_)_Σ=6_O_20_
Pin_id: L01545
Orientation: Laser parallel to (1 1 0). Fiducial mark perpendicular to laser is parallel to c [0 0 1]
Raman shift (cm-1)	intensity
136.591	0
141.529	83.0566
146.465	722.182
151.398	1407.44
156.328	1879.86
161.256	2555.75
166.18	2894.09
171.102	2099.89
176.021	1256.97
180.937	720.061
185.85	546.784
190.76	553.833
195.668	580.975
200.572	609.801
205.474	119.978
210.374	44.6387
215.27	119.091
220.163	165.084
225.054	267.14
229.942	324.635
234.827	683.959
239.709	910.987
244.589	815.934
249.465	831.303
254.339	763.866
259.21	889.675
264.079	552.857
268.944	302.53
273.807	427.503
278.667	373.035
283.524	403.235
288.378	670.192
293.23	992.917
298.079	1400.44
302.925	1806.87
307.768	2144.95
312.609	2119.66
317.446	1753.76
322.281	1169.86
327.113	521.961
331.943	342.001
336.769	171.568
341.593	157.548
346.414	438.481
351.233	1103.58
356.048	1707.67
360.861	1951.44
365.671	1718.29
370.478	1461.05
375.283	1246.24
380.084	808.301
384.883	728.231
389.68	435.041
394.473	185.964
399.264	162.923
404.052	52.8906
408.837	146.117
413.62	11.001
418.4	130.227
423.177	653.844
427.951	970.541
432.722	1263.1
437.491	1600.77
442.257	1297.28
447.021	897.769
451.781	464.292
456.539	176.902
461.294	79.3594
466.047	46.6855
470.797	225.24
475.544	101.967
480.288	408.779
485.03	497.948
489.768	576.692
494.504	562.36
499.238	661.4
503.969	833.043
508.697	1041.07
513.422	1203.03
518.144	1560.56
522.864	1996.83
527.582	2303.94
532.296	2590.8
537.008	2596.12
541.717	2721.26
546.423	2544.06
551.127	2329.22
555.828	2072.78
560.526	2308.53
565.222	2014.84
569.915	1648.7
574.605	1389.12
579.292	592.082
583.977	259.604
588.659	319.688
593.339	565.335
598.016	896.55
602.69	1433.71
607.361	2012.61
612.03	2663.22
616.696	3266.85
621.359	4537.15
626.02	6113.02
630.678	8869
635.333	13058.4
639.986	18524.4
644.636	23505.1
649.284	26641.7
653.928	27127.7
658.57	25717.6
663.21	22854.8
667.846	19619.4
672.481	16586.3
677.112	15050.5
681.741	14159.1
686.367	13913.4
690.99	13111.5
695.611	11084.4
700.229	8241.55
704.845	5826.03
709.458	4008.79
714.068	2728.82
718.676	2110.11
723.281	1547.26
727.883	997.438
732.483	745.46
737.08	606.714
741.674	434.197
746.266	217.067
750.855	83.6143
755.442	142.848
760.025	79.7803
764.607	43.4385
769.185	51.3076
773.761	97.8809
778.335	143.234
782.906	24.6689
787.474	83.3535
792.039	97.8106
796.602	174.349
801.162	418.027
805.72	366.84
810.275	534.8
814.828	632
819.378	736.642
823.925	1059.48
828.47	1190.48
833.012	1280.59
837.551	1743.87
842.088	1882.43
846.622	2320.55
851.154	2671.91
855.683	3080.78
860.209	3327.77
864.733	3767.93
869.254	4375.21
873.773	5027.57
878.289	5962
882.803	6892.61
887.314	7239.75
891.822	7150.15
896.328	6375.06
900.831	4865.64
905.332	3894.16
909.83	2963.98
914.325	2254.72
918.818	1706.04
923.308	1525.41
927.796	1073.63
932.281	989.402
936.764	821.375
941.244	732.544
945.721	812.194
950.196	685.354
954.668	794.372
959.138	284.037
963.605	497.157
968.07	584.414
972.532	621.817
976.991	504.36
981.448	576.416
985.903	583.139
990.355	474.41
994.804	353.254
999.251	352.449
1003.7	158.356
1008.14	271.633
1012.58	94.6807
1017.01	151.515
1021.45	324.288
1025.88	434.705
1030.31	435.31
1034.73	539.15
1039.16	588.611
1043.58	481.499
1048	648.307
1052.41	634.945
1056.83	379.745
1061.24	372.96
1065.65	199.19
1070.05	142.442
1074.46	35.71
1078.86	70.9394
1083.26	96.1709
1087.65	33.8184
1092.05	2.44922
1096.44	51.6191
1100.83	56.2402
1105.21	15.3867
1109.6	24.6904
1113.98	114.618
1118.36	75.0586
1122.73	3.53516
1127.1	35.5869
1131.47	31.2842
1135.84	119.353
1140.21	22.4727
1144.57	13.7354
1148.93	135.855
1153.29	100.925
1157.65	101.987
1162	50.8018
1166.35	100.568
1170.7	321.959
1175.05	388.964
1179.39	438.684
1183.73	502.488
1188.07	637.357
1192.41	629.158
1196.74	629.031
1201.07	913.15
1205.4	698.172
1209.72	943.269
1214.05	813.036
1218.37	951.681
1222.69	845.055
1227.01	823.192
1231.32	787.63
1235.63	928.693
1239.94	773.094
1244.24	673.494
1248.55	731.287
1252.85	849.844
1257.15	880.105
1261.44	871.734
1265.74	942.606
1270.03	1061.34
1274.32	1218.74
1278.61	1396.53
1282.89	1601.93
1287.17	1839.89
1291.45	2091.11
1295.73	2296.2
1300	2415.78
1304.27	2470.81
1308.54	2566.85
1312.81	2659.42
1317.08	2689.36
1321.34	2728.93
1325.6	2671.03
1329.85	2635.74
1334.11	2531.85
1338.36	2430.61
1342.61	2221.78
1346.86	2209.45
1351.1	2121.48
1355.35	1966.89
1359.59	1806.57
1363.82	1635.96
1368.06	1579.58
1372.29	1318.85
1376.52	1274.54
1380.75	1097.36
1384.97	1079.46
1389.2	854.054
1393.42	690.608
1397.64	486.251
1401.85	440.991
1406.07	406.114
1410.28	316.674
1414.49	268.657
1418.69	70.6689
1422.9	235.764
1427.1	40.3643
1431.3	106.228
1435.49	80.666
1439.69	3.67871
1443.88	99.6201
1448.07	6.37207
1452.26	11.2002
1456.44	76.7481
1460.62	87.125
1464.8	95.3682
1468.98	94.3916
1473.15	167.49
1477.33	206.105
1481.5	158.098
1485.66	316.602
1489.83	207.926
1493.99	331.405
1498.15	141.615
1502.31	156.015
1506.47	289.874
1510.62	260.277
1514.77	57.7744
1518.92	161.62
1523.07	216.869
1527.21	146.411
1531.35	326.426
1535.49	175.001
1539.63	74.4951
1543.76	158.759
1547.9	44.8975
