Measurement: Raman, 514 nm, ccw, Raman Data Processed
Mineral: Aenigmatite
Rruff sample: R061088
Ideal chemistry: Na_4_(Fe^2+^_10_Ti_2_)O_4_[Si_12_O_36_]
Locality: Naujakasik, Greenland
Source: Michael Scott
Description: Black prismatic crystals
Measured chemistry: (Na_1.72_Ca_0.28_)_Σ=2_(Fe^2+^_4.90_Mn_0.08_Mg_0.02_)_Σ=5_(Ti_0.85_Al_0.14_Fe^3+^_0.01_)_Σ=1_(Si_5.87_Al_0.13_)_Σ=6_O_20_
Pin_id: L00919
Orientation: Laser parallel to (0 -1 -1). Fiducial mark perpendicular to laser is parallel to a [1 0 0]
Raman shift (cm-1)	intensity
136.21	0
141.129	125.332
146.046	396.95
150.96	537.257
155.872	579.705
160.781	524.31
165.688	604.599
170.592	440.501
175.494	189.221
180.393	116.046
185.29	125.665
190.184	371.634
195.076	692.678
199.965	980.566
204.852	686.225
209.736	587.685
214.618	778.174
219.498	628.591
224.375	386.206
229.249	194.22
234.121	107.49
238.99	29.458
243.857	85.3018
248.721	29.6128
253.583	61.1533
258.443	32.8169
263.3	16.7583
268.154	107.11
273.006	215.337
277.855	329.546
282.702	381.177
287.547	500.354
292.388	696.401
297.228	827.283
302.065	925.08
306.899	1066.48
311.731	965.664
316.56	781.129
321.387	560.314
326.211	285.46
331.033	273.243
335.853	109.04
340.669	144.405
345.484	199.377
350.295	230.926
355.105	331.137
359.911	459.627
364.716	529.493
369.517	466.343
374.317	413.952
379.113	454.084
383.907	394.791
388.699	328.478
393.488	212.94
398.275	134.934
403.059	38.561
407.84	8.16357
412.619	15.3706
417.396	76.9624
422.17	196.684
426.941	396.481
431.71	248.76
436.477	408.3
441.241	350.14
446.002	84.1562
450.761	155.872
455.517	221.901
460.271	155.72
465.022	155.026
469.771	75.0523
474.517	136.815
479.261	105.396
484.002	93.3213
488.74	327.868
493.476	361.337
498.21	272.076
502.941	316.082
507.669	407.901
512.395	421.615
517.119	433.348
521.84	474.142
526.558	672.872
531.274	700.171
535.987	709.741
540.698	669.75
545.406	720.91
550.111	694.832
554.814	660.434
559.515	567.651
564.213	528.887
568.908	490.144
573.601	172.332
578.292	116.54
582.979	33.2466
587.665	18.5928
592.347	35.585
597.028	15.002
601.705	205.256
606.38	284.245
611.053	439.856
615.723	559.609
620.39	787.658
625.055	1108.86
629.718	1809.22
634.377	2604.92
639.035	3566.23
643.689	4659.5
648.341	5330.74
652.991	5728.1
657.638	5447.83
662.283	5124.27
666.924	4952.69
671.564	4644.15
676.201	4642.17
680.835	4384.89
685.467	4193.33
690.096	3875.35
694.722	3238.07
699.346	2612.84
703.968	1855.62
708.587	1437.38
713.203	1044.11
717.817	814.802
722.428	522.629
727.037	438.979
731.643	398.398
736.246	343.037
740.847	156.109
745.446	154.738
750.042	33.3648
754.635	26.8369
759.226	6.00488
763.814	30.1396
768.4	140.598
772.983	78.625
777.563	78.0234
782.141	13.8916
786.716	53.6592
791.289	25.9424
795.859	22.3501
800.427	75.6221
804.992	68.8799
809.555	171.125
814.115	207.359
818.672	278.584
823.227	344.801
827.779	314.017
832.329	438.254
836.876	512.547
841.42	623.964
845.962	765.445
850.502	877.95
855.038	947.545
859.573	1023.4
864.104	1154.48
868.633	1299.79
873.16	1485.23
877.684	1596.74
882.205	1879.31
886.724	2022.3
891.24	1988.2
895.754	1808.19
900.265	1502.56
904.773	1431.49
909.279	1328.97
913.783	1202.25
918.283	947.727
922.782	993.598
927.277	805.398
931.77	818.629
936.261	775.998
940.749	652.48
945.234	841.073
949.716	680.778
954.197	690.596
958.674	774.526
963.149	931.592
967.621	863.24
972.091	968.109
976.558	978.43
981.023	1134.76
985.485	1153.28
989.945	1081.93
994.401	921.142
998.856	792.538
1003.31	755.51
1007.76	691.953
1012.2	697.72
1016.65	762.092
1021.09	772.431
1025.53	843.679
1029.96	824.453
1034.4	803.702
1038.83	751.672
1043.26	617.229
1047.68	530.488
1052.11	494.044
1056.53	383.873
1060.94	315.762
1065.36	181.72
1069.77	188.685
1074.18	64.666
1078.59	165.662
1083	86.6675
1087.4	107.679
1091.8	48.6968
1096.2	6.30713
1100.59	79.6152
1104.98	71.5439
1109.37	99.2236
1113.76	34.6157
1118.14	1.94727
1122.53	11.0073
1126.9	32.4307
1131.28	54.229
1135.66	1.35059
1140.03	1.20068
1144.4	12.0117
1148.76	6.72998
1153.13	13.6489
1157.49	21.7646
1161.85	34.6621
1166.2	42.477
1170.56	35.7217
1174.9	68.6836
1179.25	85.8667
1183.6	104.672
1187.94	84.5147
1192.28	71.1577
1196.62	182.494
1200.95	116.816
1205.29	99.0757
1209.62	142.294
1213.94	171.475
1218.27	118.608
1222.59	82.668
1226.91	148.426
1231.23	126.086
1235.54	0.951172
1239.86	208.167
1244.16	150.337
1248.47	101.699
1252.77	70.5713
1257.08	86.0933
1261.37	178.547
1265.67	170.721
1269.96	192.267
1274.26	214.189
1278.54	262.548
1282.83	294.564
1287.11	351.528
1291.39	353.993
1295.67	510.079
1299.95	626.809
1304.22	602.394
1308.49	716.612
1312.76	780.359
1317.02	656.06
1321.28	741.622
1325.54	746.724
1329.8	709.14
1334.06	734.892
1338.31	685.867
1342.56	755.191
1346.8	719.17
1351.05	626.012
1355.29	600.693
1359.53	511.692
1363.77	534.312
1368	501.133
1372.23	376.159
1376.46	297.885
1380.68	265.114
1384.91	282.323
1389.13	329.994
1393.35	211.449
1397.56	181.599
1401.78	210.558
1405.98	88.8989
1410.19	52.7769
1414.4	78.6006
1418.6	88.564
1422.8	105.115
1427	181.369
1431.19	47.4556
1435.38	116.495
1439.57	127.165
1443.76	190.721
1447.94	19.1743
1452.13	196.582
1456.31	72.0063
1460.48	26.7847
1464.66	2.97559
1468.83	94.6187
1473	63.4853
1477.16	23.0352
1481.33	117.784
1485.49	163.238
1489.64	112.258
1493.8	142.702
1497.95	38.4248
1502.1	144.887
1506.25	109.474
1510.4	103.2
1514.54	99.4155
1518.68	159.511
1522.82	82.5986
1526.95	161.511
1531.08	259.115
1535.21	193.79
1539.34	116.588
1543.46	0
