Measurement: Raman, 514 nm, ccw, Raman Data Processed
Mineral: Aenigmatite
Rruff sample: R061088
Ideal chemistry: Na_4_(Fe^2+^_10_Ti_2_)O_4_[Si_12_O_36_]
Locality: Naujakasik, Greenland
Source: Michael Scott
Description: Black prismatic crystals
Measured chemistry: (Na_1.72_Ca_0.28_)_Σ=2_(Fe^2+^_4.90_Mn_0.08_Mg_0.02_)_Σ=5_(Ti_0.85_Al_0.14_Fe^3+^_0.01_)_Σ=1_(Si_5.87_Al_0.13_)_Σ=6_O_20_
Pin_id: L00777
Orientation: Laser parallel to b* (0 1 0). Fiducial mark perpendicular to laser is parallel to c [0 0 1]
Raman shift (cm-1)	intensity
133.75	0
138.67	402.49
143.588	367.192
148.503	731.178
153.416	1315.46
158.327	1746.32
163.235	2333.07
168.14	1935.15
173.043	1062.27
177.944	389.09
182.842	193.39
187.737	436.562
192.63	306.733
197.521	369.603
202.409	457.273
207.295	114.894
212.178	2.94385
217.058	73.6265
221.936	210.65
226.812	373.35
231.685	535.76
236.556	315.85
241.424	472.451
246.29	339.995
251.153	278.421
256.013	224.433
260.872	150.624
265.727	130.326
270.58	108.435
275.431	215.488
280.279	272.466
285.125	280.339
289.968	587.697
294.808	1015.73
299.647	1350.09
304.482	1836.37
309.315	1886.74
314.146	1384.74
318.974	908.79
323.8	553.98
328.623	204.164
333.443	18.876
338.261	137.508
343.077	18.144
347.89	284.464
352.7	828.54
357.508	1374.96
362.314	1759.98
367.117	1631.11
371.917	1238.46
376.715	963.635
381.511	715.215
386.304	667.342
391.094	524.315
395.882	334.252
400.667	47.9126
405.45	16.7329
410.23	127.049
415.008	33.3438
419.783	182.846
424.556	565.912
429.326	769.777
434.094	901.28
438.859	795.245
443.622	615.271
448.382	252.856
453.139	31.6787
457.894	32.4277
462.647	39.8667
467.397	62.7866
472.144	82.3013
476.889	151.405
481.632	319.904
486.371	242.687
491.109	346.998
495.844	127.975
500.576	242.848
505.306	313.363
510.033	574.313
514.757	618.541
519.48	752.965
524.199	956.61
528.916	1149.46
533.631	1106.54
538.343	1145.84
543.052	1119.26
547.759	1023.19
552.463	994.579
557.165	1107.98
561.864	814.042
566.561	668.007
571.255	496.275
575.947	231.847
580.636	128.725
585.322	69.0845
590.006	6.34082
594.688	373.063
599.367	651.113
604.043	1065.21
608.717	1520.61
613.388	1966.67
618.057	2532.19
622.723	3534.88
627.387	5130.01
632.048	8152.73
636.706	13159
641.362	18825.1
646.016	21520.7
650.667	19515.2
655.315	16301.2
659.961	13340.7
664.604	10889.3
669.244	9268.07
673.883	8934.09
678.518	8860.34
683.151	9207.82
687.781	9214.59
692.409	7647.77
697.035	5424.52
701.657	3613.65
706.278	2544.01
710.895	1749.58
715.51	1375.35
720.123	1024.34
724.733	746.292
729.34	656.24
733.945	641.828
738.547	382.613
743.147	243.603
747.744	136.814
752.339	183.218
756.931	25.7979
761.52	68.5869
766.107	57.4072
770.691	118.543
775.273	103.057
779.852	153.935
784.429	24.3481
789.003	6.08643
793.575	86.4731
798.144	122.94
802.71	222.474
807.274	184.166
811.835	265.015
816.394	377.022
820.95	363.187
825.503	472.572
830.054	631.168
834.603	759.943
839.148	848.813
843.692	1079.78
848.232	1231.83
852.77	1500.02
857.306	1892.38
861.839	2173.89
866.369	2408.62
870.897	2808.48
875.422	3422.94
879.945	4255.16
884.465	5138.94
888.982	5954.48
893.497	5614.26
898.01	4375.4
902.52	3082.96
907.027	2296.4
911.531	1792.33
916.033	1353.13
920.533	1134.09
925.03	982.615
929.524	798.823
934.016	588.965
938.505	507.851
942.991	466.914
947.475	472.951
951.957	462.735
956.436	439.168
960.912	465.238
965.386	478.426
969.857	548.928
974.325	506.503
978.791	555.203
983.254	673.946
987.715	704.907
992.173	608.23
996.629	349.429
1001.08	261.201
1005.53	59.2129
1009.98	107.612
1014.42	230.739
1018.87	245.293
1023.31	330.93
1027.75	445.239
1032.18	445.527
1036.61	408.919
1041.04	411.484
1045.47	413.305
1049.89	361.356
1054.32	342.686
1058.74	156.103
1063.15	164.558
1067.57	82.0039
1071.98	2.12207
1076.39	1.30762
1080.79	19.2622
1085.2	13.812
1089.6	7.92773
1094	4.37646
1098.39	67.2632
1102.79	51.7744
1107.18	16.5938
1111.57	35.124
1115.95	23.2085
1120.34	45.3213
1124.72	11.6655
1129.09	15.2153
1133.47	1.00147
1137.84	137.982
1142.21	4.2583
1146.58	3.1831
1150.94	1.91748
1155.31	9.56152
1159.67	142.784
1164.02	76.041
1168.38	197.212
1172.73	112.3
1177.08	173.412
1181.43	374.491
1185.77	334.578
1190.11	397.601
1194.45	479.618
1198.79	520.583
1203.12	540.234
1207.45	614.234
1211.78	554.852
1216.11	486.94
1220.43	581.601
1224.75	499.968
1229.07	433.125
1233.39	459.062
1237.7	450.875
1242.01	392.657
1246.32	419.377
1250.62	491.331
1254.92	515.355
1259.22	627.07
1263.52	775.325
1267.82	757.455
1272.11	908.68
1276.4	1068.03
1280.69	1257.93
1284.97	1394.12
1289.25	1478.44
1293.53	1785.85
1297.81	1697.85
1302.08	1785.01
1306.35	1744.41
1310.62	1672.26
1314.89	1740.24
1319.15	1729.92
1323.41	1646.16
1327.67	1577.29
1331.93	1637.03
1336.18	1624.81
1340.43	1359.39
1344.68	1334.88
1348.93	1418.57
1353.17	1171.2
1357.41	962.88
1361.65	1075.38
1365.88	915.99
1370.11	860.249
1374.34	698.94
1378.57	684.194
1382.8	593.07
1387.02	444.524
1391.24	361.627
1395.45	324.045
1399.67	274.181
1403.88	248.096
1408.09	156.829
1412.3	131.44
1416.5	144
1420.7	71.7808
1424.9	82.8023
1429.1	79.7373
1433.29	10.6655
1437.48	10.2661
1441.67	40.7793
1445.85	35.8955
1450.04	32.6982
1454.22	29.7383
1458.39	32.8223
1462.57	37.0776
1466.74	110.215
1470.91	0.526367
1475.08	53.2856
1479.24	124.599
1483.41	87.2183
1487.57	170.224
1491.72	131.14
1495.88	78.2617
1500.03	160.739
1504.18	58.0347
1508.32	55.7632
1512.47	132.038
1516.61	140.592
1520.75	58.8608
1524.88	184.579
1529.02	154.422
1533.15	155.06
1537.28	93.1362
1541.4	39.3804
1545.53	0
