Measurement: Raman, 514 nm, ccw, Raman Data Processed
Mineral: Aenigmatite
Rruff sample: R061088
Ideal chemistry: Na_4_(Fe^2+^_10_Ti_2_)O_4_[Si_12_O_36_]
Locality: Naujakasik, Greenland
Source: Michael Scott
Description: Black prismatic crystals
Measured chemistry: (Na_1.72_Ca_0.28_)_Σ=2_(Fe^2+^_4.90_Mn_0.08_Mg_0.02_)_Σ=5_(Ti_0.85_Al_0.14_Fe^3+^_0.01_)_Σ=1_(Si_5.87_Al_0.13_)_Σ=6_O_20_
Pin_id: L00919
Orientation: Laser parallel to (0 -1 -1). Fiducial mark perpendicular to laser is parallel to a [1 0 0]
Raman shift (cm-1)	intensity
141.129	0
146.046	141.773
150.96	279.714
155.872	36.606
160.781	256.6
165.688	506.46
170.592	378.653
175.494	199.619
180.393	20.7305
185.29	178.766
190.184	359.252
195.076	626.186
199.965	598.681
204.852	568.451
209.736	724.686
214.618	830.395
219.498	537.214
224.375	292.423
229.249	55.8013
234.121	175.304
238.99	177.699
243.857	297.596
248.721	358.466
253.583	356.752
258.443	415.632
263.3	402.878
268.154	429.835
273.006	552.63
277.855	709.322
282.702	922.081
287.547	1228.89
292.388	1403.99
297.228	1577.6
302.065	1728.41
306.899	1854.18
311.731	1905.24
316.56	1499.65
321.387	1032.27
326.211	671.963
331.033	396.325
335.853	190.441
340.669	61.3364
345.484	45.773
350.295	68.6914
355.105	105.049
359.911	70.9023
364.716	78.271
369.517	49.147
374.317	46.4937
379.113	30.5762
383.907	76.5518
388.699	6.73096
393.488	71.0381
398.275	155.827
403.059	62.9048
407.84	169.858
412.619	153.951
417.396	246.682
422.17	216.146
426.941	299.421
431.71	294.521
436.477	344.462
441.241	318.991
446.002	329.325
450.761	300.114
455.517	281.129
460.271	200.777
465.022	265.816
469.771	246.352
474.517	140.778
479.261	234.202
484.002	424.276
488.74	438.902
493.476	368.956
498.21	272.372
502.941	432.703
507.669	539.989
512.395	586.711
517.119	684.962
521.84	853.385
526.558	1061.39
531.274	1169.78
535.987	1041.52
540.698	816.858
545.406	844.253
550.111	780.011
554.814	805.668
559.515	883.545
564.213	737.227
568.908	663.903
573.601	481.564
578.292	321.212
582.979	245.856
587.665	31.4985
592.347	7.14502
597.028	30.2124
601.705	108.712
606.38	51.0254
611.053	140.673
615.723	169.63
620.39	283.918
625.055	510.012
629.718	693.376
634.377	843.269
639.035	1309.41
643.689	1807.45
648.341	2203.2
652.991	2419.69
657.638	2450.58
662.283	2525.19
666.924	2779.16
671.564	2973.62
676.201	3241.98
680.835	2828.36
685.467	2798.8
690.096	2516.23
694.722	2120.66
699.346	1474.06
703.968	1097.44
708.587	883.798
713.203	589.122
717.817	411.415
722.428	450.678
727.037	340.912
731.643	364.117
736.246	395.876
740.847	244.028
745.446	173.997
750.042	61.7495
754.635	2.29688
759.226	32.8569
763.814	40.416
768.4	24.5581
772.983	46.3828
777.563	70.9927
782.141	19.0654
786.716	9.33301
791.289	36.9336
795.859	79.1982
800.427	6.20557
804.992	31.1748
809.555	51.1118
814.115	141.017
818.672	10.8935
823.227	94.7417
827.779	143.561
832.329	155.376
836.876	218.219
841.42	236.077
845.962	249.938
850.502	371.788
855.038	449.631
859.573	433.489
864.104	555.395
868.633	477.383
873.16	608.845
877.684	588.466
882.205	710.607
886.724	790.915
891.24	911.339
895.754	964.088
900.265	947.784
904.773	1196.82
909.279	1161.1
913.783	1073.07
918.283	992.131
922.782	859.893
927.277	801.814
931.77	711.086
936.261	832.129
940.749	785.415
945.234	966.812
949.716	1128.32
954.197	1143.02
958.674	1134.76
963.149	1211.68
967.621	1186.58
972.091	1193.35
976.558	1342.61
981.023	1426.54
985.485	1528.68
989.945	1361.65
994.401	1149.6
998.856	1019.39
1003.31	956.895
1007.76	1005.05
1012.2	1025.36
1016.65	1145.17
1021.09	1119.9
1025.53	1029.96
1029.96	1159.21
1034.4	1112.97
1038.83	1103.45
1043.26	849.202
1047.68	712.193
1052.11	515.309
1056.53	421.601
1060.94	293.119
1065.36	216.821
1069.77	92.6894
1074.18	33.4692
1078.59	68.3828
1083	4.64941
1087.4	55.3657
1091.8	28.4292
1096.2	49.5737
1100.59	14.4224
1104.98	19.5171
1109.37	16.5112
1113.76	22.5454
1118.14	31.1489
1122.53	11.4688
1126.9	72.7012
1131.28	86.6196
1135.66	39.0176
1140.03	30.7476
1144.4	26.3774
1148.76	118.293
1153.13	16.8315
1157.49	14.1548
1161.85	72.7319
1166.2	85.562
1170.56	131.602
1174.9	172.929
1179.25	250.353
1183.6	166.627
1187.94	139.296
1192.28	151.907
1196.62	138.464
1200.95	207.981
1205.29	160.446
1209.62	178.846
1213.94	169.123
1218.27	83.4077
1222.59	208.635
1226.91	76.7251
1231.23	164.862
1235.54	41.4004
1239.86	13.0102
1244.16	121.7
1248.47	46.1143
1252.77	45.6562
1257.08	110.753
1261.37	41.4644
1265.67	39.6655
1269.96	121.775
1274.26	99.8193
1278.54	33.4292
1282.83	210.153
1287.11	207.731
1291.39	261.447
1295.67	244.916
1299.95	239.488
1304.22	271.336
1308.49	275.079
1312.76	353.793
1317.02	402.06
1321.28	308.581
1325.54	332.146
1329.8	363.534
1334.06	468.791
1338.31	339.5
1342.56	399.472
1346.8	388.313
1351.05	383.625
1355.29	480.566
1359.53	408.656
1363.77	295.378
1368	243.233
1372.23	378.791
1376.46	309.471
1380.68	174.459
1384.91	230.554
1389.13	220.559
1393.35	120.204
1397.56	36.7866
1401.78	132.862
1405.98	120.702
1410.19	6.41602
1414.4	80.375
1418.6	39.4038
1422.8	39.8579
1427	10.7759
1431.19	22.5327
1435.38	91.7988
1439.57	77.9492
1443.76	47.0298
1447.94	1.02686
1452.13	22.9902
1456.31	62.0518
1460.48	55.2534
1464.66	5.48047
1468.83	67.8398
1473	38.1455
1477.16	45.0727
1481.33	61.2495
1485.49	104.894
1489.64	116.818
1493.8	137.557
1497.95	55.312
1502.1	87.1733
1506.25	188.478
1510.4	45.9106
1514.54	49.3247
1518.68	61.5703
1522.82	129.917
1526.95	91.0259
1531.08	115.97
1535.21	116.536
1539.34	1.33838
