Measurement: Raman, 514 nm, ccw, Raman Data Processed
Mineral: Aenigmatite
Rruff sample: R061088
Ideal chemistry: Na_4_(Fe^2+^_10_Ti_2_)O_4_[Si_12_O_36_]
Locality: Naujakasik, Greenland
Source: Michael Scott
Description: Black prismatic crystals
Measured chemistry: (Na_1.72_Ca_0.28_)_Σ=2_(Fe^2+^_4.90_Mn_0.08_Mg_0.02_)_Σ=5_(Ti_0.85_Al_0.14_Fe^3+^_0.01_)_Σ=1_(Si_5.87_Al_0.13_)_Σ=6_O_20_
Pin_id: L01392
Orientation: Laser parallel to (1 0 1). Fiducial mark perpendicular to laser is parallel to b [0 1 0]
Raman shift (cm-1)	intensity
180.864	0
185.791	632.389
190.715	1211.06
195.636	2019.67
200.554	3596.68
205.469	3291.77
210.38	1750.66
215.288	1190.4
220.194	854.862
225.096	55.915
229.994	23.1152
234.89	350.099
239.783	482.449
244.672	276.056
249.558	32.4629
254.441	28.6035
259.321	42.1875
264.198	447.005
269.072	660.899
273.943	548.116
278.81	870.713
283.675	814.13
288.536	1758.75
293.395	2520.7
298.25	3161.25
303.102	3741.75
307.951	3816
312.797	3480.33
317.64	2882.13
322.48	2420.88
327.317	1429.05
332.151	574.855
336.982	38.418
341.81	263.888
346.634	351.125
351.456	177.347
356.275	67.3477
361.091	143.498
365.903	371.635
370.713	383.703
375.52	490.46
380.323	742.989
385.124	1079.98
389.922	1374.42
394.717	1691.45
399.508	2299.42
404.297	2384.77
409.083	2317.38
413.866	1967.59
418.646	1722.72
423.423	2031.44
428.197	2306.65
432.968	2371.93
437.736	2188.33
442.502	1802.05
447.264	1626.58
452.024	1388.63
456.78	1245.44
461.534	1105.02
466.284	1025.15
471.032	1259.81
475.777	1519.06
480.519	1642.16
485.258	1799.74
489.995	1382.91
494.728	1501.67
499.459	1363.68
504.186	1215.29
508.911	1196.55
513.633	1274.55
518.352	1568.55
523.069	2054.27
527.782	2274.64
532.493	2349.05
537.2	2067.28
541.905	1753.62
546.608	1384.55
551.307	1327.14
556.003	1311.76
560.697	1249.55
565.388	1253.22
570.076	1134.24
574.761	859.636
579.444	499.092
584.124	140.609
588.801	8.81738
593.475	229.803
598.146	957.642
602.815	1489.25
607.481	1849.14
612.144	1936.48
616.805	1643.2
621.462	1783.49
626.117	2298.74
630.769	3989.47
635.419	7183.71
640.066	11305.2
644.71	14180.7
649.351	14061.5
653.99	11452.4
658.625	8580.41
663.259	7496.42
667.889	8164.89
672.517	9247.09
677.142	9626.97
681.765	8549.84
686.384	6737.49
691.001	5280.91
695.616	3485.11
700.228	2388.23
704.837	1651.83
709.443	1690.13
714.047	1330.23
718.648	1064.05
723.246	753.552
727.842	987.056
732.435	1351.92
737.026	1165.45
741.614	626.658
746.199	122.523
750.782	143.018
755.362	113.692
759.94	2.30859
764.514	81.4717
769.087	19.4219
773.656	39.6768
778.224	179.909
782.788	175.994
787.35	40.0781
791.909	51.0029
796.466	110.515
801.02	29.46
805.572	131.395
810.121	148.548
814.668	142.93
819.212	592.935
823.753	1043.47
828.292	1403.55
832.829	1666.19
837.362	1605.42
841.894	1217.24
846.423	1405.67
850.949	1315.72
855.473	1926.43
859.994	2000.79
864.513	1777.84
869.029	1522.66
873.543	1567.42
878.054	1706.07
882.563	2286.03
887.069	2753.17
891.573	3102.31
896.074	3197.62
900.573	2666.73
905.069	2358.9
909.563	2752.79
914.055	2631.66
918.544	2905.19
923.03	2772.33
927.514	2657.32
931.996	2589.11
936.475	2623.4
940.952	2559.18
945.426	2385.42
949.898	2365.57
954.368	2316.84
958.835	2273.76
963.299	2329.12
967.762	2254.34
972.221	2880.33
976.679	3905.06
981.134	5734.5
985.587	7375.26
990.037	7129.9
994.485	5070.31
998.93	3183.38
1003.37	2453.04
1007.81	2457.97
1012.25	2856.26
1016.69	3011.61
1021.12	3310.33
1025.55	3501.38
1029.98	4176.91
1034.41	4636.55
1038.83	4229.89
1043.26	3579.42
1047.67	3144.75
1052.09	2535.52
1056.51	1988.66
1060.92	1364.32
1065.33	1065.06
1069.74	813.483
1074.14	605.906
1078.55	449.025
1082.95	344.595
1087.35	442.166
1091.74	182.422
1096.14	287.37
1100.53	92.874
1104.92	9.55762
1109.31	58.1435
1113.69	142.315
1118.07	421.397
1122.45	427.644
1126.83	64.2314
1131.21	73.6035
1135.58	147.79
1139.95	121.083
1144.32	40.8281
1148.69	63.9785
1153.05	55.127
1157.42	42.4004
1161.78	2.77051
1166.13	42.8828
1170.49	14.2627
1174.85	186.273
1179.2	97.5361
1183.55	116.931
1187.89	148.449
1192.24	168.003
1196.58	150.188
1200.92	275.102
1205.26	145.574
1209.59	1.06445
1213.93	13.8887
1218.26	97.9394
1222.59	75.585
1226.91	22.8047
1231.24	1.68359
1235.56	42.1816
1239.88	98.9522
1244.2	24.5332
1248.52	25.7441
1252.83	82.1553
1257.14	331.407
1261.45	248.11
1265.76	164.981
1270.07	296.44
1274.37	413.375
1278.67	526.402
1282.97	683.908
1287.27	671.634
1291.57	1013.01
1295.86	1151.72
1300.15	1065.28
1304.44	1344.15
1308.72	1357.23
1313.01	1424.63
1317.29	1358.02
1321.57	1480.41
1325.85	1363.76
1330.12	1337.95
1334.4	1374.67
1338.67	1339.87
1342.94	1255.21
1347.21	978.926
1351.47	1010.66
1355.74	1086.92
1360	844.187
1364.26	741.976
1368.52	794.285
1372.77	486.081
1377.03	539.123
1381.28	423.178
1385.53	369.532
1389.77	247.519
1394.02	275.241
1398.26	361.372
1402.5	189.094
1406.74	28.9824
1410.98	52.3164
1415.21	130.373
1419.45	73.2715
1423.68	11.1504
1427.91	227.537
1432.13	44.1084
1436.36	13.5693
1440.58	133.606
1444.8	123.23
1449.02	65.2764
1453.24	136.387
1457.46	156.68
1461.67	182.664
1465.88	133.615
1470.09	138.186
1474.3	158.412
1478.5	79.3057
1482.71	203.733
1486.91	176.633
1491.11	96.5742
1495.3	207.712
1499.5	193.311
1503.69	255.184
1507.88	188.007
1512.08	172.358
1516.26	305.552
1520.45	285.631
1524.63	100.965
1528.81	131.207
1532.99	270.153
1537.17	164.414
1541.35	56.9062
