Measurement: Raman, 514 nm, ccw, Raman Data Processed
Mineral: Aenigmatite
Rruff sample: R061088
Ideal chemistry: Na_4_(Fe^2+^_10_Ti_2_)O_4_[Si_12_O_36_]
Locality: Naujakasik, Greenland
Source: Michael Scott
Description: Black prismatic crystals
Measured chemistry: (Na_1.72_Ca_0.28_)_Σ=2_(Fe^2+^_4.90_Mn_0.08_Mg_0.02_)_Σ=5_(Ti_0.85_Al_0.14_Fe^3+^_0.01_)_Σ=1_(Si_5.87_Al_0.13_)_Σ=6_O_20_
Pin_id: L01498
Orientation: Laser parallel to -c* (0 0 -1). Fiducial mark perpendicular to laser is parallel to a [1 0 0]
Raman shift (cm-1)	intensity
149.732	0
154.644	280.755
159.554	254.111
164.461	639.347
169.366	527.352
174.269	170.16
179.168	70.6172
184.066	15.0654
188.961	400.052
193.853	552.173
198.743	812.137
203.631	708.627
208.516	296.388
213.398	510.285
218.278	229.554
223.156	128.53
228.031	73.4014
232.903	45.3203
237.773	125.389
242.641	161.773
247.506	175.499
252.368	269.601
257.228	231.343
262.086	280.278
266.941	306.866
271.793	391.625
276.643	414.599
281.491	662.852
286.336	645.116
291.178	810.11
296.018	981.102
300.856	1236.31
305.691	1264.43
310.523	1239.18
315.353	1128.13
320.181	1071.82
325.006	701.906
329.828	429.703
334.648	74.9639
339.465	110.657
344.28	105.135
349.093	61.3667
353.903	77.5405
358.71	139.116
363.515	201.918
368.317	53.5684
373.117	14.1211
377.914	51.354
382.709	28.3579
387.501	92.6602
392.291	181.596
397.078	280.632
401.863	288.028
406.645	354.356
411.425	320.135
416.202	432.407
420.977	423.825
425.749	547.325
430.518	563.651
435.285	556.552
440.05	678.784
444.812	475.143
449.571	190.84
454.328	248.946
459.083	89.5435
463.835	62.6782
468.584	57.4077
473.331	80.8418
478.075	131.398
482.817	182.004
487.556	272.45
492.293	145.346
497.027	45.7602
501.758	114.732
506.488	50.6201
511.214	63.4614
515.938	162.416
520.66	398.667
525.379	598.32
530.095	701.07
534.809	756.74
539.52	616.493
544.229	577.266
548.935	542.268
553.639	477.347
558.34	493.472
563.039	538.622
567.735	475.793
572.428	416.984
577.119	364.197
581.808	262.435
586.494	130.702
591.177	164.012
595.858	241.373
600.536	450.331
605.212	536.096
609.885	715.064
614.556	725.58
619.224	766.147
623.889	1023.24
628.552	1399.27
633.213	2048.15
637.871	2752.64
642.526	3540.15
647.179	3984.98
651.829	4116.53
656.477	4190.69
661.122	4181.24
665.764	4224.71
670.404	4163.68
675.042	4195.15
679.677	4081.65
684.309	3813.14
688.939	3530.61
693.566	3046.07
698.191	2247.5
702.813	1746.9
707.432	1560.48
712.049	1276.63
716.664	1281.95
721.276	871.251
725.885	799.519
730.492	597.763
735.096	683.983
739.697	454.181
744.297	258.363
748.893	178.558
753.487	46.9004
758.078	1.93652
762.667	109.993
767.253	22.6465
771.837	0.13623
776.418	26.4033
780.997	151.965
785.573	53.6055
790.146	31.8623
794.717	29.103
799.285	75.3989
803.851	66.3296
808.414	86.604
812.975	201.381
817.533	118.085
822.088	230.718
826.641	437.281
831.192	332.775
835.739	471.345
840.284	468.609
844.827	620.973
849.367	792.396
853.904	751.813
858.439	994.262
862.972	868.848
867.501	1068.55
872.029	1043.33
876.553	1359.09
881.075	1493.83
885.595	1584.55
890.111	1676.21
894.626	1635.81
899.137	1476.44
903.647	1323.88
908.153	1317.2
912.657	1272.45
917.158	1164.3
921.657	1256.16
926.154	1035.31
930.647	977.526
935.138	1017.61
939.627	981.532
944.113	1005.87
948.596	1048.92
953.077	1028.16
957.555	1294.32
962.031	1519.54
966.504	1693.83
970.974	1115.33
975.442	1241.14
979.907	1406.47
984.37	1439.34
988.83	1472.57
993.288	1294.82
997.742	1184.79
1002.2	1165
1006.64	1145.04
1011.09	1103.84
1015.54	1086.52
1019.98	1092.66
1024.42	1158.8
1028.86	1168.14
1033.29	1010.18
1037.72	921.854
1042.15	800.236
1046.58	631.767
1051	473.421
1055.42	506.379
1059.84	370.435
1064.26	224.556
1068.67	179.908
1073.08	145.287
1077.49	124.322
1081.89	24.1582
1086.3	61.3428
1090.7	95.1475
1095.1	81.6269
1099.49	87.9863
1103.88	53.8945
1108.28	9.93359
1112.66	63.9707
1117.05	1.83496
1121.43	75.4375
1125.81	14.7773
1130.19	15.5557
1134.56	57.9365
1138.93	17.9414
1143.3	54.0078
1147.67	7.84668
1152.04	70.5439
1156.4	3.72852
1160.76	90.79
1165.11	32.1719
1169.47	116.448
1173.82	84.5117
1178.17	57.4053
1182.51	173.682
1186.86	72.9082
1191.2	101.51
1195.54	194.01
1199.87	239.403
1204.2	129.691
1208.54	191.863
1212.86	258.934
1217.19	349.759
1221.51	126.606
1225.83	245.333
1230.15	151.941
1234.46	149.892
1238.78	56.207
1243.09	192.608
1247.39	153.508
1251.7	111.119
1256	130.435
1260.3	231.061
1264.6	228.541
1268.89	138.32
1273.18	138.714
1277.47	243.22
1281.76	318.997
1286.04	399.519
1290.32	454.55
1294.6	595.845
1298.88	563.741
1303.15	580.181
1307.42	683.412
1311.69	641.773
1315.96	535.422
1320.22	544.475
1324.48	644.822
1328.74	624.176
1332.99	598.539
1337.24	569.979
1341.49	421.386
1345.74	637.464
1349.99	522.266
1354.23	481.928
1358.47	367.568
1362.71	263.292
1366.94	313.411
1371.17	222.122
1375.4	328.693
1379.63	157.577
1383.85	228.316
1388.07	221.759
1392.29	221.55
1396.51	40.5156
1400.72	35.9502
1404.93	150.595
1409.14	40.1641
1413.35	38.1435
1417.55	61.6416
1421.75	41.2539
1425.95	126.946
1430.14	127.725
1434.34	139.6
1438.53	272.595
1442.71	264.778
1446.9	169.074
1451.08	258.442
1455.26	228.068
1459.44	183.01
1463.61	224.85
1467.78	212.6
1471.95	127.341
1476.12	182.392
1480.28	199.088
1484.45	92.959
1488.61	80.7207
1492.76	146.65
1496.91	92.9883
1501.07	105.426
1505.21	112.178
1509.36	85.3701
1513.5	69.7588
1517.64	86.3857
1521.78	140.638
1525.92	0
