Measurement: Raman, 514 nm, ccw, Raman Data Processed
Mineral: Aenigmatite
Rruff sample: R061088
Ideal chemistry: Na_4_(Fe^2+^_10_Ti_2_)O_4_[Si_12_O_36_]
Locality: Naujakasik, Greenland
Source: Michael Scott
Description: Black prismatic crystals
Measured chemistry: (Na_1.72_Ca_0.28_)_Σ=2_(Fe^2+^_4.90_Mn_0.08_Mg_0.02_)_Σ=5_(Ti_0.85_Al_0.14_Fe^3+^_0.01_)_Σ=1_(Si_5.87_Al_0.13_)_Σ=6_O_20_
Pin_id: L00919
Orientation: Laser parallel to (0 -1 -1). Fiducial mark perpendicular to laser is parallel to a [1 0 0]
Raman shift (cm-1)	intensity
141.129	0
146.046	206.352
150.96	714.689
155.872	875.01
160.781	1110.12
165.688	957.788
170.592	592.106
175.494	37.335
180.393	20.1148
185.29	207.448
190.184	637.225
195.076	832.376
199.965	1099.03
204.852	930.269
209.736	754.228
214.618	1100.84
219.498	926.527
224.375	694.537
229.249	385.123
234.121	208.845
238.99	135.559
243.857	118.826
248.721	100.313
253.583	144.199
258.443	421.673
263.3	19.0107
268.154	17.103
273.006	64.604
277.855	37.3486
282.702	25.918
287.547	173.741
292.388	133.218
297.228	218.75
302.065	288.649
306.899	165.623
311.731	198.501
316.56	156.286
321.387	36.7725
326.211	54.7446
331.033	46.6372
335.853	30.6284
340.669	29.5547
345.484	121.081
350.295	242.541
355.105	348.049
359.911	496.586
364.716	409.91
369.517	447.33
374.317	406.799
379.113	323.233
383.907	426.972
388.699	321.876
393.488	314.202
398.275	282.459
403.059	261.877
407.84	232.199
412.619	162.695
417.396	160.219
422.17	206.947
426.941	236.646
431.71	390.018
436.477	413.929
441.241	440.435
446.002	310.604
450.761	134.394
455.517	102.073
460.271	36.3018
465.022	175.49
469.771	129.898
474.517	81.1733
479.261	385.637
484.002	396.123
488.74	538.663
493.476	630.742
498.21	564.963
502.941	575.727
507.669	568.75
512.395	643.822
517.119	577.859
521.84	724.426
526.558	846.647
531.274	1006.97
535.987	1019.04
540.698	1100.74
545.406	1116.37
550.111	1027.22
554.814	878.609
559.515	718.703
564.213	608.138
568.908	564.223
573.601	253.651
578.292	145.308
582.979	82.8301
587.665	26.9258
592.347	80.0186
597.028	210.964
601.705	371.895
606.38	580.948
611.053	657.816
615.723	882.852
620.39	1260.63
625.055	1724.94
629.718	2754.34
634.377	4272.67
639.035	6080.26
643.689	7904.06
648.341	8744.71
652.991	8665.89
657.638	7893.92
662.283	6922.83
666.924	5930.85
671.564	5239.29
676.201	5000.05
680.835	4855.08
685.467	4608.23
690.096	4301.53
694.722	3434.18
699.346	2434.93
703.968	1638.75
708.587	1229.65
713.203	799.594
717.817	588.595
722.428	459.838
727.037	378.318
731.643	203.281
736.246	156.483
740.847	99.7378
745.446	58.0478
750.042	25.6152
754.635	27.7642
759.226	85.4126
763.814	46.624
768.4	36.6597
772.983	14.8247
777.563	4.24707
782.141	20.5337
786.716	68.2012
791.289	35.3345
795.859	40.9238
800.427	216.155
804.992	223.391
809.555	239.637
814.115	277.896
818.672	353.17
823.227	525.456
827.779	591.778
832.329	681.21
836.876	722.686
841.42	1026.19
845.962	1095.7
850.502	1272.25
855.038	1438.87
859.573	1560.54
864.104	1661.11
868.633	1912.34
873.16	2079.45
877.684	2480.82
882.205	2733.85
886.724	2906.71
891.24	2799.04
895.754	2331.16
900.265	1860.94
904.773	1358.62
909.279	1068.03
913.783	767.802
918.283	705.222
922.782	484.531
927.277	462.446
931.77	453.305
936.261	364.724
940.749	276.252
945.234	375.291
949.716	299.326
954.197	426.395
958.674	428.485
963.149	521.392
967.621	552.694
972.091	592.532
976.558	695.457
981.023	797.385
985.485	776.458
989.945	754.824
994.401	646.229
998.856	599.041
1003.31	535.384
1007.76	506.831
1012.2	415.674
1016.65	557.61
1021.09	530.015
1025.53	561.779
1029.96	609.874
1034.4	541.578
1038.83	528.031
1043.26	460.957
1047.68	394.785
1052.11	234.205
1056.53	303.507
1060.94	275.558
1065.36	134.73
1069.77	108.932
1074.18	151.157
1078.59	24.3877
1083	7.37891
1087.4	73.8462
1091.8	5.92481
1096.2	40.794
1100.59	17.8442
1104.98	100.04
1109.37	81.895
1113.76	6.26025
1118.14	84.4853
1122.53	93.1094
1126.9	60.6753
1131.28	26.148
1135.66	1.28467
1140.03	71.9019
1144.4	24.772
1148.76	8.92773
1153.13	76.2256
1157.49	4.40869
1161.85	92.7398
1166.2	48.7412
1170.56	113.726
1174.9	19.6636
1179.25	210.567
1183.6	245.54
1187.94	117.543
1192.28	108.757
1196.62	241.433
1200.95	215.3
1205.29	197.097
1209.62	227.423
1213.94	297.601
1218.27	168.104
1222.59	265.496
1226.91	288.9
1231.23	215.757
1235.54	221.615
1239.86	273.396
1244.16	278.157
1248.47	276.735
1252.77	227.249
1257.08	250.289
1261.37	314.852
1265.67	308.957
1269.96	365.721
1274.26	330.433
1278.54	503.966
1282.83	451.133
1287.11	576.657
1291.39	779.47
1295.67	788.358
1299.95	770.965
1304.22	848.722
1308.49	819.678
1312.76	934.924
1317.02	915.488
1321.28	970.271
1325.54	910.103
1329.8	892.013
1334.06	892.027
1338.31	842.307
1342.56	743.782
1346.8	727.986
1351.05	724.935
1355.29	650.131
1359.53	482.985
1363.77	472.989
1368	466.315
1372.23	496.231
1376.46	342.577
1380.68	298.361
1384.91	336.268
1389.13	296.571
1393.35	231.763
1397.56	266.662
1401.78	130.991
1405.98	153.772
1410.19	141.894
1414.4	53.4033
1418.6	36.2554
1422.8	38.8491
1427	1.5166
1431.19	111.853
1435.38	55.1299
1439.57	34.7378
1443.76	8.28955
1447.94	10.1035
1452.13	4.45117
1456.31	111.799
1460.48	38.8716
1464.66	70.0283
1468.83	56.1143
1473	25.3257
1477.16	113.531
1481.33	128.447
1485.49	46.4316
1489.64	151.995
1493.8	40.7417
1497.95	173.193
1502.1	146.264
1506.25	0.097168
1510.4	104.035
1514.54	97.8101
1518.68	47.73
1522.82	130.986
1526.95	169.703
1531.08	152.754
1535.21	169.569
1539.34	39.9365
1543.46	109.263
