Measurement: Raman, 514 nm, ccw, Raman Data Processed
Mineral: Aenigmatite
Rruff sample: R061088
Ideal chemistry: Na_4_(Fe^2+^_10_Ti_2_)O_4_[Si_12_O_36_]
Locality: Naujakasik, Greenland
Source: Michael Scott
Description: Black prismatic crystals
Measured chemistry: (Na_1.72_Ca_0.28_)_Σ=2_(Fe^2+^_4.90_Mn_0.08_Mg_0.02_)_Σ=5_(Ti_0.85_Al_0.14_Fe^3+^_0.01_)_Σ=1_(Si_5.87_Al_0.13_)_Σ=6_O_20_
Pin_id: L01498
Orientation: Laser parallel to -c* (0 0 -1). Fiducial mark perpendicular to laser is parallel to a [1 0 0]
Raman shift (cm-1)	intensity
126.364	0
131.288	350.658
136.21	389.184
141.129	1023.23
146.046	1325.8
150.96	1689.71
155.872	1568.38
160.781	1420.51
165.688	1430.31
170.592	851.038
175.494	521.822
180.393	337.664
185.29	407.981
190.184	579.043
195.076	643.737
199.965	829.925
204.852	860.629
209.736	736.056
214.618	752.595
219.498	690.363
224.375	539.946
229.249	359.68
234.121	282.826
238.99	203.696
243.857	100.673
248.721	52.8462
253.583	2.11768
258.443	89.9678
263.3	97.4097
268.154	136.36
273.006	73.8574
277.855	20.1436
282.702	217.23
287.547	231.712
292.388	334.932
297.228	352.931
302.065	493.108
306.899	531.158
311.731	506.213
316.56	443.749
321.387	272.752
326.211	88.1592
331.033	32.96
335.853	97.2373
340.669	104.813
345.484	127.247
350.295	136.549
355.105	159.611
359.911	281.58
364.716	326.563
369.517	345.578
374.317	313.955
379.113	283.004
383.907	389.256
388.699	284.755
393.488	286.28
398.275	313.864
403.059	363.808
407.84	242.518
412.619	59.9927
417.396	79.4849
422.17	202.023
426.941	175.008
431.71	301.104
436.477	192.49
441.241	284.892
446.002	195.583
450.761	190.759
455.517	91.3262
460.271	162.501
465.022	178.591
469.771	44.2817
474.517	65.3447
479.261	61.3843
484.002	188.615
488.74	256.837
493.476	368.245
498.21	245.148
502.941	289.058
507.669	314.989
512.395	477.244
517.119	396.572
521.84	669.059
526.558	805.408
531.274	771.921
535.987	699.105
540.698	787.894
545.406	707.6
550.111	676.99
554.814	715.248
559.515	609.344
564.213	495.825
568.908	498.858
573.601	216.684
578.292	225.5
582.979	9.89062
587.665	88.2847
592.347	78.8603
597.028	29.4155
601.705	98.4477
606.38	181.382
611.053	221.032
615.723	276.059
620.39	568.122
625.055	736.33
629.718	1027.7
634.377	1422.82
639.035	2101.74
643.689	2577.71
648.341	3070.53
652.991	3279.5
657.638	3380.72
662.283	3456.21
666.924	3637.62
671.564	3669.39
676.201	3556.94
680.835	3122.93
685.467	2760
690.096	2386.74
694.722	1971.11
699.346	1671.8
703.968	1339.15
708.587	1273.8
713.203	1071.27
717.817	874.555
722.428	771.398
727.037	612.615
731.643	619.503
736.246	391.082
740.847	266.518
745.446	134.792
750.042	114.909
754.635	33.207
759.226	103.74
763.814	29.3008
768.4	129.446
772.983	67.3599
777.563	38.9937
782.141	67.8203
786.716	12.7427
791.289	14.9385
795.859	31.3994
800.427	118.515
804.992	0.558594
809.555	153.148
814.115	141.705
818.672	266.116
823.227	292.387
827.779	413.522
832.329	520.525
836.876	610.403
841.42	625.168
845.962	573.818
850.502	848.359
855.038	852.801
859.573	889.262
864.104	884.745
868.633	987.282
873.16	1033.84
877.684	1179.39
882.205	1238.9
886.724	1309.96
891.24	1299.27
895.754	1141.13
900.265	1032.12
904.773	921.824
909.279	1027.29
913.783	883.077
918.283	812.163
922.782	700.107
927.277	823.161
931.77	780.856
936.261	759.797
940.749	786.731
945.234	707.429
949.716	659.325
954.197	738.35
958.674	597.509
963.149	751.806
967.621	1028.24
972.091	1133.2
976.558	1215.92
981.023	1249.8
985.485	1394.98
989.945	1354.41
994.401	1289.5
998.856	1306.17
1003.31	1200.28
1007.76	1299.95
1012.2	1231.44
1016.65	1444.08
1021.09	1413.42
1025.53	1338.15
1029.96	1222.32
1034.4	1067.11
1038.83	1046.2
1043.26	932.457
1047.68	881.64
1052.11	720.303
1056.53	523.375
1060.94	486.82
1065.36	504.202
1069.77	321.872
1074.18	243.746
1078.59	206.115
1083	101.068
1087.4	38.0718
1091.8	58.1382
1096.2	52.2617
1100.59	41.438
1104.98	142.657
1109.37	103.905
1113.76	111.337
1118.14	57.062
1122.53	85.3984
1126.9	43.4609
1131.28	11.4502
1135.66	59.9277
1140.03	64.5986
1144.4	31.1035
1148.76	49.6826
1153.13	86.0244
1157.49	17.8135
1161.85	62.728
1166.2	7.47363
1170.56	51.4614
1174.9	37.0654
1179.25	25.2988
1183.6	18.3818
1187.94	127.37
1192.28	48.2759
1196.62	53.0772
1200.95	139.738
1205.29	57.3047
1209.62	134.755
1213.94	93.1021
1218.27	93.3486
1222.59	115.493
1226.91	176.65
1231.23	135.937
1235.54	92.811
1239.86	62.6289
1244.16	22.2305
1248.47	77.5288
1252.77	126.606
1257.08	84.0044
1261.37	95.0947
1265.67	50.6138
1269.96	65.7305
1274.26	73.5229
1278.54	143.289
1282.83	174.146
1287.11	248.603
1291.39	262.489
1295.67	318.966
1299.95	292.701
1304.22	355.412
1308.49	246.652
1312.76	314.624
1317.02	357.432
1321.28	337.133
1325.54	352.007
1329.8	423.668
1334.06	325.176
1338.31	323.253
1342.56	409.782
1346.8	354.296
1351.05	254.78
1355.29	307.218
1359.53	337.501
1363.77	198.684
1368	191.904
1372.23	213.341
1376.46	253.5
1380.68	189.663
1384.91	136.89
1389.13	69.4712
1393.35	131.893
1397.56	3.21728
1401.78	37.5962
1405.98	3.75195
1410.19	39.8281
1414.4	41.0542
1418.6	4.68945
1422.8	47.7212
1427	113.482
1431.19	173.576
1435.38	283.057
1439.57	295.825
1443.76	305.044
1447.94	281.226
1452.13	271.536
1456.31	246.637
1460.48	225.562
1464.66	181.026
1468.83	171.204
1473	130.322
1477.16	143.562
1481.33	222.342
1485.49	81.1748
1489.64	89.8648
1493.8	54.5845
1497.95	118.324
1502.1	55.0727
1506.25	48.7959
1510.4	62.436
1514.54	21.1597
1518.68	158.581
1522.82	99.5601
1526.95	105.433
1531.08	29.042
1535.21	104.394
1539.34	88.5957
1543.46	116.62
