Measurement: Raman, 514 nm, ccw, Raman Data Processed
Mineral: Aenigmatite
Rruff sample: R061088
Ideal chemistry: Na_4_(Fe^2+^_10_Ti_2_)O_4_[Si_12_O_36_]
Locality: Naujakasik, Greenland
Source: Michael Scott
Description: Black prismatic crystals
Measured chemistry: (Na_1.72_Ca_0.28_)_Σ=2_(Fe^2+^_4.90_Mn_0.08_Mg_0.02_)_Σ=5_(Ti_0.85_Al_0.14_Fe^3+^_0.01_)_Σ=1_(Si_5.87_Al_0.13_)_Σ=6_O_20_
Pin_id: L01545
Orientation: Laser parallel to (1 1 0). Fiducial mark perpendicular to laser is parallel to c [0 0 1]
Raman shift (cm-1)	intensity
132.885	0
137.826	184.292
142.764	307.856
147.699	629.231
152.631	1141.28
157.56	1095.46
162.487	1478.21
167.411	1314.96
172.332	944.336
177.25	296.7
182.165	15.2344
187.078	200.509
191.987	225.968
196.894	436.969
201.798	566.422
206.699	127.189
211.598	6.5459
216.493	51.5645
221.386	74.6777
226.276	148.773
231.163	239.98
236.048	107.388
240.929	153.621
245.808	276.769
250.684	428.091
255.557	511.041
260.428	603.961
265.295	418.089
270.16	184.284
275.022	197.273
279.882	86.9971
284.738	273.271
289.592	319.143
294.443	442.773
299.291	415.923
304.136	435.466
308.978	461.728
313.818	381.912
318.655	251.869
323.489	348.489
328.321	215.981
333.15	100.087
337.976	50.1826
342.799	79.5049
347.619	22.8037
352.437	207.21
357.252	542.549
362.064	686.584
366.873	487.237
371.68	501.885
376.483	209.917
381.284	205.267
386.083	49.9697
390.878	73.042
395.671	55.0752
400.461	24.6416
405.249	8.16992
410.033	33.3818
414.815	131.467
419.594	1.30859
424.37	265.458
429.144	364.222
433.915	446.213
438.683	613.764
443.448	651.227
448.211	468.529
452.971	386.682
457.728	77.6826
462.483	173.588
467.235	95.3086
471.984	4.85352
476.73	98.3975
481.474	217.846
486.214	311.348
490.953	417.847
495.688	432.664
500.421	477.55
505.151	336.885
509.878	452.579
514.603	617.77
519.325	787.404
524.044	1133.53
528.76	1241.93
533.474	1438.3
538.185	1581.11
542.894	1510.37
547.599	1352.62
552.302	1253.89
557.003	1161.7
561.7	1165.16
566.395	867.812
571.087	757.695
575.777	367.795
580.464	322.123
585.148	185.683
589.829	281.575
594.508	449.514
599.184	788.796
603.858	1251.33
608.528	1657.57
613.197	1841.96
617.862	2135.6
622.525	2469.3
627.185	2990.06
631.842	3972.96
636.497	5663.67
641.149	8210.77
645.798	10639.7
650.445	12075.5
655.089	12599.7
659.73	11949.7
664.369	10871.2
669.005	9249.5
673.639	8332.98
678.269	7266.84
682.898	6908.99
687.523	6555.44
692.146	6274.81
696.766	5227.95
701.384	3847.98
705.998	2723.18
710.611	1829.52
715.22	1175.01
719.827	792.622
724.431	629.376
729.033	518.463
733.632	338.273
738.229	238.412
742.822	205.745
747.413	5.85254
752.002	37.3516
756.588	73.2949
761.171	21.7764
765.752	18.6729
770.33	32.6582
774.905	31.5957
779.478	43.3857
784.048	99.3477
788.615	34.4756
793.18	19.8057
797.742	51.374
802.302	179.94
806.859	80.3389
811.414	326.832
815.965	307.451
820.515	389.18
825.061	497.121
829.605	680.207
834.147	722.504
838.686	845.938
843.222	1003.47
847.755	1077.07
852.286	1291.82
856.815	1658.68
861.341	1548.63
865.864	2026.65
870.384	2128.73
874.902	2282.68
879.418	2758.11
883.931	3250.33
888.441	3526.71
892.949	3481.85
897.454	3187.56
901.956	2530.16
906.456	1933.47
910.954	1555.95
915.448	1066.38
919.941	880.055
924.43	768.219
928.917	571.214
933.402	629.11
937.884	447.967
942.363	402.947
946.84	515.589
951.314	594.816
955.786	468.83
960.255	501.812
964.722	671.418
969.186	601.485
973.647	512.229
978.106	792.155
982.562	680.477
987.016	664.909
991.467	581.29
995.916	512.793
1000.36	374.018
1004.8	450.611
1009.25	469.628
1013.68	325.784
1018.12	542.59
1022.55	598.867
1026.98	564.003
1031.41	601.112
1035.84	653.65
1040.26	528.514
1044.68	501.097
1049.1	440.904
1053.52	416.733
1057.93	252.747
1062.34	232.947
1066.75	245.31
1071.15	294.754
1075.56	53.2129
1079.96	136.619
1084.36	33.0293
1088.75	46.8066
1093.14	3.1543
1097.53	7.06641
1101.92	138.43
1106.31	31.1602
1110.69	158.166
1115.07	14.5547
1119.45	58.5195
1123.82	33.4766
1128.2	30.4229
1132.57	79.3066
1136.93	132.151
1141.3	4.78613
1145.66	60.7978
1150.02	16.25
1154.38	2.22852
1158.74	102.107
1163.09	102.898
1167.44	104.617
1171.79	127.344
1176.13	222.098
1180.48	162.936
1184.82	310.815
1189.15	192.664
1193.49	258.56
1197.82	247.569
1202.15	325.649
1206.48	313.685
1210.81	440.137
1215.13	432.127
1219.45	418.477
1223.77	385.779
1228.08	408.122
1232.4	422.155
1236.71	360.965
1241.02	404.858
1245.32	328.169
1249.62	365.64
1253.92	463.682
1258.22	437.337
1262.52	262.899
1266.81	533.408
1271.1	520.72
1275.39	635.187
1279.68	671.144
1283.96	888.609
1288.24	903.673
1292.52	1058.35
1296.8	1237.89
1301.07	1215.35
1305.34	1241.79
1309.61	1359.68
1313.88	1374.35
1318.14	1386.38
1322.4	1347.9
1326.66	1476.19
1330.92	1254.4
1335.17	1389.63
1339.42	1227.38
1343.67	1257.45
1347.92	1205.85
1352.16	993.178
1356.41	938.316
1360.64	821.546
1364.88	693.426
1369.12	866.477
1373.35	679.519
1377.58	711.66
1381.81	572.929
1386.03	432.918
1390.25	327.786
1394.47	360.081
1398.69	337.164
1402.91	135.338
1407.12	245.527
1411.33	80.7168
1415.54	73.1621
1419.74	12.8359
1423.95	45.8438
1428.15	16.2773
1432.35	41.7168
1436.54	27.4834
1440.74	43.9111
1444.93	27.4951
1449.12	26.1807
1453.3	16.3936
1457.49	153.14
1461.67	93.4346
1465.85	57.3691
1470.02	7.21387
1474.2	80.2353
1478.37	122.593
1482.54	78.2481
1486.71	128.33
1490.87	101.926
1495.03	183.867
1499.19	170.797
1503.35	65.2754
1507.51	69.2061
1511.66	166.37
1515.81	52.8057
1519.96	171.987
1524.1	177.006
1528.25	191.867
1532.39	178.727
1536.53	172.026
1540.66	135.891
1544.8	148.439
1548.93	0
