Measurement: Raman, 514 nm, ccw, Raman Data Processed
Mineral: Aenigmatite
Rruff sample: R061088
Ideal chemistry: Na_4_(Fe^2+^_10_Ti_2_)O_4_[Si_12_O_36_]
Locality: Naujakasik, Greenland
Source: Michael Scott
Description: Black prismatic crystals
Measured chemistry: (Na_1.72_Ca_0.28_)_Σ=2_(Fe^2+^_4.90_Mn_0.08_Mg_0.02_)_Σ=5_(Ti_0.85_Al_0.14_Fe^3+^_0.01_)_Σ=1_(Si_5.87_Al_0.13_)_Σ=6_O_20_
Pin_id: L01392
Orientation: Laser parallel to (1 0 1). Fiducial mark perpendicular to laser is parallel to b [0 1 0]
Raman shift (cm-1)	intensity
145.044	0
149.995	262.508
154.942	783.648
159.887	538.657
164.828	1272.96
169.765	863.396
174.7	81.1758
179.631	19.0713
184.56	161.251
189.484	422.401
194.406	856.197
199.325	977.529
204.24	702.615
209.153	157.33
214.062	465.273
218.968	278.212
223.87	249.925
228.77	355.9
233.666	141.227
238.56	62.1895
243.45	21.5654
248.337	82.8804
253.221	362.51
258.102	1202.58
262.979	1246.79
267.854	1053.5
272.726	1422.72
277.594	2146.82
282.459	2431.86
287.321	2865.81
292.18	3308.1
297.036	3743.57
301.889	4234.07
306.739	4326.56
311.586	4060.92
316.43	3744.46
321.271	3277.24
326.108	2431.06
330.943	1545.63
335.774	714.029
340.603	187.539
345.428	61.0288
350.251	206.766
355.07	527.968
359.887	1350.38
364.7	1479.87
369.511	1008.84
374.318	598.885
379.123	186.882
383.924	62.5371
388.723	79.5835
393.518	76.7852
398.311	377.944
403.1	683.376
407.887	618.816
412.671	526.942
417.451	712.43
422.229	1045
427.004	1411.67
431.776	1273.46
436.545	1200.34
441.311	752.986
446.074	507.319
450.834	243.391
455.591	216.262
460.346	38.001
465.097	31.5981
469.846	27.9043
474.591	66.3032
479.334	208.072
484.074	297.884
488.811	478.1
493.545	414.247
498.276	337.375
503.005	161.595
507.73	55.957
512.453	115.895
517.173	456.234
521.89	666.891
526.604	790.945
531.315	849.016
536.024	480.419
540.729	236.576
545.432	222.162
550.132	5.08252
554.83	133.821
559.524	260.884
564.216	249.106
568.904	336.481
573.59	312.004
578.274	252.67
582.954	394.477
587.632	918.683
592.307	1085.06
596.979	2509.75
601.648	3914.1
606.315	5191.07
610.979	5065.52
615.64	4602.65
620.298	3925.26
624.954	4051.73
629.607	5371.98
634.257	8527.65
638.904	12858.7
643.549	16431.8
648.191	16885.2
652.83	13818.2
657.467	10448.6
662.101	7905.32
666.732	6869.91
671.36	7307.47
675.986	8064.8
680.609	8634.34
685.23	8307.14
689.847	7509.26
694.462	5390.27
699.075	3208.11
703.685	2073.79
708.292	1236.29
712.896	1038.6
717.498	930.719
722.097	557.646
726.694	699.322
731.287	917.895
735.879	876.207
740.467	583.307
745.053	99.2285
749.637	12.9126
754.217	108.823
758.795	25.4185
763.371	171.35
767.944	324.433
772.514	111.58
777.082	8.13281
781.647	101.792
786.21	183.81
790.77	56.4165
795.327	31.9414
799.882	73.2647
804.434	13.5781
808.984	41.2944
813.531	19.9976
818.076	39.2817
822.618	112.001
827.158	250.085
831.695	404.979
836.229	367.69
840.761	243.225
845.291	607.603
849.817	758.878
854.342	1018.01
858.864	1186.39
863.383	1283.82
867.9	1428.26
872.414	1556.22
876.926	2102.81
881.436	3011.46
885.942	4185.3
890.447	5332.21
894.949	5300.98
899.448	4171.54
903.945	3083.3
908.44	2570.07
912.932	2468.59
917.421	2398.19
921.909	2425.05
926.393	2153.05
930.876	1996.09
935.355	1916.82
939.833	1852.77
944.308	1892.65
948.78	2272.86
953.25	2813.45
957.718	2606.42
962.183	2438.62
966.646	1918.07
971.107	2026.77
975.565	2475.72
980.02	3368.2
984.474	4275.16
988.925	4108.93
993.373	3031.98
997.819	1788.33
1002.26	1293.97
1006.7	1125.19
1011.14	1540.71
1015.58	1913.03
1020.01	1602.72
1024.45	1694.65
1028.88	1896.45
1033.3	2170.88
1037.73	2211.93
1042.15	1830.69
1046.57	1449.73
1050.99	912.117
1055.4	775.035
1059.82	575.584
1064.23	513.786
1068.64	361.529
1073.04	323.852
1077.45	330.741
1081.85	272.168
1086.25	236.048
1090.64	223.268
1095.04	50.752
1099.43	180.228
1103.82	93.1514
1108.21	125.756
1112.6	41.7881
1116.98	316.801
1121.36	460.62
1125.74	224.662
1130.12	147.587
1134.49	60.6572
1138.86	61.6543
1143.23	45.5127
1147.6	174.906
1151.96	135.168
1156.33	11.9834
1160.69	43.7969
1165.05	32.6201
1169.4	71.7295
1173.76	287.148
1178.11	123.849
1182.46	185.77
1186.81	403.927
1191.15	226.35
1195.49	417.035
1199.84	472.941
1204.17	485.063
1208.51	431.293
1212.84	540.599
1217.18	255.959
1221.51	413.638
1225.83	270.42
1230.16	328.168
1234.48	322.532
1238.8	235.837
1243.12	163.333
1247.44	384.434
1251.76	418.398
1256.07	470.203
1260.38	661.814
1264.69	690.218
1268.99	857.302
1273.3	1049.77
1277.6	1155.53
1281.9	1405.65
1286.2	1543.21
1290.49	1709.88
1294.79	1938.96
1299.08	1843.44
1303.37	1946.8
1307.65	1967
1311.94	1849.78
1316.22	1743.22
1320.5	1990.65
1324.78	1877.6
1329.06	1767.43
1333.33	1764.67
1337.6	1570.38
1341.87	1498.71
1346.14	1403.9
1350.41	1266.3
1354.67	1045.3
1358.93	942.31
1363.19	778.469
1367.45	619.282
1371.71	598.265
1375.96	526.248
1380.21	419.215
1384.46	379.566
1388.71	272.843
1392.96	210.894
1397.2	183.53
1401.44	51.1357
1405.68	49.499
1409.92	91.624
1414.16	70.5264
1418.39	4.92773
1422.62	76.3994
1426.85	9.60352
1431.08	84.3643
1435.3	49.7422
1439.53	48.3086
1443.75	46.5781
1447.97	36.2295
1452.19	78.916
1456.4	1.76465
1460.62	102.083
1464.83	196.773
1469.04	185.738
1473.24	235.848
1477.45	242.643
1481.65	277.095
1485.86	145.743
1490.06	237.56
1494.26	216.857
1498.45	168.887
1502.64	109.701
1506.84	263.856
1511.03	233.189
1515.22	44.3662
1519.4	128.213
1523.59	109.386
1527.77	38.2441
1531.95	41.081
