Measurement: Raman, 514 nm, ccw, Raman Data Processed
Mineral: Aenigmatite
Rruff sample: R061088
Ideal chemistry: Na_4_(Fe^2+^_10_Ti_2_)O_4_[Si_12_O_36_]
Locality: Naujakasik, Greenland
Source: Michael Scott
Description: Black prismatic crystals
Measured chemistry: (Na_1.72_Ca_0.28_)_Σ=2_(Fe^2+^_4.90_Mn_0.08_Mg_0.02_)_Σ=5_(Ti_0.85_Al_0.14_Fe^3+^_0.01_)_Σ=1_(Si_5.87_Al_0.13_)_Σ=6_O_20_
Pin_id: L00777
Orientation: Laser parallel to b* (0 1 0). Fiducial mark perpendicular to laser is parallel to c [0 0 1]
Raman shift (cm-1)	intensity
137.44	0
142.359	38.8418
147.275	208.142
152.188	449.567
157.099	262.741
162.008	637.436
166.914	693.646
171.818	493.336
176.719	111.17
181.617	110.058
186.514	198.702
191.407	260.284
196.298	280.852
201.187	429.879
206.073	2.72266
210.957	63.5942
215.838	199.605
220.717	250.713
225.593	169.959
230.467	215.389
235.338	197.231
240.207	92.6143
245.073	51.1006
249.937	70.7241
254.798	17.8105
259.657	101.179
264.513	171.058
269.367	290.613
274.219	485.31
279.067	642.362
283.914	609.618
288.757	763.213
293.599	893.373
298.437	1260.49
303.274	1493.56
308.107	1715.39
312.939	1563.65
317.767	1140.24
322.593	751.693
327.417	426.525
332.238	240.137
337.057	102.532
341.873	29.6538
346.687	14.9712
351.498	105.435
356.307	353.093
361.113	433.543
365.916	535.971
370.717	526.375
375.516	491.742
380.312	530.041
385.106	452.211
389.897	370.012
394.685	167.616
399.471	114.704
404.254	143.332
409.035	211.019
413.814	452.659
418.59	683.253
423.363	939.805
428.134	972.309
432.902	768.73
437.668	598.115
442.431	375.455
447.192	264.698
451.95	146.869
456.706	50.0395
461.459	4.40771
466.21	59.4683
470.958	44.1401
475.703	30.9258
480.446	100.901
485.187	112.256
489.925	51.938
494.66	37.0063
499.393	116.883
504.123	125.645
508.851	178.957
513.576	256.213
518.299	319.41
523.019	437.545
527.737	292.619
532.452	482.636
537.165	377.633
541.875	295.622
546.582	258.57
551.287	189.312
555.99	307.283
560.69	187.045
565.387	330.744
570.082	257.377
574.774	246.944
579.464	43.4453
584.151	171.877
588.836	181.243
593.518	228.541
598.197	369.455
602.874	631.536
607.549	598.887
612.221	769.393
616.89	1014.8
621.557	1275.49
626.221	1595.65
630.883	2340.28
635.542	3483.14
640.199	4725.17
644.853	5813
649.504	6358.68
654.153	6750.28
658.799	6676.74
663.443	6319.08
668.085	6175.91
672.723	5969.06
677.359	5902.87
681.993	5732.39
686.624	5750.2
691.253	5344.9
695.879	4206.5
700.502	3015
705.123	2288.4
709.741	1618.7
714.357	1144.91
718.97	873.998
723.581	677.023
728.189	544.965
732.794	612.826
737.397	380.634
741.997	247.614
746.595	30.1323
751.19	15.1958
755.783	48.6182
760.373	36.2876
764.961	74.7647
769.546	1.94629
774.128	40.6133
778.708	8.70654
783.285	102.019
787.86	13.7056
792.432	96.3618
797.002	171.993
801.569	202.605
806.133	259.204
810.695	283.794
815.254	380.379
819.811	330.97
824.365	457.579
828.917	494.202
833.466	482.842
838.012	586.502
842.556	637.188
847.097	778.938
851.636	891.789
856.172	1047.76
860.706	1264.93
865.237	1482.28
869.765	1594.72
874.291	1916.31
878.814	2122.1
883.335	2421.33
887.853	2439.72
892.369	2295.48
896.882	2041.93
901.392	1744
905.9	1509.7
910.405	1448.55
914.908	1209.38
919.408	1073.49
923.906	882.832
928.401	981.372
932.893	842.074
937.383	880.938
941.87	870.966
946.355	930.156
950.837	1010.51
955.316	977.706
959.793	961.449
964.267	1002.39
968.739	830.402
973.208	895.57
977.675	651.9
982.139	719.93
986.6	523.693
991.059	511.843
995.515	438.583
999.969	403.648
1004.42	385.776
1008.87	459.864
1013.31	400.156
1017.76	548.383
1022.2	592.566
1026.64	641.379
1031.07	640.725
1035.51	565.604
1039.93	512.325
1044.36	425.806
1048.79	418.574
1053.21	365.434
1057.63	240.425
1062.05	161.5
1066.46	97.5088
1070.88	107.527
1075.29	48.5732
1079.69	65.646
1084.1	33.7412
1088.5	3.15869
1092.9	2.95312
1097.3	88.1748
1101.69	9.27588
1106.08	37.3779
1110.47	4.45801
1114.86	35.5225
1119.24	64.356
1123.62	47.9941
1128	62.252
1132.38	17.3223
1136.75	29.2012
1141.12	3.86865
1145.49	32.081
1149.85	64.2349
1154.22	48.9141
1158.58	23.561
1162.93	48.3315
1167.29	92.8594
1171.64	27.8818
1175.99	61.8989
1180.34	63.8882
1184.68	141.887
1189.03	103.648
1193.37	143.702
1197.7	85.6968
1202.04	151.323
1206.37	115.942
1210.7	136.397
1215.03	99.8594
1219.35	114.519
1223.67	155.784
1227.99	175.972
1232.31	214.136
1236.62	175.224
1240.93	234.014
1245.24	124.526
1249.55	233.16
1253.85	157.424
1258.15	228.139
1262.45	219.483
1266.74	251.822
1271.04	293.943
1275.33	350.75
1279.62	423.328
1283.9	542.258
1288.18	493.273
1292.46	723.146
1296.74	743.544
1301.02	788.016
1305.29	805.876
1309.56	864.1
1313.82	877.351
1318.09	844.961
1322.35	861.281
1326.61	923.064
1330.87	943.611
1335.12	1030.17
1339.37	952.085
1343.62	900.418
1347.87	892.094
1352.11	846.417
1356.35	874.413
1360.59	733.201
1364.82	763.735
1369.06	659.491
1373.29	546.932
1377.52	548.608
1381.74	486.023
1385.96	365.909
1390.18	286.396
1394.4	297.043
1398.62	221.99
1402.83	165.433
1407.04	120.696
1411.24	68.9302
1415.45	113.803
1419.65	88.0991
1423.85	65.3848
1428.05	62.5454
1432.24	60.2568
1436.43	31.9165
1440.62	104.428
1444.81	14.4702
1448.99	43.041
1453.17	27.2012
1457.35	52.8935
1461.53	0.76416
1465.7	65.2856
1469.87	44.7485
1474.04	163.274
1478.2	86.5854
1482.37	28.729
1486.53	100.837
1490.68	116.866
1494.84	151.895
1498.99	112.891
1503.14	163.515
1507.29	218.383
1511.43	54.4639
1515.57	103.256
1519.71	162.987
1523.85	174.641
1527.98	27.3667
1532.12	186.152
1536.24	231.976
1540.37	32.1553
1544.49	4.10107
1548.62	13.3252
