Measurement: Raman, 514 nm, ccw, Raman Data Processed
Mineral: Aenigmatite
Rruff sample: R061088
Ideal chemistry: Na_4_(Fe^2+^_10_Ti_2_)O_4_[Si_12_O_36_]
Locality: Naujakasik, Greenland
Source: Michael Scott
Description: Black prismatic crystals
Measured chemistry: (Na_1.72_Ca_0.28_)_Σ=2_(Fe^2+^_4.90_Mn_0.08_Mg_0.02_)_Σ=5_(Ti_0.85_Al_0.14_Fe^3+^_0.01_)_Σ=1_(Si_5.87_Al_0.13_)_Σ=6_O_20_
Pin_id: L01545
Orientation: Laser parallel to (1 1 0). Fiducial mark perpendicular to laser is parallel to c [0 0 1]
Raman shift (cm-1)	intensity
150.165	0
155.096	100.003
160.024	43.1313
164.949	506.649
169.872	679.706
174.791	322.417
179.708	30.9976
184.622	27.5259
189.533	221.253
194.441	227.428
199.347	445.307
204.249	164.073
209.149	153.287
214.046	158.231
218.94	374.929
223.832	255.651
228.72	136.221
233.606	146.831
238.489	37.501
243.369	21.0996
248.247	50.9326
253.121	47.5391
257.993	394.376
262.862	211.136
267.728	179.817
272.592	123.183
277.452	403.311
282.31	482.144
287.165	484.775
292.017	637.365
296.867	843.836
301.714	1120.8
306.558	1482.03
311.399	1654.54
316.237	1373.26
321.073	1131.31
325.906	567.047
330.736	314.537
335.563	219.058
340.387	24.0415
345.209	64.5571
350.028	67.9385
354.844	68.3892
359.658	237.038
364.469	283.227
369.277	271.104
374.082	294.955
378.884	275.628
383.684	243.924
388.481	162.894
393.275	118.842
398.066	56.9902
402.855	114.33
407.641	1.55908
412.424	157.043
417.205	466.41
421.983	621.562
426.758	880.511
431.53	832.535
436.299	737.648
441.066	670.847
445.83	369.037
450.591	218.206
455.35	119.366
460.106	49.4756
464.859	21.3755
469.609	7.32178
474.357	15.3267
479.102	32.772
483.844	206.864
488.584	205.744
493.321	208.693
498.055	69.7539
502.786	176.942
507.515	205.442
512.241	415.102
516.964	563.928
521.685	648.856
526.402	793.887
531.118	876.037
535.83	703.451
540.54	717
545.247	664.977
549.951	710.667
554.653	665.611
559.352	710.668
564.048	704.833
568.742	671.103
573.432	554.477
578.121	514.95
582.806	83.5195
587.489	105.184
592.169	13.9404
596.847	132.79
601.521	348.298
606.193	516.754
610.863	595.739
615.53	675.011
620.194	996.036
624.855	1197.6
629.514	1524.17
634.17	2061.3
638.823	3058.26
643.474	4118.77
648.122	5128.29
652.767	5771.24
657.41	5865.32
662.05	5719.35
666.688	5628.32
671.322	5232.24
675.954	5240.09
680.584	5092.88
685.211	5162.6
689.835	4766.28
694.456	4322.9
699.075	3403.45
703.691	2621.92
708.305	1837.31
712.916	1247.61
717.524	1033.83
722.13	741.288
726.733	521.996
731.333	608.82
735.931	470.696
740.526	349.601
745.118	166.336
749.708	36.0361
754.295	25.3076
758.88	68.0312
763.462	49.6611
768.041	111.225
772.618	60.7251
777.192	77.7563
781.763	56.3433
786.332	115.622
790.898	99.396
795.462	86.001
800.023	89.5288
804.581	260.001
809.137	278.163
813.69	270.746
818.24	376.027
822.788	347.342
827.334	385.43
831.876	443.56
836.416	476.649
840.954	549.727
845.489	645.813
850.021	732.873
854.551	901.21
859.078	889.007
863.602	1148.11
868.124	1257.35
872.644	1448.71
877.16	1456.28
881.675	1841.58
886.186	1957.09
890.695	2013.1
895.202	1856.41
899.705	1572.23
904.207	1484.41
908.705	1502.52
913.201	1247.4
917.695	1080.54
922.186	1128.32
926.674	846.28
931.16	755.24
935.643	914.214
940.124	806.569
944.602	940.1
949.077	897.801
953.55	1001.68
958.021	991.733
962.489	1036.97
966.954	1050.39
971.417	859.141
975.877	930.41
980.334	747.391
984.789	668.557
989.242	600.184
993.692	618.285
998.139	464.089
1002.58	410.009
1007.03	474.09
1011.47	433.437
1015.9	490.873
1020.34	587.832
1024.77	564.362
1029.2	581.829
1033.63	663.852
1038.05	615.768
1042.47	531.936
1046.89	423.115
1051.31	407.665
1055.72	355.33
1060.14	167.892
1064.55	184.185
1068.95	127.698
1073.36	157.041
1077.76	156.49
1082.16	47.041
1086.55	118.692
1090.95	107.439
1095.34	69.2773
1099.73	175.203
1104.12	139.205
1108.5	79.2041
1112.88	188.224
1117.26	38.6885
1121.64	99.6577
1126.01	24.4785
1130.38	11.5225
1134.75	80.2173
1139.12	52.1865
1143.48	84.335
1147.84	52.1855
1152.2	25.9043
1156.56	22.1953
1160.91	40.2671
1165.27	18.7129
1169.61	9.24805
1173.96	36.0718
1178.31	66.8525
1182.65	92.6631
1186.98	3.35352
1191.32	227.002
1195.66	77.2134
1199.99	199.349
1204.32	254.878
1208.64	250.38
1212.97	215.86
1217.29	197.702
1221.61	172.763
1225.93	222.164
1230.24	162.511
1234.55	202.645
1238.86	144.369
1243.17	180.483
1247.47	108.821
1251.78	81.1753
1256.07	186.481
1260.37	67.3345
1264.67	149.789
1268.96	215.305
1273.25	344.619
1277.54	246.578
1281.82	326.906
1286.1	438.674
1290.38	565.365
1294.66	581.077
1298.93	672.905
1303.21	726.519
1307.48	718.446
1311.74	698.711
1316.01	863.294
1320.27	785.766
1324.53	977.86
1328.79	894.866
1333.05	886.144
1337.3	950.264
1341.55	875.259
1345.8	891.941
1350.04	876.932
1354.29	815.967
1358.53	665.494
1362.76	689.694
1367	695.167
1371.23	610.029
1375.46	659.655
1379.69	520.082
1383.92	529.503
1388.14	533.081
1392.36	410.162
1396.58	457.869
1400.8	333.267
1405.01	93.1709
1409.22	240.65
1413.43	138.153
1417.64	79.2217
1421.85	101.306
1426.05	76.3018
1430.25	11.2505
1434.44	84.0596
1438.64	89.6231
1442.83	32.0029
1447.02	112.299
1451.21	0.942383
1455.39	28.9946
1459.58	133.971
1463.76	39.189
1467.94	85.186
1472.11	72.7471
1476.28	168.722
1480.45	60.3452
1484.62	124.499
1488.79	178.643
1492.95	212.055
1497.11	215.675
1501.27	199.301
1505.43	16.5293
1509.58	128.278
1513.73	141.014
1517.88	83.5288
1522.03	26.7178
1526.18	151.786
1530.32	93.9624
1534.46	62.1299
