Measurement: Raman, 514 nm, ccw, Raman Data Processed
Mineral: Aenigmatite
Rruff sample: R061088
Ideal chemistry: Na_4_(Fe^2+^_10_Ti_2_)O_4_[Si_12_O_36_]
Locality: Naujakasik, Greenland
Source: Michael Scott
Description: Black prismatic crystals
Measured chemistry: (Na_1.72_Ca_0.28_)_Σ=2_(Fe^2+^_4.90_Mn_0.08_Mg_0.02_)_Σ=5_(Ti_0.85_Al_0.14_Fe^3+^_0.01_)_Σ=1_(Si_5.87_Al_0.13_)_Σ=6_O_20_
Pin_id: L00777
Orientation: Laser parallel to b* (0 1 0). Fiducial mark perpendicular to laser is parallel to c [0 0 1]
Raman shift (cm-1)	intensity
138.67	0
143.588	1.45312
148.503	239.951
153.416	1107.37
158.327	1669.16
163.235	1868.23
168.14	1358.83
173.043	907.014
177.944	738.936
182.842	787.072
187.737	918.883
192.63	1011.97
197.521	1091.72
202.409	1266.55
207.295	1135.74
212.178	1436.8
217.058	1193.77
221.936	669.805
226.812	401.337
231.685	288.455
236.556	146.828
241.424	84.7642
246.29	83.6143
251.153	214.765
256.013	303.988
260.872	125.351
265.727	25.96
270.58	149.694
275.431	141.28
280.279	21.9028
285.125	72.0454
289.968	251.398
294.808	457.274
299.647	710.549
304.482	656.694
309.315	606.525
314.146	463.889
318.974	276.732
323.8	149.005
328.623	154.055
333.443	101.608
338.261	184.383
343.077	196.267
347.89	374.075
352.7	633.943
357.508	1060.16
362.314	1013.53
367.117	822.645
371.917	672.493
376.715	362.857
381.511	356.026
386.304	504.187
391.094	419.786
395.882	317.851
400.667	278.539
405.45	204.922
410.23	192.498
415.008	255.58
419.783	278.488
424.556	516.324
429.326	727.256
434.094	1107.31
438.859	1237.71
443.622	1035.46
448.382	508.036
453.139	181.213
457.894	67.8247
462.647	19.2979
467.397	136.803
472.144	22.1553
476.889	26.3784
481.632	245.788
486.371	310.768
491.109	499.633
495.844	542.36
500.576	293.893
505.306	155.727
510.033	148.839
514.757	267.345
519.48	678.303
524.199	1042.12
528.916	1619.56
533.631	1597.94
538.343	1436.59
543.052	1278.54
547.759	1212.85
552.463	1090.49
557.165	1189.43
561.864	882.748
566.561	755.186
571.255	593.451
575.947	422.173
580.636	290.241
585.322	279.606
590.006	302.252
594.688	566.188
599.367	599.416
604.043	935.758
608.717	1185.37
613.388	1046.76
618.057	1010.68
622.723	1336.7
627.387	1985.29
632.048	3842.58
636.706	6526.93
641.362	9479.29
646.016	10302.4
650.667	7925.36
655.315	5416.15
659.961	3846.11
664.604	2888.89
669.244	2807.98
673.883	3320.39
678.518	3478.26
683.151	3432.08
687.781	3365.97
692.409	2503.93
697.035	1457.05
701.657	931.924
706.278	596.915
710.895	443.871
715.51	387.778
720.123	324.347
724.733	165.408
729.34	137.111
733.945	172.732
738.547	141.264
743.147	44.5312
747.744	19.7632
752.339	20.8315
756.931	2.75928
761.52	2.39648
766.107	40.8433
770.691	24.7534
775.273	38.2764
779.852	18.5742
784.429	7.20947
789.003	17.7241
793.575	88.7388
798.144	72.9141
802.71	4.06201
807.274	27.6289
811.835	98.2202
816.394	115.797
820.95	154.176
825.503	241.356
830.054	306.34
834.603	372.966
839.148	381.761
843.692	500.693
848.232	606.286
852.77	858.286
857.306	1352.1
861.839	1292.72
866.369	1213.25
870.897	1301.76
875.422	1461.15
879.945	1880.41
884.465	2523.67
888.982	3349.99
893.497	3476.9
898.01	2727.94
902.52	1892.89
907.027	1491.56
911.531	1064.07
916.033	732.814
920.533	748.446
925.03	630.911
929.524	539.981
934.016	493.123
938.505	403.986
942.991	381.912
947.475	378.577
951.957	533.481
956.436	490.03
960.912	671.799
965.386	737.97
969.857	712.156
974.325	723.361
978.791	845.592
983.254	1154.85
987.715	1381.41
992.173	1182.02
996.629	919.734
1001.08	598.09
1005.53	518.093
1009.98	535.601
1014.42	475.861
1018.87	601.188
1023.31	573.823
1027.75	702.695
1032.18	853.403
1036.61	937.261
1041.04	1058.65
1045.47	724.053
1049.89	472.74
1054.32	515.515
1058.74	422.499
1063.15	395.615
1067.57	350.114
1071.98	286.989
1076.39	145.131
1080.79	200.269
1085.2	144.581
1089.6	176.94
1094	249.343
1098.39	84.9683
1102.79	79.2808
1107.18	19.9756
1111.57	35.5478
1115.95	14.8628
1120.34	72.7939
1124.72	0.544434
1129.09	16.8735
1133.47	12.436
1137.84	99.7349
1142.21	7.17236
1146.58	80.1865
1150.94	46.689
1155.31	2.58935
1159.67	32.1445
1164.02	35.9907
1168.38	98.1758
1172.73	87.3867
1177.08	164.628
1181.43	140.899
1185.77	208.28
1190.11	215.756
1194.45	195.231
1198.79	285.737
1203.12	260.252
1207.45	348.752
1211.78	344.07
1216.11	311.838
1220.43	302.383
1224.75	207.881
1229.07	229.339
1233.39	218.748
1237.7	336.095
1242.01	203.404
1246.32	268.636
1250.62	333.51
1254.92	295.184
1259.22	397.938
1263.52	312.051
1267.82	448.045
1272.11	460.452
1276.4	632.791
1280.69	726.213
1284.97	890.977
1289.25	972.867
1293.53	975.898
1297.81	1078.01
1302.08	1005.09
1306.35	1043.6
1310.62	946.646
1314.89	972.22
1319.15	923.805
1323.41	961.23
1327.67	897.287
1331.93	901.783
1336.18	798.73
1340.43	710.223
1344.68	633.396
1348.93	616.343
1353.17	509.317
1357.41	387.041
1361.65	259.353
1365.88	363.492
1370.11	261.498
1374.34	180.994
1378.57	294.156
1382.8	184.111
1387.02	203.497
1391.24	224.936
1395.45	73.3618
1399.67	113.97
1403.88	139.075
1408.09	66.6885
1412.3	16.3892
1416.5	49.3794
1420.7	4.48096
1424.9	38.3823
1429.1	8.68604
1433.29	73.3286
1437.48	11.3374
1441.67	44.7148
1445.85	52.4233
1450.04	14.7778
1454.22	56.9536
1458.39	78.9585
1462.57	55.8462
1466.74	90.7363
1470.91	70.6206
1475.08	133.147
1479.24	76.0586
1483.41	75.751
1487.57	75.9399
1491.72	21.5161
1495.88	174.434
1500.03	200.85
1504.18	72.2754
1508.32	27.9502
1512.47	91.0977
1516.61	149.842
1520.75	141.035
1524.88	122.159
1529.02	176.193
1533.15	75.1792
1537.28	211.235
1541.4	2.30713
1545.53	154.888
