Measurement: Raman, 514 nm, ccw, Raman Data Processed
Mineral: Aenigmatite
Rruff sample: R061088
Ideal chemistry: Na_4_(Fe^2+^_10_Ti_2_)O_4_[Si_12_O_36_]
Locality: Naujakasik, Greenland
Source: Michael Scott
Description: Black prismatic crystals
Measured chemistry: (Na_1.72_Ca_0.28_)_Σ=2_(Fe^2+^_4.90_Mn_0.08_Mg_0.02_)_Σ=5_(Ti_0.85_Al_0.14_Fe^3+^_0.01_)_Σ=1_(Si_5.87_Al_0.13_)_Σ=6_O_20_
Pin_id: L01498
Orientation: Laser parallel to -c* (0 0 -1). Fiducial mark perpendicular to laser is parallel to a [1 0 0]
Raman shift (cm-1)	intensity
137.44	0
142.359	156.689
147.275	618.054
152.188	1063.88
157.099	1113.51
162.008	1439.71
166.914	1215.23
171.818	603.046
176.719	105.446
181.617	77.2427
186.514	343.909
191.407	728.349
196.298	785.713
201.187	1092.44
206.073	635.742
210.957	709.542
215.838	783.6
220.717	757.98
225.593	478.932
230.467	402.293
235.338	304.149
240.207	285.556
245.073	240.449
249.937	264.227
254.798	205.047
259.657	72.2519
264.513	89.0649
269.367	4.88818
274.219	48.3755
279.067	35.7075
283.914	46.8652
288.757	242.715
293.599	219.189
298.437	406.877
303.274	437.723
308.107	431.375
312.939	257.752
317.767	172.107
322.593	144.681
327.417	18.8335
332.238	29.3227
337.057	51.0015
341.873	24.5186
346.687	275.262
351.498	405.332
356.307	532.622
361.113	742.473
365.916	668.345
370.717	623.149
375.516	580.251
380.312	394.549
385.106	427.7
389.897	355.666
394.685	412.305
399.471	285.183
404.254	245.34
409.035	131.267
413.814	188.763
418.59	79.6138
423.363	296.3
428.134	440.205
432.902	514.052
437.668	565.046
442.431	357.613
447.192	305.501
451.95	173.578
456.706	82.6636
461.459	93.4868
466.21	3.01123
470.958	54.7163
475.703	181.639
480.446	370.706
485.187	340.661
489.925	504.791
494.66	616.27
499.393	529.707
504.123	537.592
508.851	529.5
513.576	560.396
518.299	705.245
523.019	933.66
527.737	981.441
532.452	1081.01
537.165	1171.84
541.875	1161.1
546.582	1155.82
551.287	983.013
555.99	1045.81
560.69	865.105
565.387	499.321
570.082	427.417
574.774	185.795
579.464	26.3726
584.151	53.8989
588.836	41.8667
593.518	130.74
598.197	300.935
602.874	536.533
607.549	701.902
612.221	952.637
616.89	1201.68
621.557	1606.83
626.221	2510.75
630.883	3839.18
635.542	5560.34
640.199	7793.61
644.853	9579.1
649.504	10353.3
654.153	10238.3
658.799	9428.85
663.443	8422.51
668.085	7427.3
672.723	6805.23
677.359	6252.31
681.993	6049.52
686.624	5857.89
691.253	5252.42
695.879	4256.13
700.502	2932.98
705.123	2169.95
709.741	1701.01
714.357	1343.16
718.97	928.404
723.581	652.609
728.189	615.505
732.794	507.007
737.397	300.616
741.997	104.326
746.595	45.1323
751.19	66.1631
755.783	16.1748
760.373	58.9111
764.961	72.5703
769.546	100.976
774.128	63.9858
778.708	4.79785
783.285	2.53955
787.86	64.1064
792.432	142.159
797.002	187.453
801.569	198.775
806.133	378.125
810.695	349.548
815.254	439.129
819.811	583.786
824.365	638.559
828.917	716.54
833.466	938.04
838.012	1036.27
842.556	1210.93
847.097	1550.24
851.636	1617.59
856.172	1842.12
860.706	1976.92
865.237	2225.91
869.765	2418.93
874.291	2798.98
878.814	3113.68
883.335	3448.16
887.853	3593.32
892.369	3297.61
896.882	2632.25
901.392	2156.98
905.9	1488.8
910.405	1351.01
914.908	986.617
919.408	957.671
923.906	690.128
928.401	522.154
932.893	670.294
937.383	454.548
941.87	559.07
946.355	430.946
950.837	471.983
955.316	476.72
959.793	527.075
964.267	560.798
968.739	689.984
973.208	691.777
977.675	755.686
982.139	798.95
986.6	764.739
991.059	740.444
995.515	618.106
999.969	625.404
1004.42	631.726
1008.87	463.301
1013.31	484.728
1017.76	544.028
1022.2	609.342
1026.64	693.308
1031.07	641.301
1035.51	530.846
1039.93	568.327
1044.36	414.371
1048.79	447.432
1053.21	353.633
1057.63	238.944
1062.05	284.303
1066.46	215.641
1070.88	164.955
1075.29	48.2407
1079.69	132.337
1084.1	5.83838
1088.5	21.1323
1092.9	56.7236
1097.3	82.3291
1101.69	76.3106
1106.08	3.05615
1110.47	12.4277
1114.86	10.9722
1119.24	23.7837
1123.62	61.9453
1128	61.3984
1132.38	126.592
1136.75	9.27685
1141.12	105.744
1145.49	55.6977
1149.85	37.562
1154.22	23.708
1158.58	51.7217
1162.93	86.1294
1167.29	32.3916
1171.64	140.997
1175.99	170.432
1180.34	207.793
1184.68	147.057
1189.03	264.214
1193.37	246.259
1197.7	297.194
1202.04	334.021
1206.37	373.612
1210.7	409.92
1215.03	492.048
1219.35	415.847
1223.67	257.36
1227.99	351.622
1232.31	244.652
1236.62	299.334
1240.93	280.795
1245.24	120.684
1249.55	238.491
1253.85	176.593
1258.15	316.727
1262.45	251.773
1266.74	286.553
1271.04	505.476
1275.33	440.267
1279.62	523.464
1283.9	702.703
1288.18	753.13
1292.46	964.871
1296.74	992.692
1301.02	1067.93
1305.29	1030.98
1309.56	1002.87
1313.82	1104.39
1318.09	1100.94
1322.35	1138.27
1326.61	1038.23
1330.87	1042.85
1335.12	1046.86
1339.37	977.335
1343.62	898.04
1347.87	840.357
1352.11	894.75
1356.35	754.64
1360.59	660.558
1364.82	566.498
1369.06	599.258
1373.29	494.335
1377.52	538.576
1381.74	337.935
1385.96	468.644
1390.18	277.22
1394.4	212.667
1398.62	100.889
1402.83	190.706
1407.04	26.6138
1411.24	37.7568
1415.45	64.3794
1419.65	37.7817
1423.85	17.3989
1428.05	47.8481
1432.24	105.898
1436.43	188.727
1440.62	133.638
1444.81	224.587
1448.99	198.947
1453.17	120.443
1457.35	93.1548
1461.53	97.731
1465.7	75.0361
1469.87	83.563
1474.04	87.2578
1478.2	43.6221
1482.37	136.279
1486.53	27.0859
1490.68	91.0293
1494.84	82.9888
1498.99	146.22
1503.14	137.233
1507.29	34.5967
1511.43	184.556
1515.57	8.9331
1519.71	192.571
1523.85	66.7519
1527.98	101.069
1532.12	135.8
1536.24	99.4312
1540.37	45.1704
1544.49	0.717773
