Measurement: Raman, 514 nm, ccw, Raman Data Processed
Mineral: Afmite
Rruff sample: R130082
Ideal chemistry: Al_3_(OH)_4_(H_2_O)_3_(PO_4_)(PO_3_OH)H_2_O
Locality: Fumade (hamlet), Castelnau-de-Brassac (village), Tarn, France
Source: Anthony R. Kampf and George R. Rossman
Description: Dull white to cream to yellowish surface. Data from Kampf et al (2011)
Raman shift (cm-1)	intensity
99.491	0
113.622	610.1
127.731	1679.02
141.818	4218.08
155.883	2422.31
169.926	433.062
183.947	2100.43
197.947	2261.51
211.925	2357.17
225.881	152.402
239.815	3367.65
253.728	1616.59
267.619	1374
281.489	1797.04
295.337	1704.82
309.164	3682.46
322.969	3010.2
336.753	759.188
350.516	181.076
364.258	175.322
377.978	1967.73
391.678	4868.09
405.356	3767.92
419.013	2342.72
432.649	1494.32
446.265	1754.35
459.859	814.195
473.432	654.305
486.985	2854.66
500.517	5575.35
514.028	3698.74
527.519	3793.07
540.988	6406.34
554.438	5724.19
567.866	7130.36
581.275	8697.35
594.662	6128.85
608.03	3601.39
621.377	2797.87
634.703	4315.34
648.01	3979.53
661.296	2177.88
674.562	1133.23
687.808	582.238
701.033	252.973
714.239	119.272
727.425	201.674
740.59	299.109
753.736	20.0566
766.862	236.152
779.968	618.762
793.054	524.85
806.12	864.039
819.167	882.039
832.194	737.064
845.201	314.705
858.189	357.565
871.157	435.609
884.106	352.121
897.035	312.295
909.945	1847.88
922.835	4792.62
935.706	1419.31
948.558	1183.01
961.39	1454.84
974.204	2281.47
986.998	3387.93
999.773	5505.1
1012.53	16441
1025.27	9491.19
1037.98	12295.3
1050.68	20429.1
1063.36	13473.2
1076.02	12584.1
1088.66	10429.9
1101.29	10214.1
1113.89	9548.75
1126.48	6560.53
1139.04	5730.59
1151.59	4875.84
1164.12	4112.56
1176.63	2937.64
1189.13	1743.46
1201.6	1294.43
1214.06	606.711
1226.49	92.4824
1238.91	44.1133
1251.31	124.111
1263.69	138.775
1276.06	218.223
1288.4	18.3965
1300.73	239.088
1313.04	66.8789
1325.33	97.1387
1337.6	224.637
1349.86	309.523
1362.1	227.693
1374.31	391.24
1386.52	266.842
1398.7	430.281
1410.86	339.168
1423.01	154.719
1435.14	434.664
1447.25	552.709
1459.35	329.566
1471.42	72.6504
1483.48	266.951
1495.52	265.371
1507.55	65.4023
1519.55	137.963
1531.54	389.805
1543.51	459.178
1555.47	819.91
1567.4	383.367
1579.32	728.894
1591.22	1637.52
1603.11	1519.07
1614.97	1825.71
1626.82	1566.35
1638.66	1272.39
1650.47	913.398
1662.27	1004.72
1674.05	363.66
1685.81	206.113
1697.56	280.098
1709.29	200.269
1721	248.09
1732.7	4.57422
1744.38	315.215
1756.04	297.535
1767.69	378.086
1779.32	276.367
1790.93	69.6758
1802.53	398.598
1814.1	233.938
1825.67	144.211
1837.21	174.828
1848.74	224.387
1860.25	446.68
1871.75	350.562
1883.23	91.2344
1894.69	220.793
1906.14	371.5
1917.57	469.422
1928.98	310.156
1940.38	297.195
1951.76	361.176
1963.13	112.324
1974.48	453.227
1985.81	305.25
1997.13	425.816
2008.43	255.184
2019.71	365.211
2030.98	322.91
2042.23	343.031
2053.47	222.144
2064.69	166.547
2075.89	282.512
2087.08	607.074
2098.26	243.289
2109.41	419.676
2120.55	311.754
2131.68	91.0859
2142.79	215.484
2153.88	544.074
2164.96	161.859
2176.02	338.516
2187.07	163.824
2198.1	575.82
2209.12	111.891
2220.12	248.043
2231.1	545.574
2242.07	483.691
2253.03	511.648
2263.97	347.156
2274.89	562.586
2285.8	445.617
2296.69	395.977
2307.57	430.324
2318.43	153.453
2329.28	759.25
2340.11	155.863
2350.92	192.176
2361.73	386.996
2372.51	142.836
2383.28	492.231
2394.04	114.473
2404.78	301.398
2415.51	146.91
2426.22	297.781
2436.91	302.367
2447.6	191.156
2458.26	109.543
2468.91	123.285
2479.55	387.094
2490.17	421.672
2500.78	232.555
2511.37	270.231
2521.95	90.125
2532.51	236.184
2543.06	103.703
2553.6	441.93
2564.12	93.1641
2574.62	343.82
2585.11	492.828
2595.59	292.488
2606.05	678.914
2616.49	546.492
2626.93	767.391
2637.35	132.43
2647.75	279.922
2658.14	414.519
2668.51	763.672
2678.87	554.309
2689.22	632.125
2699.55	276.316
2709.87	520.402
2720.18	590.242
2730.47	484.027
2740.74	514.644
2751	126.523
2761.25	421.695
2771.48	17.3945
2781.7	201.992
2791.91	352.656
2802.1	401.379
2812.28	622.754
2822.44	36.1602
2832.59	768.312
2842.73	881.91
2852.85	1370.75
2862.96	1403.81
2873.05	993.43
2883.13	674.356
2893.2	1767.49
2903.25	1642.97
2913.29	1530.16
2923.32	1389.46
2933.33	1117.28
2943.33	915.84
2953.32	933.258
2963.29	668.039
2973.25	662.387
2983.19	385.582
2993.12	623.852
3003.04	647.766
3012.94	186.281
3022.84	458.047
3032.71	15.168
3042.58	412.199
3052.43	377.852
3062.27	564.09
3072.09	240.332
3081.9	35.8555
3091.7	115.391
3101.48	424.441
3111.26	786.094
3121.01	359.598
3130.76	560.812
3140.49	538.766
3150.21	493.777
3159.92	525.293
3169.61	5.69531
3179.29	431.676
3188.96	593.773
3198.61	165.106
3208.25	216.516
3217.88	89.5391
3227.5	666.391
3237.1	1949.12
3246.69	3084.21
3256.27	5275.24
3265.83	7306.9
3275.38	8243.66
3284.92	7677.22
3294.45	6028.56
3303.96	3792.02
3313.46	2686.42
3322.95	1201.76
3332.42	760.25
3341.89	573.664
3351.34	266.055
3360.77	779.242
3370.2	1594.36
3379.61	2743.95
3389.01	3621.23
3398.4	4296.54
3407.77	5104.34
3417.14	6288.54
3426.49	8479.95
3435.82	11248.1
3445.15	13324.5
3454.46	12740.4
3463.76	11199.4
3473.05	9048.16
3482.33	8213.77
3491.59	10957.9
3500.84	7576.11
3510.08	3584.7
3519.31	3371.66
3528.53	4840.03
3537.73	7259.27
3546.92	13221.2
3556.1	17030.3
3565.27	12533.5
3574.42	11448.9
3583.56	8703.69
3592.7	4397.27
3601.81	2295
3610.92	1505.55
3620.02	1048.91
3629.1	716.324
3638.17	124.426
3647.23	117.836
3656.28	451.019
3665.31	265.422
3674.34	15.0859
3683.35	201.648
3692.35	682.414
3701.34	211.488
3710.31	523.812
3719.28	888.578
3728.23	907.137
3737.17	564.547
3746.1	1548.94
3755.02	1686.52
3763.93	1829.93
3772.82	1571.66
3781.71	1913.51
3790.58	1425.44
3799.44	1731.61
3808.29	1374.02
3817.13	1091.42
3825.95	1612.86
3834.77	1563.31
3843.57	1205.56
3852.36	1197.67
3861.14	980.684
3869.91	1070.24
3878.67	1093.44
3887.42	991.723
3896.15	693.617
3904.88	874.887
3913.59	513.809
3922.29	487.988
3930.98	662.133
3939.66	588.977
3948.33	364.023
3956.98	624.578
3965.63	371.012
3974.26	147.199
3982.89	630.004
3991.5	525.836
4000.1	0
