Measurement: Raman, 514 nm, ccw, Raman Data Processed
Mineral: Akermanite
Rruff sample: R061100
Ideal chemistry: Ca_2_MgSi_2_O_7_
Locality: Lago de Vico, Viterbo, Italy
Source: Michael Scott
Description: Colorless to white short prismatic crystals
Measured chemistry: (Ca_1.80_Na_0.20_)_Σ=2_(Mg_0.58_Al_0.38_Fe_0.04_)_Σ=1_(Si_1.82_Al_0.18_)_Σ=2_O_7_
Pin_id: M00238
Orientation: Laser parallel to a* (1 0 0). Fiducial mark perpendicular to laser is parallel to -c [0 0 -1]
Raman shift (cm-1)	intensity
206.697	0
211.608	177.916
216.515	657.498
221.419	1107.38
226.321	1798.27
231.219	2108.95
236.114	2587.99
241.005	1623.52
245.894	1301.6
250.779	896.971
255.662	596.68
260.541	853.508
265.417	406.211
270.29	638.117
275.16	740.275
280.027	1033.64
284.891	1722.18
289.751	2467.27
294.609	4101.32
299.463	6040.43
304.315	8407.79
309.163	10215.5
314.008	10098.9
318.851	8058.58
323.69	6139.7
328.526	4208.8
333.359	2773.87
338.189	1907.76
343.016	1369.48
347.84	883.135
352.661	836.332
357.479	773.168
362.294	688.33
367.106	528.312
371.915	358.996
376.721	33.7031
381.524	0.648438
386.324	93.7812
391.121	92.9629
395.915	81.0137
400.706	20.1445
405.494	159.705
410.279	157.633
415.061	38.1348
419.841	77.8711
424.617	129.615
429.39	296.912
434.161	599.086
438.928	651.535
443.693	798.658
448.454	1197.19
453.213	1500.65
457.969	1648.38
462.722	1530.64
467.472	1679.51
472.219	1930.36
476.963	1907.34
481.704	1969.54
486.443	2338
491.178	1886.88
495.911	1814.05
500.641	1620.14
505.368	1344.72
510.092	1458.82
514.813	1608.58
519.532	1778.58
524.247	1779.15
528.96	1592.68
533.67	1016.61
538.377	810.572
543.081	674.797
547.783	471.996
552.481	817.953
557.177	500.082
561.87	562.291
566.56	393.719
571.248	578.693
575.932	539.584
580.614	989.357
585.293	1241.47
589.97	1863.22
594.643	2517.14
599.314	4009.7
603.982	5897.32
608.647	7611.44
613.31	9760.13
617.969	11587.2
622.626	13196.4
627.281	12824
631.932	11374
636.581	9163.05
641.227	8100.36
645.87	8216.49
650.511	11623.1
655.149	18300.6
659.784	23476.3
664.417	24364.8
669.046	20565.7
673.674	14808.4
678.298	9722.81
682.92	6198.97
687.539	3766.89
692.155	2556.27
696.769	1965.6
701.38	1440.81
705.988	964.445
710.594	796.25
715.197	587.135
719.798	556.023
724.396	389.904
728.991	369.766
733.583	291.594
738.173	49.3984
742.761	256.185
747.345	215.973
751.927	40.7754
756.507	165.57
761.084	61.2441
765.658	88.1367
770.229	56.0195
774.799	110.926
779.365	249.641
783.929	430.228
788.49	128.371
793.049	67.5742
797.605	201.961
802.159	467.594
806.71	359.379
811.258	651.316
815.804	631.408
820.347	614.641
824.888	735.018
829.427	681.539
833.962	867.199
838.495	877.076
843.026	1395.35
847.554	1565.26
852.08	2245.19
856.603	2608.37
861.124	3327.4
865.642	3459.69
870.157	3640.46
874.671	2892.18
879.181	3074.66
883.689	4260.55
888.195	6261.64
892.698	7386.96
897.199	8445.9
901.697	11240.9
906.193	16908.2
910.686	23916.4
915.177	27039.2
919.665	26200.7
924.151	23990.2
928.635	18862
933.116	13278.2
937.594	9686.25
942.071	6999.81
946.544	6001.87
951.016	5792.46
955.485	5820.56
959.951	5890.16
964.415	5242.25
968.877	4663.87
973.336	4262.66
977.793	3769.74
982.247	3856.15
986.699	4337.19
991.149	4795.49
995.596	5530.57
1000.04	6168.34
1004.48	5737.86
1008.92	5108.63
1013.36	3716.28
1017.8	3248.29
1022.23	2794.65
1026.66	2138.57
1031.09	1851.07
1035.52	1742.27
1039.94	1557.07
1044.36	1173.56
1048.78	1116.19
1053.2	737.973
1057.61	556.938
1062.02	731.477
1066.43	725.869
1070.84	599.688
1075.24	277.885
1079.65	649.375
1084.05	695.434
1088.45	498.176
1092.84	224.166
1097.23	136.365
1101.63	115.943
1106.02	240.613
1110.4	35.0195
1114.79	46.9688
1119.17	53.5781
1123.55	45.2852
1127.93	14.5801
1132.3	9.26953
1136.67	198.504
1141.05	226.848
1145.41	42.7598
1149.78	89.0625
1154.14	26.0938
1158.51	34.8203
1162.87	86.7734
1167.22	332.955
1171.58	145.176
1175.93	131.94
1180.28	71.2656
1184.63	153.111
1188.98	328.387
1193.32	161.758
1197.66	180.611
1202	424.928
1206.34	521.648
1210.68	244.832
1215.01	221.43
1219.34	152.748
1223.67	377.928
1228	196.883
1232.32	385.719
1236.64	221.004
1240.96	132.332
1245.28	229.971
1249.6	196.801
1253.91	214.256
1258.22	412.285
1262.53	142.947
1266.84	238.164
1271.14	251.877
1275.45	185.531
1279.75	105.83
1284.05	194.545
1288.34	460.893
1292.64	115.285
1296.93	447.578
1301.22	342.762
1305.51	129.41
1309.8	393.725
1314.08	495.644
1318.36	357.033
1322.64	292.863
1326.92	262.002
1331.19	186.586
1335.47	247.477
1339.74	446.869
1344.01	147.453
1348.28	270.852
1352.54	371.402
1356.8	335.016
1361.07	172.602
1365.32	370.453
1369.58	31.0273
1373.84	100.398
1378.09	196.449
1382.34	102.367
1386.59	277.305
1390.84	346.086
1395.08	406.184
1399.32	154.477
1403.56	114.371
1407.8	276.867
1412.04	252.586
1416.27	30.1836
1420.51	64.0234
1424.74	142.769
1428.96	251.602
1433.19	198.269
1437.42	377.523
1441.64	244.574
1445.86	490.781
1450.08	381.223
1454.3	535.82
1458.51	481.043
1462.72	467.465
1466.93	486.965
1471.14	481.856
1475.35	327.664
1479.55	267.461
1483.76	11.7812
1487.96	14.4336
1492.16	388.141
1496.35	116.793
1500.55	156.633
1504.74	74.0859
1508.93	15.7617
1513.12	317.535
1517.31	66.4258
1521.49	183.344
1525.68	256.203
1529.86	295.484
1534.04	42.7773
1538.22	148.34
1542.39	347.773
1546.57	5.66797
1550.74	643.07
1554.91	182.594
1559.08	265.07
1563.24	97.3281
