Measurement: Raman, 514 nm, ccw, Raman Data Processed
Mineral: Akermanite
Rruff sample: R061085
Ideal chemistry: Ca_2_MgSi_2_O_7_
Locality: Kovdor, Kola Peninsula, Russia
Source: Michael Scott
Description: Dark blue coarsely crystalline massive associated with green diopside
Measured chemistry: (Ca_1.78_Na_0.22_)_Σ=2_(Mg_0.70_Al_0.22_Fe^2+^_0.08_)_Σ=1_Si_2.00_O_7_
Pin_id: M00490
Orientation: Laser parallel to -c* (0 0 -1). Fiducial mark perpendicular to laser is parallel to a [1 0 0]
Raman shift (cm-1)	intensity
168.539	0
173.43	21.5474
178.319	77.4033
183.206	157.712
188.091	445.337
192.973	763.38
197.853	969.916
202.731	1244.94
207.607	1528.48
212.48	2154.79
217.351	2793.61
222.22	3131.61
227.087	3124.59
231.951	2690.14
236.813	2051.42
241.673	1620.84
246.53	1358.03
251.386	1404.06
256.239	1406.68
261.089	1582.2
265.938	1610.8
270.784	1622.57
275.628	1794.57
280.469	2187.32
285.309	2908.45
290.146	3665.76
294.98	5196.82
299.813	6811.39
304.643	8465.39
309.471	8785.65
314.296	8031.11
319.119	6205.41
323.94	4364.51
328.758	3144.57
333.575	2193.81
338.388	1581.72
343.2	1200.01
348.009	979.432
352.816	883.811
357.621	841.01
362.423	770.955
367.223	510.598
372.02	313.858
376.815	134.658
381.608	5.19092
386.398	37.0015
391.187	36.6895
395.972	50.8599
400.756	103.746
405.537	60.0063
410.315	22.4688
415.092	60.8452
419.865	142.307
424.637	128.624
429.406	128.439
434.173	39.7949
438.937	12.0337
443.699	218.734
448.459	524.699
453.216	765.053
457.971	941.078
462.723	1050.78
467.473	1271.13
472.221	1440.1
476.966	1745.85
481.709	1701.29
486.449	1496.5
491.187	1186.58
495.923	1039.65
500.656	987.787
505.387	1075.92
510.115	1130.9
514.841	1134.65
519.565	1105.8
524.286	847.424
529.004	627.93
533.72	520.951
538.434	293.434
543.146	375.817
547.854	319.652
552.561	332.965
557.265	445.91
561.966	452.618
566.665	566.125
571.362	634
576.056	821.505
580.748	1211.67
585.437	1515.06
590.124	2242.33
594.808	3388.37
599.49	5108.88
604.17	6935.88
608.846	9100.71
613.521	12130.4
618.193	15626.2
622.862	16502.8
627.529	14482.7
632.194	11153.7
636.856	8328.69
641.515	7072.76
646.172	8697.68
650.827	14630.5
655.479	26562.5
660.129	39128.6
664.776	40372.1
669.42	29106.8
674.062	17624.3
678.702	10520.6
683.339	6426.62
687.973	3979.39
692.605	2765.01
697.235	2007.61
701.862	1418.47
706.486	1103.73
711.108	822.727
715.728	605.573
720.344	579.869
724.959	341.007
729.57	234.918
734.18	243.603
738.786	49.0693
743.391	44.2978
747.992	4.31641
752.591	70.0459
757.188	15.8618
761.782	39.6704
766.373	105.025
770.962	117.342
775.549	154.824
780.133	11.6602
784.714	77.4878
789.292	73.1528
793.869	75.4326
798.442	13.6729
803.013	41.4409
807.581	216.138
812.147	561.871
816.711	847.654
821.271	748.507
825.829	536.446
830.385	505.485
834.938	561.644
839.488	933.961
844.036	1412.5
848.581	2132.23
853.124	2787.15
857.664	3625.27
862.201	4239.63
866.736	3964.38
871.268	2661.5
875.798	2252.78
880.325	2482.05
884.849	3192.12
889.371	4868.33
893.89	7597.69
898.407	13347.8
902.921	24786.1
907.432	43485.7
911.941	55597
916.447	54014.8
920.95	44240.7
925.451	29278.3
929.95	18174.7
934.445	12029.2
938.938	8489.39
943.429	6531.82
947.916	5543.88
952.401	5492.53
956.884	5755.78
961.364	5881.62
965.841	5686.07
970.315	5592.96
974.787	5513.83
979.256	5667.91
983.723	6571.18
988.187	8296.83
992.648	10497.4
997.107	12249.1
1001.56	11523
1006.02	9419.83
1010.47	7266.11
1014.91	5615.89
1019.36	4409.21
1023.8	3613.23
1028.24	3018.35
1032.68	2511.21
1037.12	2199.78
1041.55	1816.68
1045.98	1570.47
1050.4	1273.22
1054.83	1041.96
1059.25	776.899
1063.67	831.151
1068.08	648.678
1072.5	624.519
1076.91	468.951
1081.32	647.796
1085.72	608.762
1090.12	437.684
1094.52	258.777
1098.92	23.4009
1103.31	14.0864
1107.7	48.4277
1112.09	30.8355
1116.48	114.441
1120.86	46.2095
1125.24	34.9932
1129.62	2.01074
1134	7.38574
1138.37	103.195
1142.74	111.79
1147.11	22.1509
1151.47	62.145
1155.84	37.0523
1160.19	1.15772
1164.55	60.2109
1168.9	37.1826
1173.26	102.936
1177.6	11.4868
1181.95	37.7607
1186.29	135.776
1190.63	43.5474
1194.97	123.023
1199.31	75.1934
1203.64	31.0278
1207.97	54.4868
1212.29	107.531
1216.62	218.262
1220.94	195.662
1225.26	109.734
1229.57	209.471
1233.88	332.771
1238.19	155.852
1242.5	223.737
1246.81	246.71
1251.11	248.68
1255.4	186.171
1259.7	247.926
1263.99	186.464
1268.29	200.008
1272.57	221.598
1276.86	212.171
1281.14	153.461
1285.42	144.195
1289.7	101.448
1293.97	244.859
1298.24	64.6621
1302.51	90.9263
1306.78	76.9751
1311.04	207.84
1315.3	150.28
1319.56	294.634
1323.81	246.728
1328.06	200.725
1332.31	175.418
1336.56	92.6699
1340.8	174.41
1345.04	161.822
1349.28	113.571
1353.52	94.5557
1357.75	53.6499
1361.98	113.674
1366.2	76.0708
1370.43	129.26
1374.65	45.7256
1378.87	50.4238
1383.09	52.3638
1387.3	167.459
1391.51	50.9043
1395.71	173.069
1399.92	60.0498
1404.12	25.0024
1408.32	53.6069
1412.52	74.291
1416.71	72.4976
1420.9	148.898
1425.09	174.963
1429.27	137.275
1433.45	150.149
1437.63	113.978
1441.81	297.19
1445.98	232.958
1450.15	337.816
1454.32	379.935
1458.48	298.174
1462.65	279.293
1466.81	260.089
1470.96	292.667
1475.12	260.465
1479.27	104.35
1483.41	156.189
1487.56	89.645
1491.7	13.96
1495.84	40.5649
1499.98	138.961
1504.11	44.7602
1508.24	36.666
1512.37	57.6123
1516.49	126.552
1520.62	21.4492
1524.74	76.3374
1528.85	33.8765
1532.97	131.358
1537.08	104.644
1541.19	163.203
1545.29	90.1357
1549.39	112.221
1553.49	148.033
1557.59	147.578
1561.68	7.30469
