Measurement: Raman, 514 nm, ccw, Raman Data Processed
Mineral: Akermanite
Rruff sample: R061100
Ideal chemistry: Ca_2_MgSi_2_O_7_
Locality: Lago de Vico, Viterbo, Italy
Source: Michael Scott
Description: Colorless to white short prismatic crystals
Measured chemistry: (Ca_1.80_Na_0.20_)_Σ=2_(Mg_0.58_Al_0.38_Fe_0.04_)_Σ=1_(Si_1.82_Al_0.18_)_Σ=2_O_7_
Pin_id: M00347
Orientation: Laser parallel to c* (0 0 1). Fiducial mark perpendicular to laser is parallel to a [1 0 0]
Raman shift (cm-1)	intensity
206.697	0
211.608	174.082
216.515	722.055
221.419	1201.94
226.321	1784.77
231.219	1618.88
236.114	1356.2
241.005	1050.99
245.894	727.621
250.779	585.461
255.662	403.107
260.541	289.467
265.417	84.5352
270.29	93.2109
275.16	143.731
280.027	251.156
284.891	130.018
289.751	249.949
294.609	521.096
299.463	884.121
304.315	1065.08
309.163	1231.3
314.008	1028.52
318.851	1001.17
323.69	630.115
328.526	313.037
333.359	299.84
338.189	137.527
343.016	327.113
347.84	86.4629
352.661	64.9902
357.479	630.943
362.294	50.2051
367.106	19.9609
371.915	186.357
376.721	7.72266
381.524	81.8613
386.324	148.828
391.121	27.4277
395.915	80.8828
400.706	70.3555
405.494	105.43
410.279	100.223
415.061	188.254
419.841	285.504
424.617	787.484
429.39	717.943
434.161	1354.98
438.928	1623.97
443.693	2151.43
448.454	2758.49
453.213	3295.28
457.969	3612.08
462.722	2572.54
467.472	2422.23
472.219	2336.71
476.963	2664.48
481.704	2994.02
486.443	2984.61
491.178	2471.2
495.911	2270.53
500.641	1706.55
505.368	1504.05
510.092	1102.51
514.813	1106.78
519.532	1262.2
524.247	1184.66
528.96	891.729
533.67	763.729
538.377	669.283
543.081	545.635
547.783	701.033
552.481	273.81
557.177	279.629
561.87	441.26
566.56	267.769
571.248	381.676
575.932	516.479
580.614	583.098
585.293	892.639
589.97	1216.09
594.643	1845.48
599.314	2855.18
603.982	4567.01
608.647	6151.39
613.31	8007.99
617.969	9565.91
622.626	11654.9
627.281	12238.8
631.932	10753.7
636.581	8697.5
641.227	7702.42
645.87	7550.6
650.511	10084.6
655.149	16261.3
659.784	22299.7
664.417	24400.1
669.046	21075.4
673.674	15211
678.298	10407
682.92	6509.86
687.539	4059.73
692.155	2781.34
696.769	1886.79
701.38	1361.01
705.988	1169
710.594	960.732
715.197	583.213
719.798	582.434
724.396	397.389
728.991	229.078
733.583	156.498
738.173	74.6406
742.761	114.49
747.345	202.99
751.927	44.0586
756.507	10.5469
761.084	40.168
765.658	77.3789
770.229	174.324
774.799	151.576
779.365	112.775
783.929	145.732
788.49	247.285
793.049	167.272
797.605	93.7109
802.159	197.188
806.71	330.938
811.258	14.377
815.804	198.816
820.347	192.697
824.888	165.266
829.427	159.527
833.962	350.498
838.495	358.195
843.026	699.613
847.554	1068.78
852.08	1409.76
856.603	1953.47
861.124	2356.93
865.642	3069.15
870.157	2690.24
874.671	2267.74
879.181	2455.61
883.689	3563.89
888.195	5226
892.698	6391.5
897.199	7275.12
901.697	9703.16
906.193	14613.8
910.686	20549.7
915.177	24457.8
919.665	23968.1
924.151	21842.6
928.635	17422.6
933.116	11910.4
937.594	8456.53
942.071	6057.75
946.544	4778.26
951.016	3894.58
955.485	3417.91
959.951	2949.48
964.415	2757.45
968.877	2112.45
973.336	1510.96
977.793	1610.5
982.247	1312.3
986.699	1297.78
991.149	1149.09
995.596	1306.42
1000.04	948.264
1004.48	1138.76
1008.92	762.896
1013.36	794.875
1017.8	876.799
1022.23	883.018
1026.66	883.445
1031.09	803.881
1035.52	764.332
1039.94	495.547
1044.36	429.631
1048.78	712.199
1053.2	262.215
1057.61	311.377
1062.02	300.252
1066.43	287.397
1070.84	222.981
1075.24	22.8301
1079.65	505.066
1084.05	370.047
1088.45	368.078
1092.84	173.519
1097.23	376.848
1101.63	15.5547
1106.02	162.035
1110.4	112.281
1114.79	50.8633
1119.17	324.547
1123.55	191.766
1127.93	128.82
1132.3	148.109
1136.67	202.324
1141.05	92.7617
1145.41	85.8008
1149.78	97.707
1154.14	23.7148
1158.51	97.1953
1162.87	197.07
1167.22	112.656
1171.58	170.148
1175.93	174.004
1180.28	89.4102
1184.63	215.309
1188.98	403.898
1193.32	276.137
1197.66	5.02344
1202	7.55469
1206.34	205.242
1210.68	235.695
1215.01	167.949
1219.34	148.629
1223.67	270.633
1228	46.5469
1232.32	413.531
1236.64	416.676
1240.96	61.7617
1245.28	350.121
1249.6	323.582
1253.91	233.352
1258.22	37.8203
1262.53	149.043
1266.84	493.051
1271.14	141.57
1275.45	400.273
1279.75	253.453
1284.05	241.957
1288.34	273.215
1292.64	206.891
1296.93	164.883
1301.22	240.82
1305.51	239.992
1309.8	300.406
1314.08	323.32
1318.36	313.859
1322.64	230.863
1326.92	219.832
1331.19	48.8125
1335.47	527.106
1339.74	392.066
1344.01	305.715
1348.28	103.457
1352.54	196.883
1356.8	183.309
1361.07	340.555
1365.32	379.156
1369.58	132.027
1373.84	262.41
1378.09	323.996
1382.34	81.7852
1386.59	108.348
1390.84	316.394
1395.08	275.426
1399.32	26.1836
1403.56	247.723
1407.8	156.898
1412.04	146.305
1416.27	82.5742
1420.51	297.781
1424.74	266.871
1428.96	50.6172
1433.19	60.1602
1437.42	345.672
1441.64	313.242
1445.86	365.703
1450.08	379.043
1454.3	430.797
1458.51	319.453
1462.72	206.664
1466.93	356.769
1471.14	462.965
1475.35	176.746
1479.55	403.156
1483.76	509.926
1487.96	254.758
1492.16	250.215
1496.35	13.8828
1500.55	213.402
1504.74	285.738
1508.93	336.828
1513.12	226.394
1517.31	309.453
1521.49	380.965
1525.68	284.359
1529.86	305.598
1534.04	445.027
1538.22	287.125
1542.39	253.238
1546.57	214.945
1550.74	366.715
1554.91	429.148
1559.08	383.75
1563.24	546.078
