Measurement: Raman, 514 nm, ccw, Raman Data Processed
Mineral: Akermanite
Rruff sample: R061085
Ideal chemistry: Ca_2_MgSi_2_O_7_
Locality: Kovdor, Kola Peninsula, Russia
Source: Michael Scott
Description: Dark blue coarsely crystalline massive associated with green diopside
Measured chemistry: (Ca_1.78_Na_0.22_)_Σ=2_(Mg_0.70_Al_0.22_Fe^2+^_0.08_)_Σ=1_Si_2.00_O_7_
Pin_id: M00490
Orientation: Laser parallel to -c* (0 0 -1). Fiducial mark perpendicular to laser is parallel to a [1 0 0]
Raman shift (cm-1)	intensity
148.951	0
153.852	0.664063
158.75	58.293
163.645	95.7373
168.539	50.1567
173.43	130.642
178.319	181.017
183.206	250.808
188.091	539.643
192.973	644.096
197.853	1037.74
202.731	1307.84
207.607	1998.15
212.48	2732.73
217.351	3513.87
222.22	3980.19
227.087	3937.88
231.951	3318.7
236.813	2828.84
241.673	2211.73
246.53	1744.5
251.386	1578.24
256.239	1522.02
261.089	1517.64
265.938	1269.58
270.784	1286.87
275.628	1458.03
280.469	1480.76
285.309	1903.33
290.146	2018.48
294.98	2587.63
299.813	3129.11
304.643	3655.99
309.471	3680.26
314.296	3439.09
319.119	2762.5
323.94	2041.92
328.758	1423.14
333.575	965.066
338.388	779.639
343.2	610.824
348.009	468.604
352.816	488.972
357.621	455.09
362.423	420.328
367.223	301.158
372.02	215.385
376.815	233.028
381.608	12.0903
386.398	33.4653
391.187	20.2564
395.972	11.3193
400.756	70.2353
405.537	143.532
410.315	16.7534
415.092	77.1016
419.865	99.791
424.637	70.1152
429.406	10.8921
434.173	24.3852
438.937	466.153
443.699	992.523
448.459	1457.5
453.216	1696.09
457.971	1440.32
462.723	1567.2
467.473	1880.78
472.221	2327.05
476.966	2818.12
481.709	2937.02
486.449	2673.79
491.187	2320.48
495.923	1985.11
500.656	1750.75
505.387	1658.45
510.115	1695.09
514.841	1582.01
519.565	1500.03
524.286	1374.05
529.004	1248.9
533.72	1007.69
538.434	847.856
543.146	691.434
547.854	617.938
552.561	529.54
557.265	436.654
561.966	425.782
566.665	237.801
571.362	420.931
576.056	416.192
580.748	566.358
585.437	693.616
590.124	1055.78
594.808	1500.87
599.49	2436.11
604.17	3759.19
608.846	5432.41
613.521	8267.83
618.193	11106.4
622.862	13040.9
627.529	12401.3
632.194	10100.9
636.856	7969.6
641.515	6933.08
646.172	8195.68
650.827	13498.6
655.479	23874.1
660.129	33725.3
664.776	35390.4
669.42	26989.6
674.062	16842.8
678.702	9973.07
683.339	6012.28
687.973	3736.62
692.605	2463.18
697.235	1848.97
701.862	1338.13
706.486	983.699
711.108	797.432
715.728	611.221
720.344	426.921
724.959	345.487
729.57	187.92
734.18	30.2285
738.786	123.408
743.391	2.43799
747.992	21.1401
752.591	28.4458
757.188	61.5332
761.782	87.1655
766.373	69.4312
770.962	67.3438
775.549	103.02
780.133	159.485
784.714	44.8838
789.292	43.8188
793.869	22.7305
798.442	42.8852
803.013	28.9712
807.581	62.9961
812.147	372.025
816.711	561.066
821.271	737.128
825.829	611.218
830.385	654.338
834.938	739.494
839.488	1098.8
844.036	1591.17
848.581	2479.65
853.124	3277.31
857.664	3700.07
862.201	4052.96
866.736	3752.99
871.268	2817.11
875.798	2263.52
880.325	2382.34
884.849	3124.47
889.371	4569.5
893.89	7048.17
898.407	11684.7
902.921	21477.2
907.432	35401.6
911.941	45074.8
916.447	44343
920.95	36127.9
925.451	24535.6
929.95	15157.5
934.445	9842.11
938.938	6937.05
943.429	5234.2
947.916	4263.75
952.401	3947.69
956.884	3772.03
961.364	3452.75
965.841	3164.84
970.315	2765.67
974.787	2394.76
979.256	2295.28
983.723	2223.97
988.187	2236.6
992.648	2275.51
997.107	2287
1001.56	2341.1
1006.02	2102.2
1010.47	1831.51
1014.91	1542.75
1019.36	1415.56
1023.8	1230.2
1028.24	1016.4
1032.68	1016.2
1037.12	936.015
1041.55	790.176
1045.98	668.766
1050.4	570.948
1054.83	358.762
1059.25	293.014
1063.67	229.379
1068.08	246.293
1072.5	239.275
1076.91	213.379
1081.32	274.743
1085.72	431.346
1090.12	615.486
1094.52	145.438
1098.92	0.391602
1103.31	59.1006
1107.7	60.081
1112.09	83.2578
1116.48	91.8662
1120.86	97.1899
1125.24	63.4839
1129.62	18.0801
1134	47.4927
1138.37	37.3906
1142.74	3.39941
1147.11	15.9849
1151.47	46.6514
1155.84	2.59277
1160.19	31.0762
1164.55	74.9424
1168.9	110.226
1173.26	82.8389
1177.6	75.3423
1181.95	212.723
1186.29	136.965
1190.63	53.0576
1194.97	119.928
1199.31	85.458
1203.64	166.735
1207.97	95.7725
1212.29	179.557
1216.62	151.093
1220.94	191.394
1225.26	150.481
1229.57	78.3208
1233.88	180.647
1238.19	91.8408
1242.5	96.7534
1246.81	159.523
1251.11	205.392
1255.4	184.059
1259.7	181.152
1263.99	201.34
1268.29	252.266
1272.57	136.882
1276.86	138.159
1281.14	94.3081
1285.42	28.603
1289.7	95.1987
1293.97	31.5996
1298.24	158.623
1302.51	127.574
1306.78	94.2637
1311.04	115.846
1315.3	94.2519
1319.56	231.516
1323.81	229.738
1328.06	207.26
1332.31	119.499
1336.56	168.885
1340.8	194.748
1345.04	143.587
1349.28	110.888
1353.52	145.377
1357.75	33.5967
1361.98	147.707
1366.2	63.1475
1370.43	45.4424
1374.65	161.158
1378.87	63.7598
1383.09	141.485
1387.3	137.606
1391.51	113.189
1395.71	179.009
1399.92	151.765
1404.12	177.736
1408.32	120.322
1412.52	106.556
1416.71	119.343
1420.9	83.8955
1425.09	22.1763
1429.27	157.347
1433.45	9.61621
1437.63	144.768
1441.81	214.721
1445.98	283.343
1450.15	393.185
1454.32	395.194
1458.48	324.36
1462.65	352.64
1466.81	166.062
1470.96	101.833
1475.12	143.282
1479.27	103.52
1483.41	111.67
1487.56	113.925
1491.7	136.118
1495.84	3.91016
1499.98	87.5264
1504.11	103.254
1508.24	19.9136
1512.37	109.973
1516.49	80.8769
1520.62	11.0503
1524.74	82.2041
1528.85	62.0815
1532.97	100.73
1537.08	57.4878
1541.19	99.5693
1545.29	57.855
1549.39	87.3701
1553.49	209.837
1557.59	77.5527
1561.68	0.46875
