Measurement: Raman, 514 nm, ccw, Raman Data Processed
Mineral: Akermanite
Rruff sample: R061085
Ideal chemistry: Ca_2_MgSi_2_O_7_
Locality: Kovdor, Kola Peninsula, Russia
Source: Michael Scott
Description: Dark blue coarsely crystalline massive associated with green diopside
Measured chemistry: (Ca_1.78_Na_0.22_)_Σ=2_(Mg_0.70_Al_0.22_Fe^2+^_0.08_)_Σ=1_Si_2.00_O_7_
Pin_id: M00203
Orientation: Laser parallel to a* (1 0 0). Fiducial mark perpendicular to laser is parallel to c [0 0 1]
Raman shift (cm-1)	intensity
148.951	0
153.852	71.4771
158.75	58.4651
163.645	22.6467
168.539	32.6465
173.43	73.8777
178.319	129.243
183.206	336.868
188.091	556.77
192.973	692.632
197.853	968.601
202.731	1175.24
207.607	1390.3
212.48	1819.87
217.351	2222.61
222.22	2393.44
227.087	2345.31
231.951	2015.18
236.813	1621.41
241.673	1222.16
246.53	989.499
251.386	824.197
256.239	805.122
261.089	903.442
265.938	880.098
270.784	993.494
275.628	1297.26
280.469	1601.41
285.309	2073.78
290.146	2581.8
294.98	3325.09
299.813	3986.57
304.643	4693.35
309.471	4806.8
314.296	4541.01
319.119	3585.86
323.94	2677.82
328.758	1839.84
333.575	1348.83
338.388	987.761
343.2	792.59
348.009	730.306
352.816	595.898
357.621	565.34
362.423	497.558
367.223	364.522
372.02	211.245
376.815	62.7437
381.608	62.0198
386.398	24.0239
391.187	53.2878
395.972	12.0664
400.756	29.2798
405.537	64.2581
410.315	8.19898
415.092	13.9922
419.865	50.3355
424.637	41.8323
429.406	1.06689
434.173	110.41
438.937	355.834
443.699	803.118
448.459	1048.26
453.216	872.295
457.971	635.185
462.723	606.921
467.473	683.511
472.221	780.997
476.966	949.297
481.709	967.746
486.449	882.067
491.187	710.434
495.923	603.844
500.656	621.287
505.387	716.789
510.115	664.28
514.841	677.764
519.565	640.88
524.286	531.053
529.004	487.161
533.72	243.802
538.434	189.238
543.146	132.255
547.854	79.3811
552.561	76.8818
557.265	32.3765
561.966	73.3345
566.665	155.939
571.362	176.346
576.056	200.139
580.748	335.007
585.437	480.857
590.124	643.644
594.808	961.366
599.49	1535.14
604.17	2207.12
608.846	3082.24
613.521	4197.34
618.193	5548.74
622.862	5736.23
627.529	5092.79
632.194	4061.84
636.856	3148.42
641.515	2652.51
646.172	3220.02
650.827	5548.12
655.479	10400.6
660.129	15562.5
664.776	16408.2
669.42	11615.2
674.062	6890.38
678.702	4103.69
683.339	2448.12
687.973	1590.73
692.605	1016.45
697.235	790.215
701.862	507.959
706.486	395.602
711.108	277.194
715.728	280.713
720.344	187.109
724.959	111.377
729.57	77.5195
734.18	56.5393
738.786	9.43774
743.391	12.2009
747.992	20.791
752.591	18.1172
757.188	25.1343
761.782	30.1206
766.373	61.8523
770.962	24.1199
775.549	37.8972
780.133	66.2058
784.714	47.981
789.292	22.1977
793.869	7.72363
798.442	6.41528
803.013	13.2546
807.581	52.8227
812.147	77.8569
816.711	82.8506
821.271	157.805
825.829	180.723
830.385	181.604
834.938	309.467
839.488	389.404
844.036	454.346
848.581	789.267
853.124	1087.17
857.664	1571.07
862.201	1998.96
866.736	1837.94
871.268	1219.05
875.798	941.195
880.325	1052.98
884.849	1270.87
889.371	1937.88
893.89	3119.61
898.407	5321.78
902.921	9966.45
907.432	17570.1
911.941	22426
916.447	21114.6
920.95	16593.7
925.451	10592.7
929.95	6440.62
934.445	4289.39
938.938	3075.84
943.429	2458.31
947.916	2417.95
952.401	2575.8
956.884	2485.84
961.364	2403.07
965.841	2201.48
970.315	1797.08
974.787	1713.47
979.256	1670.43
983.723	1824.58
988.187	2163.91
992.648	2550.41
997.107	2801.55
1001.56	2574.86
1006.02	1990.05
1010.47	1553.35
1014.91	1267.54
1019.36	1040.03
1023.8	867.795
1028.24	700.411
1032.68	681.197
1037.12	541.295
1041.55	502.117
1045.98	429.645
1050.4	382.194
1054.83	313.176
1059.25	253.472
1063.67	203.065
1068.08	181.732
1072.5	250.645
1076.91	180.435
1081.32	180.273
1085.72	224.999
1090.12	154.983
1094.52	78.02
1098.92	15.9021
1103.31	55.803
1107.7	68.0378
1112.09	35.9287
1116.48	45.8428
1120.86	135.775
1125.24	88.719
1129.62	16.648
1134	6.63232
1138.37	42.1548
1142.74	6.0564
1147.11	4.52759
1151.47	27.6406
1155.84	1.97852
1160.19	20.438
1164.55	6.07666
1168.9	7.10474
1173.26	117.091
1177.6	33.0906
1181.95	85.5366
1186.29	75.0862
1190.63	17.5503
1194.97	12.917
1199.31	59.1558
1203.64	45.2776
1207.97	29.2669
1212.29	85.1436
1216.62	118.869
1220.94	44.4822
1225.26	87.9902
1229.57	76.0376
1233.88	74.2061
1238.19	109.28
1242.5	129.39
1246.81	116.397
1251.11	112.304
1255.4	157.154
1259.7	101.477
1263.99	150.358
1268.29	110.513
1272.57	46.5557
1276.86	47.1499
1281.14	14.5164
1285.42	44.3489
1289.7	46.7449
1293.97	39.2363
1298.24	5.5813
1302.51	54.0188
1306.78	57.9578
1311.04	96.8484
1315.3	94.6306
1319.56	65.2122
1323.81	164.597
1328.06	107.557
1332.31	98.0178
1336.56	128.619
1340.8	58.3169
1345.04	82.1279
1349.28	93.7241
1353.52	117.495
1357.75	147.138
1361.98	45.7918
1366.2	92.5217
1370.43	78.2434
1374.65	80.9548
1378.87	80.1462
1383.09	147.126
1387.3	48.2483
1391.51	62.4924
1395.71	83.4067
1399.92	99.7771
1404.12	48.8452
1408.32	86.189
1412.52	44.79
1416.71	94.8716
1420.9	38.1973
1425.09	53.6003
1429.27	12.1655
1433.45	28.4944
1437.63	87.6643
1441.81	84.3413
1445.98	121.014
1450.15	80.7942
1454.32	19.6914
1458.48	58.7126
1462.65	87.8193
1466.81	73.9946
1470.96	55.2561
1475.12	73.4988
1479.27	151.787
1483.41	108.163
1487.56	20.6968
1491.7	77.2656
1495.84	56.8867
1499.98	57.6572
1504.11	44.4228
1508.24	26.6567
1512.37	31.8696
1516.49	71.2136
1520.62	93.1641
1524.74	115.51
1528.85	71.6282
1532.97	56.5185
1537.08	111.778
1541.19	27.248
1545.29	37.8855
1549.39	14.9138
1553.49	116.329
1557.59	48.0764
1561.68	1.67456
