Measurement: Raman, 514 nm, ccw, Raman Data Processed
Mineral: Akermanite
Rruff sample: R061085
Ideal chemistry: Ca_2_MgSi_2_O_7_
Locality: Kovdor, Kola Peninsula, Russia
Source: Michael Scott
Description: Dark blue coarsely crystalline massive associated with green diopside
Measured chemistry: (Ca_1.78_Na_0.22_)_Σ=2_(Mg_0.70_Al_0.22_Fe^2+^_0.08_)_Σ=1_Si_2.00_O_7_
Pin_id: M00490
Orientation: Laser parallel to -c* (0 0 -1). Fiducial mark perpendicular to laser is parallel to a [1 0 0]
Raman shift (cm-1)	intensity
153.852	0
158.75	107.192
163.645	194.596
168.539	20.0054
173.43	9.36328
178.319	122.591
183.206	218.39
188.091	387.607
192.973	655.514
197.853	859.894
202.731	1051.52
207.607	1259.77
212.48	1609.61
217.351	2021.29
222.22	2511.62
227.087	2570.42
231.951	2261.19
236.813	1856.42
241.673	1469.45
246.53	1236.53
251.386	1078.81
256.239	1110.35
261.089	1314.2
265.938	1108.21
270.784	1170.6
275.628	1353.49
280.469	1540.1
285.309	1856.15
290.146	2386.87
294.98	3084.62
299.813	4072.42
304.643	4966.45
309.471	5518.97
314.296	5222.28
319.119	4262.67
323.94	3225.47
328.758	2219.59
333.575	1578.63
338.388	1149.24
343.2	854.167
348.009	697.579
352.816	633.727
357.621	687.601
362.423	532.856
367.223	437.394
372.02	280.188
376.815	81.5835
381.608	36.4463
386.398	23.8857
391.187	124.852
395.972	73.3677
400.756	48.4058
405.537	54.4233
410.315	28.0542
415.092	2.87109
419.865	59.4277
424.637	78.9067
429.406	28.7324
434.173	40.749
438.937	39.9087
443.699	248.957
448.459	501.681
453.216	568.152
457.971	622.354
462.723	853.279
467.473	1021.94
472.221	1197.57
476.966	1529.7
481.709	1542.87
486.449	1359.05
491.187	1189.32
495.923	889.517
500.656	746.825
505.387	829.044
510.115	873.253
514.841	852.422
519.565	831.164
524.286	697.347
529.004	441.917
533.72	344.147
538.434	267.104
543.146	194.328
547.854	105.781
552.561	186.475
557.265	234.28
561.966	344.95
566.665	478.373
571.362	482.623
576.056	801.16
580.748	938.055
585.437	1300.01
590.124	1786.22
594.808	2988.33
599.49	4519.32
604.17	6499.33
608.846	8461.2
613.521	11343
618.193	14830.6
622.862	16321.8
627.529	14904.4
632.194	11655.6
636.856	8524.37
641.515	6987.88
646.172	7775.8
650.827	12495.2
655.479	22911.4
660.129	36133.4
664.776	40723.3
669.42	31484.9
674.062	19288.2
678.702	11492.1
683.339	6950.44
687.973	4191.7
692.605	2756.13
697.235	1982.6
701.862	1486.1
706.486	1071.76
711.108	892.678
715.728	668.787
720.344	529.908
724.959	399.904
729.57	298.747
734.18	215.438
738.786	148.989
743.391	31.4062
747.992	5.64697
752.591	74.5854
757.188	2.90625
761.782	34.8682
766.373	86.5967
770.962	27.8555
775.549	78.2217
780.133	30.1314
784.714	27.5044
789.292	43.4434
793.869	32.9853
798.442	26.1099
803.013	80.8115
807.581	47.9907
812.147	42.6851
816.711	93.3174
821.271	168.981
825.829	227.708
830.385	267.507
834.938	381.408
839.488	603.433
844.036	907.665
848.581	1408.01
853.124	1956.45
857.664	2969.1
862.201	3851.99
866.736	3778.23
871.268	2837.78
875.798	2129.74
880.325	2117.98
884.849	2791.82
889.371	4051.72
893.89	6581.85
898.407	11221
902.921	21083.7
907.432	38189.7
911.941	52450.2
916.447	53107.9
920.95	44450
925.451	30323.9
929.95	18459.4
934.445	11985.3
938.938	8238.04
943.429	6166.58
947.916	5215.22
952.401	5133.57
956.884	5373.82
961.364	5557.54
965.841	5487.67
970.315	5218.32
974.787	5067.79
979.256	5119.67
983.723	5800.7
988.187	7352.55
992.648	9499.5
997.107	11157.8
1001.56	10965.1
1006.02	8831.88
1010.47	6840.85
1014.91	5291.67
1019.36	4009.85
1023.8	3488.16
1028.24	2738.5
1032.68	2351.34
1037.12	1956.95
1041.55	1648.25
1045.98	1452.57
1050.4	1113.56
1054.83	976.64
1059.25	857.244
1063.67	743.347
1068.08	569.878
1072.5	548.288
1076.91	541.361
1081.32	523.989
1085.72	738.242
1090.12	456.947
1094.52	238.798
1098.92	156.794
1103.31	27.9019
1107.7	38.0181
1112.09	56.0366
1116.48	103.369
1120.86	67.4893
1125.24	11.5278
1129.62	42.7803
1134	60.4663
1138.37	75.4468
1142.74	75.8115
1147.11	28.9062
1151.47	9.78223
1155.84	77.4111
1160.19	8.44385
1164.55	24.1299
1168.9	101.762
1173.26	57.9238
1177.6	174.837
1181.95	99.5381
1186.29	15.0435
1190.63	36.3174
1194.97	65.3472
1199.31	70.1728
1203.64	23.7769
1207.97	11.0801
1212.29	149.17
1216.62	285.956
1220.94	153.446
1225.26	234.694
1229.57	118.94
1233.88	106.686
1238.19	203.809
1242.5	85.106
1246.81	251.09
1251.11	274.229
1255.4	123.489
1259.7	140.905
1263.99	247.311
1268.29	240.366
1272.57	188.365
1276.86	412.426
1281.14	126.688
1285.42	35.5405
1289.7	56.8833
1293.97	173.291
1298.24	143.443
1302.51	85.542
1306.78	166.388
1311.04	177.411
1315.3	245.614
1319.56	129.716
1323.81	181.535
1328.06	144.579
1332.31	69.4937
1336.56	127.561
1340.8	143.091
1345.04	153.901
1349.28	288.312
1353.52	109.75
1357.75	252.995
1361.98	108.941
1366.2	239.946
1370.43	58.8003
1374.65	178.674
1378.87	186.082
1383.09	9.94434
1387.3	141.926
1391.51	181.13
1395.71	47.4316
1399.92	64.8496
1404.12	15.4463
1408.32	82.8838
1412.52	60.5493
1416.71	72.4336
1420.9	103.516
1425.09	57.71
1429.27	114.672
1433.45	156.445
1437.63	258.625
1441.81	138.843
1445.98	187.196
1450.15	268.577
1454.32	243.946
1458.48	285.546
1462.65	237.285
1466.81	154.115
1470.96	192.682
1475.12	85.104
1479.27	70.7207
1483.41	84.0801
1487.56	141.197
1491.7	15.4277
1495.84	46.419
1499.98	9.83008
1504.11	19.1787
1508.24	56.2324
1512.37	39.3428
1516.49	77.8272
1520.62	113.136
1524.74	144.92
1528.85	113.586
1532.97	182.603
1537.08	81.043
1541.19	63.0605
1545.29	146.378
1549.39	15.1846
1553.49	229.407
1557.59	143.352
1561.68	145.961
