Measurement: Raman, 514 nm, ccw, Raman Data Processed
Mineral: Akermanite
Rruff sample: R061100
Ideal chemistry: Ca_2_MgSi_2_O_7_
Locality: Lago de Vico, Viterbo, Italy
Source: Michael Scott
Description: Colorless to white short prismatic crystals
Measured chemistry: (Ca_1.80_Na_0.20_)_Σ=2_(Mg_0.58_Al_0.38_Fe_0.04_)_Σ=1_(Si_1.82_Al_0.18_)_Σ=2_O_7_
Pin_id: M00347
Orientation: Laser parallel to c* (0 0 1). Fiducial mark perpendicular to laser is parallel to a [1 0 0]
Raman shift (cm-1)	intensity
206.697	0
211.608	227.704
216.515	360.981
221.419	1423.72
226.321	2118.82
231.219	2190.86
236.114	1911.14
241.005	1548.82
245.894	1021.75
250.779	739.377
255.662	743.97
260.541	775.182
265.417	430.878
270.29	306.99
275.16	446.738
280.027	412.921
284.891	455.215
289.751	678.886
294.609	1298.5
299.463	1780.36
304.315	2558.51
309.163	3002.03
314.008	3168.5
318.851	2874.26
323.69	1893.23
328.526	1198.14
333.359	1075.63
338.189	768.547
343.016	701.943
347.84	425.903
352.661	399.045
357.479	363.525
362.294	191.096
367.106	31.6475
371.915	39.0117
376.721	39.71
381.524	169.842
386.324	86.0127
391.121	45.3105
395.915	151.709
400.706	114.543
405.494	145.199
410.279	23.5635
415.061	124.664
419.841	73.916
424.617	48.4072
429.39	287.3
434.161	550.371
438.928	789.517
443.693	1014.15
448.454	1237.64
453.213	1451.1
457.969	1405.39
462.722	1358.43
467.472	1774.72
472.219	2231.43
476.963	2755.6
481.704	3126.25
486.443	3211.42
491.178	2877
495.911	2535.37
500.641	2285.31
505.368	1971.71
510.092	1631.24
514.813	1626.57
519.532	1715.97
524.247	1776.85
528.96	1315.1
533.67	948.876
538.377	889.639
543.081	831.508
547.783	347.017
552.481	466.245
557.177	358.986
561.87	529.305
566.56	354.674
571.248	506.858
575.932	587.489
580.614	976.493
585.293	1226.43
589.97	1549.07
594.643	2511.48
599.314	3732.81
603.982	5264.12
608.647	7657.42
613.31	9643.92
617.969	11918
622.626	14046
627.281	14532
631.932	12950.2
636.581	10637.2
641.227	9038.58
645.87	9066.27
650.511	12385.6
655.149	19936.8
659.784	27223.9
664.417	29660.5
669.046	25617.9
673.674	18503.4
678.298	12126.3
682.92	7960.67
687.539	5135.85
692.155	3452.28
696.769	2452.11
701.38	2016.07
705.988	1408.1
710.594	1262.09
715.197	796.961
719.798	669.682
724.396	573.242
728.991	326.051
733.583	125.887
738.173	161.977
742.761	148.916
747.345	52.7012
751.927	47.2949
756.507	39.7031
761.084	105.922
765.658	130.938
770.229	12.2598
774.799	87.8867
779.365	180.824
783.929	143.576
788.49	83.0547
793.049	136.414
797.605	130.029
802.159	21.4746
806.71	83.5293
811.258	199.715
815.804	125.172
820.347	171.824
824.888	111.356
829.427	365.756
833.962	302.031
838.495	649.943
843.026	1008.47
847.554	1246.57
852.08	1622.56
856.603	2574.45
861.124	2922.29
865.642	3494.19
870.157	3251.95
874.671	2900.83
879.181	3149.59
883.689	4270.85
888.195	6375.33
892.698	8207.53
897.199	8958.92
901.697	12027.1
906.193	18043.1
910.686	26053.3
915.177	30501
919.665	29686.7
924.151	27274.4
928.635	21510.1
933.116	15401.5
937.594	10713
942.071	7713.97
946.544	5958.69
951.016	4992.66
955.485	4578.85
959.951	4303.1
964.415	3576.8
968.877	2712.91
973.336	2396.21
977.793	1966.67
982.247	1527.16
986.699	1570.11
991.149	1394.29
995.596	1422.92
1000.04	1169.75
1004.48	1021.39
1008.92	1145.48
1013.36	853.469
1017.8	952.684
1022.23	917.172
1026.66	873.223
1031.09	699.561
1035.52	698.695
1039.94	687.719
1044.36	416.916
1048.78	317.029
1053.2	446.533
1057.61	247.902
1062.02	238.379
1066.43	320.051
1070.84	285.42
1075.24	330.777
1079.65	354.584
1084.05	368.736
1088.45	319.228
1092.84	296.699
1097.23	363.635
1101.63	61.2266
1106.02	22.8984
1110.4	193.848
1114.79	109.314
1119.17	395.772
1123.55	333.535
1127.93	33.6328
1132.3	74.1016
1136.67	254.795
1141.05	285.633
1145.41	51.3965
1149.78	141.1
1154.14	1.26172
1158.51	119.674
1162.87	62.1562
1167.22	194.647
1171.58	33.1309
1175.93	12.1367
1180.28	15.0449
1184.63	23.8984
1188.98	225.328
1193.32	14.7285
1197.66	135.723
1202	243.215
1206.34	26.2461
1210.68	86.7031
1215.01	212.478
1219.34	273.787
1223.67	193.088
1228	276.041
1232.32	15.8008
1236.64	222.947
1240.96	208.035
1245.28	139.92
1249.6	177.674
1253.91	214.492
1258.22	335.852
1262.53	150.209
1266.84	191.326
1271.14	282.602
1275.45	35.543
1279.75	76.9512
1284.05	243.004
1288.34	249.672
1292.64	199.367
1296.93	159.508
1301.22	138.176
1305.51	69.25
1309.8	287.639
1314.08	459.519
1318.36	175.068
1322.64	170.096
1326.92	52.1309
1331.19	244.443
1335.47	150.232
1339.74	143.51
1344.01	133.754
1348.28	64.0078
1352.54	243.039
1356.8	343.453
1361.07	56.2949
1365.32	256.666
1369.58	213.107
1373.84	336.898
1378.09	171.494
1382.34	449.023
1386.59	142.35
1390.84	250.953
1395.08	21.9941
1399.32	183.545
1403.56	458.217
1407.8	37.0605
1412.04	206.647
1416.27	99.8594
1420.51	242.551
1424.74	260.496
1428.96	106.607
1433.19	207.953
1437.42	324.588
1441.64	368.789
1445.86	507.012
1450.08	607.812
1454.3	619.227
1458.51	538.129
1462.72	594.596
1466.93	301.318
1471.14	462.42
1475.35	196.041
1479.55	306.731
1483.76	439.531
1487.96	40.5449
1492.16	157.182
1496.35	55.8164
1500.55	247.24
1504.74	81.3008
1508.93	201.639
1513.12	196.227
1517.31	173.291
1521.49	64.9766
1525.68	189.295
1529.86	204.922
1534.04	127.402
1538.22	473.143
1542.39	197.469
1546.57	344.043
1550.74	79.9981
1554.91	327.82
1559.08	321.115
1563.24	94.293
