Measurement: Raman, 514 nm, ccw, Raman Data Processed
Mineral: Akermanite
Rruff sample: R061085
Ideal chemistry: Ca_2_MgSi_2_O_7_
Locality: Kovdor, Kola Peninsula, Russia
Source: Michael Scott
Description: Dark blue coarsely crystalline massive associated with green diopside
Measured chemistry: (Ca_1.78_Na_0.22_)_Σ=2_(Mg_0.70_Al_0.22_Fe^2+^_0.08_)_Σ=1_Si_2.00_O_7_
Pin_id: M00203
Orientation: Laser parallel to a* (1 0 0). Fiducial mark perpendicular to laser is parallel to c [0 0 1]
Raman shift (cm-1)	intensity
148.951	0
153.852	44.8533
158.75	76.1514
163.645	99.0149
168.539	8.97192
173.43	7.61572
178.319	57.6926
183.206	159.549
188.091	327.51
192.973	416.015
197.853	587.161
202.731	669.475
207.607	812.884
212.48	1190.6
217.351	1516.97
222.22	1737.41
227.087	1756.68
231.951	1422.8
236.813	1220.69
241.673	965.669
246.53	858.857
251.386	742.318
256.239	738.095
261.089	779.902
265.938	808.035
270.784	755.699
275.628	877.833
280.469	858.684
285.309	1160.1
290.146	1521.04
294.98	1900.89
299.813	2567.74
304.643	3170.65
309.471	3401.5
314.296	3042
319.119	2380.6
323.94	1758.03
328.758	1241.3
333.575	841.345
338.388	685.114
343.2	541.594
348.009	401.776
352.816	388.659
357.621	344.227
362.423	309.454
367.223	293.294
372.02	161.726
376.815	52.7531
381.608	7.62317
386.398	13.5592
391.187	17.3015
395.972	5.37097
400.756	12.5482
405.537	20.0287
410.315	28.0369
415.092	63.6168
419.865	45.0427
424.637	60.6926
429.406	45.5242
434.173	10.9604
438.937	39.7621
443.699	170.085
448.459	253.108
453.216	409.854
457.971	548.333
462.723	720.586
467.473	915.597
472.221	1082.34
476.966	1233.86
481.709	1311.24
486.449	1131.57
491.187	895.811
495.923	719.046
500.656	607.341
505.387	585.709
510.115	578.233
514.841	553.304
519.565	504.975
524.286	393.445
529.004	325.657
533.72	217.372
538.434	183.099
543.146	171.05
547.854	165.856
552.561	227.952
557.265	283.514
561.966	280.133
566.665	410.874
571.362	455.589
576.056	657.223
580.748	894.903
585.437	1235.67
590.124	1909.02
594.808	3143.3
599.49	4945.49
604.17	6810.6
608.846	8632.67
613.521	11635.9
618.193	14468.7
622.862	14949.6
627.529	12752.8
632.194	9918.45
636.856	7447.67
641.515	6310
646.172	7698.14
650.827	13195.6
655.479	24101.2
660.129	35942.1
664.776	37203.6
669.42	26892.1
674.062	16373.5
678.702	9664.78
683.339	5884.95
687.973	3606.05
692.605	2559.07
697.235	1769.11
701.862	1279.26
706.486	996.54
711.108	779.018
715.728	578.621
720.344	411.187
724.959	363.643
729.57	242.959
734.18	251.14
738.786	140.195
743.391	59.131
747.992	41.958
752.591	13.7913
757.188	17.8059
761.782	19.6945
766.373	22.0424
770.962	73.8279
775.549	58.1957
780.133	12.255
784.714	91.9846
789.292	60.5356
793.869	53.7202
798.442	76.4939
803.013	35.3276
807.581	19.095
812.147	12.8906
816.711	12.7317
821.271	121.632
825.829	137.6
830.385	260.649
834.938	356.787
839.488	457.045
844.036	703.447
848.581	1145.96
853.124	1914.59
857.664	2743.35
862.201	3417.24
866.736	3187.36
871.268	2323.8
875.798	1909.6
880.325	2033.82
884.849	2712.45
889.371	4091.91
893.89	6682.49
898.407	11953
902.921	22864.6
907.432	40075.9
911.941	51874.3
916.447	49000.8
920.95	38764.8
925.451	25134.7
929.95	15094.2
934.445	9850.74
938.938	6897.83
943.429	5280.14
947.916	4659
952.401	4604.81
956.884	4777.06
961.364	4986.76
965.841	4974.9
970.315	4931.56
974.787	4864.44
979.256	5076.99
983.723	6127.88
988.187	8025.22
992.648	10310
997.107	11864.9
1001.56	11106.7
1006.02	8776.15
1010.47	6567.47
1014.91	5006.1
1019.36	3987.08
1023.8	3225.34
1028.24	2662.93
1032.68	2322.92
1037.12	1943.19
1041.55	1621.53
1045.98	1340.09
1050.4	1195.91
1054.83	865.07
1059.25	854.985
1063.67	632.242
1068.08	631.998
1072.5	610.169
1076.91	454.555
1081.32	595.224
1085.72	505.869
1090.12	412.694
1094.52	223.593
1098.92	74.5979
1103.31	21.6926
1107.7	81.4268
1112.09	49.5693
1116.48	58.3186
1120.86	128.519
1125.24	63.7434
1129.62	31.0435
1134	50.0388
1138.37	41.0007
1142.74	59.2024
1147.11	51.7065
1151.47	26.4648
1155.84	45.6914
1160.19	34.2759
1164.55	3.26587
1168.9	10.3821
1173.26	50.4324
1177.6	31.2117
1181.95	88.5933
1186.29	71.8023
1190.63	49.8313
1194.97	39.6274
1199.31	101.139
1203.64	29.3711
1207.97	33.333
1212.29	88.0325
1216.62	140.489
1220.94	122.709
1225.26	164.686
1229.57	188.417
1233.88	192.82
1238.19	103.367
1242.5	133.201
1246.81	165
1251.11	175.546
1255.4	232.839
1259.7	241.971
1263.99	167.165
1268.29	190.582
1272.57	101.632
1276.86	151.191
1281.14	187.664
1285.42	122.234
1289.7	124.612
1293.97	184.918
1298.24	151.358
1302.51	120.566
1306.78	111.173
1311.04	152.727
1315.3	180.222
1319.56	174.341
1323.81	146.339
1328.06	185.804
1332.31	183.154
1336.56	171.783
1340.8	180.253
1345.04	201.929
1349.28	150.522
1353.52	170.021
1357.75	172.442
1361.98	160.174
1366.2	129.171
1370.43	165.837
1374.65	139.308
1378.87	167.836
1383.09	117.251
1387.3	64.3542
1391.51	148.053
1395.71	83.8084
1399.92	38.6853
1404.12	75.6155
1408.32	84.4468
1412.52	105.316
1416.71	88.1365
1420.9	47.456
1425.09	7.19482
1429.27	66.1711
1433.45	56.917
1437.63	82.7886
1441.81	50.2835
1445.98	76.8977
1450.15	161.659
1454.32	119.525
1458.48	86.457
1462.65	156.468
1466.81	73.4477
1470.96	72.4756
1475.12	74.6169
1479.27	49.8723
1483.41	52.2153
1487.56	22.6482
1491.7	26.2436
1495.84	14.6904
1499.98	28.4006
1504.11	22.3201
1508.24	54.3889
1512.37	44.5774
1516.49	2.32422
1520.62	89.0217
1524.74	5.6167
1528.85	36.1103
1532.97	50.4453
1537.08	69.7329
1541.19	43.689
1545.29	86.9595
1549.39	9.05371
1553.49	44.9958
1557.59	49.3684
1561.68	35.8115
