Measurement: Raman, 514 nm, ccw, Raman Data Processed
Mineral: Akermanite
Rruff sample: R061100
Ideal chemistry: Ca_2_MgSi_2_O_7_
Locality: Lago de Vico, Viterbo, Italy
Source: Michael Scott
Description: Colorless to white short prismatic crystals
Measured chemistry: (Ca_1.80_Na_0.20_)_Σ=2_(Mg_0.58_Al_0.38_Fe_0.04_)_Σ=1_(Si_1.82_Al_0.18_)_Σ=2_O_7_
Pin_id: M00238
Orientation: Laser parallel to a* (1 0 0). Fiducial mark perpendicular to laser is parallel to -c [0 0 -1]
Raman shift (cm-1)	intensity
206.697	0
211.608	178.879
216.515	1016.41
221.419	1630.26
226.321	2505.91
231.219	2353.39
236.114	1930.39
241.005	1160.08
245.894	849.979
250.779	441.047
255.662	352.607
260.541	690.9
265.417	230.611
270.29	164.102
275.16	94.084
280.027	176.723
284.891	126.125
289.751	336.752
294.609	489.852
299.463	787.527
304.315	1112.66
309.163	1150.6
314.008	1217.47
318.851	931.133
323.69	829.498
328.526	439.834
333.359	248.945
338.189	24.8359
343.016	85.5547
347.84	161.098
352.661	89.6367
357.479	31.3125
362.294	112.543
367.106	18.6328
371.915	217.883
376.721	139.16
381.524	93.6816
386.324	190.705
391.121	52.25
395.915	169.881
400.706	69.1816
405.494	10.9414
410.279	117.666
415.061	140.631
419.841	217.643
424.617	296.719
429.39	640.617
434.161	997.926
438.928	1365.02
443.693	1565.5
448.454	1741
453.213	2305.86
457.969	2267.81
462.722	2232.36
467.472	2208.6
472.219	2742.55
476.963	3322.41
481.704	3679.05
486.443	3695.8
491.178	3053.79
495.911	2589.48
500.641	2087.29
505.368	1845.2
510.092	1884.84
514.813	1750.08
519.532	1512.12
524.247	1322.29
528.96	1257.67
533.67	761.438
538.377	888.389
543.081	770.838
547.783	579.273
552.481	466.887
557.177	534.469
561.87	335.445
566.56	466.459
571.248	540.529
575.932	645.529
580.614	780.502
585.293	1268.49
589.97	1896.53
594.643	2861.65
599.314	4387.89
603.982	6213.7
608.647	8436.69
613.31	10860.1
617.969	13528
622.626	15602.8
627.281	15401.5
631.932	13396.9
636.581	11269
641.227	9797.91
645.87	10441.8
650.511	15528.3
655.149	23892.9
659.784	29923.7
664.417	29904.5
669.046	24701.8
673.674	17304.6
678.298	11053.9
682.92	7347.57
687.539	4734.6
692.155	3164.95
696.769	2709.46
701.38	2146.01
705.988	1662.56
710.594	1275.08
715.197	898.57
719.798	1006.03
724.396	576.449
728.991	697.84
733.583	320.197
738.173	187.522
742.761	190.812
747.345	203.066
751.927	286.281
756.507	143.402
761.084	24.7832
765.658	194.598
770.229	62.3945
774.799	8.43359
779.365	4.35938
783.929	330.494
788.49	198.09
793.049	118.469
797.605	46.5879
802.159	260.215
806.71	112.676
811.258	175.141
815.804	276.424
820.347	201.58
824.888	418.613
829.427	414.562
833.962	724.463
838.495	841.352
843.026	1152.17
847.554	1534.97
852.08	2019.73
856.603	2818.53
861.124	3359.34
865.642	3921.36
870.157	3050.44
874.671	2880.6
879.181	3437.86
883.689	5052.15
888.195	7242.41
892.698	8411.6
897.199	9738.59
901.697	13750.5
906.193	19854.7
910.686	27218.7
915.177	30180.8
919.665	29236.8
924.151	26081.2
928.635	20207
933.116	14228.7
937.594	9819.77
942.071	7319.07
946.544	5542.47
951.016	4790.02
955.485	4280.91
959.951	3967.88
964.415	3289.57
968.877	2569.05
973.336	2507.79
977.793	1891.72
982.247	1843.36
986.699	1736.2
991.149	1560.19
995.596	1589.77
1000.04	1447.59
1004.48	1302.05
1008.92	1287.59
1013.36	1261.09
1017.8	1068.42
1022.23	962.932
1026.66	720.957
1031.09	718.922
1035.52	625.102
1039.94	504.613
1044.36	619.734
1048.78	418.125
1053.2	556.029
1057.61	317.981
1062.02	232.789
1066.43	346.209
1070.84	309.621
1075.24	63.3281
1079.65	176.453
1084.05	217.883
1088.45	154.695
1092.84	172.09
1097.23	165.914
1101.63	12.1055
1106.02	128.707
1110.4	115.766
1114.79	21.2656
1119.17	116.648
1123.55	39.0742
1127.93	19.3945
1132.3	295.191
1136.67	73.5586
1141.05	2.625
1145.41	63.2812
1149.78	272.551
1154.14	119.555
1158.51	242.106
1162.87	226.035
1167.22	197.258
1171.58	69.8555
1175.93	261.539
1180.28	281.793
1184.63	294.418
1188.98	259.938
1193.32	235.019
1197.66	91.5586
1202	472.594
1206.34	506.082
1210.68	228.156
1215.01	602.816
1219.34	229.891
1223.67	145.586
1228	213.269
1232.32	335.777
1236.64	277.047
1240.96	21.4805
1245.28	8.48438
1249.6	199.805
1253.91	395.457
1258.22	214.906
1262.53	285.121
1266.84	199.504
1271.14	239.606
1275.45	262.887
1279.75	374.356
1284.05	302.836
1288.34	40.2891
1292.64	385.277
1296.93	118.793
1301.22	316.328
1305.51	243.039
1309.8	214.75
1314.08	377.215
1318.36	284.156
1322.64	450.902
1326.92	474.941
1331.19	453.738
1335.47	327.523
1339.74	282.856
1344.01	428.445
1348.28	385.356
1352.54	401.328
1356.8	328.184
1361.07	148.676
1365.32	402.344
1369.58	294.055
1373.84	149.793
1378.09	151.477
1382.34	261.461
1386.59	10.4766
1390.84	82.8867
1395.08	108.188
1399.32	46.0547
1403.56	87.168
1407.8	221.031
1412.04	293.176
1416.27	188.574
1420.51	210.137
1424.74	69.0938
1428.96	247.398
1433.19	306.734
1437.42	201.719
1441.64	288.887
1445.86	485.969
1450.08	239.231
1454.3	304.578
1458.51	435.121
1462.72	531.031
1466.93	131.215
1471.14	245.09
1475.35	2.27734
1479.55	218.102
1483.76	253.438
1487.96	420.606
1492.16	119.438
1496.35	89.207
1500.55	393.941
1504.74	87.5859
1508.93	15.7305
1513.12	116.356
1517.31	358.594
1521.49	282.488
1525.68	376.438
1529.86	252.523
1534.04	146.137
1538.22	351.062
1542.39	267.812
1546.57	361.441
1550.74	318.004
1554.91	440.375
1559.08	235.203
1563.24	4.81641
