Measurement: Raman, 514 nm, ccw, Raman Data Processed
Mineral: Akermanite
Rruff sample: R061100
Ideal chemistry: Ca_2_MgSi_2_O_7_
Locality: Lago de Vico, Viterbo, Italy
Source: Michael Scott
Description: Colorless to white short prismatic crystals
Measured chemistry: (Ca_1.80_Na_0.20_)_Σ=2_(Mg_0.58_Al_0.38_Fe_0.04_)_Σ=1_(Si_1.82_Al_0.18_)_Σ=2_O_7_
Pin_id: M00347
Orientation: Laser parallel to c* (0 0 1). Fiducial mark perpendicular to laser is parallel to a [1 0 0]
Raman shift (cm-1)	intensity
206.697	0
211.608	8.06836
216.515	729.262
221.419	1170.14
226.321	1662.12
231.219	1554.54
236.114	1601.72
241.005	1177.08
245.894	892.969
250.779	510.438
255.662	561.283
260.541	693.311
265.417	394.596
270.29	386.465
275.16	358.652
280.027	272.025
284.891	449.125
289.751	431.488
294.609	1037.76
299.463	1404.37
304.315	2194.42
309.163	2323.85
314.008	2582.84
318.851	2266.22
323.69	1464.55
328.526	817.988
333.359	779.576
338.189	546.152
343.016	523.75
347.84	393.443
352.661	435.973
357.479	296.055
362.294	230.178
367.106	177.957
371.915	158.693
376.721	139.117
381.524	78.543
386.324	26.0039
391.121	7.32617
395.915	128.016
400.706	188.185
405.494	93.6699
410.279	222.76
415.061	213.4
419.841	84.0371
424.617	242.15
429.39	341.234
434.161	531.123
438.928	628.066
443.693	799.965
448.454	920.856
453.213	1246.55
457.969	1240.18
462.722	1330.79
467.472	1650.97
472.219	1508.93
476.963	1876.65
481.704	2346.22
486.443	2385.08
491.178	2275.46
495.911	1883
500.641	1528.33
505.368	1545.05
510.092	1453.12
514.813	1270.88
519.532	1504.79
524.247	1061.56
528.96	1324.66
533.67	666.58
538.377	793.506
543.081	483.391
547.783	513.746
552.481	337.473
557.177	149.406
561.87	252.859
566.56	390.065
571.248	577.707
575.932	206.17
580.614	651.432
585.293	800.725
589.97	1230.17
594.643	1830.91
599.314	2471.15
603.982	3851.39
608.647	5173.13
613.31	6955.72
617.969	8343.88
622.626	9951.4
627.281	10181.6
631.932	8828.19
636.581	7682.9
641.227	6170.6
645.87	6617.43
650.511	8760.29
655.149	13991.8
659.784	18894.3
664.417	20642.7
669.046	18120.4
673.674	13018.3
678.298	8655
682.92	5266.83
687.539	4111.45
692.155	2487.5
696.769	1618.26
701.38	1473.19
705.988	909.947
710.594	951.381
715.197	574.439
719.798	623.094
724.396	407.332
728.991	246.15
733.583	364.514
738.173	252.981
742.761	64.8516
747.345	93.1875
751.927	174.025
756.507	398.602
761.084	28.5215
765.658	149.953
770.229	10.3691
774.799	26.6191
779.365	70.0312
783.929	232.467
788.49	0.333984
793.049	152.816
797.605	107.615
802.159	278.465
806.71	112.42
811.258	146.865
815.804	298.631
820.347	117.064
824.888	310.434
829.427	55.4434
833.962	386.185
838.495	549.422
843.026	647.285
847.554	1100.79
852.08	907.939
856.603	1777.74
861.124	2074.21
865.642	2445.82
870.157	2394.94
874.671	1960.92
879.181	2502.94
883.689	2971.2
888.195	4513.52
892.698	5848.32
897.199	6289.87
901.697	8539.16
906.193	13130.9
910.686	18646.5
915.177	21474.9
919.665	20772.7
924.151	18985
928.635	15270.3
933.116	10375.3
937.594	7657.15
942.071	5508.12
946.544	3957.59
951.016	3649.14
955.485	3141.6
959.951	2645.27
964.415	2351
968.877	1849.67
973.336	1592.1
977.793	1278.81
982.247	1174.81
986.699	1562.73
991.149	1109.83
995.596	1131.11
1000.04	1081.61
1004.48	1021.8
1008.92	750.484
1013.36	847.008
1017.8	630.016
1022.23	768.141
1026.66	705.106
1031.09	529.969
1035.52	649.68
1039.94	567.734
1044.36	435.106
1048.78	611.652
1053.2	151.699
1057.61	217.894
1062.02	597.508
1066.43	316.481
1070.84	377.461
1075.24	413.773
1079.65	84.9414
1084.05	494.941
1088.45	385.316
1092.84	118.777
1097.23	84.8477
1101.63	208.961
1106.02	83.0469
1110.4	1.10938
1114.79	108.496
1119.17	278.695
1123.55	534.652
1127.93	63.3164
1132.3	76
1136.67	330.184
1141.05	29.1602
1145.41	86.3203
1149.78	114.371
1154.14	122.805
1158.51	256.106
1162.87	501.289
1167.22	91.0273
1171.58	89.5469
1175.93	429.711
1180.28	196.359
1184.63	11.6914
1188.98	350.543
1193.32	8.10156
1197.66	114.043
1202	453.566
1206.34	209.676
1210.68	92.4336
1215.01	646.805
1219.34	318.797
1223.67	71.582
1228	788.914
1232.32	161.375
1236.64	320.949
1240.96	389.941
1245.28	341.039
1249.6	100.488
1253.91	556.562
1258.22	134.129
1262.53	124.477
1266.84	627.617
1271.14	408.973
1275.45	548.086
1279.75	339.926
1284.05	71.7305
1288.34	435.594
1292.64	443.867
1296.93	309.801
1301.22	278.039
1305.51	425.727
1309.8	507.211
1314.08	627.352
1318.36	193.266
1322.64	660.352
1326.92	207.457
1331.19	637.356
1335.47	424.59
1339.74	346.894
1344.01	251.289
1348.28	180.754
1352.54	417.996
1356.8	64.5508
1361.07	431.856
1365.32	455.809
1369.58	300.652
1373.84	321.684
1378.09	720.574
1382.34	278.059
1386.59	466.656
1390.84	384.156
1395.08	569.367
1399.32	266.578
1403.56	348.305
1407.8	480.004
1412.04	266.184
1416.27	345
1420.51	571.102
1424.74	247.707
1428.96	228.481
1433.19	408.672
1437.42	494.379
1441.64	209.656
1445.86	330.32
1450.08	880.184
1454.3	559.019
1458.51	585.602
1462.72	617.316
1466.93	511.551
1471.14	219.981
1475.35	60.7656
1479.55	379.484
1483.76	435.637
1487.96	246.535
1492.16	457.367
1496.35	529.269
1500.55	552.816
1504.74	242.742
1508.93	247.133
1513.12	290.789
1517.31	406.559
1521.49	138.934
1525.68	667.941
1529.86	77.8008
1534.04	148.695
1538.22	176.57
1542.39	635.137
1546.57	173.219
1550.74	346.008
1554.91	487.098
1559.08	480.191
1563.24	29.9219
