Measurement: Raman, 514 nm, ccw, Raman Data Processed
Mineral: Akermanite
Rruff sample: R061085
Ideal chemistry: Ca_2_MgSi_2_O_7_
Locality: Kovdor, Kola Peninsula, Russia
Source: Michael Scott
Description: Dark blue coarsely crystalline massive associated with green diopside
Measured chemistry: (Ca_1.78_Na_0.22_)_Σ=2_(Mg_0.70_Al_0.22_Fe^2+^_0.08_)_Σ=1_Si_2.00_O_7_
Pin_id: M00203
Orientation: Laser parallel to a* (1 0 0). Fiducial mark perpendicular to laser is parallel to c [0 0 1]
Raman shift (cm-1)	intensity
148.951	0
153.852	12.7817
158.75	77.0342
163.645	2.64356
168.539	62.6936
173.43	48.8621
178.319	182.848
183.206	270.549
188.091	318.803
192.973	478.764
197.853	675.052
202.731	950.651
207.607	1057.98
212.48	1302.35
217.351	1465.4
222.22	1452.62
227.087	1328.96
231.951	1093.55
236.813	898.585
241.673	564.082
246.53	487.274
251.386	345.34
256.239	357.131
261.089	360.257
265.938	264.363
270.784	276.153
275.628	234.879
280.469	261.212
285.309	338.642
290.146	353.235
294.98	391.536
299.813	420.822
304.643	518.977
309.471	429.737
314.296	342.623
319.119	297.999
323.94	217.334
328.758	208.593
333.575	90.7437
338.388	59.2773
343.2	56.6335
348.009	97.3518
352.816	94.9111
357.621	18.2856
362.423	10.4182
367.223	60.2842
372.02	46.9299
376.815	23.6289
381.608	6.44849
386.398	77.5276
391.187	23.9688
395.972	7.7168
400.756	60.7927
405.537	32.6279
410.315	33.2744
415.092	11.2578
419.865	46.4089
424.637	82.8123
429.406	214.079
434.173	354.262
438.937	875.382
443.699	1689.38
448.459	2306.27
453.216	1775.06
457.971	1123.76
462.723	836.391
467.473	789.954
472.221	914.502
476.966	1101.93
481.709	1068.94
486.449	968.705
491.187	770.94
495.923	693.135
500.656	535.88
505.387	575.504
510.115	462.709
514.841	524.692
519.565	453.907
524.286	423.717
529.004	337.517
533.72	308.562
538.434	266.61
543.146	276.168
547.854	179.966
552.561	100.889
557.265	91.9153
561.966	68.1443
566.665	164.99
571.362	60.1348
576.056	185.298
580.748	177.453
585.437	148.6
590.124	377.739
594.808	548.871
599.49	927.717
604.17	1371.79
608.846	2023.54
613.521	3059.04
618.193	4240.67
622.862	4620.81
627.529	4097.62
632.194	3290.44
636.856	2582.53
641.515	2439.42
646.172	2885.29
650.827	5066.3
655.479	9221.34
660.129	13425.2
664.776	13405.1
669.42	9316.96
674.062	5441.98
678.702	3285.05
683.339	2080.26
687.973	1234.58
692.605	845.917
697.235	545.337
701.862	452.727
706.486	306.063
711.108	216.34
715.728	125.554
720.344	178.706
724.959	148.797
729.57	97.8267
734.18	26.7969
738.786	1.70264
743.391	26.4414
747.992	15.9822
752.591	1.3374
757.188	45.4502
761.782	107.351
766.373	10.9663
770.962	33.5818
775.549	16.5781
780.133	32.0847
784.714	0.350342
789.292	10.3135
793.869	10.093
798.442	16.1895
803.013	86.4717
807.581	111.12
812.147	138.758
816.711	147.397
821.271	165.027
825.829	122.649
830.385	237.271
834.938	356.915
839.488	380.557
844.036	524.204
848.581	593.856
853.124	893.519
857.664	1237.2
862.201	1479.89
866.736	1258.62
871.268	878.52
875.798	734.489
880.325	814.014
884.849	1083.17
889.371	1652.26
893.89	2480.6
898.407	4306.18
902.921	7956.12
907.432	13828.8
911.941	17170
916.447	15894.7
920.95	12126
925.451	7661.61
929.95	4725.12
934.445	3067.93
938.938	2146.92
943.429	1673.06
947.916	1425.87
952.401	1328.31
956.884	1263.9
961.364	1233.64
965.841	1058.98
970.315	819.009
974.787	757.253
979.256	642.58
983.723	659.054
988.187	696.677
992.648	676.447
997.107	502.365
1001.56	567.922
1006.02	462.122
1010.47	466.121
1014.91	405.913
1019.36	382.404
1023.8	278.17
1028.24	362.079
1032.68	262.975
1037.12	333.819
1041.55	177.091
1045.98	186.074
1050.4	209.358
1054.83	97.9124
1059.25	89.645
1063.67	100.525
1068.08	31.7844
1072.5	143.011
1076.91	51.2739
1081.32	34.7427
1085.72	27.9126
1090.12	68.1255
1094.52	0.37793
1098.92	124.638
1103.31	48.8955
1107.7	84.1763
1112.09	173.477
1116.48	136.797
1120.86	98.1323
1125.24	160.478
1129.62	4.13061
1134	41.7969
1138.37	18.7656
1142.74	19.0681
1147.11	49.7822
1151.47	14.7051
1155.84	28.6196
1160.19	59.1687
1164.55	15.8176
1168.9	27.6965
1173.26	67.5361
1177.6	66.9512
1181.95	113.286
1186.29	49.7122
1190.63	180.792
1194.97	54.9551
1199.31	39.0332
1203.64	48.9812
1207.97	63.8574
1212.29	59.1367
1216.62	112.86
1220.94	56.5151
1225.26	137.089
1229.57	166.167
1233.88	191.617
1238.19	59.9329
1242.5	116.286
1246.81	110.592
1251.11	140.834
1255.4	137.014
1259.7	152.873
1263.99	120.061
1268.29	147.445
1272.57	110.035
1276.86	85.7114
1281.14	32.5967
1285.42	13.8711
1289.7	67.7539
1293.97	105.147
1298.24	152.602
1302.51	101.986
1306.78	57.6435
1311.04	19.3184
1315.3	81.9853
1319.56	101.637
1323.81	106.514
1328.06	75.6255
1332.31	41.0796
1336.56	78.5601
1340.8	85.8965
1345.04	84.8144
1349.28	64.2602
1353.52	92.9321
1357.75	78.6123
1361.98	118.322
1366.2	189.359
1370.43	118.361
1374.65	168.15
1378.87	55.5166
1383.09	58.6226
1387.3	74.2647
1391.51	1.64111
1395.71	34.6148
1399.92	77.9648
1404.12	47.4165
1408.32	75.7954
1412.52	70.2393
1416.71	12.6172
1420.9	148.075
1425.09	88.5435
1429.27	0.953125
1433.45	92.3628
1437.63	123.065
1441.81	120.109
1445.98	162.089
1450.15	133.244
1454.32	223.519
1458.48	158.9
1462.65	53.4023
1466.81	153.002
1470.96	37.6113
1475.12	14.1489
1479.27	123.783
1483.41	99.4648
1487.56	37.2524
1491.7	26.8721
1495.84	72.1045
1499.98	70.1562
1504.11	90.4717
1508.24	68.9526
1512.37	99.5693
1516.49	71.3159
1520.62	46.3232
1524.74	115.856
1528.85	73.2271
1532.97	85.6313
1537.08	70.4629
1541.19	49.5776
1545.29	37.7002
1549.39	52.7295
1553.49	84.0278
1557.59	41.5488
1561.68	17.4595
