Measurement: Raman, 514 nm, ccw, Raman Data Processed
Mineral: Akermanite
Rruff sample: R061100
Ideal chemistry: Ca_2_MgSi_2_O_7_
Locality: Lago de Vico, Viterbo, Italy
Source: Michael Scott
Description: Colorless to white short prismatic crystals
Measured chemistry: (Ca_1.80_Na_0.20_)_Σ=2_(Mg_0.58_Al_0.38_Fe_0.04_)_Σ=1_(Si_1.82_Al_0.18_)_Σ=2_O_7_
Pin_id: M00238
Orientation: Laser parallel to a* (1 0 0). Fiducial mark perpendicular to laser is parallel to -c [0 0 -1]
Raman shift (cm-1)	intensity
196.866	0
201.783	147.895
206.697	266.971
211.608	324.581
216.515	409.454
221.419	932.091
226.321	1312.78
231.219	1277.96
236.114	1457.98
241.005	1167.03
245.894	974.375
250.779	682.782
255.662	735.135
260.541	567.382
265.417	511.859
270.29	363.037
275.16	357.467
280.027	365.6
284.891	388.502
289.751	556.93
294.609	836.369
299.463	979.83
304.315	1517
309.163	1795.19
314.008	1615.76
318.851	1458.9
323.69	1120.03
328.526	918.643
333.359	553.711
338.189	357.082
343.016	353.592
347.84	265.086
352.661	223.174
357.479	227.086
362.294	164.025
367.106	62.7598
371.915	165.152
376.721	33.0938
381.524	44.459
386.324	155.162
391.121	14.0273
395.915	44.1855
400.706	37.9473
405.494	103.109
410.279	49.3828
415.061	27.084
419.841	122.258
424.617	24.6328
429.39	177.904
434.161	79.3418
438.928	87.2305
443.693	104.779
448.454	166.375
453.213	139.844
457.969	545.379
462.722	658.994
467.472	798.318
472.219	1002.04
476.963	1356.41
481.704	1449.22
486.443	1449.89
491.178	996.285
495.911	782.547
500.641	645.479
505.368	281.938
510.092	418.148
514.813	460.123
519.532	503.764
524.247	355.002
528.96	198.994
533.67	160.555
538.377	134.988
543.081	11.1641
547.783	180.139
552.481	41.5566
557.177	151.535
561.87	194.264
566.56	361.377
571.248	536.609
575.932	695.002
580.614	1169.78
585.293	1409.54
589.97	2004.41
594.643	3268.09
599.314	4913.47
603.982	7312.81
608.647	10432.1
613.31	13043
617.969	15693.8
622.626	17754
627.281	17538.3
631.932	15047.6
636.581	12330.9
641.227	10422.2
645.87	10423.1
650.511	14113.1
655.149	22253.5
659.784	29702.1
664.417	31799.9
669.046	27468.6
673.674	19692.4
678.298	13040.4
682.92	8084.8
687.539	5327.74
692.155	3408.5
696.769	2394.03
701.38	1886.34
705.988	1397.69
710.594	1042.16
715.197	849.943
719.798	768.934
724.396	504.459
728.991	380.094
733.583	560.658
738.173	326.162
742.761	383.625
747.345	232.068
751.927	154.504
756.507	237.951
761.084	254.418
765.658	61.9141
770.229	66.4043
774.799	214.949
779.365	345.418
783.929	94.4883
788.49	122.828
793.049	285.834
797.605	82.1445
802.159	142.148
806.71	448.303
811.258	669.643
815.804	772.18
820.347	783.938
824.888	783.934
829.427	759.215
833.962	926.811
838.495	1119.73
843.026	1766.13
847.554	1667.07
852.08	2131.67
856.603	2777.58
861.124	3287.83
865.642	3772.42
870.157	3507.77
874.671	2808.29
879.181	3094.99
883.689	4770.41
888.195	7417.64
892.698	9015.43
897.199	9884.69
901.697	13083.5
906.193	19195.1
910.686	28076.3
915.177	32591.1
919.665	32206.5
924.151	29307.8
928.635	23199.4
933.116	16232.1
937.594	11360.5
942.071	8294.53
946.544	6831.65
951.016	6480.5
955.485	6504.11
959.951	6627.51
964.415	6163.68
968.877	5509.62
973.336	5135.13
977.793	5099.22
982.247	5263.91
986.699	6219.17
991.149	7506.24
995.596	8951.4
1000.04	9808.32
1004.48	9521.02
1008.92	8051.64
1013.36	6480.01
1017.8	5321.15
1022.23	4374.92
1026.66	3723.72
1031.09	2923.13
1035.52	2559.18
1039.94	2122.89
1044.36	1589.88
1048.78	1546.64
1053.2	1123.23
1057.61	945.5
1062.02	992.098
1066.43	910.666
1070.84	804.824
1075.24	865.365
1079.65	889.889
1084.05	757.607
1088.45	701.07
1092.84	498.762
1097.23	164.115
1101.63	60.5918
1106.02	166.234
1110.4	8.74219
1114.79	12.2441
1119.17	320.615
1123.55	406.248
1127.93	63.8555
1132.3	246.131
1136.67	209.721
1141.05	204.344
1145.41	67.5215
1149.78	161.188
1154.14	250.522
1158.51	54.9531
1162.87	72.8086
1167.22	94.3731
1171.58	137.014
1175.93	27.252
1180.28	173.631
1184.63	157.969
1188.98	320.103
1193.32	261.342
1197.66	213.086
1202	298.24
1206.34	166.893
1210.68	174.022
1215.01	349.76
1219.34	397.703
1223.67	325.588
1228	260.82
1232.32	303.81
1236.64	295.512
1240.96	347.182
1245.28	171.531
1249.6	420.582
1253.91	348.025
1258.22	414.857
1262.53	266.805
1266.84	347.348
1271.14	299.488
1275.45	16.4727
1279.75	157.074
1284.05	131.684
1288.34	248.625
1292.64	295.969
1296.93	328.086
1301.22	347.227
1305.51	203.789
1309.8	196.328
1314.08	46.293
1318.36	528.996
1322.64	117.781
1326.92	478.367
1331.19	434.914
1335.47	38.3828
1339.74	490.129
1344.01	492.117
1348.28	458.539
1352.54	484.519
1356.8	409.465
1361.07	186.523
1365.32	402.16
1369.58	129.688
1373.84	209.039
1378.09	313.332
1382.34	264.988
1386.59	383.648
1390.84	213.43
1395.08	122.836
1399.32	226.711
1403.56	242.461
1407.8	155.027
1412.04	11.6484
1416.27	22.9727
1420.51	34.3672
1424.74	151.82
1428.96	58.8906
1433.19	343.879
1437.42	257.254
1441.64	340.348
1445.86	514.602
1450.08	97.3516
1454.3	236.301
1458.51	129.406
1462.72	473.629
1466.93	99.4141
1471.14	352.172
1475.35	205.883
1479.55	412.887
1483.76	68.4141
1487.96	6.30859
1492.16	240.934
1496.35	128.328
1500.55	114.676
1504.74	82.2461
1508.93	293.664
1513.12	216.516
1517.31	377.055
1521.49	16.832
1525.68	122.473
1529.86	159.668
1534.04	9.40625
1538.22	359.539
1542.39	214.871
1546.57	140.504
1550.74	334.336
1554.91	195.012
1559.08	213.269
1563.24	262.066
