Measurement: Raman, 514 nm, ccw, Raman Data Processed
Mineral: Albite
Rruff sample: R050402
Ideal chemistry: NaAlSi_3_O_8_
Locality: Urbano mine, Golconda District, Brazil
Source: Bob Downs
Description: Colorless tabular single crystals associated with fluorapatite R050401
Measured chemistry: Na_1.00_Al_1.00_Si_3.00_O_8_
Pin_id: M00107
Orientation: Laser parallel to b* (0 1 0). Fiducial mark perpendicular to laser is parallel to c [0 0 1]
Raman shift (cm-1)	intensity
73.714	0
78.659	789.315
83.602	3254.06
88.542	4167.59
93.48	973.178
98.416	265.783
103.349	844.677
108.28	2092.21
113.208	2296.32
118.134	830.148
123.058	112.571
127.979	8.94141
132.898	951.198
137.814	3418.36
142.728	6353.32
147.639	8745.33
152.549	10953.1
157.455	16084.3
162.359	21311.6
167.261	17752.9
172.161	18588.3
177.058	23293.7
181.952	28154.4
186.845	27027.2
191.734	17024
196.622	11365.7
201.507	13531.3
206.389	16014.6
211.269	14010.5
216.147	5015.07
221.022	1456.3
225.895	344.414
230.765	41.3843
235.633	93.8589
240.498	957.217
245.361	2627.78
250.222	4495.25
255.08	3734.02
259.936	1932.68
264.789	1926.88
269.64	3111.78
274.488	5652.41
279.334	14654.5
284.178	33138.7
289.019	48790.4
293.857	37574.7
298.693	12684.6
303.527	4783.52
308.358	2523.55
313.187	1910.69
318.013	3158.89
322.837	7267.15
327.659	11455.4
332.478	7459.6
337.294	2314.71
342.108	1190.72
346.92	1086.58
351.729	702.291
356.535	204.818
361.34	79.1411
366.141	113.018
370.94	181.939
375.737	223.366
380.531	217.258
385.323	77.8179
390.113	212.263
394.9	884.129
399.684	1501.86
404.466	1183.44
409.245	957.89
414.022	326.299
418.797	193.835
423.569	42.3301
428.338	33.169
433.105	120.273
437.87	181.903
442.632	403.197
447.391	811.183
452.149	1518.82
456.903	2343.08
461.655	2771.97
466.405	5478.48
471.152	14637.6
475.897	25864.3
480.639	25253.7
485.378	11502.6
490.116	7826.15
494.85	12381.3
499.582	32784.1
504.312	57091.5
509.039	55941.8
513.764	22927.2
518.486	9048.52
523.206	4927.77
527.923	3185.5
532.638	2185.91
537.35	1577.37
542.059	1256.76
546.766	964.198
551.471	877.963
556.173	881.587
560.873	741.904
565.57	926.31
570.264	1279.33
574.957	1974.69
579.646	2318.22
584.333	1317.68
589.018	657.112
593.7	487.655
598.379	420.153
603.056	353.359
607.73	329.241
612.402	461.065
617.072	601.844
621.739	956.532
626.403	1819.12
631.065	2539.61
635.724	2519.01
640.381	2549.28
645.035	2816.44
649.687	2241.78
654.336	1012.75
658.983	536.591
663.627	225.441
668.268	140.18
672.907	78.2769
677.544	91.2925
682.178	0.796875
686.809	24.0918
691.438	113.256
696.065	136.81
700.688	17.6807
705.31	25.0444
709.929	18.3823
714.545	19.3779
719.158	26.4351
723.77	114.265
728.378	2.57129
732.984	124.624
737.588	98.4727
742.189	225.903
746.787	280.902
751.383	629.617
755.976	1458.38
760.567	2746.06
765.155	2848.89
769.741	1692.06
774.324	1491.66
778.904	938.168
783.482	493.594
788.058	450.715
792.631	351.205
797.201	443.341
801.769	806.352
806.334	2089.22
810.897	4643.94
815.457	5971.51
820.014	3043.08
824.569	1181.72
829.122	580.169
833.671	511.062
838.219	371.623
842.763	188.765
847.306	225.115
851.845	110.682
856.382	95.1499
860.917	148.484
865.448	153.04
869.978	43.6294
874.505	103.286
879.029	50.3945
883.55	47.1426
888.069	34.8296
892.586	33.3452
897.1	10.6562
901.611	6.02783
906.12	20.5034
910.626	39.5015
915.129	99.5762
919.63	1.79541
924.129	67.2114
928.625	77.1362
933.118	40.8608
937.609	130.143
942.097	95.895
946.582	219.051
951.065	113.013
955.546	147.708
960.023	330.441
964.499	358.081
968.971	700.997
973.441	1085.41
977.909	1505.14
982.374	928.195
986.836	514.567
991.295	244.178
995.753	338.971
1000.21	556.288
1004.66	662.051
1009.11	654.264
1013.55	630.53
1018	1002.39
1022.44	1544.96
1026.88	3133.23
1031.32	4801.54
1035.75	3610.76
1040.18	1762.82
1044.61	893.227
1049.04	598.323
1053.46	501.964
1057.88	323.961
1062.3	291.973
1066.71	307.054
1071.13	360.505
1075.54	610.347
1079.94	736.745
1084.35	1267.44
1088.75	2162.77
1093.15	4213.66
1097.55	6593.22
1101.94	6296.94
1106.34	4367.93
1110.73	3881.8
1115.11	3646.16
1119.5	2901.35
1123.88	1788.64
1128.26	941.04
1132.63	434.946
1137.01	443.602
1141.38	277.413
1145.75	395.326
1150.12	350.378
1154.48	409.703
1158.84	300.196
1163.2	180.853
1167.55	191.68
1171.91	109.644
1176.26	67.3193
1180.61	113.638
1184.95	36.6284
1189.29	52.2666
1193.63	92.8257
1197.97	50.9224
1202.31	26.9844
1206.64	36.0493
1210.97	62.0444
1215.29	83.8198
1219.62	67.7476
1223.94	1.30957
1228.26	5.11035
1232.57	177.757
1236.89	115.559
1241.2	35.2808
1245.51	90.0742
1249.81	71.3687
1254.12	132.016
1258.42	121.109
1262.72	113.388
1267.01	184.892
1271.3	61.1123
1275.59	120.319
1279.88	294.482
1284.17	162.536
1288.45	159.761
1292.73	155.071
1297.01	200.634
1301.28	105.684
1305.55	77.2915
1309.82	197.963
1314.09	84.6724
1318.35	214.604
1322.61	173.935
1326.87	144.595
1331.13	111.979
1335.38	78.0234
1339.63	158.951
1343.88	95.1016
1348.12	84.8838
1352.37	119.04
1356.61	25.978
1360.85	107.663
1365.08	66.1108
1369.31	76.8696
1373.54	315.059
1377.77	526.641
1381.99	61.9766
1386.22	131.029
1390.43	40.8359
1394.65	53.7764
1398.87	96.0391
1403.08	66.3945
1407.29	56.9648
1411.49	49.873
1415.69	51.5478
1419.89	131.238
1424.09	141.518
1428.29	63.6963
1432.48	107.58
1436.67	145.458
1440.86	209.58
1445.04	151.252
1449.23	319.422
1453.4	154.805
1457.58	338.222
1461.76	261.677
1465.93	217.728
1470.1	172.078
1474.26	132.861
1478.43	163.076
1482.59	232.266
1486.75	108.413
1490.9	8.13965
1495.06	162.587
1499.21	9.46875
1503.35	55.2793
1507.5	129.331
1511.64	40.3945
1515.78	148.386
1519.92	31.3643
1524.05	113.724
1528.18	163.727
1532.31	171.743
1536.44	69.0127
1540.56	102.225
1544.69	123.659
1548.8	162.403
1552.92	219.227
1557.03	155.598
1561.14	73.7812
1565.25	157.491
1569.36	100.503
