Measurement: Raman, 514 nm, ccw, Raman Data Processed
Mineral: Albite
Rruff sample: R050253
Ideal chemistry: NaAlSi_3_O_8_
Locality: Madawaska/Faraday mine, Bancroft, Ontario, Canada
Source: Marcus Origlieri
Description: Colorless to brown prismatic single crystals
Measured chemistry: (Na_0.99_Ca_0.01_)Al_1.00_(Si_0.99_Al_0.01_)_3_O_8_
Pin_id: L00649
Orientation: Laser parallel to c* (0 0 1). Fiducial mark perpendicular to laser is parallel to a [1 0 0]
Raman shift (cm-1)	intensity
87.308	0
92.246	212.623
97.182	42.8164
102.116	1086.47
107.047	4150.73
111.976	7792.5
116.903	6832.42
121.827	2329.52
126.749	884.349
131.668	767.869
136.585	1133.29
141.5	3222.01
146.412	6361.04
151.321	9640.68
156.229	6618.29
161.134	4950.21
166.036	4405.19
170.936	3668.28
175.834	4245.65
180.729	5915.72
185.622	7410.71
190.512	6697.73
195.4	4578.83
200.286	4342.02
205.169	5560.27
210.049	6062.55
214.928	3237.84
219.803	829.79
224.677	138.762
229.548	46.376
234.416	61.6274
239.282	324.664
244.146	1439.94
249.007	3112.08
253.866	3417.38
258.722	2063.27
263.576	2676.38
268.427	4089.41
273.276	4180.16
278.123	3663.44
282.967	7442.12
287.809	13397.1
292.648	15657.3
297.485	7845.61
302.319	2976.06
307.151	1741.44
311.98	1147.02
316.807	1077.66
321.631	1773.52
326.454	2893.21
331.273	2415.74
336.09	833.098
340.905	252.275
345.717	147.269
350.527	8.06982
355.334	46.4141
360.139	61.4287
364.941	173.253
369.741	77.3574
374.538	95.1836
379.333	38.4912
384.126	42.7471
388.916	182.395
393.703	597.505
398.488	1159.63
403.271	1938.87
408.051	3046.2
412.828	3515.61
417.603	3527.13
422.376	1305.73
427.146	492.197
431.914	322.514
436.679	385.607
441.442	633.472
446.202	1219.1
450.96	2141.51
455.715	3551.68
460.467	4099.62
465.218	6060.35
469.965	14600.9
474.711	32077.6
479.454	42429.2
484.194	24545
488.932	10280.7
493.667	9119.49
498.4	18562.3
503.13	39959.4
507.858	54619.3
512.583	32175.5
517.306	11749.9
522.026	5634.32
526.744	3396.16
531.459	2435.36
536.172	1615.46
540.882	1271.99
545.59	1099.1
550.295	877.537
554.998	713.71
559.698	657.973
564.396	617.159
569.091	688.903
573.784	1019.2
578.474	1180.29
583.162	806.404
587.847	566.711
592.529	143.782
597.209	188.904
601.887	52.0957
606.562	159.343
611.235	106.529
615.905	116.758
620.572	134.963
625.237	232.105
629.9	345.224
634.56	391.308
639.217	512.448
643.872	602.923
648.524	555.975
653.174	325.58
657.821	157.713
662.466	112.421
667.108	14.5791
671.748	101.772
676.385	19.2593
681.02	31.5337
685.652	74.4346
690.281	3.01562
694.908	9.10498
699.533	21.9688
704.155	69.6064
708.774	101.911
713.391	183.041
718.005	312.691
722.617	296.147
727.226	198.621
731.833	336.305
736.437	321.717
741.039	338.728
745.638	624.671
750.234	1149.7
754.828	2590.22
759.419	6098.35
764.008	8692.06
768.595	5329.43
773.178	2813.54
777.759	1974.46
782.338	979.209
786.914	597.241
791.488	473.454
796.059	444.589
800.627	605.37
805.193	954.798
809.756	1715.36
814.317	3142.29
818.875	2477.24
823.431	939.639
827.984	582.138
832.534	415.91
837.082	359.436
841.627	201.198
846.17	150.763
850.71	103.533
855.248	20.707
859.783	49.2964
864.316	69.6865
868.846	33.5239
873.373	80.7822
877.898	29.4351
882.42	3.4331
886.94	47.6929
891.457	27.8589
895.971	1.3042
900.483	22.3311
904.993	73.8716
909.5	61.0039
914.004	35.1108
918.505	14.792
923.004	74.2754
927.501	118.279
931.995	49.2393
936.486	108.176
940.975	195.158
945.461	331.402
949.945	524.838
954.426	716.593
958.904	780.606
963.38	976.953
967.853	1382.63
972.324	2203.8
976.792	3559.27
981.258	3169.01
985.72	1603.04
990.181	890.457
994.639	614.385
999.094	968.807
1003.55	1548.2
1008	1835.33
1012.44	1305.63
1016.89	957.035
1021.33	815.096
1025.77	1075.87
1030.21	1666.84
1034.64	1574.14
1039.07	1218.16
1043.5	1010.26
1047.93	1100.98
1052.35	783.298
1056.78	501.998
1061.19	301.28
1065.61	526.395
1070.02	588.852
1074.43	896.068
1078.84	1237.22
1083.25	1891.18
1087.65	3326.31
1092.05	6569.63
1096.45	11909.1
1100.85	14068.5
1105.24	10345.4
1109.63	7384.98
1114.02	6759.96
1118.4	5773.24
1122.78	3922.7
1127.16	2286.42
1131.54	1325.43
1135.92	938.59
1140.29	617.959
1144.66	650.859
1149.02	787.792
1153.39	926.888
1157.75	431.211
1162.11	250.689
1166.46	203.334
1170.82	166.148
1175.17	145.071
1179.52	38.1035
1183.86	81.2324
1188.21	100.439
1192.55	169.752
1196.89	95.1328
1201.22	20.5986
1205.55	35.0713
1209.88	90.0312
1214.21	4.90918
1218.54	68.7588
1222.86	15.6631
1227.18	45.6318
1231.5	24.6611
1235.81	91.4268
1240.12	56.9453
1244.43	122.374
1248.74	170.419
1253.04	102.495
1257.34	134.742
1261.64	144.122
1265.94	236.311
1270.23	132.446
1274.52	64.4531
1278.81	134.203
1283.1	203.561
1287.38	301.315
1291.66	196.98
1295.94	168.701
1300.21	255.319
1304.48	138.153
1308.75	248.541
1313.02	297.937
1317.29	306.17
1321.55	301.043
1325.81	370.259
1330.06	227.202
1334.32	314.375
1338.57	114.131
1342.82	133.761
1347.06	193.719
1351.31	197.371
1355.55	88.0908
1359.79	115.815
1364.02	62.2022
1368.26	77.9102
1372.49	125.481
1376.71	223.87
1380.94	39.2197
1385.16	107.878
1389.38	96.5537
1393.6	149.326
1397.81	115.402
1402.02	78.5088
1406.23	124.636
1410.44	68.1357
1414.64	78.1377
1418.85	4.07031
1423.04	9.78027
1427.24	99.1143
1431.43	46.457
1435.62	137.785
1439.81	201.946
1444	208.566
1448.18	249.802
1452.36	219.957
1456.54	122.442
1460.71	236.126
1464.89	138.584
1469.06	135.966
1473.22	37.0205
1477.39	62.2109
1481.55	100.45
1485.71	59.4941
1489.86	160.665
1494.02	91.3897
1498.17	13.332
1502.32	24.0293
1506.46	54.0352
1510.61	200.918
1514.75	112.349
1518.88	32.9756
1523.02	147.732
1527.15	107.863
1531.28	225.326
1535.41	172.308
1539.53	261.138
1543.66	48.9766
1547.78	33.0537
1551.89	37.706
1556.01	144.461
1560.12	77.9209
1564.23	63.9375
1568.33	85.0225
