Measurement: Raman, 514 nm, ccw, Raman Data Processed
Mineral: Albite
Rruff sample: R040129
Ideal chemistry: NaAlSi_3_O_8_
Locality: LaChance Quarry, Brunswick, Cumberland County, Maine, USA
Source: Bob Downs
Description: Colorless fragment of a tabular single crystal
Measured chemistry: (Na_0.99_K_0.01_)Al_1.00_Si_3.00_O_8_
Pin_id: L00331
Orientation: Laser parallel to (1 0 1). Fiducial mark perpendicular to laser is parallel to -b [0 -1 0]
Raman shift (cm-1)	intensity
123.129	0
127.3	121.779
131.469	36.946
135.636	347.351
139.801	1356.48
143.964	3333.46
148.125	5829.91
152.284	5156.23
156.441	1212.98
160.596	659.756
164.749	826.566
168.9	1403.27
173.049	2089.9
177.195	2677.65
181.34	4523.51
185.483	5567.97
189.624	4253.43
193.762	2291.23
197.899	1598.49
202.034	1955.36
206.166	3821.89
210.297	4477.99
214.425	1894.02
218.552	730.17
222.676	156.813
226.799	33.261
230.919	60.159
235.038	103.478
239.154	55.043
243.269	137.884
247.381	970.555
251.492	1324.92
255.6	798.951
259.707	585.493
263.811	1278.62
267.914	2451.41
272.014	2134.32
276.113	1127.32
280.209	952.32
284.304	1735.41
288.396	4667.68
292.487	5549.67
296.575	2304.43
300.662	1010.51
304.746	487.396
308.829	314.763
312.909	212.441
316.988	60.302
321.065	138.167
325.139	736.005
329.212	1283.81
333.283	411.586
337.351	219.323
341.418	166.955
345.483	93.933
349.546	200.423
353.606	116.888
357.665	43.313
361.722	49.606
365.777	4.231
369.83	31.86
373.881	7.93
377.93	63.777
381.977	70.385
386.023	75.313
390.066	110.824
394.107	332.938
398.146	790.529
402.184	519.496
406.219	1081.14
410.252	976.323
414.284	1981.11
418.313	2085.53
422.341	619.811
426.367	84.072
430.39	108.312
434.412	132.523
438.432	346.721
442.45	560.871
446.466	885.033
450.48	1909.22
454.492	5343.48
458.502	5287.58
462.51	2421.62
466.517	1945.59
470.521	3419.49
474.523	8783.3
478.524	17506.8
482.523	10060.4
486.519	4373.97
490.514	2527.4
494.507	2520.75
498.498	3953.99
502.487	10077.1
506.474	22806.1
510.459	15799.9
514.442	6184.05
518.424	2897.43
522.403	2010.12
526.381	1535.69
530.356	995.656
534.33	698.555
538.302	591.518
542.272	414.377
546.24	406.521
550.206	376.318
554.17	234.461
558.132	112.406
562.093	344.936
566.051	259.637
570.008	386.992
573.963	451.146
577.915	726.736
581.866	1078.65
585.815	460.473
589.763	310.43
593.708	132.197
597.651	353.881
601.593	295.508
605.532	77.049
609.47	68.504
613.406	209.926
617.34	251.32
621.272	312.627
625.202	203.852
629.131	354.992
633.057	216.053
636.982	187.037
640.905	427.945
644.825	628.773
648.744	669.529
652.662	520.207
656.577	380.814
660.49	281.35
664.402	21.717
668.312	231.971
672.219	172.15
676.125	32.205
680.03	42.301
683.932	97.66
687.832	27.881
691.731	21.797
695.628	161.498
699.522	11.021
703.415	160.43
707.307	180.229
711.196	20.768
715.083	340.912
718.969	399.535
722.853	61.719
726.735	13.395
730.615	174.828
734.493	592.984
738.37	441.041
742.244	449.072
746.117	435.482
749.988	913.486
753.857	1423.22
757.724	3291.46
761.59	7129.31
765.453	6317.11
769.315	2743.41
773.175	1661.33
777.033	1069.24
780.889	667.156
784.744	495.074
788.596	482.992
792.447	600.924
796.296	508.863
800.143	646.82
803.989	1204.8
807.832	2002.79
811.674	5110.82
815.514	7409.07
819.352	4323.03
823.189	1701.16
827.023	976.871
830.856	632.633
834.687	470.676
838.516	724.234
842.343	363.77
846.169	241.662
849.992	60.383
853.814	172.486
857.634	213.303
861.453	569.379
865.269	404.281
869.084	87.889
872.897	36.652
876.708	298.314
880.517	465.713
884.325	285.312
888.13	241.461
891.934	301.338
895.737	188.607
899.537	31.438
903.336	331.625
907.132	432.049
910.928	322.641
914.721	353.385
918.512	165.65
922.302	235.293
926.09	316.363
929.876	557.604
933.66	199.014
937.443	250.6
941.224	142.361
945.003	94.311
948.78	466.443
952.556	518.762
956.33	401.266
960.102	223.963
963.872	13.145
967.64	139.938
971.407	493.281
975.172	566.789
978.935	780.52
982.697	444.492
986.456	68.67
990.214	43.176
993.971	158.02
997.725	594.256
1001.48	1079.65
1005.23	975.381
1008.98	471.428
1012.73	517.873
1016.47	785.232
1020.22	741.01
1023.96	848.406
1027.7	310.01
1031.44	397.945
1035.17	166.324
1038.91	384.719
1042.64	643.312
1046.37	821.598
1050.1	1060.1
1053.83	649.217
1057.56	678.959
1061.28	328.199
1065.01	382.525
1068.73	366.041
1072.45	614.232
1076.16	924.59
1079.88	865.168
1083.6	735.961
1087.31	846.977
1091.02	1168.4
1094.73	2259.87
1098.44	3251.56
1102.14	2723.45
1105.85	1705.58
1109.55	917.914
1113.25	670.234
1116.95	342.666
1120.65	274.037
1124.34	586.824
1128.04	629.701
1131.73	502.465
1135.42	515.457
1139.11	188.867
1142.79	37.943
1146.48	475.42
1150.16	648.926
1153.84	753.627
1157.52	847.455
1161.2	672.027
1164.88	62.127
1168.56	6.465
1172.23	248.002
1175.9	116.6
1179.57	261.273
1183.24	535.611
1186.9	598.789
1190.57	613.43
1194.23	335.701
1197.89	177.109
1201.55	200.816
1205.21	114.674
1208.87	340.406
1212.52	806.576
1216.18	923.041
1219.83	649.781
1223.48	506.795
1227.13	234.088
1230.77	151.664
1234.42	299.541
1238.06	947.76
1241.7	906.299
1245.34	853.512
1248.98	702.664
1252.62	851.938
1256.25	487.094
1259.88	422.402
1263.51	20.949
1267.14	189.414
1270.77	754.277
1274.4	938.523
1278.02	646.691
1281.65	784.492
1285.27	422.195
1288.89	129.797
1292.51	246.676
1296.12	43.719
1299.74	160.328
1303.35	827.363
1306.96	720.281
1310.57	1169.73
1314.18	959.504
1317.79	762.605
1321.39	540.906
1324.99	316.746
1328.59	168.355
1332.19	326.402
1335.79	536.402
1339.39	898.266
1342.98	674.715
