Measurement: Raman, 514 nm, ccw, Raman Data Processed
Mineral: Albite
Rruff sample: R050253
Ideal chemistry: NaAlSi_3_O_8_
Locality: Madawaska/Faraday mine, Bancroft, Ontario, Canada
Source: Marcus Origlieri
Description: Colorless to brown prismatic single crystals
Measured chemistry: (Na_0.99_Ca_0.01_)Al_1.00_(Si_0.99_Al_0.01_)_3_O_8_
Pin_id: L01416
Orientation: Laser parallel to b* (0 1 0). Fiducial mark perpendicular to laser is parallel to c [0 0 1]
Raman shift (cm-1)	intensity
77.423	0
82.367	568.592
87.308	1498.56
92.246	1373.38
97.182	78.8435
102.116	52.6553
107.047	672.484
111.976	795.495
116.903	1056.99
121.827	786.34
126.749	1014.8
131.668	2522.42
136.585	5210.98
141.5	9690.7
146.412	13171
151.321	17684.6
156.229	12962.6
161.134	4802.67
166.036	4941.67
170.936	5876.08
175.834	8898.33
180.729	12700.6
185.622	15966.9
190.512	15017.4
195.4	9388.96
200.286	8362.69
205.169	8956.55
210.049	10895.5
214.928	7374.55
219.803	2343.77
224.677	822.071
229.548	384.845
234.416	383.629
239.282	556.779
244.146	1859.95
249.007	2988.43
253.866	4941.55
258.722	3731.82
263.576	3988
268.427	5756.93
273.276	6298.43
278.123	4486.41
282.967	6795.79
287.809	9989.5
292.648	13747.5
297.485	7997.67
302.319	2773.88
307.151	1164.02
311.98	805.089
316.807	784.1
321.631	1993.05
326.454	3015.95
331.273	4418.79
336.09	1825.56
340.905	595.257
345.717	320.867
350.527	261.388
355.334	8.18555
360.139	171.727
364.941	155.326
369.741	185.133
374.538	122.804
379.333	127.927
384.126	49.3198
388.916	478.751
393.703	1065.1
398.488	2143.52
403.271	2804.94
408.051	4097.55
412.828	4692.53
417.603	5988.98
422.376	3017.77
427.146	816.751
431.914	580.705
436.679	712.564
441.442	1318.31
446.202	3229.95
450.96	6976.48
455.715	10926.9
460.467	10957.2
465.218	7567.4
469.965	13270.9
474.711	24076.9
479.454	35797.8
484.194	25551.6
488.932	10425.3
493.667	9199.88
498.4	18906.1
503.13	36479.8
507.858	53817.8
512.583	38631.9
517.306	13966
522.026	6479.17
526.744	3800.38
531.459	2579.04
536.172	1884.18
540.882	1387.57
545.59	999.912
550.295	902.966
554.998	809.677
559.698	774.346
564.396	741.68
569.091	1000.64
573.784	1611.57
578.474	2011.12
583.162	1605.64
587.847	776.156
592.529	301.691
597.209	127.248
601.887	200.876
606.562	82.6621
611.235	97.6372
615.905	136.8
620.572	279.031
625.237	338.368
629.9	617.739
634.56	799.113
639.217	989.483
643.872	1060.29
648.524	1151.96
653.174	583.547
657.821	269.959
662.466	107.066
667.108	28.7593
671.748	30.4624
676.385	55.0664
681.02	65.458
685.652	63.2895
690.281	22.8262
694.908	143.344
699.533	106
704.155	11.1411
708.774	58.2246
713.391	68.4902
718.005	307.364
722.617	331.731
727.226	342.059
731.833	389.774
736.437	499.984
741.039	782.392
745.638	1351.67
750.234	2269.21
754.828	5611.58
759.419	12115.2
764.008	17629.1
768.595	11633
773.178	4613.69
777.759	2395.63
782.338	1610.27
786.914	1141.07
791.488	1151.6
796.059	1330.87
800.627	2014.84
805.193	3628.53
809.756	8851.88
814.317	14227.8
818.875	12790.2
823.431	4967.85
827.984	2198.66
832.534	1189.58
837.082	822.332
841.627	567.909
846.17	306.817
850.71	209.691
855.248	148.802
859.783	35.7627
864.316	109.572
868.846	28.1924
873.373	36.3569
877.898	41.7285
882.42	41.646
886.94	62.5605
891.457	18.0498
895.971	55.6245
900.483	20.6221
904.993	0.812012
909.5	71.8809
914.004	21.4692
918.505	81.9424
923.004	118.355
927.501	85.6997
931.995	88.9941
936.486	235.303
940.975	224.66
945.461	411.065
949.945	648.656
954.426	793.367
958.904	944.149
963.38	717.449
967.853	927.24
972.324	1796.67
976.792	2732.35
981.258	2725.3
985.72	1531.33
990.181	1070.4
994.639	866.457
999.094	1368.78
1003.55	1990.14
1008	2301.25
1012.44	2050
1016.89	1810.6
1021.33	1197.42
1025.77	822.361
1030.21	809.834
1034.64	866.097
1039.07	895.108
1043.5	1032.27
1047.93	1217.89
1052.35	911.82
1056.78	582.879
1061.19	429.13
1065.61	415.894
1070.02	514.345
1074.43	521.534
1078.84	702.269
1083.25	1189.59
1087.65	1874.18
1092.05	3217.23
1096.45	5487.08
1100.85	6403.16
1105.24	4296.67
1109.63	2516.66
1114.02	1748.8
1118.4	1430.06
1122.78	1302.41
1127.16	917.267
1131.54	493.718
1135.92	412.215
1140.29	277.719
1144.66	338.416
1149.02	577.332
1153.39	741.451
1157.75	490.835
1162.11	329.397
1166.46	197.13
1170.82	188.091
1175.17	150.771
1179.52	4.66504
1183.86	5.54492
1188.21	8.55615
1192.55	104.686
1196.89	26.52
1201.22	72.8804
1205.55	51.5347
1209.88	6.76758
1214.21	37.8115
1218.54	26.6494
1222.86	40.356
1227.18	9.97559
1231.5	44.2217
1235.81	44.0117
1240.12	56.3496
1244.43	24.2891
1248.74	168.945
1253.04	49.272
1257.34	45.4228
1261.64	47.791
1265.94	171.708
1270.23	150.429
1274.52	86.0737
1278.81	4.80371
1283.1	121.413
1287.38	119.678
1291.66	153.588
1295.94	52.9873
1300.21	147.703
1304.48	130.486
1308.75	130.364
1313.02	190.974
1317.29	82.1807
1321.55	122.142
1325.81	238.113
1330.06	120.758
1334.32	224.017
1338.57	263.637
1342.82	152.347
1347.06	214.625
1351.31	100.393
1355.55	169.956
1359.79	100.92
1364.02	91.7978
1368.26	93.6397
1372.49	80.1064
1376.71	130.932
1380.94	53.8506
1385.16	18.1123
1389.38	97.4609
1393.6	69.3867
1397.81	109.349
1402.02	45.2461
1406.23	21.085
1410.44	73.1894
1414.64	40.918
1418.85	172.138
1423.04	151.025
1427.24	21.4219
1431.43	176.418
1435.62	164.807
1439.81	109.93
1444	208.249
1448.18	96.4863
1452.36	108.403
1456.54	116.345
1460.71	52.2988
1464.89	87.8418
1469.06	19.5293
1473.22	44.5898
1477.39	8.91211
1481.55	223.84
1485.71	88.2051
1489.86	88.5957
1494.02	58.585
1498.17	39.3174
1502.32	235.293
1506.46	184.111
1510.61	81.5244
1514.75	181.9
1518.88	64.7764
1523.02	171.555
1527.15	96.1094
1531.28	140.258
1535.41	74.7637
1539.53	178.931
1543.66	58.9111
1547.78	23.9893
1551.89	146.679
1556.01	253.418
1560.12	137.755
1564.23	2.67871
1568.33	190.923
