Measurement: Raman, 514 nm, ccw, Raman Data Processed
Mineral: Albite
Rruff sample: R040068
Ideal chemistry: NaAlSi_3_O_8_
Locality: Harding Pegmatite, Dixon, New Mexico, USA
Source: University of Arizona Mineral Museum
Description: Tan colored crystal fragment
Measured chemistry: (Na_0.99_Ca_0.01_)Al_1.00_(Si_0.99_Al_0.01_)_3_O_8_
Pin_id: L00307
Orientation: Laser parallel to c* (0 0 1). Fiducial mark perpendicular to laser is parallel to -a [-1 0 0]
Raman shift (cm-1)	intensity
116.172	0
120.347	8.85
124.519	14.384
128.69	189.92
132.858	319.046
137.025	579.763
141.189	1345.59
145.352	2242.26
149.512	2707.15
153.67	2579.15
157.827	3086.7
161.981	3528.5
166.133	2973.49
170.283	3011.03
174.431	2862.35
178.577	3392.84
182.721	4258.95
186.863	4128.28
191.003	2778.11
195.141	1768.41
199.277	1659.95
203.411	2531.14
207.543	3262.09
211.673	2483.17
215.801	1034.55
219.927	546.293
224.051	278.438
228.173	180.989
232.292	203.94
236.41	268.126
240.526	260.41
244.64	460.792
248.752	1199.56
252.861	1094.14
256.969	486.629
261.075	499.469
265.179	912.601
269.281	1165.97
273.38	842.727
277.478	1061.97
281.574	2022.72
285.668	4736.23
289.76	6423.76
293.85	4063.57
297.937	1734.98
302.023	777.596
306.107	471.17
310.189	365.5
314.269	260.453
318.347	395.918
322.423	721.805
326.497	1398.05
330.569	1174.59
334.639	551.395
338.707	148.424
342.773	235.646
346.837	183.037
350.899	50.539
354.96	48.207
359.018	113.996
363.074	186.203
367.128	51.521
371.181	50.713
375.231	42.906
379.28	155.199
383.326	82.398
387.37	49.943
391.413	67.463
395.454	454.977
399.492	462.615
403.529	579.885
407.564	616.879
411.596	483.533
415.627	429.838
419.656	136.092
423.683	62.344
427.708	121.383
431.731	61.477
435.752	18.705
439.772	34.676
443.789	365.969
447.804	265.289
451.817	893.643
455.829	1062.33
459.838	927.922
463.846	696.289
467.852	973.24
471.855	2648.61
475.857	5943.87
479.857	6179.01
483.855	2974.04
487.851	1488.93
491.845	1323.67
495.837	1878.28
499.828	4292.97
503.816	10317.3
507.802	11154.8
511.787	5514.36
515.77	2294.59
519.75	1498.31
523.729	764.213
527.706	725.613
531.681	464.193
535.654	267.979
539.625	268.68
543.595	387.387
547.562	226.051
551.527	168.309
555.491	110.525
559.453	182.49
563.412	414.258
567.37	426.109
571.326	217.498
575.28	428.701
579.233	519.719
583.183	262.9
587.131	230.467
591.078	28.92
595.022	135.719
598.965	14.871
602.906	54.182
606.845	113.047
610.782	118.449
614.718	139.514
618.651	17.264
622.582	34.758
626.512	112.025
630.44	399.113
634.366	176.025
638.29	382.76
642.212	229.322
646.132	485.709
650.05	301.93
653.967	147.982
657.882	113.869
661.794	10.414
665.705	285.059
669.614	20.305
673.522	95.182
677.427	40.209
681.331	54.232
685.232	48.564
689.132	172.654
693.03	6.609
696.926	16.475
700.82	114.834
704.713	163.85
708.603	75.594
712.492	43.408
716.379	297.656
720.264	270.918
724.147	154.072
728.028	357.117
731.908	200.066
735.785	27.07
739.661	95.641
743.535	105.486
747.407	195.061
751.278	393.025
755.146	555.381
759.013	1573.79
762.878	2003.75
766.741	1352.89
770.602	573.195
774.461	443.502
778.319	374.016
782.174	226.586
786.028	339.168
789.88	241.764
793.73	214.379
797.579	267.016
801.425	309.688
805.27	482.391
809.113	1085.14
812.954	2357.68
816.794	1667.6
820.631	830.047
824.467	436.199
828.301	393.367
832.133	336.715
835.963	215.359
839.792	188.539
843.618	352.77
847.443	104.617
851.266	219.785
855.088	333.312
858.907	76.918
862.725	50.59
866.541	115.766
870.355	228.016
874.167	161.973
877.978	176.016
881.787	60.492
885.594	185.145
889.399	127.668
893.202	162.754
897.004	328.051
900.803	203.566
904.601	239.352
908.398	95.414
912.192	151.754
915.985	368.445
919.776	225.402
923.565	304.02
927.352	250.16
931.138	337.848
934.922	135.727
938.704	103.781
942.484	502.02
946.262	200.449
950.039	439.07
953.814	387.895
957.587	136.922
961.359	466.156
965.128	485.613
968.896	595.297
972.662	925.246
976.427	1255.5
980.189	896.09
983.95	717.02
987.709	498.266
991.467	589.793
995.222	521.648
998.976	351.633
1002.73	632.102
1006.48	509.121
1010.23	862.164
1013.97	812.059
1017.72	772.68
1021.46	506.891
1025.2	686.977
1028.94	961.57
1032.68	1052.9
1036.42	972.75
1040.15	754.418
1043.89	837.02
1047.62	776.465
1051.35	723.25
1055.07	459.32
1058.8	545.23
1062.52	610.672
1066.25	656.059
1069.97	491.285
1073.69	457.426
1077.4	532.438
1081.12	497.062
1084.83	672.398
1088.55	998.117
1092.26	1294.23
1095.96	1660.72
1099.67	1567.62
1103.38	1064.93
1107.08	852.629
1110.78	900.73
1114.48	859.219
1118.18	888.289
1121.88	827.961
1125.57	468.191
1129.27	158.441
1132.96	198.84
1136.65	0.715
1140.34	370.016
1144.02	631.047
1147.71	322.5
1151.39	304.398
1155.07	86.859
1158.75	79.988
1162.43	243.84
1166.11	218.418
1169.78	313.734
1173.45	429.836
1177.12	406.727
1180.79	134.434
1184.46	56.934
1188.13	170.57
1191.79	191.5
1195.45	313.863
1199.11	264.234
1202.77	514.828
1206.43	263.727
1210.09	267.762
1213.74	34.605
1217.39	8.969
1221.05	153.703
1224.69	332.133
