Measurement: Raman, 514 nm, ccw, Raman Data Processed
Mineral: Albite
Rruff sample: R050253
Ideal chemistry: NaAlSi_3_O_8_
Locality: Madawaska/Faraday mine, Bancroft, Ontario, Canada
Source: Marcus Origlieri
Description: Colorless to brown prismatic single crystals
Measured chemistry: (Na_0.99_Ca_0.01_)Al_1.00_(Si_0.99_Al_0.01_)_3_O_8_
Pin_id: L01944
Orientation: Laser parallel to (0 -1 -1). Fiducial mark perpendicular to laser is parallel to a [1 0 0]
Raman shift (cm-1)	intensity
94.714	0
99.649	264.394
104.582	964.667
109.512	3355.96
114.44	6217.81
119.365	3605.37
124.288	756.486
129.209	26.8281
134.127	161.31
139.043	826.225
143.956	1885.97
148.867	3473.21
153.775	4171
158.681	6192.52
163.585	11188.6
168.486	9796.18
173.385	9498.4
178.282	7851.27
183.176	9576.45
188.067	11436.3
192.956	8383.31
197.843	5785.06
202.727	5708.56
207.609	7535.3
212.489	9475.35
217.366	3280.97
222.24	805.104
227.112	225.707
231.982	215.084
236.849	19.6465
241.714	409.33
246.577	863.269
251.437	2554.1
256.294	2597.25
261.149	1744.25
266.002	1307.43
270.852	2313.32
275.7	2450.88
280.545	4142.21
285.388	8592.31
290.229	18901.9
295.067	18393.3
299.902	6000.5
304.735	2485.03
309.566	1358.81
314.394	1160.66
319.22	1245.66
324.043	2212.82
328.864	5877.11
333.682	4364.55
338.498	1219.1
343.311	477.723
348.122	421.391
352.931	213.791
357.737	134.809
362.54	59.4844
367.341	158.068
372.14	25.4453
376.936	240.223
381.73	108.189
386.521	143.75
391.31	152.367
396.096	410.565
400.88	954.93
405.661	1533.41
410.44	2990.03
415.216	1561.81
419.99	1163.72
424.761	338.848
429.53	9.0625
434.297	35.2695
439.061	59.0371
443.822	327.34
448.581	239.596
453.337	447.856
458.091	1031.06
462.843	1132.23
467.592	1873.3
472.338	4650.25
477.082	11094.1
481.824	15028.8
486.563	6179.34
491.3	3250.78
496.034	4519.09
500.765	9210.27
505.494	22875
510.221	29983.7
514.945	11893.5
519.666	4816.42
524.385	2474.84
529.102	1760.92
533.816	1325.44
538.527	898.164
543.236	941.727
547.943	792.561
552.647	526.898
557.348	483.547
562.047	576.789
566.744	461.154
571.438	850.307
576.129	926.031
580.818	1552.57
585.504	829.938
590.188	288.473
594.87	77.834
599.549	74.5977
604.225	75.4785
608.899	420.461
613.57	159.35
618.239	377.973
622.905	334.793
627.569	412.566
632.23	1016.27
636.889	1060.91
641.545	1148.41
646.198	1528.84
650.849	1168.38
655.498	630.979
660.144	431.644
664.787	338.219
669.428	251.373
674.067	388.752
678.703	182.977
683.336	261.977
687.967	8.875
692.595	13.9707
697.221	66.8867
701.844	85.7695
706.465	33.1641
711.083	27.4648
715.698	12.9453
720.311	189.35
724.922	28.7559
729.53	69.041
734.135	144.348
738.738	33.3184
743.338	294.83
747.936	127.041
752.531	325.019
757.124	794.873
761.714	1764.03
766.302	2368.96
770.887	1074.15
775.469	1031.43
780.049	439.914
784.626	409.387
789.201	312.346
793.773	180.059
798.343	423.039
802.91	595.193
807.475	1206.4
812.037	2470.72
816.596	4008.4
821.153	2571.6
825.707	596.731
830.259	673.055
834.808	315.096
839.355	98.3457
843.899	331.943
848.441	25.7617
852.98	141.336
857.516	317.057
862.05	274.275
866.581	20.957
871.11	11.8691
875.636	96.6289
880.159	105.133
884.68	43.9336
889.199	0.339844
893.714	49.2266
898.228	22.8789
902.738	50.5039
907.246	38.4375
911.752	183.125
916.255	145.328
920.755	131.859
925.253	43.2383
929.748	270.606
934.241	167.852
938.731	206.777
943.218	89.8477
947.703	319.754
952.186	426.578
956.665	129.144
961.142	502.504
965.617	464.852
970.089	513.172
974.558	707.832
979.025	874.508
983.489	678.973
987.951	534.106
992.41	366.965
996.866	317.898
1001.32	716.34
1005.77	1000.52
1010.22	1226.85
1014.67	1577.73
1019.11	1238.18
1023.55	913.633
1027.99	1240.95
1032.42	1812.59
1036.86	1283.16
1041.29	606.856
1045.72	569.055
1050.14	517.832
1054.56	278.039
1058.98	228.328
1063.4	216.453
1067.82	123.426
1072.23	602.918
1076.64	547.574
1081.05	622.141
1085.45	951.977
1089.85	1382.93
1094.25	2094.02
1098.65	3199.46
1103.04	3530.88
1107.43	2180.58
1111.82	1959.17
1116.21	2244.9
1120.59	2337.91
1124.97	1415.2
1129.35	819.383
1133.73	551.312
1138.1	363.254
1142.47	232.867
1146.84	77.3242
1151.21	442.168
1155.57	225.199
1159.93	607.582
1164.29	701.422
1168.64	167.465
1172.99	223.816
1177.34	287.562
1181.69	69.5664
1186.04	210.758
1190.38	195.394
1194.72	181.523
1199.05	147.918
1203.39	267.18
1207.72	115.719
1212.05	34.957
1216.37	275.004
1220.7	214.086
1225.02	80.1836
1229.34	15.0078
1233.65	14.6875
1237.97	391.367
1242.28	81.8555
1246.59	503.094
1250.89	255.793
1255.19	274.199
1259.49	220.758
1263.79	512.543
1268.09	289.582
1272.38	326.066
1276.67	368.176
1280.95	488.961
1285.24	549.047
1289.52	409.246
1293.8	500.582
1298.08	397.477
1302.35	579.375
1306.62	352.773
1310.89	472.285
1315.15	402.836
1319.42	320.375
1323.68	745.945
1327.94	569.621
1332.19	644.652
1336.44	623.945
1340.69	636.742
1344.94	486.215
1349.19	557.047
1353.43	481.617
1357.67	530.695
1361.9	325.418
1366.14	297.473
1370.37	55.1914
1374.6	430.363
1378.83	201.293
1383.05	29.3906
1387.27	90.3359
1391.49	59.0977
1395.7	21.4688
1399.92	320.152
1404.13	64.8672
1408.34	192.438
1412.54	217.43
1416.74	261.231
1420.94	83.8945
1425.14	19.7188
1429.34	174.844
1433.53	194.418
1437.72	322.203
1441.9	213.742
1446.09	212.871
1450.27	66.7812
1454.45	207.059
1458.63	322.324
1462.8	551.172
1466.97	305.941
1471.14	263.344
1475.31	582.66
1479.47	678.316
1483.63	975.156
1487.79	1000.71
1491.94	873.254
1496.09	617.809
1500.24	712.316
1504.39	562.699
1508.54	590.992
1512.68	898.695
1516.82	467.062
1520.95	666.973
1525.09	831.918
1529.22	57.5312
1533.35	146.559
1537.47	416.195
1541.6	76.2617
1545.72	75.7188
1549.83	581.293
1553.95	844.406
1558.06	319
1562.17	314.703
1566.28	217.957
1570.38	0
