Measurement: Raman, 514 nm, ccw, Raman Data Processed
Mineral: Albite
Rruff sample: R040068
Ideal chemistry: NaAlSi_3_O_8_
Locality: Harding Pegmatite, Dixon, New Mexico, USA
Source: University of Arizona Mineral Museum
Description: Tan colored crystal fragment
Measured chemistry: (Na_0.99_Ca_0.01_)Al_1.00_(Si_0.99_Al_0.01_)_3_O_8_
Pin_id: L00307
Orientation: Laser parallel to c* (0 0 1). Fiducial mark perpendicular to laser is parallel to -a [-1 0 0]
Raman shift (cm-1)	intensity
116.172	0
120.347	68.429
124.519	196.861
128.69	351.615
132.858	583.116
137.025	1044.17
141.189	2335.59
145.352	4611.38
149.512	5608.12
153.67	3174.4
157.827	1257.94
161.981	886.764
166.133	1099.5
170.283	1535.35
174.431	1973.83
178.577	3056.06
182.721	4284.64
186.863	4256.73
191.003	2799.22
195.141	1811.87
199.277	1754.87
203.411	2897.12
207.543	3939.02
211.673	2791.04
215.801	1153.39
219.927	586.169
224.051	139.406
228.173	193.112
232.292	127.271
236.41	143.137
240.526	296.749
244.64	669.405
248.752	1374.03
252.861	1197.99
256.969	630.664
261.075	793.191
265.179	1206.1
269.281	1489.26
273.38	862.965
277.478	769.691
281.574	1308.71
285.668	2730.22
289.76	4046.9
293.85	2586.45
297.937	1108.06
302.023	471.205
306.107	305.576
310.189	160.918
314.269	77.016
318.347	343.723
322.423	730.914
326.497	1578.51
330.569	1236.43
334.639	404.646
338.707	123.109
342.773	181.766
346.837	170.535
350.899	40.641
354.96	11.826
359.018	83.082
363.074	144.41
367.128	175.818
371.181	137.367
375.231	48.979
379.28	150.637
383.326	82.408
387.37	64.279
391.413	105.475
395.454	371.982
399.492	540.031
403.529	737.613
407.564	1126.17
411.596	1532.69
415.627	2078.86
419.656	884.9
423.683	280.914
427.708	58.074
431.731	73.32
435.752	153.979
439.772	339.949
443.789	607.412
447.804	1002.87
451.817	2622.97
455.829	3543.66
459.838	2433.59
463.846	1654.34
467.852	2184
471.855	4459.83
475.857	10395.7
479.857	10481
483.855	4776.12
487.851	2581.13
491.845	1995.97
495.837	2880.67
499.828	6415.18
503.816	15469.5
507.802	16314.2
511.787	7887.53
515.77	3485.68
519.75	1954.9
523.729	1334.51
527.706	949.016
531.681	689.273
535.654	584.471
539.625	501.695
543.595	433.234
547.562	263.656
551.527	264.332
555.491	276.408
559.453	250.543
563.412	412.088
567.37	343.445
571.326	274.65
575.28	645.674
579.233	786.521
583.183	397.191
587.131	237.375
591.078	154.605
595.022	204.684
598.965	114.365
602.906	6.301
606.845	102.65
610.782	71.299
614.718	129.627
618.651	147.645
622.582	65.393
626.512	122.822
630.44	180.014
634.366	177.018
638.29	173.846
642.212	220.504
646.132	436.994
650.05	413.32
653.967	119.488
657.882	175.496
661.794	161.348
665.705	227.043
669.614	52.568
673.522	197.992
677.427	16.713
681.331	71.508
685.232	66.453
689.132	318.498
693.03	103.301
696.926	98.23
700.82	37.121
704.713	42.596
708.603	142.045
712.492	366.158
716.379	306.23
720.264	110.375
724.147	39.373
728.028	191.551
731.908	265.137
735.785	178.643
739.661	392.078
743.535	465.447
747.407	648.283
751.278	796.766
755.146	1589.63
759.013	4047.06
762.878	5754.51
766.741	3172.93
770.602	1432.01
774.461	699.516
778.319	438.443
782.174	554.461
786.028	491.316
789.88	384.131
793.73	267.371
797.579	430.641
801.425	573.955
805.27	1137.31
809.113	2640.69
812.954	5164.15
816.794	3927.68
820.631	1720.74
824.467	753.004
828.301	886.09
832.133	498.871
835.963	396.035
839.792	94.094
843.618	431.5
847.443	48.25
851.266	277.414
855.088	328.152
858.907	17.277
862.725	3.281
866.541	178.684
870.355	73.754
874.167	128.797
877.978	6.082
881.787	139.168
885.594	94.609
889.399	180.223
893.202	226.004
897.004	151.969
900.803	368.199
904.601	234.66
908.398	21.508
912.192	98.617
915.985	207.566
919.776	133.691
923.565	1.625
927.352	319.828
931.138	188.277
934.922	117.012
938.704	295.965
942.484	355.121
946.262	394.465
950.039	404
953.814	173.727
957.587	313.652
961.359	503.785
965.128	564.125
968.896	384.672
972.662	635.445
976.427	916.461
980.189	748.773
983.95	200.375
987.709	532.27
991.467	484.496
995.222	437.07
998.976	440.012
1002.73	732.984
1006.48	816.508
1010.23	710.344
1013.97	904.152
1017.72	574.438
1021.46	344.559
1025.2	439.266
1028.94	339.648
1032.68	627.629
1036.42	763.473
1040.15	579.566
1043.89	805.961
1047.62	738.434
1051.35	745.527
1055.07	617.09
1058.8	594.523
1062.52	452.07
1066.25	609.73
1069.97	387.672
1073.69	345.527
1077.4	413.094
1081.12	602.348
1084.83	899.801
1088.55	1057.1
1092.26	1114.32
1095.96	1730.65
1099.67	1567.92
1103.38	1124.47
1107.08	843.602
1110.78	592.031
1114.48	550.82
1118.18	410.004
1121.88	909.562
1125.57	559.504
1129.27	189.824
1132.96	40.523
1136.65	131.645
1140.34	313.078
1144.02	394.855
1147.71	286.766
1151.39	358.789
1155.07	251.082
1158.75	133.68
1162.43	136.617
1166.11	59.422
1169.78	43.742
1173.45	398.191
1177.12	293.25
1180.79	208.945
1184.46	112.559
1188.13	109.363
1191.79	206.812
1195.45	104.949
1199.11	323.887
1202.77	663.738
1206.43	413.941
1210.09	329.305
1213.74	226.297
1217.39	406.199
1221.05	305.91
1224.69	435.684
1228.34	441.785
1231.99	234.035
1235.63	339.422
1239.27	446.348
