Measurement: Raman, 514 nm, ccw, Raman Data Processed
Mineral: Albite
Rruff sample: R040068
Ideal chemistry: NaAlSi_3_O_8_
Locality: Harding Pegmatite, Dixon, New Mexico, USA
Source: University of Arizona Mineral Museum
Description: Tan colored crystal fragment
Measured chemistry: (Na_0.99_Ca_0.01_)Al_1.00_(Si_0.99_Al_0.01_)_3_O_8_
Pin_id: L00467
Orientation: Laser parallel to a* (1 0 0). Fiducial mark perpendicular to laser is parallel to -b [0 -1 0]
Raman shift (cm-1)	intensity
123.129	0
127.3	14.252
131.469	6.728
135.636	326.221
139.801	1620.67
143.964	3484.24
148.125	4346.4
152.284	3896.98
156.441	3295.22
160.596	4330.1
164.749	5142.73
168.9	5873.72
173.049	5143.4
177.195	5430.35
181.34	7377.87
185.483	8276.52
189.624	6039.13
193.762	3753.97
197.899	2647.83
202.034	3581.69
206.166	5945.92
210.297	5599.52
214.425	2552.91
218.552	846.297
222.676	169.702
226.799	33.097
230.919	203.559
235.038	210.019
239.154	84.013
243.269	682.759
247.381	2185.92
251.492	2983.5
255.6	1553.71
259.707	850.385
263.811	1396.5
267.914	2452.31
272.014	2128.08
276.113	1801.61
280.209	3030.7
284.304	7273.63
288.396	13770.3
292.487	11917.9
296.575	5439.07
300.662	2161.51
304.746	1074.58
308.829	557.935
312.909	401.386
316.988	314.745
321.065	1027.78
325.139	3150.51
329.212	3782.96
333.283	1715.16
337.351	717.105
341.418	448.288
345.483	367.77
349.546	346.847
353.606	165.783
357.665	144.528
361.722	33.149
365.777	28.468
369.83	39.56
373.881	767.321
377.93	25.109
381.977	77.814
386.023	30.854
390.066	153.872
394.107	666.242
398.146	1100.04
402.184	915.556
406.219	1231.23
410.252	936.379
414.284	1260.96
418.313	794.84
422.341	228.277
426.367	48.441
430.39	54.548
434.412	2.479
438.432	30.002
442.45	623.72
446.466	1146.87
450.48	1098.84
454.492	2120.65
458.502	1882.55
462.51	1334.08
466.517	1504.67
470.521	3235
474.523	8105.06
478.524	12844.9
482.523	8034.4
486.519	4233.68
490.514	2722.69
494.507	3241.44
498.498	5909.93
502.487	15538.5
506.474	25316.9
510.459	16275.9
514.442	7163.22
518.424	3413.61
522.403	2226.01
526.381	1492.2
530.356	1083.53
534.33	825.768
538.302	422.268
542.272	584.904
546.24	440.869
550.206	371.098
554.17	175.305
558.132	150.338
562.093	326.207
566.051	221.834
570.008	497.529
573.963	672.85
577.915	1141.6
581.866	956.549
585.815	434.469
589.763	471.367
593.708	200.631
597.651	22.113
601.593	310.566
605.532	244.271
609.47	177.787
613.406	71.115
617.34	114.232
621.272	277.162
625.202	459.93
629.131	702.566
633.057	765.033
636.982	637.332
640.905	689.467
644.825	941.441
648.744	923.256
652.662	574.92
656.577	176.422
660.49	287.773
664.402	58.961
668.312	129.973
672.219	110.83
676.125	138.527
680.03	31.693
683.932	68.17
687.832	18.174
691.731	8.344
695.628	48.732
699.522	75.395
703.415	33.936
707.307	66.148
711.196	40.717
715.083	137.234
718.969	425.701
722.853	63.959
726.735	182.416
730.615	70.541
734.493	328.525
738.37	174.648
742.244	302.389
746.117	264.725
749.988	562.264
753.857	967.416
757.724	2074.67
761.59	3582.39
765.453	2909.42
769.315	1445.98
773.175	922.809
777.033	679.826
780.889	391.375
784.744	388.633
788.596	302.455
792.447	332.951
796.296	250.021
800.143	477.037
803.989	954
807.832	1882.02
811.674	3657.79
815.514	4364.24
819.352	2699.97
823.189	1095.89
827.023	682.004
830.856	483.725
834.687	264.934
838.516	372.764
842.343	171.172
846.169	185.125
849.992	143.035
853.814	186.629
857.634	17.617
861.453	142.582
865.269	284.854
869.084	72.41
872.897	88.867
876.708	295.197
880.517	321.941
884.325	128.398
888.13	91.773
891.934	158.305
895.737	115.191
899.537	71.625
903.336	11.492
907.132	175.447
910.928	192.477
914.721	159.572
918.512	206.363
922.302	233.893
926.09	201.156
929.876	418.512
933.66	355.91
937.443	203.377
941.224	330.945
945.003	138.613
948.78	456.385
952.556	474.273
956.33	422.279
960.102	470.41
963.872	498.674
967.64	1047.08
971.407	1665.64
975.172	2644.36
978.935	2783.23
982.697	1852.38
986.456	771.852
990.214	441.586
993.971	541.643
997.725	761.973
1001.48	942.609
1005.23	669.775
1008.98	740.566
1012.73	682.236
1016.47	959.742
1020.22	933.957
1023.96	1116.91
1027.7	1571.89
1031.44	1905.41
1035.17	1489.44
1038.91	963.73
1042.64	648.297
1046.37	857.516
1050.1	839.426
1053.83	590.195
1057.56	631.822
1061.28	633.697
1065.01	305.834
1068.73	343.504
1072.45	626.064
1076.16	728.92
1079.88	712.078
1083.6	735.553
1087.31	1009.35
1091.02	1343.49
1094.73	2227.96
1098.44	2922.76
1102.14	2407.89
1105.85	1893.47
1109.55	1449.56
1113.25	1256.17
1116.95	1042.59
1120.65	619.238
1124.34	606.539
1128.04	624.438
1131.73	402.971
1135.42	342.324
1139.11	142.576
1142.79	83.662
1146.48	485.645
1150.16	598.621
1153.84	762.699
1157.52	487.979
1161.2	664.713
1164.88	143.176
1168.56	203.648
1172.23	143.564
1175.9	231.992
1179.57	350.959
1183.24	463.084
1186.9	197.879
1190.57	474.158
1194.23	114.885
1197.89	28.234
