Measurement: Raman, 514 nm, ccw, Raman Data Processed
Mineral: Albite
Rruff sample: R050253
Ideal chemistry: NaAlSi_3_O_8_
Locality: Madawaska/Faraday mine, Bancroft, Ontario, Canada
Source: Marcus Origlieri
Description: Colorless to brown prismatic single crystals
Measured chemistry: (Na_0.99_Ca_0.01_)Al_1.00_(Si_0.99_Al_0.01_)_3_O_8_
Pin_id: L01266
Orientation: Laser parallel to (-1 -1 0). Fiducial mark perpendicular to laser is parallel to c [0 0 1]
Raman shift (cm-1)	intensity
109.512	0
114.44	24.0674
119.365	76.8506
124.288	85.1826
129.209	54.8594
134.127	866.896
139.043	2662.08
143.956	4790.48
148.867	7981.46
153.775	14736.2
158.681	19507.1
163.585	25311
168.486	18963.3
173.385	14523.9
178.282	15714.4
183.176	17867.9
188.067	17988.6
192.956	12597
197.843	8927.94
202.727	10489.8
207.609	11803
212.489	11888.2
217.366	4819.51
222.24	1587.93
227.112	694.44
231.982	118.035
236.849	47.1397
241.714	1.54394
246.577	205.113
251.437	589.93
256.294	658.789
261.149	1243.6
266.002	1615.21
270.852	2755.36
275.7	3897.27
280.545	9374.7
285.388	17973
290.229	26252.9
295.067	22513.5
299.902	8559.72
304.735	4310.3
309.566	2596.16
314.394	2029.25
319.22	1597.53
324.043	1873.84
328.864	2470.09
333.682	1946.28
338.498	652.176
343.311	449.537
348.122	351.612
352.931	369.32
357.737	40.4209
362.54	0.352539
367.341	55.1982
372.14	134.214
376.936	32.8506
381.73	123.178
386.521	52.2432
391.31	127.792
396.096	609.997
400.88	1895.16
405.661	2363.47
410.44	3238.96
415.216	1183.91
419.99	579.109
424.761	133.5
429.53	47.8701
434.297	114.555
439.061	220.495
443.822	440.479
448.581	1402.36
453.337	2330.14
458.091	3644.8
462.843	4155.34
467.592	7908.82
472.338	19585.1
477.082	30468.2
481.824	31929.2
486.563	14123
491.3	8107.68
496.034	11443.2
500.765	27105.4
505.494	42242.3
510.221	45353
514.945	20180.1
519.666	8211.01
524.385	4390.46
529.102	2748.79
533.816	2541.89
538.527	1489.09
543.236	1164.11
547.943	927.769
552.647	765.137
557.348	809.541
562.047	565.992
566.744	883.822
571.438	1186.97
576.129	1591.91
580.818	1645.62
585.504	932.217
590.188	400.685
594.87	313.539
599.549	102.225
604.225	214.53
608.899	214.707
613.57	249.817
618.239	222.952
622.905	472.005
627.569	666.915
632.23	976.674
636.889	1052.26
641.545	1225.65
646.198	1212
650.849	970.414
655.498	563.099
660.144	268.029
664.787	346.295
669.428	62.751
674.067	123.159
678.703	3.30273
683.336	7.00977
687.967	15.2315
692.595	105.095
697.221	11.5986
701.844	92.6924
706.465	73.917
711.083	26.5771
715.698	94.2842
720.311	232.274
724.922	89.5478
729.53	129.236
734.135	108.966
738.738	169.051
743.338	339.435
747.936	412.137
752.531	913.131
757.124	2142.02
761.714	3538.24
766.302	4115.89
770.887	2892.62
775.469	2550.8
780.049	1705.7
784.626	781.391
789.201	603.711
793.773	520.74
798.343	641.477
802.91	887.989
807.475	1916.63
812.037	3777.91
816.596	4810.85
821.153	2797.72
825.707	1059.69
830.259	621.27
834.808	444.82
839.355	361.794
843.899	172.069
848.441	288.215
852.98	118.126
857.516	62.1797
862.05	80.5703
866.581	100.606
871.11	52.0645
875.636	56.3223
880.159	28.3545
884.68	34.2353
889.199	62.4785
893.714	44.1318
898.228	144.986
902.738	126.011
907.246	69.9453
911.752	180.856
916.255	15.8047
920.755	173.765
925.253	105.736
929.748	159.822
934.241	147.093
938.731	159.483
943.218	259.028
947.703	315.703
952.186	569.547
956.665	717.858
961.142	741.453
965.617	558.423
970.089	793.859
974.558	1164.71
979.025	1504
983.489	1006.8
987.951	844.968
992.41	790.539
996.866	749.706
1001.32	1079.7
1005.77	1364.35
1010.22	1676.84
1014.67	1675.49
1019.11	1421.41
1023.55	1131.81
1027.99	1190.13
1032.42	1412.4
1036.86	1062.81
1041.29	688.168
1045.72	677.852
1050.14	482.275
1054.56	444.171
1058.98	318.87
1063.4	576.862
1067.82	617.072
1072.23	913.684
1076.64	1086.22
1081.05	1602.46
1085.45	2602.94
1089.85	4446.95
1094.25	8046.03
1098.65	11853.4
1103.04	10725.5
1107.43	7975.73
1111.82	6947.13
1116.21	6405.85
1120.59	5014.87
1124.97	3241.08
1129.35	1756
1133.73	1086.34
1138.1	741.039
1142.47	517.168
1146.84	576.639
1151.21	352.935
1155.57	528.807
1159.93	306.596
1164.29	349.902
1168.64	289.492
1172.99	221.369
1177.34	12.2832
1181.69	140.787
1186.04	191.34
1190.38	19.1172
1194.72	101.975
1199.05	28.793
1203.39	160.904
1207.72	122.844
1212.05	128.078
1216.37	161.797
1220.7	2.96094
1225.02	64.4258
1229.34	20.0684
1233.65	66.4277
1237.97	156.695
1242.28	32.1738
1246.59	227.709
1250.89	51.9297
1255.19	167.172
1259.49	39.4277
1263.79	155.894
1268.09	165.275
1272.38	102.213
1276.67	299.252
1280.95	172.541
1285.24	112.352
1289.52	182.482
1293.8	290.576
1298.08	230.488
1302.35	233.957
1306.62	211.59
1310.89	176.443
1315.15	260.451
1319.42	46.2207
1323.68	150.691
1327.94	42.4297
1332.19	174.32
1336.44	33.5762
1340.69	201.332
1344.94	97.6699
1349.19	54.0547
1353.43	46.2148
1357.67	62.3164
1361.9	203.606
1366.14	133.643
1370.37	246.529
1374.6	21.3066
1378.83	153.135
1383.05	228.471
1387.27	76.1973
1391.49	120.078
1395.7	87.8359
1399.92	58.8633
1404.13	97.8203
1408.34	30.6426
1412.54	275.055
1416.74	70.5742
1420.94	220.682
1425.14	125.805
1429.34	259.342
1433.53	283.662
1437.72	7.84961
1441.9	116.106
1446.09	301.441
1450.27	245.504
1454.45	197.957
1458.63	206.594
1462.8	308.336
1466.97	142.723
1471.14	192.113
1475.31	86.584
1479.47	189.953
1483.63	46.668
1487.79	171.435
1491.94	49.1387
1496.09	262.338
1500.24	236.367
1504.39	229.781
1508.54	150.387
1512.68	50.5137
1516.82	221.139
1520.95	348.572
1525.09	125.809
1529.22	55.375
1533.35	164.098
1537.47	66.8301
1541.6	204.281
1545.72	52.0391
1549.83	122.281
1553.95	369.545
1558.06	274.965
1562.17	73.3711
1566.28	58.3691
1570.38	0
