Measurement: Raman, 514 nm, ccw, Raman Data Processed
Mineral: Albite
Rruff sample: R050402
Ideal chemistry: NaAlSi_3_O_8_
Locality: Urbano mine, Golconda District, Brazil
Source: Bob Downs
Description: Colorless tabular single crystals associated with fluorapatite R050401
Measured chemistry: Na_1.00_Al_1.00_Si_3.00_O_8_
Pin_id: M00171
Orientation: Laser parallel to (1 1 0). Fiducial mark perpendicular to laser is parallel to c [0 0 1]
Raman shift (cm-1)	intensity
81.131	0
86.072	1824.25
91.012	2393.52
95.948	217.803
100.883	276.683
105.815	1737.69
110.744	3015.64
115.671	3524.69
120.596	795.15
125.519	169.601
130.439	50.269
135.356	993.812
140.271	2714.43
145.184	5540.82
150.094	8292.37
155.002	9797.02
159.908	10835.2
164.811	12712.6
169.711	10316.4
174.61	11030.4
179.505	12255.9
184.399	13734
189.29	12440.3
194.178	8252.72
199.064	7430.07
203.948	8422.31
208.829	9194.42
213.708	6278.37
218.585	1808.15
223.459	421.692
228.33	203.903
233.199	313.259
238.066	996.13
242.93	3280.19
247.792	5759.71
252.651	9216.47
257.508	5686.81
262.363	3791.05
267.215	5178.97
272.064	6786.19
276.912	7017.54
281.756	13510.5
286.598	22517.8
291.438	30835.8
296.276	19006.5
301.111	6528.47
305.943	3079.58
310.773	2173.4
315.601	1998.91
320.426	3862.12
325.248	6279.03
330.068	9286.68
334.886	4514.06
339.701	1330.15
344.514	674.96
349.324	497.47
354.132	306.141
358.938	42.4243
363.741	147.228
368.541	169.456
373.339	129.346
378.135	89.312
382.928	91.4243
387.718	214.089
392.506	887.251
397.292	1921.11
402.075	3302.8
406.856	3833.53
411.634	3821.17
416.41	2725.84
421.183	1463.01
425.954	355.383
430.722	75.7334
435.488	41.7075
440.251	186.195
445.012	339.279
449.77	768.011
454.526	1050.42
459.28	1504.5
464.03	2243.22
468.779	5462.6
473.525	12297.6
478.268	18785.3
483.009	15244.7
487.747	7046.66
492.483	6250.33
497.217	12754.7
501.948	28874
506.676	43858.6
511.402	35601
516.125	12916.4
520.846	5429.28
525.565	2839.44
530.281	1881.75
534.994	1252.73
539.705	891.227
544.413	744.828
549.119	492.604
553.822	478.498
558.523	534.62
563.222	456.284
567.917	703.263
572.611	1034.43
577.302	1501.39
581.99	1355.59
586.676	582.371
591.359	419.153
596.04	171.015
600.718	236.7
605.394	201.208
610.067	181.547
614.737	359.764
619.406	491.9
624.071	1013.96
628.734	1452.89
633.395	1810.72
638.053	1872.4
642.708	2049.98
647.361	2190.97
652.012	1504.57
656.66	706.966
661.305	287.146
665.948	151.169
670.588	54.3623
675.226	131.355
679.861	76.1592
684.494	0.535156
689.124	18.9854
693.752	27.0449
698.377	47.8584
702.999	28.4961
707.619	47.9717
712.237	73.7744
716.852	116.343
721.464	185.746
726.074	187.987
730.681	61.0137
735.286	117.969
739.888	128.861
744.488	287.292
749.085	494.326
753.68	1083.21
758.272	2506.03
762.861	4079.1
767.448	3201.01
772.033	1451.16
776.614	1062.6
781.194	574.498
785.77	516.266
790.345	297.776
794.916	402.497
799.485	551.327
804.052	725.213
808.616	2018.34
813.177	3605.64
817.736	3586.67
822.292	1700.88
826.846	661.976
831.397	471.211
835.945	408.17
840.491	300.834
845.035	189.323
849.576	75.6201
854.114	97.8525
858.65	148.546
863.183	60.1465
867.713	159.562
872.241	81.0957
876.767	14.4023
881.29	17.4395
885.81	41.4746
890.328	6.33398
894.843	56.9678
899.356	125.411
903.866	111.728
908.373	3.03027
912.878	97.1885
917.38	49.3525
921.88	35.5147
926.377	106.679
930.872	8.93066
935.364	27.9404
939.853	47.9883
944.34	150.097
948.824	146.255
953.306	246.468
957.785	260.021
962.261	369.924
966.735	539.115
971.207	1028.69
975.675	1734.74
980.141	2277.26
984.605	1259.11
989.066	844.049
993.524	447.124
997.98	753.304
1002.43	1167.62
1006.88	1788.92
1011.33	1971.2
1015.78	2033.89
1020.22	1522.94
1024.66	1614.07
1029.1	2229.27
1033.53	2746.17
1037.97	1889.21
1042.4	946.662
1046.82	584.433
1051.25	540.431
1055.67	297.938
1060.09	261.847
1064.51	320.949
1068.92	369.817
1073.33	409.955
1077.74	450.188
1082.15	749.369
1086.55	938.63
1090.95	1857.3
1095.35	3200.01
1099.75	4509.39
1104.14	3647.66
1108.53	2706.95
1112.92	2272.3
1117.31	2238.8
1121.69	1686.44
1126.07	1029.36
1130.45	635.515
1134.82	351.76
1139.19	261.891
1143.57	204.779
1147.93	393.532
1152.3	330.493
1156.66	253.611
1161.02	136.987
1165.38	134.592
1169.73	111.425
1174.08	288.329
1178.43	152.336
1182.78	102.497
1187.12	75.2734
1191.46	67.7861
1195.8	17.1025
1200.14	134.763
1204.47	225.44
1208.8	20.7734
1213.13	89.1846
1217.46	52.6816
1221.78	156.278
1226.1	90.8672
1230.42	171.526
1234.73	59.252
1239.04	120.925
1243.35	195.621
1247.66	111.49
1251.97	201.056
1256.27	165.086
1260.57	167.275
1264.86	333.548
1269.16	193.899
1273.45	197.33
1277.74	234.837
1282.03	76.415
1286.31	201.062
1290.59	252.811
1294.87	137.178
1299.14	349.64
1303.42	232.544
1307.69	233.466
1311.95	353.433
1316.22	179.239
1320.48	191.591
1324.74	235.775
1329	159.319
1333.26	118.562
1337.51	22.6445
1341.76	62.0303
1346	2.59375
1350.25	16.0127
1354.49	104.391
1358.73	131.349
1362.96	211.645
1367.2	667.651
1371.43	152.026
1375.66	236.332
1379.88	159.842
1384.11	137.707
1388.33	139.465
1392.54	204.255
1396.76	134.627
1400.97	48.9941
1405.18	70.8213
1409.39	13.6738
1413.59	122.608
1417.8	122.542
1421.99	119.953
1426.19	104.888
1430.38	53.2803
1434.58	144.678
1438.77	366.176
1442.95	483.294
1447.13	310.103
1451.32	449.789
1455.49	447.82
1459.67	406.915
1463.84	345.317
1468.01	432.912
1472.18	153.894
1476.35	324.694
1480.51	93.4189
1484.67	200.852
1488.83	295.388
1492.98	65.0391
1497.13	26.5781
1501.28	46.0635
1505.43	207.34
1509.57	149.833
1513.71	38.4961
1517.85	90.1533
1521.99	247.719
1526.12	92.916
1530.25	235.648
1534.38	59.7949
1538.5	65.9453
1542.62	161.145
1546.74	70.8613
1550.86	147.795
1554.98	207.586
1559.09	126.392
1563.2	248.156
1567.31	356.842
