Measurement: Raman, 514 nm, ccw, Raman Data Processed
Mineral: Albite
Rruff sample: R040129
Ideal chemistry: NaAlSi_3_O_8_
Locality: LaChance Quarry, Brunswick, Cumberland County, Maine, USA
Source: Bob Downs
Description: Colorless fragment of a tabular single crystal
Measured chemistry: (Na_0.99_K_0.01_)Al_1.00_Si_3.00_O_8_
Pin_id: L00143
Orientation: Laser parallel to -a* (-1 0 0). Fiducial mark perpendicular to laser is parallel to -b [0 -1 0]
Raman shift (cm-1)	intensity
96.663	0
100.848	8.058
105.03	392.329
109.21	1515.16
113.388	2382.76
117.564	962.953
121.738	533.808
125.91	578.055
130.08	816.918
134.248	1228.16
138.413	2187.45
142.577	4899.11
146.739	9124.16
150.898	9196.49
155.056	2767.35
159.212	1474.22
163.365	1841.06
167.517	2972.11
171.666	4444.01
175.813	4526.88
179.959	6811.77
184.102	9707.55
188.244	8262.73
192.383	4454.92
196.52	2942.41
200.656	3001.36
204.789	5905.83
208.92	8492.85
213.049	4309.43
217.176	1562.56
221.302	642.204
225.425	338.179
229.546	127.135
233.665	148.359
237.782	172.324
241.898	351.455
246.011	890.018
250.122	2047.13
254.231	1588.62
258.338	1095.45
262.443	2044.1
266.546	4675.4
270.647	4822.87
274.747	2355.93
278.844	1651.56
282.939	2777.16
287.032	7700.33
291.123	10618.8
295.212	5208.24
299.3	2004.62
303.385	863.728
307.468	637.446
311.549	411.684
315.629	185.377
319.706	240.471
323.781	735.919
327.855	1574.33
331.926	990.671
335.995	262.79
340.063	84.995
344.128	56.291
348.192	113.689
352.253	7.2
356.313	12.162
360.37	83.431
364.426	142.9
368.479	185.471
372.531	94.134
376.581	157.979
380.629	174.04
384.674	143.268
388.718	12.589
392.76	249.995
396.8	816.104
400.838	804.518
404.874	1298.27
408.908	1769.7
412.94	2627.2
416.97	3915.77
420.999	1110.4
425.025	410.115
429.049	309.109
433.072	310.708
437.092	538.705
441.111	837.362
445.127	1430.95
449.142	3103.66
453.155	8387.03
457.166	10670.8
461.175	5364.14
465.181	3777.09
469.186	5309.79
473.19	12842.5
477.191	31555.1
481.19	24067.7
485.187	8610.3
489.183	4652.81
493.176	4155.27
497.168	5977.68
501.157	13960.7
505.145	35403
509.131	31397
513.115	12318.6
517.097	5784.35
521.077	3415.59
525.055	2253.71
529.031	1740.22
533.006	1425.46
536.978	1053.85
540.949	823.945
544.917	656.724
548.884	539.828
552.849	441.176
556.812	382.422
560.773	359.584
564.732	387.104
568.689	528.81
572.644	789.272
576.598	1346.44
580.55	1402.81
584.499	745.149
588.447	400.455
592.393	178.75
596.337	181.009
600.279	206.265
604.219	150.465
608.158	157.601
612.094	33.657
616.029	60.611
619.962	109.487
623.892	217.292
627.821	161.023
631.749	419.699
635.674	368.328
639.597	508.89
643.519	785.387
647.438	952.816
651.356	630.178
655.272	243.473
659.186	170.696
663.098	16.842
667.009	130.882
670.917	17.854
674.824	37.688
678.728	99.515
682.631	22.501
686.532	106.473
690.432	29.517
694.329	15.596
698.224	15.184
702.118	91.031
706.01	53.177
709.9	50.91
713.788	162.716
717.674	187.679
721.558	160.095
725.441	335.455
729.322	177.579
733.201	333.954
737.078	321.152
740.953	524.807
744.826	787.333
748.698	1021.74
752.567	1820.15
756.435	4269.49
760.301	11048.4
764.165	13937.2
768.028	6004.24
771.888	2692.56
775.747	1781.47
779.604	1109.9
783.459	778.54
787.312	849.518
791.164	515.085
795.013	696.7
798.861	1005.2
802.707	1543.68
806.551	3032.13
810.394	7010.56
814.234	13118.3
818.073	8445.43
821.91	3223.24
825.745	1590.31
829.578	1053.99
833.41	732.028
837.24	625.274
841.068	367.407
844.894	401.727
848.718	323.128
852.54	106.018
856.361	81.98
860.18	144.836
863.997	40.874
867.812	128.22
871.626	103.884
875.438	142.191
879.248	39.69
883.056	71.215
886.862	157.152
890.667	95.48
894.469	133.837
898.27	97.772
902.07	80.558
905.867	58.919
909.663	227.258
913.457	85.644
917.249	87.041
921.039	92.618
924.827	18.778
928.614	99.888
932.399	48.63
936.182	137.461
939.964	146.343
943.744	185.282
947.521	104.303
951.298	113.405
955.072	222.591
958.845	201.864
962.615	61.236
966.384	80.7
970.152	140.263
973.917	259.936
977.681	469.712
981.443	359.65
985.203	69.725
988.962	229.952
992.719	290.46
996.474	401.224
1000.23	762.229
1003.98	1533.47
1007.73	1454.96
1011.48	1366.72
1015.22	1428.83
1018.97	753.023
1022.71	435.287
1026.45	547.865
1030.19	449.216
1033.93	458.432
1037.66	345.289
1041.4	400.907
1045.13	792.536
1048.86	901.889
1052.59	676.784
1056.32	456.052
1060.04	319.16
1063.77	282.923
1067.49	346.798
1071.21	400.79
1074.93	474.473
1078.64	708.657
1082.36	933.634
1086.07	1259.99
1089.78	2012.4
1093.49	3537.24
1097.2	5722.38
1100.91	5167.4
1104.61	3142.62
1108.32	2068.59
1112.02	1473.77
1115.72	1129.02
1119.41	794.568
1123.11	539.88
1126.8	275.449
1130.5	121.723
1134.19	240.016
1137.88	207.494
1141.56	266.308
1145.25	295.583
1148.93	355.49
1152.62	503.442
1156.3	300.057
1159.98	313.911
1163.65	109.033
1167.33	195.127
1171	161.497
1174.68	50.235
1178.35	53.289
1182.02	32.092
1185.68	61.719
1189.35	214.108
1193.01	25.117
1196.67	87.539
1200.33	143.889
1203.99	249.377
1207.65	144.732
1211.31	70.415
1214.96	118.949
1218.61	373.303
1222.26	317.479
1225.91	353.672
1229.56	286.131
1233.2	99.113
1236.85	125.597
1240.49	49.574
1244.13	112.949
1247.77	216.388
1251.4	229.575
1255.04	383.794
1258.67	286.984
1262.3	250.527
1265.93	243.251
1269.56	106.397
1273.19	125.39
1276.82	4.783
1280.44	37.269
1284.06	158.639
1287.68	210.272
1291.3	221.039
1294.92	51.485
1298.53	81.917
1302.14	88.165
1305.76	108.673
1309.37	120.009
1312.98	156.451
1316.58	113.269
1320.19	161.051
1323.79	186.588
1327.39	153.753
1330.99	147.962
1334.59	84.361
1338.19	9.89
1341.79	95.739
1345.38	159.576
1348.97	224.432
1352.56	289.11
1356.15	273.494
1359.74	267.568
1363.32	251.359
1366.91	14.863
1370.49	181.869
1374.07	99.568
1377.65	61.516
1381.23	134.051
1384.8	410.783
1388.38	269.619
1391.95	417.456
1395.52	365.604
1399.09	403.569
1402.66	197.125
1406.22	178.206
1409.79	75.106
1413.35	136.989
1416.91	129.184
1420.47	231.827
1424.03	329.846
1427.59	382.34
1431.14	286.483
1434.69	345.407
1438.24	305.91
1441.8	279.499
1445.34	281.456
1448.89	154.371
1452.43	230.237
1455.98	347.227
1459.52	403.788
1463.06	396.285
1466.6	538.72
1470.14	539.607
1473.67	559.346
1477.2	479.418
1480.74	110.446
1484.27	149.518
1487.8	130.41
1491.32	72.955
1494.85	104.902
1498.37	196.986
1501.9	237.292
1505.42	271.894
1508.94	217.748
1512.45	285.429
1515.97	176.822
1519.49	275.09
1523	0
