Measurement: Raman, 514 nm, ccw, Raman Data Processed
Mineral: Albite
Rruff sample: R050253
Ideal chemistry: NaAlSi_3_O_8_
Locality: Madawaska/Faraday mine, Bancroft, Ontario, Canada
Source: Marcus Origlieri
Description: Colorless to brown prismatic single crystals
Measured chemistry: (Na_0.99_Ca_0.01_)Al_1.00_(Si_0.99_Al_0.01_)_3_O_8_
Pin_id: L01462
Orientation: Laser parallel to (1 0 1). Fiducial mark perpendicular to laser is parallel to b [0 1 0]
Raman shift (cm-1)	intensity
94.714	0
99.649	101.616
104.582	1167.04
109.512	2873.29
114.44	2383.27
119.365	519.273
124.288	158.898
129.209	311.35
134.127	1695.46
139.043	4807.2
143.956	9927.34
148.867	13534.5
153.775	8649.18
158.681	3130.26
163.585	3498.74
168.486	5692.12
173.385	7631.52
178.282	10132.2
183.176	12995.4
188.067	11972.8
192.956	7428.44
197.843	5857.59
202.727	7827.26
207.609	11003.4
212.489	7928.01
217.366	2897.23
222.24	923.224
227.112	349.693
231.982	101.144
236.849	150.742
241.714	645.903
246.577	1298.03
251.437	2498.8
256.294	2352.9
261.149	3432.66
266.002	5860.09
270.852	6434.55
275.7	4436.57
280.545	4794.83
285.388	9186.02
290.229	13983.9
295.067	9441.45
299.902	3700.42
304.735	1629.76
309.566	928.354
314.394	435.981
319.22	610.49
324.043	1327.91
328.864	2184.26
333.682	1178.52
338.498	347.684
343.311	193.741
348.122	84.6777
352.931	83.4414
357.737	155.145
362.54	60.5
367.341	77.6494
372.14	63.1514
376.936	127.774
381.73	187.936
386.521	72.4072
391.31	546.484
396.096	1240.84
400.88	1777.3
405.661	2537.97
410.44	3937.61
415.216	4982.7
419.99	2903.91
424.761	1033.31
429.53	650.921
434.297	809.386
439.061	1345.66
443.822	2451.76
448.581	6397.63
453.337	12167.3
458.091	12601.7
462.843	8303.87
467.592	10202.6
472.338	22746.6
477.082	39068.1
481.824	29790.3
486.563	12361.4
491.3	7968.25
496.034	11481.3
500.765	26567.8
505.494	46816.7
510.221	37373.5
514.945	15131.9
519.666	6631.73
524.385	3873.61
529.102	2690.57
533.816	1874.84
538.527	1298.11
543.236	1160.93
547.943	1055.75
552.647	745.231
557.348	773.409
562.047	712.071
566.744	840.938
571.438	1309.34
576.129	2059.41
580.818	1768.34
585.504	877.435
590.188	422.375
594.87	121.292
599.549	181.233
604.225	208.26
608.899	90.2715
613.57	71.3057
618.239	106.436
622.905	351.713
627.569	297.988
632.23	529.335
636.889	784.784
641.545	971.557
646.198	1194.93
650.849	816.025
655.498	452.997
660.144	39.5957
664.787	227.047
669.428	61.3359
674.067	75.5166
678.703	85.5439
683.336	22.3906
687.967	34.7412
692.595	43.5957
697.221	110.024
701.844	140.59
706.465	86.0166
711.083	135.418
715.698	59.623
720.311	57.2353
724.922	224.799
729.53	305.949
734.135	294.717
738.738	596.006
743.338	933.64
747.936	1886.29
752.531	3828.99
757.124	9523.94
761.714	17597.7
766.302	13444.5
770.887	5445.97
775.469	2693.55
780.049	1532.42
784.626	1084.52
789.201	996.993
793.773	1126.15
798.343	1462.39
802.91	2983.21
807.475	6689.6
812.037	14534.4
816.596	15689
821.153	6785.53
825.707	2730.24
830.259	1445.02
834.808	1173.78
839.355	678.885
843.899	492.295
848.441	287.695
852.98	133.705
857.516	119.703
862.05	128.484
866.581	95.0957
871.11	45.5254
875.636	49.5977
880.159	1.36328
884.68	19.0645
889.199	107.191
893.714	58.0215
898.228	56.457
902.738	49.3086
907.246	39.5586
911.752	159.188
916.255	4.32422
920.755	6.97266
925.253	144.188
929.748	8.63086
934.241	1.6582
938.731	135.088
943.218	174.791
947.703	340.57
952.186	471.426
956.665	503.352
961.142	415.514
965.617	371.94
970.089	345.734
974.558	586.967
979.025	766.711
983.489	442.643
987.951	553.584
992.41	517.562
996.866	879.467
1001.32	1700.69
1005.77	1975.15
1010.22	1998.1
1014.67	2035.94
1019.11	1315.12
1023.55	859.305
1027.99	569.26
1032.42	469.334
1036.86	453.856
1041.29	695.086
1045.72	1067.92
1050.14	941.197
1054.56	523.537
1058.98	241.588
1063.4	365.285
1067.82	449.533
1072.23	550.957
1076.64	635.127
1081.05	951.606
1085.45	1834.03
1089.85	3122.5
1094.25	5933
1098.65	7955.07
1103.04	6047.01
1107.43	3576.69
1111.82	2246.17
1116.21	1370.79
1120.59	1143.35
1124.97	698.199
1129.35	450.182
1133.73	181.295
1138.1	180.477
1142.47	104.785
1146.84	588.268
1151.21	534.326
1155.57	345.404
1159.93	332.74
1164.29	162.223
1168.64	207.807
1172.99	196.537
1177.34	174.375
1181.69	27.2617
1186.04	119.137
1190.38	199.879
1194.72	178.621
1199.05	179.869
1203.39	27.75
1207.72	49.9766
1212.05	27.334
1216.37	53.1016
1220.7	31.5176
1225.02	0.248047
1229.34	198.787
1233.65	223.121
1237.97	118.762
1242.28	114.357
1246.59	164.121
1250.89	102.719
1255.19	167.652
1259.49	128.504
1263.79	202.85
1268.09	179.307
1272.38	293.598
1276.67	78.9316
1280.95	497.592
1285.24	293.426
1289.52	197.883
1293.8	421.205
1298.08	227.846
1302.35	261.502
1306.62	194.486
1310.89	326.799
1315.15	488.463
1319.42	155.256
1323.68	350.246
1327.94	523.57
1332.19	276.625
1336.44	258.879
1340.69	231.379
1344.94	478.498
1349.19	228.875
1353.43	346.537
1357.67	253.617
1361.9	249.545
1366.14	152.441
1370.37	246.881
1374.6	386.008
1378.83	145.078
1383.05	79.1816
1387.27	94.5508
1391.49	202.902
1395.7	225.791
1399.92	9.27539
1404.13	65.5098
1408.34	202.617
1412.54	10.0957
1416.74	222.068
1420.94	273.43
1425.14	382.615
1429.34	141.623
1433.53	36.5078
1437.72	227.43
1441.9	80.5312
1446.09	219.754
1450.27	238
1454.45	269.273
1458.63	133.844
1462.8	169.353
1466.97	3.47461
1471.14	172.223
1475.31	276.049
1479.47	249.172
1483.63	53.8203
1487.79	148.301
1491.94	48.5508
1496.09	305.826
1500.24	203.984
1504.39	15.8262
1508.54	113.537
1512.68	171.154
1516.82	143.188
1520.95	139.703
1525.09	344.92
1529.22	223.522
1533.35	139.129
1537.47	217.488
1541.6	273.065
1545.72	104.504
1549.83	212.998
1553.95	109.322
1558.06	30.6309
1562.17	229.494
1566.28	49.8301
1570.38	0
