Measurement: Raman, 514 nm, ccw, Raman Data Processed
Mineral: Albite
Rruff sample: R050402
Ideal chemistry: NaAlSi_3_O_8_
Locality: Urbano mine, Golconda District, Brazil
Source: Bob Downs
Description: Colorless tabular single crystals associated with fluorapatite R050401
Measured chemistry: Na_1.00_Al_1.00_Si_3.00_O_8_
Pin_id: M00145
Orientation: Laser parallel to (0 1 1). Fiducial mark perpendicular to laser is parallel to -a [-1 0 0]
Raman shift (cm-1)	intensity
93.48	0
98.416	110.471
103.349	832.627
108.28	4826.85
113.208	5916.46
118.134	2001.35
123.058	321.782
127.979	39.3359
132.898	473.211
137.814	2084.64
142.728	5741.82
147.639	6732.86
152.549	8803.51
157.455	16005.8
162.359	21256.2
167.261	16856.6
172.161	15373.7
177.058	16441.5
181.952	21258.9
186.845	19334.1
191.734	11103.5
196.622	7390.98
201.507	9082.68
206.389	14677.5
211.269	10398.4
216.147	3388.37
221.022	995.364
225.895	357.379
230.765	14.498
235.633	71.3164
240.498	465.408
245.361	1424.34
250.222	3663.14
255.08	2302.78
259.936	1668.99
264.789	2154.19
269.64	3346.93
274.488	3897.78
279.334	7626.55
284.178	19488.1
289.019	36803.3
293.857	22541.8
298.693	7906.49
303.527	3242.43
308.358	2045.48
313.187	1583.51
318.013	1803.33
322.837	4159.95
327.659	9285.37
332.478	4570.59
337.294	1448.59
342.108	868.325
346.92	612.016
351.729	359.955
356.535	43.8262
361.34	55.2822
366.141	43.5264
370.94	189.2
375.737	156.364
380.531	31.1279
385.323	5.51758
390.113	174.894
394.9	826.933
399.684	1701.98
404.466	3337.05
409.245	2702.98
414.022	1354.18
418.797	638.645
423.569	15.1855
428.338	56.2588
433.105	184.504
437.87	262.059
442.632	390.194
447.391	956.858
452.149	2263.22
456.903	3009.1
461.655	2795.55
466.405	4325.57
471.152	10215.1
475.897	24159.3
480.639	20085
485.378	8531.24
490.116	5508.06
494.85	8031.44
499.582	18729.4
504.312	44023
509.039	40086.6
513.764	15524.2
518.486	6783.77
523.206	3687.43
527.923	2633.18
532.638	1550.25
537.35	1131.54
542.059	1052.73
546.766	790.732
551.471	606.763
556.173	665.105
560.873	688.47
565.57	700.104
570.264	1108.05
574.957	1702.55
579.646	2023.33
584.333	1067.45
589.018	542.702
593.7	488.716
598.379	318.927
603.056	280.996
607.73	450.81
612.402	457.348
617.072	670.443
621.739	1160.98
626.403	1502.81
631.065	2048.5
635.724	1759.92
640.381	1975.11
645.035	2306.19
649.687	1941.13
654.336	1077.09
658.983	462.704
663.627	281.618
668.268	114.774
672.907	100.297
677.544	76.4053
682.178	18.2471
686.809	99.2978
691.438	200.2
696.065	3.29004
700.688	48.626
705.31	45.9707
709.929	35.7764
714.545	237.148
719.158	219.888
723.77	203.384
728.378	106.636
732.984	124.639
737.588	238.393
742.189	399.812
746.787	455.455
751.383	708.473
755.976	1778.17
760.567	3964.07
765.155	3566.45
769.741	2035.61
774.324	1544.73
778.904	927.992
783.482	686.5
788.058	506.805
792.631	718.215
797.201	855.053
801.769	1137.33
806.334	2152.19
810.897	4900.17
815.457	6145.89
820.014	2808.56
824.569	1168.44
829.122	849.822
833.671	618.918
838.219	547.361
842.763	360.815
847.306	340.963
851.845	234.566
856.382	414.916
860.917	346.094
865.448	196.947
869.978	369.818
874.505	123.287
879.029	8.27344
883.55	171.127
888.069	23.9102
892.586	42.5117
897.1	187.643
901.611	105.863
906.12	102.113
910.626	41.6602
915.129	125.397
919.63	25.3711
924.129	57.6289
928.625	66.2676
933.118	5.23438
937.609	44.1211
942.097	143.047
946.582	213.994
951.065	125.99
955.546	181.227
960.023	330.711
964.499	597.559
968.971	743.305
973.441	1323.66
977.909	1874.48
982.374	1338.6
986.836	633.951
991.295	308.432
995.753	598.027
1000.21	1117.75
1004.66	1136.6
1009.11	1131.58
1013.55	1031.8
1018	827.738
1022.44	1356.14
1026.88	2036.45
1031.32	2940.25
1035.75	2104.41
1040.18	1279.45
1044.61	777.383
1049.04	414.928
1053.46	293.103
1057.88	259.289
1062.3	331.397
1066.71	373.332
1071.13	592.469
1075.54	605.537
1079.94	999.162
1084.35	1199.5
1088.75	2149.07
1093.15	4347.49
1097.55	6486.24
1101.94	5600.12
1106.34	3929.89
1110.73	3401.47
1115.11	3036.53
1119.5	2169.75
1123.88	1210.1
1128.26	799.572
1132.63	579.172
1137.01	263.897
1141.38	258.744
1145.75	430.748
1150.12	378.928
1154.48	215.26
1158.84	70.8496
1163.2	181.275
1167.55	180.371
1171.91	70.1523
1176.26	104.076
1180.61	4.82031
1184.95	80.334
1189.29	32.4492
1193.63	54.1602
1197.97	55.1016
1202.31	51.5078
1206.64	78.916
1210.97	144.006
1215.29	102.914
1219.62	15.3418
1223.94	27.5645
1228.26	102.834
1232.57	403.728
1236.89	219.324
1241.2	211.918
1245.51	428.74
1249.81	152.51
1254.12	282.361
1258.42	37.2852
1262.72	430.279
1267.01	307.346
1271.3	147.201
1275.59	275.877
1279.88	124.82
1284.17	156.318
1288.45	335.18
1292.73	247.092
1297.01	263.262
1301.28	310.023
1305.55	235.908
1309.82	323.852
1314.09	461.502
1318.35	435.488
1322.61	189.59
1326.87	433.664
1331.13	4.15625
1335.38	209.152
1339.63	54.5898
1343.88	330.188
1348.12	221.629
1352.37	358.869
1356.61	284.268
1360.85	37.5098
1365.08	1.76172
1369.31	157.387
1373.54	213.049
1377.77	24.1113
1381.99	400.609
1386.22	197.215
1390.43	103.764
1394.65	152.754
1398.87	20.7617
1403.08	222.756
1407.29	10.3359
1411.49	281.953
1415.69	168.018
1419.89	133.228
1424.09	103.469
1428.29	222.225
1432.48	117.576
1436.67	689.518
1440.86	733.104
1445.04	644.713
1449.23	924.469
1453.4	802.559
1457.58	889.854
1461.76	710.67
1465.93	511.773
1470.1	306.316
1474.26	400.199
1478.43	423.971
1482.59	256.894
1486.75	711.365
1490.9	319.768
1495.06	37.6094
1499.21	240.992
1503.35	244.51
1507.5	100.168
1511.64	166.057
1515.78	84.4863
1519.92	40.4141
1524.05	5.03906
1528.18	367.791
1532.31	315.045
1536.44	520.9
1540.56	266.111
1544.69	726.229
1548.8	55.0352
1552.92	363.631
1557.03	257.152
1561.14	239.082
1565.25	192.83
1569.36	99.5527
