Measurement: Raman, 514 nm, ccw, Raman Data Processed
Mineral: Albite
Rruff sample: R050402
Ideal chemistry: NaAlSi_3_O_8_
Locality: Urbano mine, Golconda District, Brazil
Source: Bob Downs
Description: Colorless tabular single crystals associated with fluorapatite R050401
Measured chemistry: Na_1.00_Al_1.00_Si_3.00_O_8_
Pin_id: M00068
Orientation: Laser parallel to a* (1 0 0). Fiducial mark perpendicular to laser is parallel to b [0 1 0]
Raman shift (cm-1)	intensity
86.072	0
91.012	68.896
95.948	87.6103
100.883	346.991
105.815	1080.34
110.744	2783.47
115.671	2128.38
120.596	893.45
125.519	514.97
130.439	730.457
135.356	1329.42
140.271	3669.79
145.184	3752.91
150.094	2839.3
155.002	2510.04
159.908	3271.95
164.811	2966.16
169.711	2286.78
174.61	1944.4
179.505	2247.26
184.399	2622.54
189.29	2251.67
194.178	1699.68
199.064	1679.31
203.948	2603.47
208.829	2293.87
213.708	1111.13
218.585	348.934
223.459	110.875
228.33	154.817
233.199	58.3081
238.066	240.187
242.93	439.378
247.792	981.91
252.651	1177.27
257.508	706.786
262.363	1270.69
267.215	2123.82
272.064	1985
276.912	1505.13
281.756	2746.23
286.598	5493.7
291.438	6380.89
296.276	2600.58
301.111	1066.8
305.943	666.843
310.773	427.488
315.601	237.661
320.426	428.353
325.248	670.488
330.068	705.072
334.886	209.216
339.701	21.5332
344.514	64.7598
349.324	49.1045
354.132	13.0674
358.938	120.97
363.741	39.919
368.541	25.4414
373.339	33.1065
378.135	8.15234
382.928	101.944
387.718	0.754883
392.506	352.312
397.292	432.854
402.075	818.565
406.856	1260.79
411.634	994.711
416.41	1174.42
421.183	385.69
425.954	98.2051
430.722	138.759
435.488	102.42
440.251	168.421
445.012	230.204
449.77	498.926
454.526	731.256
459.28	936.974
464.03	1296.98
468.779	3590.72
473.525	8727.39
478.268	14860
483.009	7075.52
487.747	2979
492.483	2459.05
497.217	4880.76
501.948	11542.6
506.676	18777.9
511.402	9446.93
516.125	3498.74
520.846	1673.11
525.565	953.921
530.281	672.78
534.994	441.001
539.705	301.519
544.413	150.553
549.119	83.4746
553.822	236.645
558.523	71.8555
563.222	118.363
567.917	157.347
572.611	386.787
577.302	461.022
581.99	423.437
586.676	95.5996
591.359	61.5518
596.04	87.4394
600.718	128.766
605.394	153.769
610.067	103.007
614.737	17.873
619.406	129.266
624.071	144.781
628.734	288.478
633.395	515.532
638.053	523.92
642.708	574.302
647.361	500.249
652.012	106.543
656.66	43.0371
661.305	29.748
665.948	194.066
670.588	148.438
675.226	154.666
679.861	60.6934
684.494	179.691
689.124	41.207
693.752	62.4531
698.377	40.3535
702.999	133.662
707.619	45.9043
712.237	144.164
716.852	119.58
721.464	125.076
726.074	145.76
730.681	94.5
735.286	190.471
739.888	27.8516
744.488	302.35
749.085	278.924
753.68	566.389
758.272	1551.48
762.861	2500.08
767.448	1528.14
772.033	687.606
776.614	568.998
781.194	440.914
785.77	254.94
790.345	274.865
794.916	320.94
799.485	412.098
804.052	365.188
808.616	874.768
813.177	1199.42
817.736	1005.48
822.292	587.838
826.846	297.789
831.397	282.912
835.945	288.496
840.491	131.102
845.035	79.0508
849.576	122.42
854.114	160.094
858.65	130.416
863.183	229.242
867.713	40.2109
872.241	44.084
876.767	61.5254
881.29	126.611
885.81	150.588
890.328	19.4121
894.843	5.33984
899.356	30.2227
903.866	75.918
908.373	245.08
912.878	210.516
917.38	54.7734
921.88	83.6152
926.377	229.625
930.872	163.971
935.364	161.553
939.853	88.6152
944.34	98.0644
948.824	271.016
953.306	186.506
957.785	317.656
962.261	792.455
966.735	721.754
971.207	859.289
975.675	830.402
980.141	1094.14
984.605	451.748
989.066	464.824
993.524	300.617
997.98	372.17
1002.43	645.428
1006.88	700.264
1011.33	727.176
1015.78	512.35
1020.22	835.377
1024.66	368.641
1029.1	654.139
1033.53	877.795
1037.97	179.629
1042.4	639.777
1046.82	249.07
1051.25	197.262
1055.67	245.281
1060.09	191.516
1064.51	135.426
1068.92	210.106
1073.33	492.34
1077.74	664.695
1082.15	670.469
1086.55	2412.82
1090.95	1784.54
1095.35	2988.85
1099.75	3953.61
1104.14	3046.48
1108.53	2088.74
1112.92	2010.94
1117.31	1553.34
1121.69	1137.89
1126.07	843.723
1130.45	360.738
1134.82	183.039
1139.19	509.68
1143.57	301.582
1147.93	43.7734
1152.3	308.731
1156.66	41.5547
1161.02	202.527
1165.38	3.92578
1169.73	6.73047
1174.08	67.8711
1178.43	426.277
1182.78	71
1187.12	34.1562
1191.46	101.195
1195.8	35.1523
1200.14	177.738
1204.47	179.91
1208.8	145.008
1213.13	213.293
1217.46	128.852
1221.78	143.758
1226.1	324.379
1230.42	410.84
1234.73	96.4023
1239.04	296.504
1243.35	1.71484
1247.66	339.242
1251.97	395.086
1256.27	460.231
1260.57	527.731
1264.86	250.559
1269.16	514.688
1273.45	194.211
1277.74	483.637
1282.03	450.781
1286.31	512.43
1290.59	291.117
1294.87	315.668
1299.14	347.977
1303.42	514.578
1307.69	530.477
1311.95	315.613
1316.22	223.973
1320.48	182.75
1324.74	251.301
1329	129.047
1333.26	205.574
1337.51	309.371
1341.76	413.449
1346	355.898
1350.25	77.1172
1354.49	355.699
1358.73	303.074
1362.96	112.238
1367.2	592.465
1371.43	590.121
1375.66	283.34
1379.88	366.285
1384.11	361.238
1388.33	60.1289
1392.54	468.699
1396.76	173.469
1400.97	10.6328
1405.18	172.363
1409.39	116.676
1413.59	132.902
1417.8	96.7773
1421.99	247.324
1426.19	176.356
1430.38	337.93
1434.58	201.43
1438.77	112.152
1442.95	391.106
1447.13	327.934
1451.32	84.3398
1455.49	234.16
1459.67	241.402
1463.84	329.441
1468.01	211.957
1472.18	159.051
1476.35	468.492
1480.51	197.281
1484.67	148.406
1488.83	347.109
1492.98	372.668
1497.13	35.25
1501.28	295.836
1505.43	191.281
1509.57	47.793
1513.71	266.984
1517.85	295.461
1521.99	220.594
1526.12	64.8398
1530.25	307.019
1534.38	469.512
1538.5	108.481
1542.62	468.449
1546.74	104.129
1550.86	273.906
1554.98	526.664
1559.09	11.6484
1563.2	175.57
1567.31	443.949
