Measurement: Raman, 514 nm, ccw, Raman Data Processed
Mineral: Albite
Rruff sample: R040129
Ideal chemistry: NaAlSi_3_O_8_
Locality: LaChance Quarry, Brunswick, Cumberland County, Maine, USA
Source: Bob Downs
Description: Colorless fragment of a tabular single crystal
Measured chemistry: (Na_0.99_K_0.01_)Al_1.00_Si_3.00_O_8_
Pin_id: L00347
Orientation: Laser parallel to (-1 -1 0). Fiducial mark perpendicular to laser is parallel to -c [0 0 -1]
Raman shift (cm-1)	intensity
106.423	0
110.603	2637.7
114.78	3494.93
118.956	757.2
123.129	25.278
127.3	108.385
131.469	107.387
135.636	73.326
139.801	695.342
143.964	1285.69
148.125	1708.73
152.284	1393.26
156.441	1091.24
160.596	1342.09
164.749	2005.29
168.9	3350.75
173.049	2730.42
177.195	1634.35
181.34	2038.71
185.483	2432.98
189.624	1767.67
193.762	1142.31
197.899	906.096
202.034	1610.19
206.166	3324.44
210.297	3689.02
214.425	1276.89
218.552	522.026
222.676	56
226.799	175.671
230.919	5.1
235.038	23.645
239.154	72.014
243.269	182.373
247.381	889.141
251.492	1344.54
255.6	636.541
259.707	628.639
263.811	1150.81
267.914	2076.83
272.014	1821.08
276.113	1014.4
280.209	1052.99
284.304	2493.43
288.396	5765.42
292.487	5759.22
296.575	2244.15
300.662	988.053
304.746	384.42
308.829	321.193
312.909	198.264
316.988	95.547
321.065	222.973
325.139	930.518
329.212	1149.1
333.283	575.598
337.351	222.652
341.418	139.533
345.483	76.281
349.546	119.822
353.606	39.326
357.665	5.688
361.722	42.025
365.777	161.834
369.83	43.941
373.881	40.514
377.93	5.246
381.977	39.789
386.023	15.318
390.066	183.586
394.107	103.076
398.146	352.922
402.184	535.898
406.219	1698.71
410.252	1341.38
414.284	1223.65
418.313	865.764
422.341	247.725
426.367	199.545
430.39	18.928
434.412	212.072
438.432	323.32
442.45	414.354
446.466	515.07
450.48	876.125
454.492	1817.55
458.502	1877.61
462.51	1337.46
466.517	1467.06
470.521	2606.38
474.523	6925.44
478.524	13002.3
482.523	6980.81
486.519	2569.04
490.514	1856.98
494.507	1834.63
498.498	3231.98
502.487	8179.04
506.474	17078.6
510.459	10925.4
514.442	4329.67
518.424	2146.86
522.403	1412.94
526.381	926.256
530.356	798.572
534.33	645.787
538.302	523.883
542.272	357.154
546.24	556.527
550.206	605.168
554.17	28.732
558.132	387.516
562.093	360.867
566.051	313.262
570.008	435.275
573.963	537.01
577.915	928.262
581.866	720.309
585.815	468.881
589.763	311.867
593.708	211.154
597.651	409.303
601.593	337.566
605.532	266.768
609.47	165.672
613.406	314.27
617.34	572.582
621.272	880.615
625.202	1088.38
629.131	735.863
633.057	633.117
636.982	891.732
640.905	948.533
644.825	1235.08
648.744	851.373
652.662	847.414
656.577	753.209
660.49	288.764
664.402	88.451
668.312	169.283
672.219	95.797
676.125	288.643
680.03	202.689
683.932	86.627
687.832	100.434
691.731	194.061
695.628	117.441
699.522	180.631
703.415	186.703
707.307	214.619
711.196	27.4
715.083	108.209
718.969	54.777
722.853	254.902
726.735	45.201
730.615	308.17
734.493	218.199
738.37	11.906
742.244	27.832
746.117	247.785
749.988	427.27
753.857	1086.98
757.724	1947.41
761.59	3766.93
765.453	3185.1
769.315	1164.75
773.175	844.234
777.033	463.574
780.889	472.877
784.744	332.143
788.596	155.832
792.447	315.346
796.296	446.166
800.143	455.301
803.989	514.434
807.832	1113.57
811.674	2692.72
815.514	4441.89
819.352	2458.9
823.189	897.488
827.023	606.107
830.856	444.914
834.687	530.686
838.516	563.072
842.343	836.512
846.169	585.369
849.992	296.195
853.814	593.32
857.634	536.422
861.453	798.797
865.269	460.918
869.084	79.078
872.897	1598.94
876.708	490.109
880.517	151.047
884.325	342.598
888.13	244.391
891.934	103.668
895.737	14.246
899.537	368.238
903.336	540.965
907.132	523.93
910.928	347.121
914.721	550.539
918.512	45.789
922.302	98.07
926.09	392.145
929.876	156.391
933.66	270.82
937.443	184.516
941.224	29.68
945.003	96.168
948.78	529.156
952.556	554.754
956.33	490.625
960.102	226.785
963.872	323.23
967.64	129.984
971.407	277.062
975.172	624.469
978.935	872.238
982.697	230.516
986.456	424.566
990.214	93.684
993.971	293.203
997.725	653.191
1001.48	1263.68
1005.23	847.598
1008.98	479.273
1012.73	851.848
1016.47	804.852
1020.22	1205.27
1023.96	1009.31
1027.7	1143.65
1031.44	498.375
1035.17	707.211
1038.91	343.496
1042.64	870.086
1046.37	866.059
1050.1	1212.55
1053.83	1189.81
1057.56	496.125
1061.28	521.445
1065.01	550.773
1068.73	361.531
1072.45	1145.84
1076.16	1180.79
1079.88	1091.06
1083.6	1075.17
1087.31	1001.72
1091.02	1378.87
1094.73	2666.66
1098.44	2985.08
1102.14	2664.01
1105.85	1993.39
1109.55	1423.48
1113.25	754.086
1116.95	935.199
1120.65	1436.59
1124.34	1038.5
1128.04	780.691
1131.73	843.293
1135.42	796.34
1139.11	389.945
1142.79	144.254
1146.48	19.672
1150.16	73.578
1153.84	664.281
1157.52	823.266
1161.2	533.449
1164.88	584.902
1168.56	257.77
1172.23	422.266
1175.9	397.715
1179.57	704.164
1183.24	878.023
1186.9	1115.12
1190.57	680.926
1194.23	575.148
1197.89	28.965
1201.55	229.746
1205.21	225.836
1208.87	515.117
1212.52	0
