Measurement: Raman, 514 nm, ccw, Raman Data Processed
Mineral: Albite
Rruff sample: R050402
Ideal chemistry: NaAlSi_3_O_8_
Locality: Urbano mine, Golconda District, Brazil
Source: Bob Downs
Description: Colorless tabular single crystals associated with fluorapatite R050401
Measured chemistry: Na_1.00_Al_1.00_Si_3.00_O_8_
Pin_id: M00171
Orientation: Laser parallel to (1 1 0). Fiducial mark perpendicular to laser is parallel to c [0 0 1]
Raman shift (cm-1)	intensity
81.131	0
86.072	114.201
91.012	281.466
95.948	184.385
100.883	895.763
105.815	3145.11
110.744	4872.09
115.671	5378.74
120.596	2356.28
125.519	843.273
130.439	542.741
135.356	579.351
140.271	1101.56
145.184	2040.26
150.094	3034.03
155.002	3607.09
159.908	3601.08
164.811	4450.94
169.711	3974.59
174.61	4339.96
179.505	5230.15
184.399	6165.94
189.29	6032.32
194.178	4537.27
199.064	4901.68
203.948	6266.5
208.829	7107.65
213.708	5213.81
218.585	1695.87
223.459	399.851
228.33	66.4507
233.199	4.96045
238.066	13.0605
242.93	196.975
247.792	620.856
252.651	1003.59
257.508	1096.24
262.363	1952.38
267.215	3161.66
272.064	3772.8
276.912	3740.61
281.756	7085.94
286.598	12057.7
291.438	15291.7
296.276	9696.93
301.111	3566.28
305.943	1655.55
310.773	1021.68
315.601	680.691
320.426	452.569
325.248	661.298
330.068	755.86
334.886	282.238
339.701	82.4131
344.514	38.3652
349.324	8.95801
354.132	19.6719
358.938	22.9033
363.741	27.8823
368.541	197.111
373.339	180.247
378.135	122.477
382.928	96.7832
387.718	27.3745
392.506	21.0718
397.292	220.42
402.075	670.585
406.856	1244.66
411.634	1815.68
416.41	1809.65
421.183	1092.54
425.954	398.321
430.722	343.032
435.488	461.517
440.251	611.661
445.012	811.457
449.77	1527.9
454.526	2455.99
459.28	3553.74
464.03	5553.13
468.779	13546.2
473.525	30322.9
478.268	42592.2
483.009	31761.2
487.747	12800.2
492.483	9297.96
497.217	16565.2
501.948	36110.4
506.676	50649.2
511.402	39135.9
516.125	15171.8
520.846	6930.7
525.565	4138.61
530.281	2759.61
534.994	1912.76
539.705	1485.13
544.413	1204.49
549.119	856.539
553.822	720.678
558.523	825.572
563.222	717.074
567.917	753.632
572.611	1027.99
577.302	1280.87
581.99	1173.01
586.676	642.776
591.359	427.928
596.04	310.689
600.718	201.399
605.394	288.069
610.067	237.717
614.737	197.352
619.406	392.961
624.071	506.502
628.734	677.001
633.395	407.471
638.053	666.042
642.708	737.817
647.361	754.827
652.012	652.324
656.66	366.514
661.305	215.289
665.948	73.6045
670.588	12.396
675.226	37.2632
679.861	19.084
684.494	26.2627
689.124	34.0093
693.752	17.6382
698.377	31.1382
702.999	17.4731
707.619	60.6333
712.237	27.228
716.852	142.616
721.464	193.934
726.074	187.185
730.681	101.371
735.286	186.274
739.888	346.337
744.488	531.41
749.085	786.903
753.68	1843.3
758.272	4197.07
762.861	6460.63
767.448	5021.25
772.033	2585.78
776.614	1922.23
781.194	1082.7
785.77	544.125
790.345	323.032
794.916	392.126
799.485	501.149
804.052	677.77
808.616	1178.79
813.177	2117.44
817.736	2073.28
822.292	1065.23
826.846	511.934
831.397	374.484
835.945	403.942
840.491	306.592
845.035	239.551
849.576	247.623
854.114	161.269
858.65	240.078
863.183	237.867
867.713	1.07324
872.241	16.2178
876.767	1.70801
881.29	27.9277
885.81	85.165
890.328	28.1006
894.843	28.0684
899.356	36.6709
903.866	53.8799
908.373	92.0996
912.878	45.9072
917.38	55.7666
921.88	15.3506
926.377	3.4209
930.872	38.3125
935.364	106.281
939.853	34.3164
944.34	72.4434
948.824	88.6504
953.306	114.967
957.785	156.447
962.261	172.179
966.735	301.313
971.207	679.705
975.675	1340.52
980.141	1414.62
984.605	679.08
989.066	561.672
993.524	383.381
997.98	572.209
1002.43	1093.02
1006.88	1350.46
1011.33	1317.58
1015.78	1215.21
1020.22	928.87
1024.66	980.983
1029.1	1340.23
1033.53	1619.94
1037.97	1113.11
1042.4	1008.56
1046.82	1034.04
1051.25	671.648
1055.67	530.789
1060.09	468.878
1064.51	431.856
1068.92	808.724
1073.33	795.91
1077.74	1180.59
1082.15	1639.73
1086.55	2775.4
1090.95	5165.36
1095.35	9461.83
1099.75	12243.4
1104.14	9988.15
1108.53	7220.51
1112.92	5981.74
1117.31	5253.13
1121.69	3738.75
1126.07	2157.53
1130.45	1127.45
1134.82	963.518
1139.19	457.809
1143.57	402.313
1147.93	379.022
1152.3	425.063
1156.66	318.317
1161.02	163.753
1165.38	176.416
1169.73	190.227
1174.08	58.5195
1178.43	46.9522
1182.78	109.815
1187.12	12.207
1191.46	17.8799
1195.8	2.12402
1200.14	6.12598
1204.47	65.0977
1208.8	15.9004
1213.13	9.01562
1217.46	10.8799
1221.78	91.3047
1226.1	36.5586
1230.42	45.1162
1234.73	22.1289
1239.04	122.236
1243.35	123.602
1247.66	93.8389
1251.97	158.082
1256.27	99.6455
1260.57	206.352
1264.86	359.246
1269.16	160.114
1273.45	302.556
1277.74	253.809
1282.03	155.121
1286.31	262.483
1290.59	177.579
1294.87	138.455
1299.14	214.259
1303.42	220.46
1307.69	164.083
1311.95	181.781
1316.22	229.887
1320.48	346.937
1324.74	204.636
1329	161.561
1333.26	119.637
1337.51	216.275
1341.76	23.1807
1346	232.026
1350.25	124.436
1354.49	105.788
1358.73	201.28
1362.96	29.0137
1367.2	24.4795
1371.43	13.6572
1375.66	33.29
1379.88	112.862
1384.11	229.664
1388.33	64.6064
1392.54	92.7441
1396.76	150.435
1400.97	98.9404
1405.18	96.4639
1409.39	122.053
1413.59	69.2139
1417.8	11.166
1421.99	141.059
1426.19	21.3564
1430.38	121.228
1434.58	157.974
1438.77	284.425
1442.95	454.133
1447.13	395.285
1451.32	512.983
1455.49	494.858
1459.67	575.8
1463.84	419.783
1468.01	123.606
1472.18	257.178
1476.35	310.155
1480.51	153.21
1484.67	219.248
1488.83	280.357
1492.98	244.642
1497.13	0.301758
1501.28	57.0244
1505.43	136.919
1509.57	242.981
1513.71	162.955
1517.85	68.5469
1521.99	236.171
1526.12	201.532
1530.25	65.8731
1534.38	275.99
1538.5	188.534
1542.62	86.2295
1546.74	74.1924
1550.86	291.033
1554.98	313.808
1559.09	205.79
1563.2	119.576
1567.31	109.144
