Measurement: Raman, 514 nm, ccw, Raman Data Processed
Mineral: Albite
Rruff sample: R050253
Ideal chemistry: NaAlSi_3_O_8_
Locality: Madawaska/Faraday mine, Bancroft, Ontario, Canada
Source: Marcus Origlieri
Description: Colorless to brown prismatic single crystals
Measured chemistry: (Na_0.99_Ca_0.01_)Al_1.00_(Si_0.99_Al_0.01_)_3_O_8_
Pin_id: L01398
Orientation: Laser parallel to a* (1 0 0). Fiducial mark perpendicular to laser is parallel to b [0 1 0]
Raman shift (cm-1)	intensity
87.308	0
92.246	309.377
97.182	5.2334
102.116	771.453
107.047	2970.38
111.976	4157.28
116.903	2352.69
121.827	788.879
126.749	336.305
131.668	516.708
136.585	806.56
141.5	1670.45
146.412	3100.49
151.321	4574.08
156.229	5703.72
161.134	6964.04
166.036	5616.03
170.936	3944.89
175.834	2960.32
180.729	3521.68
185.622	3645.15
190.512	3426.82
195.4	3096.73
200.286	3793.87
205.169	4876.22
210.049	3472.75
214.928	1592.14
219.803	785.599
224.677	575.031
229.548	366.519
234.416	160.049
239.282	833.033
244.146	1655.83
249.007	2810.21
253.866	2053.7
258.722	2409.75
263.576	4815.99
268.427	6414.17
273.276	4748.08
278.123	4828.54
282.967	9436.45
287.809	16233.7
292.648	12994.2
297.485	6167.03
302.319	2757.97
307.151	1717.93
311.98	1021.84
316.807	700.711
321.631	783.542
326.454	1048.34
331.273	574.095
336.09	237.81
340.905	49.5215
345.717	7.90918
350.527	48.9385
355.334	77.1182
360.139	75.6807
364.941	206.001
369.741	66.6709
374.538	13.1416
379.333	39.3486
384.126	69.8711
388.916	184.126
393.703	514.51
398.488	1533.99
403.271	3337.52
408.051	4715.1
412.828	4246.88
417.603	2528.86
422.376	957.148
427.146	408.631
431.914	314.157
436.679	364.647
441.442	545.098
446.202	725.512
450.96	1170.17
455.715	1898.96
460.467	2896.31
465.218	5635.64
469.965	15574
474.711	34246.2
479.454	34236.6
484.194	16106.7
488.932	7655.43
493.667	7993.4
498.4	17679.3
503.13	38053.2
507.858	39859.1
512.583	19071.3
517.306	7550.69
522.026	3894.39
526.744	2264.26
531.459	1743.64
536.172	1169.23
540.882	867.94
545.59	687.935
550.295	372.449
554.998	274.027
559.698	339.059
564.396	323.91
569.091	546.303
573.784	729.334
578.474	764.552
583.162	498.956
587.847	54.669
592.529	240.654
597.209	4.25391
601.887	314.803
606.562	403.781
611.235	295.185
615.905	458.87
620.572	314.818
625.237	268.019
629.9	389.603
634.56	316.552
639.217	722.894
643.872	706.686
648.524	571.966
653.174	577.086
657.821	288.79
662.466	251.846
667.108	271.123
671.748	135.486
676.385	88.8721
681.02	97.2109
685.652	78.459
690.281	110.272
694.908	49.4395
699.533	153.83
704.155	7.63965
708.774	95.8936
713.391	245.819
718.005	478.932
722.617	298.084
727.226	141.579
731.833	4.9375
736.437	57.6309
741.039	384.225
745.638	445.733
750.234	1067.84
754.828	2150.05
759.419	5119.1
764.008	5832.94
768.595	3024.5
773.178	1814.13
777.759	1212.91
782.338	630.612
786.914	334.377
791.488	361.557
796.059	228.176
800.627	260.988
805.193	471.208
809.756	745.156
814.317	1464.69
818.875	759.806
823.431	442.433
827.984	270.983
832.534	274.958
837.082	133.544
841.627	123.358
846.17	113.953
850.71	42.2012
855.248	18.9795
859.783	16.7441
864.316	2.76074
868.846	34.4307
873.373	77.3721
877.898	0.97168
882.42	48.5869
886.94	37.9062
891.457	73.2402
895.971	32.9082
900.483	11.457
904.993	43.7119
909.5	24.5293
914.004	197.033
918.505	54.083
923.004	69.7344
927.501	45.0938
931.995	142.17
936.486	127.941
940.975	285.453
945.461	92.9053
949.945	353.166
954.426	318.204
958.904	384.037
963.38	511.76
967.853	749.455
972.324	962.553
976.792	1472.66
981.258	1318.95
985.72	737.043
990.181	766.639
994.639	770.471
999.094	1018.86
1003.55	1727.65
1008	2722.53
1012.44	2252.68
1016.89	1584.61
1021.33	1222.98
1025.77	1372.04
1030.21	2187.76
1034.64	1764.67
1039.07	1293.16
1043.5	1171.92
1047.93	1026.16
1052.35	723.598
1056.78	656.688
1061.19	668.578
1065.61	670.9
1070.02	749.949
1074.43	1062.41
1078.84	1422.12
1083.25	1938.15
1087.65	3376.78
1092.05	6656.75
1096.45	11744.2
1100.85	12150.8
1105.24	8483
1109.63	6614.89
1114.02	5940.65
1118.4	5030.48
1122.78	3398.44
1127.16	2057.56
1131.54	1006.98
1135.92	1001.55
1140.29	560.346
1144.66	471.592
1149.02	301.209
1153.39	462.193
1157.75	183.486
1162.11	214.051
1166.46	31.7773
1170.82	182.695
1175.17	129.199
1179.52	170.871
1183.86	132.117
1188.21	64.582
1192.55	24.3398
1196.89	271.891
1201.22	160.227
1205.55	188.432
1209.88	70.6426
1214.21	76.1738
1218.54	57.0801
1222.86	208.002
1227.18	102.141
1231.5	69.5039
1235.81	1.24414
1240.12	204.678
1244.43	125.381
1248.74	364.144
1253.04	444.955
1257.34	258.83
1261.64	575.746
1265.94	587.106
1270.23	583.373
1274.52	855.596
1278.81	843.777
1283.1	913.393
1287.38	1088.35
1291.66	1136.59
1295.94	1221
1300.21	1579.01
1304.48	1770.76
1308.75	1822.86
1313.02	2163.22
1317.29	1963.47
1321.55	1992.91
1325.81	1847.5
1330.06	1591.79
1334.32	1682.63
1338.57	1491.04
1342.82	1183.7
1347.06	1027.08
1351.31	789.936
1355.55	687.141
1359.79	770.49
1364.02	487.623
1368.26	565.014
1372.49	441.353
1376.71	358.588
1380.94	506.496
1385.16	371.994
1389.38	49.5879
1393.6	148.082
1397.81	220.344
1402.02	357.383
1406.23	55.2441
1410.44	43.1582
1414.64	193.693
1418.85	232.951
1423.04	13.2754
1427.24	27.5859
1431.43	40.4863
1435.62	127.768
1439.81	27.5254
1444	286.643
1448.18	241.164
1452.36	52.4375
1456.54	367.152
1460.71	109.949
1464.89	69.2324
1469.06	177.766
1473.22	17.9883
1477.39	17.9395
1481.55	127.662
1485.71	113.574
1489.86	123.783
1494.02	110.795
1498.17	408.853
1502.32	155.783
1506.46	22.2402
1510.61	190.227
1514.75	199.685
1518.88	168.717
1523.02	317.512
1527.15	275.856
1531.28	246.016
1535.41	137.234
1539.53	264.365
1543.66	210.529
1547.78	156.945
1551.89	206.119
1556.01	456.986
1560.12	186.133
1564.23	209.424
1568.33	61.5762
