Measurement: Raman, 514 nm, ccw, Raman Data Processed
Mineral: Albite
Rruff sample: R040129
Ideal chemistry: NaAlSi_3_O_8_
Locality: LaChance Quarry, Brunswick, Cumberland County, Maine, USA
Source: Bob Downs
Description: Colorless fragment of a tabular single crystal
Measured chemistry: (Na_0.99_K_0.01_)Al_1.00_Si_3.00_O_8_
Pin_id: L00089
Orientation: Laser parallel to c* (0 0 1). Fiducial mark perpendicular to laser is parallel to -a [-1 0 0]
Raman shift (cm-1)	intensity
128.69	0
132.858	1.525
137.025	233.401
141.189	1145.62
145.352	3692.95
149.512	1813.66
153.67	3000.22
157.827	6387.1
161.981	12727.5
166.133	7423.62
170.283	6149.83
174.431	6098.9
178.577	9007.01
182.721	13493
186.863	13791.2
191.003	7993.98
195.141	4624.65
199.277	3308.99
203.411	3886.21
207.543	8966.85
211.673	7653.22
215.801	2211.49
219.927	646.246
224.051	328.554
228.173	78.283
232.292	179.748
236.41	197.673
240.526	120.707
244.64	82.682
248.752	712.388
252.861	2084.07
256.969	679.643
261.075	263.122
265.179	348.245
269.281	795.579
273.38	1220.48
277.478	1743.42
281.574	3786.84
285.668	11304.6
289.76	28363.9
293.85	18134.5
297.937	6113.15
302.023	2656.18
306.107	1431.57
310.189	1088.22
314.269	740.681
318.347	707.774
322.423	1074.17
326.497	4045.54
330.569	5566.07
334.639	1731.88
338.707	752.079
342.773	476.641
346.837	615.725
350.899	659.69
354.96	354.086
359.018	103.325
363.074	77.327
367.128	43.094
371.181	56.62
375.231	9.904
379.28	3.112
383.326	38.547
387.37	112.868
391.413	18.571
395.454	211.273
399.492	423.811
403.529	440.559
407.564	757.642
411.596	163.886
415.627	13.444
419.656	31.615
423.683	42.503
427.708	62.117
431.731	15.473
435.752	52.919
439.772	81.792
443.789	98.248
447.804	207.381
451.817	517.33
455.829	892.148
459.838	873.741
463.846	1074.06
467.852	1777.08
471.855	3624.79
475.857	10119.2
479.857	17161.3
483.855	7533.02
487.851	3628.48
491.845	2655.66
495.837	3326.55
499.828	6947.16
503.816	19327.5
507.802	36437.9
511.787	16588
515.77	6817.92
519.75	3809.16
523.729	2239.06
527.706	1507.47
531.681	1199.65
535.654	1021
539.625	884.363
543.595	626.104
547.562	578.958
551.527	526.196
555.491	473.759
559.453	442.084
563.412	332.887
567.37	411.36
571.326	497.35
575.28	943.369
579.233	1289.26
583.183	724.195
587.131	430.149
591.078	344.237
595.022	301.869
598.965	144.887
602.906	117.28
606.845	152.646
610.782	257.61
614.718	268.531
618.651	217.384
622.582	310.158
626.512	683.856
630.44	1183.46
634.366	1175.97
638.29	754.398
642.212	874.769
646.132	1528.05
650.05	1274.26
653.967	563.381
657.882	234.43
661.794	63.406
665.705	169.307
669.614	157.136
673.522	77.893
677.427	24.597
681.331	4.272
685.232	50.909
689.132	86.461
693.03	78.953
696.926	9.449
700.82	25.011
704.713	61.504
708.603	64.889
712.492	32.084
716.379	83.941
720.264	59.107
724.147	127.034
728.028	159.44
731.908	138.665
735.785	47.454
739.661	29.546
743.535	172.726
747.407	266.278
751.278	263.87
755.146	350.486
759.013	583.36
762.878	1608.91
766.741	1202.43
770.602	806.419
774.461	844.747
778.319	443.758
782.174	286.156
786.028	345.438
789.88	349.677
793.73	252.039
797.579	183.196
801.425	234.313
805.27	585.394
809.113	1228.44
812.954	2669.45
816.794	2838.28
820.631	1142.04
824.467	586.833
828.301	535.3
832.133	419.631
835.963	429.874
839.792	124.305
843.618	91.618
847.443	132.252
851.266	177.642
855.088	290.2
858.907	154.243
862.725	247.417
866.541	255.024
870.355	157.571
874.167	193.917
877.978	168.513
881.787	69.921
885.594	73.757
889.399	29.141
893.202	207.03
897.004	301.532
900.803	230.048
904.601	168.582
908.398	3.867
912.192	60.715
915.985	163.363
919.776	249.002
923.565	259.548
927.352	56.052
931.138	22.469
934.922	49.992
938.704	175.483
942.484	233.005
946.262	140.506
950.039	154.012
953.814	54.559
957.587	119.144
961.359	208.763
965.128	371.417
968.896	388.146
972.662	362.96
976.427	432.814
980.189	393.715
983.95	197.663
987.709	259.662
991.467	231.74
995.222	154.925
998.976	77.193
1002.73	184.537
1006.48	287.943
1010.23	318.463
1013.97	481.156
1017.72	596.988
1021.46	634.116
1025.2	1133.73
1028.94	1556.26
1032.68	2291.21
1036.42	1654.36
1040.15	1016.25
1043.89	605.985
1047.62	427.93
1051.35	174.908
1055.07	164.956
1058.8	76.682
1062.52	408.231
1066.25	528.421
1069.97	443.585
1073.69	328.417
1077.4	232.86
1081.12	366.746
1084.83	745.293
1088.55	1166.78
1092.26	1877.78
1095.96	3669.41
1099.67	3487.01
1103.38	2580.54
1107.08	2005.21
1110.78	1783.98
1114.48	1989.56
1118.18	1815.79
1121.88	1259.6
1125.57	826.61
1129.27	281.596
1132.96	224.713
1136.65	137.017
1140.34	362.181
1144.02	412.366
1147.71	389.558
1151.39	414.888
1155.07	190.169
1158.75	55.247
1162.43	19.519
1166.11	181.338
1169.78	212.788
1173.45	298.188
1177.12	255.078
1180.79	197.446
1184.46	105.416
1188.13	0.499
1191.79	112.093
1195.45	78.994
1199.11	239.356
1202.77	394.206
1206.43	318.229
1210.09	155.243
1213.74	138.672
1217.39	34.798
1221.05	50.499
1224.69	164.968
1228.34	264.059
1231.99	414.232
1235.63	449.603
1239.27	368.629
1242.91	93.653
1246.55	0.488
1250.19	126.576
1253.83	79.697
1257.46	248.791
1261.09	378.597
1264.72	445.375
1268.35	331.056
1271.98	296.777
1275.61	54.249
1279.23	22.682
1282.85	58.392
1286.47	126.007
1290.09	250.045
1293.71	376.715
1297.33	454.979
1300.94	287.075
1304.55	229.964
1308.16	14.665
1311.77	32.774
1315.38	31.529
1318.99	57.333
1322.59	176.707
1326.19	301.047
1329.79	297.794
1333.39	413.334
1336.99	265.881
1340.59	35.98
1344.18	49.134
1347.77	4.43
1351.37	34.346
1354.95	81.116
1358.54	138.735
1362.13	398.62
1365.71	461.242
1369.3	306.718
1372.88	275.399
1376.46	69.198
1380.04	160.849
1383.61	214.167
1387.19	19.206
1390.76	173.002
1394.33	352.562
1397.9	413.628
1401.47	530.187
1405.04	398.521
1408.6	437.271
1412.16	209.451
1415.72	88.458
1419.29	73.552
1422.84	16.899
1426.4	110.927
1429.96	305.523
1433.51	395.131
1437.06	440.394
1440.61	572.189
1444.16	568.432
1447.71	445.271
1451.25	355.156
1454.8	275.578
1458.34	157.324
1461.88	45.967
1465.42	173.106
1468.96	308.862
1472.49	362.486
1476.03	482.054
1479.56	522.052
1483.09	513.479
1486.62	596.244
1490.15	421.764
1493.67	210.308
1497.2	81.99
1500.72	11.852
1504.24	28.367
1507.76	36.841
1511.28	152.077
1514.8	202.103
