Measurement: Raman, 514 nm, ccw, Raman Data Processed
Mineral: Albite
Rruff sample: R050402
Ideal chemistry: NaAlSi_3_O_8_
Locality: Urbano mine, Golconda District, Brazil
Source: Bob Downs
Description: Colorless tabular single crystals associated with fluorapatite R050401
Measured chemistry: Na_1.00_Al_1.00_Si_3.00_O_8_
Pin_id: M00145
Orientation: Laser parallel to (0 1 1). Fiducial mark perpendicular to laser is parallel to -a [-1 0 0]
Raman shift (cm-1)	intensity
93.48	0
98.416	7.26172
103.349	549.539
108.28	2806.79
113.208	1846.52
118.134	499.167
123.058	34.2978
127.979	333.69
132.898	963.212
137.814	2567.24
142.728	5886.84
147.639	6192.69
152.549	9788.55
157.455	17897.5
162.359	20121.8
167.261	15220.8
172.161	15228.7
177.058	18718.8
181.952	23051
186.845	18774
191.734	10548.7
196.622	7817.7
201.507	10287.3
206.389	14804.3
211.269	9139.82
216.147	2887.74
221.022	937.031
225.895	385.637
230.765	34.0957
235.633	236.87
240.498	644.488
245.361	1526.15
250.222	3034.7
255.08	1495.41
259.936	1349.08
264.789	1427
269.64	2270.68
274.488	4356.24
279.334	10494.6
284.178	24934.3
289.019	39381
293.857	21034.8
298.693	7220.74
303.527	3157.03
308.358	1911.62
313.187	1604.41
318.013	2125.24
322.837	4813.11
327.659	8717.03
332.478	3598.97
337.294	1237.89
342.108	889.747
346.92	756.518
351.729	405.188
356.535	293.74
361.34	124.16
366.141	43.6055
370.94	76.8926
375.737	80.9482
380.531	134.597
385.323	81.4473
390.113	108.872
394.9	642.297
399.684	1232.81
404.466	1722.43
409.245	1045.28
414.022	289.333
418.797	24.5596
423.569	61.4277
428.338	66.5644
433.105	141.019
437.87	151.946
442.632	312.598
447.391	817.029
452.149	1424.27
456.903	2106.26
461.655	2340.96
466.405	4635.39
471.152	11548.5
475.897	23564.3
480.639	16668.9
485.378	7319.12
490.116	5932.04
494.85	9490.66
499.582	22759
504.312	46858.7
509.039	36023.5
513.764	13623.6
518.486	6127.6
523.206	3525.56
527.923	2400.17
532.638	1659.92
537.35	1204.87
542.059	947.776
546.766	847.036
551.471	831.545
556.173	823.624
560.873	828.515
565.57	709.588
570.264	1081.98
574.957	1675.7
579.646	1722.43
584.333	791.598
589.018	524.451
593.7	281.993
598.379	1146.74
603.056	531.233
607.73	371.516
612.402	552.61
617.072	672.53
621.739	1051.26
626.403	1719.8
631.065	1848.16
635.724	1737.34
640.381	1721.35
645.035	2190.24
649.687	1557.04
654.336	874.222
658.983	184.943
663.627	255.251
668.268	104.285
672.907	89.4434
677.544	124.449
682.178	96.168
686.809	108.421
691.438	46.0859
696.065	95.2891
700.688	1.50586
705.31	7.25977
709.929	23.1367
714.545	55.8643
719.158	145.227
723.77	22.4189
728.378	65.7695
732.984	60.46
737.588	110.991
742.189	237.397
746.787	270.682
751.383	460.51
755.976	1268.45
760.567	2143.39
765.155	1835.22
769.741	1284.94
774.324	1266.58
778.904	691.686
783.482	356.26
788.058	457.071
792.631	352.106
797.201	661.426
801.769	842.513
806.334	1941.25
810.897	3981.74
815.457	4517.25
820.014	1895.54
824.569	950.206
829.122	628.132
833.671	416.263
838.219	304.838
842.763	317.922
847.306	343.738
851.845	183.782
856.382	286.377
860.917	378.037
865.448	38.7627
869.978	208.088
874.505	100.303
879.029	139.133
883.55	58.1865
888.069	19.7529
892.586	74.2969
897.1	74.3848
901.611	62.5762
906.12	101.88
910.626	34.7256
915.129	45.3174
919.63	168.153
924.129	26.3145
928.625	44.9355
933.118	7.25879
937.609	90.584
942.097	24.4844
946.582	93.1299
951.065	165.997
955.546	131.551
960.023	97.4131
964.499	204.747
968.971	79.4375
973.441	656.764
977.909	834.394
982.374	601.367
986.836	262.74
991.295	211.543
995.753	199.928
1000.21	753.137
1004.66	526.967
1009.11	710.959
1013.55	658.115
1018	704.443
1022.44	1213.39
1026.88	1886.06
1031.32	2900.09
1035.75	1953.64
1040.18	1074.05
1044.61	443.85
1049.04	351.996
1053.46	294.139
1057.88	157.477
1062.3	345.172
1066.71	158.557
1071.13	350.441
1075.54	727.106
1079.94	795.467
1084.35	1373.39
1088.75	2144.03
1093.15	3797.38
1097.55	5689.04
1101.94	4875.16
1106.34	3426.23
1110.73	3192.5
1115.11	3030.95
1119.5	2017.57
1123.88	1297.35
1128.26	646.293
1132.63	528.492
1137.01	349.943
1141.38	191.545
1145.75	280.291
1150.12	278.185
1154.48	90.2402
1158.84	143.471
1163.2	78.0957
1167.55	50.3164
1171.91	196.744
1176.26	13.7246
1180.61	76.0625
1184.95	162.58
1189.29	32.3789
1193.63	30.5566
1197.97	8.52344
1202.31	33.7227
1206.64	8.0957
1210.97	37.4746
1215.29	181.914
1219.62	129.459
1223.94	149.131
1228.26	0.207031
1232.57	8.03125
1236.89	104.033
1241.2	99.7207
1245.51	153.719
1249.81	195.799
1254.12	248.959
1258.42	160.666
1262.72	182.777
1267.01	231.287
1271.3	322.82
1275.59	336.412
1279.88	169.06
1284.17	237.764
1288.45	327.482
1292.73	346.32
1297.01	287.709
1301.28	362.481
1305.55	330.514
1309.82	320.5
1314.09	430.197
1318.35	434.322
1322.61	405.877
1326.87	356.117
1331.13	221.35
1335.38	131.621
1339.63	293.435
1343.88	279.742
1348.12	312.832
1352.37	230.748
1356.61	36.2461
1360.85	241.867
1365.08	114.033
1369.31	272.147
1373.54	137.473
1377.77	308.762
1381.99	304.836
1386.22	247.139
1390.43	83.3887
1394.65	242.34
1398.87	20.3457
1403.08	174.387
1407.29	44.4805
1411.49	311.635
1415.69	181.328
1419.89	288.535
1424.09	196.535
1428.29	229.684
1432.48	273.43
1436.67	313.822
1440.86	587.447
1445.04	637.516
1449.23	609.539
1453.4	722.139
1457.58	469.795
1461.76	599.658
1465.93	508.725
1470.1	415.725
1474.26	285.783
1478.43	349.824
1482.59	340.588
1486.75	152.789
1490.9	253.15
1495.06	106.58
1499.21	83.3398
1503.35	121.982
1507.5	18.8379
1511.64	198.818
1515.78	78.1758
1519.92	79.7773
1524.05	227.16
1528.18	182.67
1532.31	127.314
1536.44	54.1738
1540.56	463.027
1544.69	112.516
1548.8	44.4883
1552.92	327.379
1557.03	236.959
1561.14	1.80664
1565.25	214.606
1569.36	50.7656
