Measurement: Raman, 514 nm, ccw, Raman Data Processed
Mineral: Albite
Rruff sample: R050253
Ideal chemistry: NaAlSi_3_O_8_
Locality: Madawaska/Faraday mine, Bancroft, Ontario, Canada
Source: Marcus Origlieri
Description: Colorless to brown prismatic single crystals
Measured chemistry: (Na_0.99_Ca_0.01_)Al_1.00_(Si_0.99_Al_0.01_)_3_O_8_
Pin_id: L01944
Orientation: Laser parallel to (0 -1 -1). Fiducial mark perpendicular to laser is parallel to a [1 0 0]
Raman shift (cm-1)	intensity
94.714	0
99.649	156.685
104.582	538.862
109.512	2300.74
114.44	2882.94
119.365	1979.81
124.288	713.155
129.209	371.66
134.127	323.562
139.043	641.118
143.956	989.087
148.867	1828.19
153.775	3323.59
158.681	3504.12
163.585	5531.01
168.486	4356.73
173.385	2976.7
178.282	2175.06
183.176	2467.44
188.067	3177.14
192.956	3477.28
197.843	2776.92
202.727	2590.89
207.609	2454.61
212.489	3063.59
217.366	979.996
222.24	450.695
227.112	91.2305
231.982	89.582
236.849	50.5898
241.714	215.832
246.577	664.32
251.437	1470.23
256.294	1527
261.149	1258.07
266.002	2335.86
270.852	4352.9
275.7	3115.93
280.545	2707.82
285.388	4540.1
290.229	9982.97
295.067	9245.29
299.902	3438.88
304.735	1401.69
309.566	1063.76
314.394	734.846
319.22	503
324.043	222.193
328.864	869.432
333.682	400.703
338.498	53.9961
343.311	199.287
348.122	54.5371
352.931	26.709
357.737	14.0547
362.54	33.5605
367.341	7.47266
372.14	164.772
376.936	91.3691
381.73	63.1426
386.521	12.2715
391.31	192.236
396.096	264.897
400.88	665.697
405.661	1625.57
410.44	2933.49
415.216	1793.43
419.99	1933.39
424.761	228.606
429.53	301.969
434.297	79.4863
439.061	253.037
443.822	239.232
448.581	411.967
453.337	658.746
458.091	992.375
462.843	1436.69
467.592	3037.97
472.338	7277.21
477.082	18531.4
481.824	24578.6
486.563	9787.65
491.3	4682.49
496.034	4593.04
500.765	9080.91
505.494	22052.5
510.221	29173.1
514.945	11675.4
519.666	4634.97
524.385	2706.58
529.102	1635.41
533.816	1104.27
538.527	984.336
543.236	725.783
547.943	780.291
552.647	557.857
557.348	414.709
562.047	407.981
566.744	407.543
571.438	409.816
576.129	643.314
580.818	814.191
585.504	391.133
590.188	185.18
594.87	18.3516
599.549	69.9375
604.225	132.559
608.899	109.762
613.57	89.1309
618.239	139.721
622.905	298.772
627.569	254.139
632.23	241.728
636.889	335.603
641.545	330.629
646.198	585.723
650.849	488.148
655.498	438.051
660.144	131.887
664.787	186.748
669.428	286.545
674.067	361.82
678.703	51.9238
683.336	93.8418
687.967	163.598
692.595	17.3535
697.221	33.541
701.844	32.7949
706.465	21.6641
711.083	68.0019
715.698	141.281
720.311	188.309
724.922	436.791
729.53	271.777
734.135	137.318
738.738	15.9668
743.338	213.641
747.936	188.428
752.531	653.281
757.124	1335.95
761.714	3116.97
766.302	3978.25
770.887	1969.88
775.469	1354.31
780.049	787.082
784.626	569.949
789.201	288.299
793.773	156.373
798.343	85.5527
802.91	292.342
807.475	374.779
812.037	648.535
816.596	801.533
821.153	536.291
825.707	255.547
830.259	355.068
834.808	261.15
839.355	121.201
843.899	400.662
848.441	266.791
852.98	40.1836
857.516	46.6777
862.05	73.6367
866.581	107.731
871.11	38.9883
875.636	196.08
880.159	125.291
884.68	30.1172
889.199	40.3301
893.714	0.292969
898.228	33.5605
902.738	169.891
907.246	122.715
911.752	217.031
916.255	310.902
920.755	33.4414
925.253	84.3691
929.748	216.266
934.241	335.785
938.731	224.967
943.218	223.117
947.703	409.719
952.186	277.127
956.665	565.266
961.142	388.092
965.617	417.57
970.089	637.176
974.558	762.738
979.025	1249.45
983.489	927.871
987.951	610.777
992.41	447.863
996.866	762.297
1001.32	771.816
1005.77	952.16
1010.22	1300.71
1014.67	1423.89
1019.11	992.938
1023.55	832.809
1027.99	1216.72
1032.42	1525.49
1036.86	1166.2
1041.29	737.258
1045.72	751.648
1050.14	866.047
1054.56	511.441
1058.98	582.398
1063.4	302.781
1067.82	468.438
1072.23	608
1076.64	441.746
1081.05	989.375
1085.45	1536.94
1089.85	2250.08
1094.25	3713.38
1098.65	7389.37
1103.04	7024.53
1107.43	4751.37
1111.82	3849.42
1116.21	3650.67
1120.59	3346.27
1124.97	2336.95
1129.35	1157.07
1133.73	341.504
1138.1	219.34
1142.47	347.469
1146.84	408.848
1151.21	420.625
1155.57	533.82
1159.93	283.691
1164.29	357.356
1168.64	438.863
1172.99	298.875
1177.34	312.258
1181.69	198.738
1186.04	6.73047
1190.38	98.0547
1194.72	108.07
1199.05	148.809
1203.39	51.9453
1207.72	120.019
1212.05	17.207
1216.37	60.6445
1220.7	225.59
1225.02	91.6016
1229.34	9.35547
1233.65	113.633
1237.97	280.043
1242.28	336.086
1246.59	209.664
1250.89	275.082
1255.19	249.969
1259.49	128.254
1263.79	70.9844
1268.09	218.016
1272.38	422.32
1276.67	387.262
1280.95	473.789
1285.24	668.445
1289.52	556.496
1293.8	548.578
1298.08	619.086
1302.35	329.621
1306.62	525.246
1310.89	658.391
1315.15	199.668
1319.42	718.723
1323.68	652.676
1327.94	594.215
1332.19	776.035
1336.44	740.328
1340.69	424.781
1344.94	566.16
1349.19	531.945
1353.43	538.059
1357.67	458.629
1361.9	188.668
1366.14	515.043
1370.37	168.453
1374.6	375.652
1378.83	251.402
1383.05	192.356
1387.27	235.633
1391.49	150.5
1395.7	257.961
1399.92	249.633
1404.13	392.609
1408.34	278.793
1412.54	67.1797
1416.74	190.91
1420.94	210.719
1425.14	102.785
1429.34	330.18
1433.53	209.629
1437.72	244.516
1441.9	98.1641
1446.09	114.062
1450.27	167.129
1454.45	30.8242
1458.63	563.352
1462.8	179.492
1466.97	477.117
1471.14	484.793
1475.31	557.012
1479.47	855.203
1483.63	1028.23
1487.79	799.777
1491.94	628.457
1496.09	1024.29
1500.24	299.918
1504.39	630.641
1508.54	690.941
1512.68	766.75
1516.82	580.43
1520.95	616.727
1525.09	412.16
1529.22	438.059
1533.35	501.711
1537.47	386.168
1541.6	330.18
1545.72	195.164
1549.83	409.602
1553.95	373.555
1558.06	315.199
1562.17	7.05469
1566.28	251.871
1570.38	0
