Measurement: Raman, 514 nm, ccw, Raman Data Processed
Mineral: Albite
Rruff sample: R040129
Ideal chemistry: NaAlSi_3_O_8_
Locality: LaChance Quarry, Brunswick, Cumberland County, Maine, USA
Source: Bob Downs
Description: Colorless fragment of a tabular single crystal
Measured chemistry: (Na_0.99_K_0.01_)Al_1.00_Si_3.00_O_8_
Pin_id: L00089
Orientation: Laser parallel to c* (0 0 1). Fiducial mark perpendicular to laser is parallel to -a [-1 0 0]
Raman shift (cm-1)	intensity
130.08	0
134.248	134.883
138.413	557.73
142.577	1857.4
146.739	4940.72
150.898	7362.5
155.056	1416.27
159.212	110.704
163.365	375.073
167.517	666.913
171.666	1863.63
175.813	2151.38
179.959	3429.6
184.102	5669.45
188.244	5622.54
192.383	3080.56
196.52	1754.01
200.656	1695.73
204.789	3184.11
208.92	6443.38
213.049	3108.71
217.176	983.249
221.302	420.755
225.425	108.636
229.546	89.771
233.665	100.536
237.782	109.767
241.898	5.852
246.011	235.285
250.122	1232.53
254.231	1230.68
258.338	338.684
262.443	620.587
266.546	1940.43
270.647	2763.38
274.747	1240.07
278.844	724.692
282.939	1077.22
287.032	3087.8
291.123	6499.15
295.212	3339.1
299.3	1256.13
303.385	438.066
307.468	267.062
311.549	186.626
315.629	149.458
319.706	100.481
323.781	232.373
327.855	1718.02
331.926	1273.65
335.995	287.44
340.063	173.496
344.128	181.286
348.192	242.117
352.253	108.498
356.313	32.457
360.37	15.868
364.426	4.444
368.479	15.69
372.531	53.428
376.581	30.195
380.629	49.636
384.674	6.883
388.718	25.793
392.76	339.725
396.8	600.033
400.838	606.474
404.874	567.352
408.908	1429.12
412.94	1386.33
416.97	3208
420.999	827.981
425.025	286.05
429.049	156.002
433.072	152.87
437.092	217.664
441.111	441.664
445.127	739.489
449.142	1438.24
453.155	3658.11
457.166	6870.52
461.175	3436.98
465.181	2200.86
469.186	2622.99
473.19	5617.38
477.191	17053
481.19	16446.9
485.187	5382.83
489.183	2749.03
493.176	2415.99
497.168	3331.3
501.157	6611.69
505.145	18696.2
509.131	23364.1
513.115	9618.25
517.097	4183.54
521.077	2228.66
525.055	1421.13
529.031	1127.24
533.006	954.312
536.978	608.932
540.949	499.307
544.917	491.708
548.884	440.881
552.849	375.134
556.812	282.256
560.773	285.97
564.732	270.147
568.689	407.402
572.644	520.533
576.598	837.504
580.55	955.569
584.499	577.365
588.447	325.643
592.393	170.804
596.337	55.233
600.279	90.713
604.219	100.138
608.158	84.473
612.094	109.713
616.029	66.866
619.962	133.941
623.892	223.968
627.821	230.929
631.749	223.835
635.674	229.709
639.597	370.589
643.519	579.454
647.438	679.265
651.356	426.018
655.272	254.717
659.186	107.384
663.098	141.033
667.009	21.602
670.917	80.119
674.824	16.361
678.728	34.101
682.631	96.499
686.532	20.871
690.432	10.8
694.329	90.534
698.224	52.544
702.118	2.46
706.01	36.365
709.9	16.992
713.788	85.267
717.674	35.02
721.558	85.255
725.441	60.325
729.322	96.455
733.201	18.538
737.078	245.569
740.953	294.555
744.826	454.089
748.698	608
752.567	1078.69
756.435	2247.92
760.301	6046.59
764.165	9500.1
768.028	3894.54
771.888	1648.1
775.747	912.833
779.604	754.069
783.459	567.676
787.312	433.255
791.164	416.824
795.013	419.71
798.861	702.231
802.707	936.707
806.551	1696.17
810.394	3967.6
814.234	8351.01
818.073	6353.96
821.91	2546.82
825.745	1556.93
829.578	770.231
833.41	514.728
837.24	335.168
841.068	284.737
844.894	314.451
848.718	276.487
852.54	189.792
856.361	93.985
860.18	205.242
863.997	94.251
867.812	107.507
871.626	148.677
875.438	61.93
879.248	14.3
883.056	3.651
886.862	46.921
890.667	77.446
894.469	43.008
898.27	18.592
902.07	26.792
905.867	35.867
909.663	96.569
913.457	148.288
917.249	89.07
921.039	20.906
924.827	25.213
928.614	60.671
932.399	57.557
936.182	37.482
939.964	133.46
943.744	37.511
947.521	0.464
951.298	31.633
955.072	76.784
958.845	120.989
962.615	211.248
966.384	164.562
970.152	73.938
973.917	317.417
977.681	496.958
981.443	527.57
985.203	291.315
988.962	209.162
992.719	138.142
996.474	129.416
1000.23	521.688
1003.98	897.11
1007.73	817.65
1011.48	664.356
1015.22	667.22
1018.97	402.263
1022.71	321.414
1026.45	320.811
1030.19	310.064
1033.93	344.539
1037.66	178.318
1041.4	293.555
1045.13	488.46
1048.86	446.587
1052.59	428.787
1056.32	312.365
1060.04	272.812
1063.77	276.121
1067.49	135.165
1071.21	311.456
1074.93	219.841
1078.64	397.798
1082.36	575.779
1086.07	716.605
1089.78	931.065
1093.49	1542.34
1097.2	2328.17
1100.91	2253.72
1104.61	1452.49
1108.32	920.128
1112.02	535.729
1115.72	307.52
1119.41	332.214
1123.11	431.937
1126.8	165.695
1130.5	92.477
1134.19	154.312
1137.88	180.168
1141.56	237.147
1145.25	154.963
1148.93	151.709
1152.62	217.653
1156.3	163.28
1159.98	81.057
1163.65	129.552
1167.33	170.629
1171	59.651
1174.68	150.003
1178.35	15.826
1182.02	36.65
1185.68	7.153
1189.35	126.308
1193.01	91.159
1196.67	67.586
1200.33	158.528
1203.99	64.556
1207.65	17.716
1211.31	4.12
1214.96	78.181
1218.61	188.352
1222.26	191.879
1225.91	289.771
1229.56	262.113
1233.2	101.394
1236.85	63.111
1240.49	43.776
1244.13	113.253
1247.77	169.872
1251.4	167.2
1255.04	214.688
1258.67	185.853
1262.3	264.123
1265.93	149.108
1269.56	95.482
1273.19	116.542
1276.82	146.498
1280.44	239.927
1284.06	228.104
1287.68	223.196
1291.3	205.618
1294.92	108.795
1298.53	137.87
1302.14	71.723
1305.76	31.301
1309.37	36.329
1312.98	74.521
1316.58	170.444
1320.19	181.096
1323.79	181.468
1327.39	154.195
1330.99	169.637
1334.59	32.62
1338.19	12.574
1341.79	16.831
1345.38	14.473
1348.97	125.622
1352.56	134.046
1356.15	145.782
1359.74	249.271
1363.32	140.634
1366.91	103.156
1370.49	37.189
1374.07	62.403
1377.65	64.896
1381.23	99.532
1384.8	151.683
1388.38	323.739
1391.95	166.496
1395.52	159.196
1399.09	104.383
1402.66	77.183
1406.22	118.783
1409.79	27.046
1413.35	30.983
1416.91	41.951
1420.47	171.028
1424.03	100.505
1427.59	262.878
1431.14	238.104
1434.69	288.854
1438.24	198.896
1441.8	211.684
1445.34	345.27
1448.89	172.017
1452.43	187.044
1455.98	193.559
1459.52	237.176
1463.06	365.835
1466.6	261.927
1470.14	305.766
1473.67	195.98
1477.2	158.277
1480.74	156.537
1484.27	21.306
1487.8	21.383
1491.32	2.784
1494.85	9.702
1498.37	5.509
1501.9	18.753
1505.42	209.548
1508.94	235.376
