Measurement: Raman, 514 nm, ccw, Raman Data Processed
Mineral: Albite
Rruff sample: R050253
Ideal chemistry: NaAlSi_3_O_8_
Locality: Madawaska/Faraday mine, Bancroft, Ontario, Canada
Source: Marcus Origlieri
Description: Colorless to brown prismatic single crystals
Measured chemistry: (Na_0.99_Ca_0.01_)Al_1.00_(Si_0.99_Al_0.01_)_3_O_8_
Pin_id: L01462
Orientation: Laser parallel to (1 0 1). Fiducial mark perpendicular to laser is parallel to b [0 1 0]
Raman shift (cm-1)	intensity
94.714	0
99.649	96.124
104.582	365.948
109.512	1917.77
114.44	1550.61
119.365	1073.39
124.288	384.05
129.209	40.9121
134.127	2.81738
139.043	678.945
143.956	1540.59
148.867	3936.72
153.775	8757.57
158.681	13012.9
163.585	18334.2
168.486	14250.8
173.385	10083
178.282	10589.4
183.176	11916.6
188.067	12344.5
192.956	9079.93
197.843	6559.55
202.727	7790.56
207.609	8617.83
212.489	9700.13
217.366	4255.48
222.24	1435.45
227.112	384.929
231.982	130.803
236.849	103.659
241.714	42.1914
246.577	60.9062
251.437	54.1748
256.294	90.1816
261.149	724.53
266.002	546.816
270.852	1460.48
275.7	2510.96
280.545	6443.07
285.388	12942.4
290.229	19797.1
295.067	18736.9
299.902	7675.37
304.735	3100.49
309.566	2356.95
314.394	1773.88
319.22	1270.14
324.043	1270.08
328.864	1173.55
333.682	969.596
338.498	417.205
343.311	438.364
348.122	433.069
352.931	375.317
357.737	41.1045
362.54	159.362
367.341	135.079
372.14	155.837
376.936	19.9404
381.73	77.1006
386.521	42.4199
391.31	5.29102
396.096	165.512
400.88	854.78
405.661	1374.51
410.44	2003.39
415.216	536.632
419.99	263.734
424.761	90.0918
429.53	99.4189
434.297	23.2686
439.061	220.546
443.822	400.09
448.581	980.282
453.337	1663.12
458.091	2694.6
462.843	3459.72
467.592	7483.5
472.338	17851.9
477.082	28110
481.824	32416.8
486.563	14921.2
491.3	7512.79
496.034	9936.71
500.765	22067.5
505.494	35553.5
510.221	41250.7
514.945	19154.4
519.666	7591.09
524.385	4211.83
529.102	2743.37
533.816	1968.29
538.527	1471.26
543.236	1198.13
547.943	1062.07
552.647	1086.56
557.348	982.571
562.047	966.108
566.744	976.576
571.438	1401.71
576.129	1548.46
580.818	1754.66
585.504	1419.42
590.188	1140.54
594.87	1175.29
599.549	1251.45
604.225	966.994
608.899	1000.61
613.57	833.277
618.239	944.559
622.905	1057.45
627.569	926.945
632.23	982.894
636.889	996.785
641.545	1294.16
646.198	1326.26
650.849	1157.08
655.498	841.828
660.144	454.736
664.787	417.533
669.428	172.094
674.067	171.518
678.703	45.5059
683.336	38.0605
687.967	13.5254
692.595	152.908
697.221	40.3301
701.844	167.381
706.465	64.5527
711.083	85.4356
715.698	116.398
720.311	26.4902
724.922	52.8379
729.53	91.5859
734.135	250.815
738.738	249.565
743.338	589.887
747.936	388.805
752.531	903.338
757.124	1551.49
761.714	2582.26
766.302	3053.67
770.887	2514.72
775.469	2356.42
780.049	1795.77
784.626	1058.78
789.201	858.471
793.773	520.606
798.343	839.256
802.91	1092.62
807.475	1860.19
812.037	2529.58
816.596	3393.4
821.153	2323.39
825.707	1448.22
830.259	1139.54
834.808	980.287
839.355	966.596
843.899	654.846
848.441	789.08
852.98	965.588
857.516	901.594
862.05	862.832
866.581	718.473
871.11	582.506
875.636	592.062
880.159	467.293
884.68	551.148
889.199	400.019
893.714	579.914
898.228	609.887
902.738	479.947
907.246	474.098
911.752	126.324
916.255	251.623
920.755	23.0332
925.253	77.4062
929.748	284.172
934.241	21.1992
938.731	64.3106
943.218	79.4961
947.703	203.488
952.186	452.731
956.665	357.234
961.142	534.135
965.617	298.844
970.089	150.545
974.558	21.9414
979.025	103.217
983.489	15.8125
987.951	20.9688
992.41	82.6074
996.866	586.504
1001.32	653.705
1005.77	729.158
1010.22	970.842
1014.67	927.748
1019.11	807.869
1023.55	743.195
1027.99	558.738
1032.42	553.041
1036.86	355.008
1041.29	418.775
1045.72	416.158
1050.14	305.166
1054.56	239.961
1058.98	190.471
1063.4	298.664
1067.82	452.34
1072.23	731.777
1076.64	1251.35
1081.05	1711.38
1085.45	2460.04
1089.85	4032.63
1094.25	7260.06
1098.65	11199.6
1103.04	10767.4
1107.43	7900.67
1111.82	7015.5
1116.21	6498.73
1120.59	5446.81
1124.97	3674.26
1129.35	1770.8
1133.73	1105.44
1138.1	699.164
1142.47	393.977
1146.84	392.885
1151.21	304.879
1155.57	130.959
1159.93	37.8867
1164.29	204.205
1168.64	40.6387
1172.99	162.49
1177.34	180.67
1181.69	30.8848
1186.04	45.0938
1190.38	144.141
1194.72	48.8379
1199.05	158.014
1203.39	70.3731
1207.72	117.139
1212.05	220.691
1216.37	12.4277
1220.7	88.375
1225.02	133.182
1229.34	77.9902
1233.65	189.109
1237.97	227.826
1242.28	348.459
1246.59	294.346
1250.89	457.176
1255.19	560.551
1259.49	652.057
1263.79	849.627
1268.09	1083.45
1272.38	1046.46
1276.67	1157.65
1280.95	915.502
1285.24	997.336
1289.52	919.59
1293.8	1190.13
1298.08	1071.75
1302.35	1202.17
1306.62	1508.41
1310.89	1290.11
1315.15	1170.08
1319.42	1177.2
1323.68	1186.92
1327.94	609.115
1332.19	593.746
1336.44	335.365
1340.69	420.842
1344.94	174.324
1349.19	265.973
1353.43	242.644
1357.67	132.338
1361.9	99.9785
1366.14	131.574
1370.37	111.377
1374.6	240.92
1378.83	344.201
1383.05	430.664
1387.27	219.783
1391.49	105.424
1395.7	200.943
1399.92	37.6562
1404.13	184.945
1408.34	238.523
1412.54	220.836
1416.74	226.434
1420.94	54.8945
1425.14	159.539
1429.34	287.092
1433.53	786.574
1437.72	1148.41
1441.9	1483.77
1446.09	1962.45
1450.27	2335.1
1454.45	2294.85
1458.63	2047.84
1462.8	1675.87
1466.97	1146.68
1471.14	919.244
1475.31	610.992
1479.47	602.625
1483.63	576.479
1487.79	310.981
1491.94	292.424
1496.09	248.303
1500.24	148.758
1504.39	53.2266
1508.54	225.629
1512.68	46.3535
1516.82	59.0703
1520.95	420.867
1525.09	536.269
1529.22	320.938
1533.35	590.104
1537.47	486.801
1541.6	354.043
1545.72	380.625
1549.83	189.731
1553.95	542.051
1558.06	134.328
1562.17	292.121
1566.28	3.16016
1570.38	0
