Measurement: Raman, 514 nm, ccw, Raman Data Processed
Mineral: Albite
Rruff sample: R050253
Ideal chemistry: NaAlSi_3_O_8_
Locality: Madawaska/Faraday mine, Bancroft, Ontario, Canada
Source: Marcus Origlieri
Description: Colorless to brown prismatic single crystals
Measured chemistry: (Na_0.99_Ca_0.01_)Al_1.00_(Si_0.99_Al_0.01_)_3_O_8_
Pin_id: L01416
Orientation: Laser parallel to b* (0 1 0). Fiducial mark perpendicular to laser is parallel to c [0 0 1]
Raman shift (cm-1)	intensity
77.423	0
82.367	803.639
87.308	2762.32
92.246	2381.31
97.182	122.686
102.116	88.0896
107.047	606.907
111.976	886.352
116.903	989.234
121.827	349.347
126.749	319.33
131.668	1614.4
136.585	2852.44
141.5	3750.66
146.412	5910.48
151.321	10733.6
156.229	15263.2
161.134	19326.1
166.036	20616.8
170.936	13124.3
175.834	12370.9
180.729	14413.8
185.622	17019.1
190.512	15033.6
195.4	9339.48
200.286	8604.58
205.169	9897.91
210.049	12363.4
214.928	8038.12
219.803	2437.41
224.677	856.605
229.548	391.135
234.416	41.0454
239.282	112.828
244.146	276.785
249.007	612.38
253.866	1356.68
258.722	1088.13
263.576	1482.47
268.427	2662.5
273.276	3729.09
278.123	4917.13
282.967	10736.5
287.809	18434.5
292.648	24542.7
297.485	12913.9
302.319	4605.07
307.151	2492.26
311.98	1959.41
316.807	1421.52
321.631	1449.58
326.454	1845.6
331.273	2439.55
336.09	1083.42
340.905	297.222
345.717	278.93
350.527	340.54
355.334	55.0454
360.139	64.5913
364.941	154.83
369.741	155.906
374.538	133.472
379.333	52.291
384.126	41.1977
388.916	159.163
393.703	449.535
398.488	1189.03
403.271	2236.65
408.051	3504.24
412.828	2659.98
417.603	1780.98
422.376	657.122
427.146	142.29
431.914	76.3491
436.679	153.31
441.442	439.129
446.202	1082.8
450.96	2222.31
455.715	4075.68
460.467	4697.89
465.218	5384.95
469.965	12276.9
474.711	24128.6
479.454	36319.2
484.194	24247.7
488.932	9881.08
493.667	8270.29
498.4	16652.3
503.13	33147.1
507.858	49794.2
512.583	33686.3
517.306	12398.2
522.026	5865.11
526.744	3490.76
531.459	2228.55
536.172	1587.76
540.882	1307.95
545.59	1108.4
550.295	923.332
554.998	769.71
559.698	627.399
564.396	679.828
569.091	859.565
573.784	1331.53
578.474	1653.65
583.162	1366.34
587.847	580.04
592.529	264.797
597.209	141.456
601.887	103.136
606.562	106.975
611.235	118.966
615.905	172.108
620.572	336.33
625.237	599.511
629.9	801.672
634.56	988.864
639.217	933.033
643.872	1059.24
648.524	994.945
653.174	636.345
657.821	323.414
662.466	118.045
667.108	110.174
671.748	180.479
676.385	36.3027
681.02	13.4531
685.652	95.9829
690.281	64.8257
694.908	16.376
699.533	9.71094
704.155	16.353
708.774	29.063
713.391	90.5947
718.005	231.881
722.617	188.852
727.226	121.597
731.833	97.7104
736.437	84.6831
741.039	336.791
745.638	426.913
750.234	887.624
754.828	1786.72
759.419	3881.82
764.008	6059.72
768.595	4708.35
773.178	2882.65
777.759	2285.01
782.338	1289.15
786.914	787.503
791.488	523.998
796.059	529.221
800.627	847.171
805.193	1420.86
809.756	3266.27
814.317	5632.58
818.875	5086.37
823.431	2072.47
827.984	878.207
832.534	488.787
837.082	430.238
841.627	264.403
846.17	141.159
850.71	165.135
855.248	3.08106
859.783	39.042
864.316	2.29199
868.846	72.3003
873.373	45.4219
877.898	107.36
882.42	18.9453
886.94	56.981
891.457	1.5791
895.971	33.7861
900.483	37.5298
904.993	59.2915
909.5	34.1631
914.004	69.2017
918.505	105.465
923.004	29.6343
927.501	12.7393
931.995	142.797
936.486	44.8565
940.975	206.77
945.461	309.71
949.945	426.298
954.426	581.825
958.904	718.251
963.38	600.861
967.853	602.843
972.324	1145.19
976.792	1533.81
981.258	1688.56
985.72	1042.4
990.181	709.092
994.639	819
999.094	938.615
1003.55	1519.52
1008	1902.77
1012.44	2122.35
1016.89	1847.89
1021.33	1263.53
1025.77	906.422
1030.21	1018.54
1034.64	1156.09
1039.07	933.828
1043.5	701.542
1047.93	683.619
1052.35	603.595
1056.78	467.2
1061.19	506.316
1065.61	508.799
1070.02	649.874
1074.43	849.757
1078.84	1281.92
1083.25	1834.09
1087.65	3112.74
1092.05	5781.35
1096.45	10147.9
1100.85	12226.6
1105.24	9432.02
1109.63	7066.54
1114.02	6347.93
1118.4	5624.46
1122.78	3913.79
1127.16	2303.96
1131.54	1335.01
1135.92	772.602
1140.29	564.614
1144.66	462.4
1149.02	638.744
1153.39	540.256
1157.75	522.065
1162.11	296.291
1166.46	204.342
1170.82	121.328
1175.17	77.5142
1179.52	134.688
1183.86	45.7495
1188.21	53.1699
1192.55	22.1689
1196.89	95.832
1201.22	30.7705
1205.55	17.2744
1209.88	64.6728
1214.21	66.5859
1218.54	25.0625
1222.86	26.5059
1227.18	96.5928
1231.5	60.2905
1235.81	33.4468
1240.12	101.194
1244.43	28.3892
1248.74	24.9688
1253.04	71.4907
1257.34	29.5234
1261.64	20.3291
1265.94	102.879
1270.23	105.019
1274.52	113.333
1278.81	117.124
1283.1	67.1138
1287.38	109.566
1291.66	63.8657
1295.94	68.2271
1300.21	109.552
1304.48	182.659
1308.75	213.365
1313.02	173.977
1317.29	131.084
1321.55	153.494
1325.81	104.767
1330.06	165.494
1334.32	289.278
1338.57	248.448
1342.82	164.707
1347.06	304.326
1351.31	306.35
1355.55	106.706
1359.79	82.6148
1364.02	115.418
1368.26	142.295
1372.49	129.99
1376.71	53.4434
1380.94	142.473
1385.16	129.029
1389.38	80.7148
1393.6	30.4927
1397.81	0.531738
1402.02	59.4517
1406.23	80.8027
1410.44	4.26562
1414.64	82.7764
1418.85	132.037
1423.04	16.1323
1427.24	91.6094
1431.43	132.525
1435.62	53.0391
1439.81	32.2656
1444	127.514
1448.18	70.0654
1452.36	115.891
1456.54	92.3691
1460.71	113.659
1464.89	39.3682
1469.06	67.0273
1473.22	123.491
1477.39	114.564
1481.55	93.4668
1485.71	79.5762
1489.86	81.5713
1494.02	57.3389
1498.17	29.0498
1502.32	122.981
1506.46	79.9394
1510.61	72.4853
1514.75	145.89
1518.88	10.8711
1523.02	24.8574
1527.15	174.582
1531.28	91.7148
1535.41	90.9326
1539.53	144.366
1543.66	204.019
1547.78	132.522
1551.89	211.605
1556.01	360.237
1560.12	149.67
1564.23	199.774
1568.33	0.969727
