Measurement: Raman, 514 nm, ccw, Raman Data Processed
Mineral: Albite
Rruff sample: R040068
Ideal chemistry: NaAlSi_3_O_8_
Locality: Harding Pegmatite, Dixon, New Mexico, USA
Source: University of Arizona Mineral Museum
Description: Tan colored crystal fragment
Measured chemistry: (Na_0.99_Ca_0.01_)Al_1.00_(Si_0.99_Al_0.01_)_3_O_8_
Pin_id: L00433
Orientation: Laser parallel to -b* (0 -1 0). Fiducial mark perpendicular to laser is parallel to -c [0 0 -1]
Raman shift (cm-1)	intensity
128.69	0
132.858	8.336
137.025	112.416
141.189	222.426
145.352	709.604
149.512	1484.08
153.67	1290.98
157.827	1917.65
161.981	2039.81
166.133	1253.47
170.283	961.242
174.431	774.806
178.577	1243.87
182.721	1949.76
186.863	2017.31
191.003	1380.18
195.141	1073.91
199.277	1018.02
203.411	1672.07
207.543	2676.58
211.673	1771.1
215.801	805.913
219.927	211.245
224.051	87.128
228.173	156.684
232.292	170.009
236.41	151.112
240.526	41.661
244.64	233.187
248.752	743.772
252.861	622.837
256.969	392.495
261.075	533.115
265.179	1457.96
269.281	1761.52
273.38	1225.14
277.478	1070.66
281.574	1753.44
285.668	4557.53
289.76	6691.38
293.85	3957.9
297.937	1816.95
302.023	797.75
306.107	598.873
310.189	510.015
314.269	310.995
318.347	231.758
322.423	222.112
326.497	311.969
330.569	181.445
334.639	130.624
338.707	229.564
342.773	17.926
346.837	214.851
350.899	10.66
354.96	186.426
359.018	42.229
363.074	11.919
367.128	44.008
371.181	80.007
375.231	3.928
379.28	58.089
383.326	18.445
387.37	23.733
391.413	29.813
395.454	178.156
399.492	231.602
403.529	676.665
407.564	1121.84
411.596	817.773
415.627	1123.68
419.656	449.58
423.683	44.521
427.708	91.338
431.731	27.146
435.752	22.938
439.772	128.951
443.789	265.883
447.804	273.672
451.817	489.605
455.829	585.725
459.838	901.326
463.846	1397.39
467.852	2666.57
471.855	6152.54
475.857	15777.8
479.857	16203.1
483.855	7258.2
487.851	3453.16
491.845	2508.05
495.837	3133.22
499.828	6978.1
503.816	18422
507.802	20392.8
511.787	9545.88
515.77	4362.07
519.75	2366.72
523.729	1625.44
527.706	1077.52
531.681	786.879
535.654	560.508
539.625	664.318
543.595	348.809
547.562	302.594
551.527	400.428
555.491	266.27
559.453	392.857
563.412	1337.83
567.37	253.605
571.326	138.715
575.28	506.479
579.233	689.107
583.183	508.072
587.131	277.256
591.078	294.947
595.022	168.811
598.965	32.967
602.906	23.006
606.845	100.85
610.782	174.592
614.718	168.428
618.651	32.154
622.582	44.236
626.512	229.16
630.44	222.434
634.366	85.59
638.29	108.633
642.212	181.561
646.132	224.42
650.05	347.125
653.967	49.711
657.882	122.172
661.794	75.479
665.705	146.607
669.614	258.59
673.522	110.449
677.427	37.916
681.331	126.271
685.232	45.023
689.132	175.977
693.03	116.559
696.926	5.07
700.82	259.783
704.713	319.793
708.603	0.371
712.492	289.205
716.379	308.617
720.264	66.238
724.147	378.051
728.028	311.914
731.908	242.877
735.785	211.352
739.661	0.375
743.535	357.736
747.407	415.812
751.278	366.496
755.146	773.795
759.013	1828.68
762.878	2796
766.741	1779.32
770.602	1306.75
774.461	913.592
778.319	547.025
782.174	223.777
786.028	370.016
789.88	336.6
793.73	183.16
797.579	167.848
801.425	216.125
805.27	362.449
809.113	517.648
812.954	763.406
816.794	643.5
820.631	159.033
824.467	194.438
828.301	162.902
832.133	224.264
835.963	43.941
839.792	73.309
843.618	123.516
847.443	32.457
851.266	69.961
855.088	84.842
858.907	168.383
862.725	109.156
866.541	154.26
870.355	123.031
874.167	237.164
877.978	41.199
881.787	45.377
885.594	126.773
889.399	217.246
893.202	195.15
897.004	389.627
900.803	174.115
904.601	368.568
908.398	23.018
912.192	57.51
915.985	312.062
919.776	236.523
923.565	180.701
927.352	234.887
931.138	59.105
934.922	93.377
938.704	97.674
942.484	381.996
946.262	226.35
950.039	350.74
953.814	215.125
957.587	289.596
961.359	404.121
965.128	568.713
968.896	663.393
972.662	638.197
976.427	733.08
980.189	608.066
983.95	173.227
987.709	368.109
991.467	223.545
995.222	439.221
998.976	162.652
1002.73	678.4
1006.48	684.654
1010.23	661.068
1013.97	807.705
1017.72	499.59
1021.46	406.65
1025.2	524.107
1028.94	749.152
1032.68	921.996
1036.42	657.928
1040.15	516.363
1043.89	734.992
1047.62	623.463
1051.35	561.637
1055.07	457.426
1058.8	365.746
1062.52	664.336
1066.25	538.461
1069.97	535.568
1073.69	692.768
1077.4	590.131
1081.12	797.67
1084.83	1095.4
1088.55	2153.32
1092.26	2851.46
1095.96	4579.8
1099.67	4758.36
1103.38	3337.15
1107.08	2946.17
1110.78	2395.65
1114.48	2575.61
1118.18	1995.72
1121.88	1295.98
1125.57	716.643
1129.27	337.639
1132.96	228.807
1136.65	350.281
1140.34	702.035
1144.02	974.375
1147.71	637.699
1151.39	561.646
1155.07	116.264
1158.75	751.625
1162.43	12.188
1166.11	374.887
1169.78	222.957
1173.45	472.162
1177.12	382.709
1180.79	344.875
1184.46	278.861
1188.13	334.986
1191.79	152.824
1195.45	135.244
1199.11	378.174
1202.77	614.326
1206.43	436.83
1210.09	408.176
1213.74	90.486
