Measurement: Raman, 514 nm, ccw, Raman Data Processed
Mineral: Albite
Rruff sample: R050253
Ideal chemistry: NaAlSi_3_O_8_
Locality: Madawaska/Faraday mine, Bancroft, Ontario, Canada
Source: Marcus Origlieri
Description: Colorless to brown prismatic single crystals
Measured chemistry: (Na_0.99_Ca_0.01_)Al_1.00_(Si_0.99_Al_0.01_)_3_O_8_
Pin_id: L01462
Orientation: Laser parallel to (1 0 1). Fiducial mark perpendicular to laser is parallel to b [0 1 0]
Raman shift (cm-1)	intensity
94.714	0
99.649	240.054
104.582	1084.11
109.512	3251.59
114.44	2559.2
119.365	832.852
124.288	335.514
129.209	567.602
134.127	1158.93
139.043	3149.95
143.956	6263.43
148.867	9248
153.775	6675.09
158.681	4000.58
163.585	4227.99
168.486	4715.08
173.385	5510.61
178.282	6867.31
183.176	9467.29
188.067	8370.1
192.956	5448
197.843	4546.05
202.727	6247.27
207.609	8371.6
212.489	5569.98
217.366	2048.31
222.24	766.655
227.112	201.494
231.982	56.5938
236.849	328.012
241.714	447.019
246.577	882.402
251.437	1784.34
256.294	1414.51
261.149	2569.03
266.002	3839.8
270.852	4103.08
275.7	2695.38
280.545	3801.31
285.388	7773.56
290.229	11592.9
295.067	7036.16
299.902	2652.22
304.735	1049.95
309.566	773.242
314.394	645.881
319.22	1034.81
324.043	2085.07
328.864	3786.63
333.682	1438.45
338.498	339.467
343.311	24.6465
348.122	54.9668
352.931	124.678
357.737	73.5098
362.54	36.6328
367.341	240.17
372.14	10.3438
376.936	166.543
381.73	54.6836
386.521	9.26172
391.31	141.766
396.096	640.533
400.88	1324.68
405.661	2044.25
410.44	2611.25
415.216	3239.55
419.99	1700.15
424.761	451.033
429.53	204.168
434.297	438.408
439.061	797.65
443.822	1585.83
448.581	3629.93
453.337	7223.98
458.091	7564.94
462.843	5016.73
467.592	7285.84
472.338	17556.3
477.082	30047.3
481.824	21652.5
486.563	8616.51
491.3	5611.26
496.034	8596.99
500.765	20621.2
505.494	35987.9
510.221	27231.2
514.945	10485.8
519.666	4784.38
524.385	2838.34
529.102	1740.05
533.816	1486.76
538.527	1122.47
543.236	882.606
547.943	736.269
552.647	546.76
557.348	332.297
562.047	452.793
566.744	558.713
571.438	1072.59
576.129	1575.32
580.818	1416.56
585.504	801.287
590.188	347.266
594.87	71.0019
599.549	228.277
604.225	16.5039
608.899	170.365
613.57	15.9375
618.239	294.688
622.905	420.16
627.569	257.459
632.23	402.617
636.889	321.818
641.545	781.217
646.198	988.828
650.849	602.797
655.498	332.234
660.144	333.238
664.787	121.981
669.428	219.881
674.067	77.8164
678.703	68.5234
683.336	82.1562
687.967	56.5898
692.595	89.1465
697.221	144.682
701.844	16.3809
706.465	154.088
711.083	93.8594
715.698	142.225
720.311	278.557
724.922	206.342
729.53	241.666
734.135	93.2734
738.738	494.369
743.338	596.316
747.936	1044.95
752.531	2553.74
757.124	6149
761.714	10965.4
766.302	8163.15
770.887	3649.16
775.469	2061.92
780.049	1375.69
784.626	963.301
789.201	747.227
793.773	913.879
798.343	947.834
802.91	1725.27
807.475	4260.31
812.037	8990.51
816.596	9406.06
821.153	4289.12
825.707	1545.53
830.259	1004.53
834.808	651.643
839.355	307.385
843.899	368.26
848.441	25.3262
852.98	318.023
857.516	48.1348
862.05	112.176
866.581	8.49219
871.11	158.988
875.636	177.621
880.159	131.228
884.68	102.387
889.199	88.4219
893.714	20.7012
898.228	197.68
902.738	11.5078
907.246	12.998
911.752	28.9277
916.255	219.799
920.755	159.342
925.253	89.416
929.748	42.7188
934.241	54.5078
938.731	92.2441
943.218	238.859
947.703	364.332
952.186	602.691
956.665	457.133
961.142	249.023
965.617	446.174
970.089	660.416
974.558	702.846
979.025	819.498
983.489	603.854
987.951	503.582
992.41	503.518
996.866	802.309
1001.32	998.123
1005.77	1655.93
1010.22	1667.97
1014.67	1795.9
1019.11	755.676
1023.55	865.801
1027.99	659.008
1032.42	834.191
1036.86	765.926
1041.29	624.695
1045.72	814.926
1050.14	680
1054.56	564.383
1058.98	408.16
1063.4	393.285
1067.82	329.84
1072.23	489.914
1076.64	560.625
1081.05	1240.38
1085.45	1980.61
1089.85	3122.93
1094.25	6199.42
1098.65	8694.66
1103.04	7395.82
1107.43	4439.48
1111.82	3646.91
1116.21	3104.77
1120.59	2358.36
1124.97	1376.29
1129.35	785.273
1133.73	343.992
1138.1	350.078
1142.47	313.309
1146.84	594.523
1151.21	646.93
1155.57	329.738
1159.93	106.762
1164.29	40.5781
1168.64	58.6797
1172.99	64.0625
1177.34	290.977
1181.69	126.883
1186.04	129.453
1190.38	12.3242
1194.72	71.0547
1199.05	6.41406
1203.39	0.191406
1207.72	189.75
1212.05	186.562
1216.37	10.4648
1220.7	182.356
1225.02	197.168
1229.34	50.3906
1233.65	200.441
1237.97	162.113
1242.28	39.9531
1246.59	241.715
1250.89	296.606
1255.19	22.0781
1259.49	46.3555
1263.79	202.883
1268.09	203.113
1272.38	358.602
1276.67	302.363
1280.95	378.973
1285.24	333.672
1289.52	328.856
1293.8	451.941
1298.08	373.18
1302.35	276.25
1306.62	389.805
1310.89	38.6484
1315.15	683.172
1319.42	510.922
1323.68	373.68
1327.94	806.719
1332.19	500.312
1336.44	639.574
1340.69	116.418
1344.94	297.621
1349.19	214.644
1353.43	370.082
1357.67	524.957
1361.9	198.098
1366.14	252.574
1370.37	290.711
1374.6	128.977
1378.83	190.984
1383.05	352.418
1387.27	13.5977
1391.49	236.281
1395.7	8.14062
1399.92	195.481
1404.13	118.008
1408.34	363.715
1412.54	201.555
1416.74	174.234
1420.94	57.207
1425.14	28.6641
1429.34	111.402
1433.53	320.438
1437.72	123.996
1441.9	109.906
1446.09	302.113
1450.27	34.7031
1454.45	372.844
1458.63	212.562
1462.8	161.164
1466.97	467.039
1471.14	277.707
1475.31	530.281
1479.47	402.789
1483.63	455.461
1487.79	520.769
1491.94	375.746
1496.09	11.9062
1500.24	181.422
1504.39	275.379
1508.54	579.633
1512.68	304.238
1516.82	383.969
1520.95	148.769
1525.09	225.305
1529.22	360.574
1533.35	330.894
1537.47	294.805
1541.6	275.949
1545.72	233.941
1549.83	489.195
1553.95	340.512
1558.06	555.023
1562.17	365.664
1566.28	214.812
1570.38	0
