Measurement: Raman, 514 nm, ccw, Raman Data Processed
Mineral: Albite
Rruff sample: R050402
Ideal chemistry: NaAlSi_3_O_8_
Locality: Urbano mine, Golconda District, Brazil
Source: Bob Downs
Description: Colorless tabular single crystals associated with fluorapatite R050401
Measured chemistry: Na_1.00_Al_1.00_Si_3.00_O_8_
Pin_id: M00107
Orientation: Laser parallel to b* (0 1 0). Fiducial mark perpendicular to laser is parallel to c [0 0 1]
Raman shift (cm-1)	intensity
86.072	0
91.012	734.249
95.948	57.0991
100.883	529.106
105.815	1921.27
110.744	3154.74
115.671	3245.03
120.596	335.031
125.519	48.2441
130.439	697.309
135.356	2489.93
140.271	6434
145.184	10776.5
150.094	12923.9
155.002	8431.43
159.908	2733.25
164.811	4231.72
169.711	6646.41
174.61	9516.73
179.505	11348.1
184.399	13880.7
189.29	12606.8
194.178	7792.34
199.064	7396.51
203.948	9797.25
208.829	12079.6
213.708	8399.47
218.585	2406.34
223.459	716.655
228.33	217.991
233.199	136.74
238.066	166.963
242.93	898.334
247.792	1695.83
252.651	2742.48
257.508	2497.74
262.363	3924.78
267.215	5590.4
272.064	6065.78
276.912	3940.03
281.756	6141.4
286.598	10281.8
291.438	14164.2
296.276	8207.56
301.111	2921.81
305.943	1251.82
310.773	587.438
315.601	427.645
320.426	1090.47
325.248	1658.92
330.068	2473.01
334.886	988.748
339.701	316.13
344.514	183.154
349.324	173.808
354.132	17.9448
358.938	68.3701
363.741	69.7969
368.541	83.7485
373.339	157.296
378.135	124.589
382.928	2.9082
387.718	177.209
392.506	729.145
397.292	1468.89
402.075	2376.56
406.856	3532.23
411.634	4781.86
416.41	5313.6
421.183	2723.13
425.954	760.602
430.722	677.086
435.488	941.495
440.251	1578.68
445.012	3539.54
449.77	8392.1
454.526	13210.3
459.28	13076.3
464.03	8232.93
468.779	13334.3
473.525	27750.4
478.268	40195.1
483.009	28646.7
487.747	10904.1
492.483	8587.71
497.217	16688.8
501.948	35014.9
506.676	50553.8
511.402	36166.3
516.125	13131.6
520.846	6127.52
525.565	3705.78
530.281	2592.44
534.994	1781.17
539.705	1191.51
544.413	1187.05
549.119	882.524
553.822	792.172
558.523	1224.96
563.222	758.211
567.917	1038.12
572.611	1610.53
577.302	2209
581.99	2043.81
586.676	905.556
591.359	430.248
596.04	236.891
600.718	190.486
605.394	170.047
610.067	161.643
614.737	210.227
619.406	265.164
624.071	485.305
628.734	709.816
633.395	669.361
638.053	894.988
642.708	1501.01
647.361	1637.72
652.012	1006.37
656.66	493.042
661.305	210.571
665.948	102.845
670.588	89.7119
675.226	62.5024
679.861	112.389
684.494	18.8232
689.124	5.20361
693.752	96.3662
698.377	3.29102
702.999	68.2544
707.619	2.48633
712.237	13.3648
716.852	127.293
721.464	221.788
726.074	201.222
730.681	449.597
735.286	483.912
739.888	810.168
744.488	1149.91
749.085	2303.52
753.68	5324.59
758.272	12722.1
762.861	18974.1
767.448	12826.7
772.033	4883.16
776.614	2431.9
781.194	1473.74
785.77	1271.76
790.345	1161.09
794.916	1403.63
799.485	2033.81
804.052	4026.08
808.616	10224.3
813.177	17612.9
817.736	16207.9
822.292	6347.5
826.846	2562.74
831.397	1576.84
835.945	1083.35
840.491	813.566
845.035	606.671
849.576	300.413
854.114	313.783
858.65	291.743
863.183	217.701
867.713	191.852
872.241	96.6167
876.767	120.583
881.29	23.4873
885.81	43.2954
890.328	81.0772
894.843	63.8672
899.356	56.6714
903.866	57.5054
908.373	12.3135
912.878	102.151
917.38	4.00488
921.88	110.852
926.377	32.5132
930.872	49.9365
935.364	125.517
939.853	26.9048
944.34	30.7861
948.824	203.65
953.306	8.67676
957.785	285.103
962.261	321.002
966.735	317.386
971.207	593.162
975.675	1233.16
980.141	1235.6
984.605	808.455
989.066	529.576
993.524	563.846
997.98	889.239
1002.43	1651.76
1006.88	2046.4
1011.33	1981.18
1015.78	1517.09
1020.22	1067.12
1024.66	672.315
1029.1	494.103
1033.53	645.585
1037.97	682.377
1042.4	809.529
1046.82	1222.45
1051.25	807.819
1055.67	439.849
1060.09	423.271
1064.51	291.537
1068.92	270.192
1073.33	470.767
1077.74	651.242
1082.15	1097.41
1086.55	1798.61
1090.95	3395.01
1095.35	6237.05
1099.75	7188.74
1104.14	4652.88
1108.53	2604.83
1112.92	1361.91
1117.31	975.084
1121.69	947.332
1126.07	552.67
1130.45	324.153
1134.82	233.846
1139.19	137.634
1143.57	243.523
1147.93	365.528
1152.3	538.68
1156.66	330.923
1161.02	222.246
1165.38	38.3838
1169.73	194.977
1174.08	111.408
1178.43	50.8662
1182.78	43.6348
1187.12	240.81
1191.46	5.67578
1195.8	25.2021
1200.14	45.1582
1204.47	51.5703
1208.8	79.5801
1213.13	38.7217
1217.46	52.1484
1221.78	47.1943
1226.1	92.459
1230.42	10.4209
1234.73	39.1435
1239.04	160.903
1243.35	112.323
1247.66	160.11
1251.97	165.534
1256.27	151.793
1260.57	195.47
1264.86	301.979
1269.16	161.829
1273.45	155.268
1277.74	326.231
1282.03	128.392
1286.31	231.022
1290.59	318.909
1294.87	404.642
1299.14	311.949
1303.42	198.328
1307.69	355.535
1311.95	195.33
1316.22	248.909
1320.48	372.513
1324.74	172.642
1329	184.416
1333.26	215.43
1337.51	167.88
1341.76	196.255
1346	205.787
1350.25	187.314
1354.49	56.3945
1358.73	186.881
1362.96	199.233
1367.2	102.41
1371.43	35.6553
1375.66	201.087
1379.88	2.08984
1384.11	109.499
1388.33	207.889
1392.54	149.597
1396.76	45.8496
1400.97	151.69
1405.18	120.503
1409.39	86.0957
1413.59	93.4746
1417.8	164.88
1421.99	27.3438
1426.19	79.4883
1430.38	303.393
1434.58	255.159
1438.77	254.387
1442.95	306.473
1447.13	488.323
1451.32	305.091
1455.49	242.946
1459.67	322.722
1463.84	329.607
1468.01	180.099
1472.18	213.188
1476.35	328.909
1480.51	125.631
1484.67	130.064
1488.83	73.291
1492.98	108.994
1497.13	15.206
1501.28	231.334
1505.43	255.334
1509.57	176.156
1513.71	35.8018
1517.85	225.936
1521.99	215.662
1526.12	171.631
1530.25	117.103
1534.38	227.092
1538.5	139.466
1542.62	91.0625
1546.74	30.8584
1550.86	270.124
1554.98	201.124
1559.09	9.23242
1563.2	217.703
1567.31	214.216
