Measurement: Raman, 514 nm, ccw, Raman Data Processed
Mineral: Albite
Rruff sample: R050402
Ideal chemistry: NaAlSi_3_O_8_
Locality: Urbano mine, Golconda District, Brazil
Source: Bob Downs
Description: Colorless tabular single crystals associated with fluorapatite R050401
Measured chemistry: Na_1.00_Al_1.00_Si_3.00_O_8_
Pin_id: M00139
Orientation: Laser parallel to c* (0 0 1). Fiducial mark perpendicular to laser is parallel to a [1 0 0]
Raman shift (cm-1)	intensity
81.131	0
86.072	1291.54
91.012	2916.8
95.948	280.802
100.883	50.811
105.815	736.508
110.744	3783.46
115.671	8650.16
120.596	3015.7
125.519	700.714
130.439	353.656
135.356	700.993
140.271	1763.06
145.184	4359.67
150.094	10140
155.002	10420.8
159.908	2770.22
164.811	2926.81
169.711	5112.8
174.61	7150.86
179.505	6560.23
184.399	9545.98
189.29	10690.1
194.178	6616.68
199.064	4997.51
203.948	6010.55
208.829	11773.7
213.708	11619
218.585	3243.41
223.459	976.361
228.33	340.18
233.199	75.2861
238.066	16.3721
242.93	183.823
247.792	955.402
252.651	3003.61
257.508	1762.57
262.363	802.974
267.215	1546.47
272.064	2774.77
276.912	1643.65
281.756	1778.95
286.598	4632.55
291.438	11863.3
296.276	8462.24
301.111	2632.14
305.943	971.804
310.773	556.142
315.601	292.206
320.426	433.982
325.248	1489.46
330.068	5328.63
334.886	2529.46
339.701	667.931
344.514	170.029
349.324	146.74
354.132	47.0142
358.938	58.2671
363.741	77.3677
368.541	135.992
373.339	115.222
378.135	79.1089
382.928	11.7217
387.718	41.499
392.506	169.322
397.292	558.688
402.075	1175.82
406.856	1734.79
411.634	2564.55
416.41	4200.14
421.183	2700.39
425.954	748.26
430.722	400.855
435.488	295.061
440.251	501.748
445.012	821.902
449.77	1707.52
454.526	4398.6
459.28	6445.15
464.03	3644.16
468.779	4047.21
473.525	8986.28
478.268	25023.7
483.009	24573.6
487.747	8421.93
492.483	5082.76
497.217	6461.31
501.948	14242.9
506.676	38715.5
511.402	38833.8
516.125	13365.2
520.846	5835.02
525.565	3276
530.281	2089.3
534.994	1540.15
539.705	1201.3
544.413	1018.83
549.119	788.019
553.822	682.613
558.523	549.505
563.222	466.565
567.917	493.268
572.611	810.39
577.302	1546.05
581.99	2142.73
586.676	1107.14
591.359	402.29
596.04	320.188
600.718	272.842
605.394	59.2637
610.067	240.443
614.737	168.4
619.406	104.181
624.071	267.824
628.734	417.278
633.395	451.582
638.053	338.849
642.708	764.398
647.361	1103.44
652.012	918.863
656.66	325.857
661.305	241.684
665.948	132.082
670.588	10.1201
675.226	18.7617
679.861	18.5215
684.494	32.6367
689.124	50.4824
693.752	30.7725
698.377	8.5293
702.999	58.4815
707.619	33.9355
712.237	10.919
716.852	160.998
721.464	272.295
726.074	231.03
730.681	125.519
735.286	180.938
739.888	293.289
744.488	619.348
749.085	821.584
753.68	1539.65
758.272	3770.83
762.861	9417.7
767.448	8610.81
772.033	3137.53
776.614	1404.86
781.194	974.132
785.77	641.4
790.345	518.274
794.916	626.25
799.485	962.04
804.052	1517.76
808.616	3271.02
813.177	8343.73
817.736	11755.4
822.292	4833.01
826.846	1885.9
831.397	1089.25
835.945	698.709
840.491	578.211
845.035	334.878
849.576	311.091
854.114	301.566
858.65	182.174
863.183	216.856
867.713	138.617
872.241	123.465
876.767	5.40332
881.29	25.4277
885.81	67.5137
890.328	16.2129
894.843	19.9932
899.356	96.2549
903.866	183.619
908.373	10.0078
912.878	26.3965
917.38	108.93
921.88	88.4502
926.377	106.165
930.872	46.9297
935.364	77.917
939.853	80.0703
944.34	43.4375
948.824	22.0312
953.306	149.856
957.785	343.165
962.261	291.874
966.735	565.141
971.207	1001.97
975.675	1875.11
980.141	2667.06
984.605	1711.59
989.066	837.796
993.524	612.213
997.98	366.841
1002.43	622.685
1006.88	632.742
1011.33	514.019
1015.78	570.181
1020.22	535.901
1024.66	341.272
1029.1	392.279
1033.53	409.634
1037.97	385.433
1042.4	611.302
1046.82	480.312
1051.25	561.894
1055.67	373.979
1060.09	277.582
1064.51	223.424
1068.92	194.56
1073.33	129.305
1077.74	274.047
1082.15	493.007
1086.55	634.188
1090.95	1150.6
1095.35	1993.19
1099.75	3177.19
1104.14	2371.48
1108.53	1521.02
1112.92	998.06
1117.31	721.532
1121.69	728.177
1126.07	573.993
1130.45	400.966
1134.82	160.1
1139.19	129.477
1143.57	62.0772
1147.93	74.8799
1152.3	158.82
1156.66	81.4707
1161.02	36.4053
1165.38	69.8477
1169.73	60.6377
1174.08	57.4287
1178.43	10.3369
1182.78	38.6904
1187.12	174.327
1191.46	59.5498
1195.8	14.6387
1200.14	54.1602
1204.47	57.5615
1208.8	143.356
1213.13	97.1533
1217.46	67.6289
1221.78	117.35
1226.1	18.959
1230.42	59.4316
1234.73	68.9619
1239.04	8.55957
1243.35	174.252
1247.66	173.83
1251.97	151.269
1256.27	69.4453
1260.57	108.37
1264.86	118.745
1269.16	125.148
1273.45	259.948
1277.74	155.901
1282.03	96.0322
1286.31	113.391
1290.59	205.165
1294.87	244.13
1299.14	71.7822
1303.42	109.967
1307.69	254.92
1311.95	171.769
1316.22	271.031
1320.48	88.3643
1324.74	70.2939
1329	131.633
1333.26	198.643
1337.51	141.78
1341.76	53.831
1346	224.741
1350.25	119.501
1354.49	152.816
1358.73	183.101
1362.96	72.501
1367.2	206.558
1371.43	64.2461
1375.66	160.628
1379.88	125.281
1384.11	4.29981
1388.33	95.8916
1392.54	76.8731
1396.76	145.414
1400.97	118.085
1405.18	120.497
1409.39	3.06543
1413.59	86.6377
1417.8	131.962
1421.99	270.89
1426.19	117.254
1430.38	20.4795
1434.58	17.5918
1438.77	92.082
1442.95	273.988
1447.13	173.121
1451.32	298.032
1455.49	401.195
1459.67	260.095
1463.84	240.661
1468.01	234.163
1472.18	229.291
1476.35	182.14
1480.51	213.516
1484.67	307.165
1488.83	173.922
1492.98	176.877
1497.13	171.993
1501.28	7.23926
1505.43	17.2754
1509.57	186.247
1513.71	250.806
1517.85	48.5635
1521.99	194.463
1526.12	157.232
1530.25	161.576
1534.38	256.237
1538.5	200.127
1542.62	105.856
1546.74	218.118
1550.86	122.952
1554.98	282.408
1559.09	44.3652
1563.2	153.794
1567.31	87.6397
