Measurement: Raman, 514 nm, ccw, Raman Data Processed
Mineral: Albite
Rruff sample: R040068
Ideal chemistry: NaAlSi_3_O_8_
Locality: Harding Pegmatite, Dixon, New Mexico, USA
Source: University of Arizona Mineral Museum
Description: Tan colored crystal fragment
Measured chemistry: (Na_0.99_Ca_0.01_)Al_1.00_(Si_0.99_Al_0.01_)_3_O_8_
Pin_id: M00277
Orientation: Laser parallel to (-1 0 -1). Fiducial mark perpendicular to laser is parallel to b [0 1 0]
Raman shift (cm-1)	intensity
119.119	0
123.286	72.434
127.452	85.649
131.615	386.354
135.777	732.838
139.937	1557.85
144.094	3151.5
148.25	5198.45
152.403	4027.22
156.555	1593.42
160.705	1365.08
164.853	1483.44
168.998	1710.82
173.142	1969.95
177.284	2696.23
181.424	4291.23
185.562	4951.51
189.698	3594.48
193.831	2037.57
197.963	1500.71
202.093	2094.02
206.221	3476.56
210.347	3638.8
214.472	1541.14
218.594	423.925
222.714	186.867
226.832	70.162
230.948	22.975
235.063	83.827
239.175	112.137
243.286	136.643
247.394	798.067
251.501	1154.1
255.605	705.093
259.708	696.626
263.808	1448.08
267.907	2359.73
272.004	1571.54
276.099	968.654
280.192	1071.36
284.283	2319.4
288.372	4761.83
292.459	4279.15
296.544	1909.12
300.627	610.869
304.709	293.865
308.788	327.865
312.865	12.677
316.941	88.022
321.015	423.767
325.086	889.824
329.156	1186.13
333.224	612.641
337.29	89.323
341.354	33.959
345.416	112.62
349.476	89.189
353.534	85.756
357.591	47.643
361.645	151.148
365.698	64.838
369.748	78.637
373.797	82.619
377.844	3.203
381.889	1.109
385.932	32.561
389.973	20.018
394.012	264.092
398.049	571.195
402.084	708.1
406.118	1042.44
410.15	1086.76
414.179	2130.56
418.207	1364.08
422.233	327.467
426.257	110.803
430.279	134.27
434.299	247.926
438.318	171.32
442.334	538.76
446.349	983.848
450.361	2316.87
454.372	4608.66
458.381	3726.32
462.388	1980.58
466.394	2004.89
470.397	3709.73
474.398	9412.32
478.398	14964.4
482.396	8196.43
486.391	3578.24
490.385	2339.87
494.377	2511.7
498.368	4754.02
502.356	11894.1
506.342	20203.2
510.327	11834.6
514.31	5100.16
518.291	2518.7
522.27	1386.21
526.247	1113.09
530.222	897.578
534.196	543.664
538.167	710.164
542.137	521.408
546.105	321.707
550.071	186.008
554.035	262.689
557.998	311.277
561.958	239.371
565.917	341.467
569.874	210.555
573.829	589.273
577.782	1137.48
581.733	675.537
585.683	422.713
589.63	114.398
593.576	250.053
597.52	6.256
601.462	52.139
605.402	227.719
609.341	33.039
613.277	8.064
617.212	62.67
621.145	206.977
625.076	51.016
629.006	234.561
632.933	197.758
636.859	390.711
640.783	283.441
644.705	475.912
648.625	528.16
652.543	60.154
656.46	171.875
660.375	103.34
664.288	104.586
668.199	175.568
672.108	16.207
676.016	26.506
679.921	53.346
683.825	96.561
687.727	136.26
691.628	125.846
695.526	4.297
699.423	135.283
703.318	207.518
707.211	92.932
711.102	260.068
714.992	282.412
718.879	230.334
722.765	46.246
726.649	155.818
730.532	322.822
734.412	160.715
738.291	228.074
742.168	344.812
746.043	610.896
749.916	749.58
753.788	1403.52
757.658	3295.84
761.526	6719.8
765.392	5246.82
769.257	2391.77
773.119	1307.19
776.98	630.865
780.839	372.066
784.697	354.857
788.552	398.387
792.406	632.135
796.258	795.422
800.108	930.562
803.957	1023.51
807.804	1954.92
811.649	4887.26
815.492	6198.2
819.333	2829.28
823.173	1260.13
827.011	683.148
830.847	493.432
834.681	397.814
838.514	306.783
842.345	253.639
846.174	58.154
850.001	55.43
853.827	41.562
857.651	30.859
861.473	67.891
865.293	67.732
869.112	53.971
872.928	192.469
876.744	117.408
880.557	56.898
884.369	286.027
888.178	185.213
891.987	63.748
895.793	53.127
899.598	82.721
903.401	342.275
907.202	91.73
911.001	209.67
914.799	160.607
918.595	139.967
922.389	80.701
926.182	268.549
929.972	177.773
933.761	316.971
937.549	46.271
941.334	75.516
945.118	134.705
948.9	443.816
952.681	422.867
956.459	291.857
960.236	240.822
964.012	809.783
967.785	608.746
971.557	457.719
975.327	886.707
979.095	895.801
982.862	144.908
986.627	249.217
990.39	421.508
994.152	430.832
997.912	259.818
1001.67	748.885
1005.43	938.002
1009.18	804.305
1012.93	789.514
1016.68	544.762
1020.43	504.656
1024.18	560.164
1027.93	527.846
1031.67	478.125
1035.42	349.395
1039.16	338.707
1042.9	669.025
1046.63	899.037
1050.37	939.525
1054.11	702.748
1057.84	778.166
1061.57	573.861
1065.3	614.477
1069.03	551.348
1072.75	567.133
1076.47	586.871
1080.2	416.773
1083.92	525.785
1087.64	1084.43
1091.36	1432.98
1095.07	2251.18
1098.79	2989.48
1102.5	2117.88
1106.21	1585.72
1109.92	1076.6
1113.62	800.836
1117.33	788.652
1121.04	759.711
1124.74	600.742
1128.44	461.883
1132.14	213.207
1135.83	55.117
1139.53	326.59
1143.22	458.074
1146.92	349.789
1150.61	651.781
1154.3	303.777
1157.98	345.859
1161.67	148.133
1165.35	250.805
1169.04	46.281
1172.72	106.988
1176.4	300.715
1180.07	454.938
1183.75	309.504
1187.42	524.418
1191.1	119.707
1194.77	63.98
1198.44	71.301
1202.1	293.762
1205.77	479.195
1209.43	543.227
1213.1	467.238
1216.76	698.367
1220.42	499.488
1224.07	370.906
1227.73	388.754
1231.38	156.973
1235.04	181.727
1238.69	145.934
1242.34	439.309
1245.99	520.969
1249.63	0
