Measurement: Raman, 514 nm, ccw, Raman Data Processed
Mineral: Albite
Rruff sample: R050253
Ideal chemistry: NaAlSi_3_O_8_
Locality: Madawaska/Faraday mine, Bancroft, Ontario, Canada
Source: Marcus Origlieri
Description: Colorless to brown prismatic single crystals
Measured chemistry: (Na_0.99_Ca_0.01_)Al_1.00_(Si_0.99_Al_0.01_)_3_O_8_
Pin_id: L01266
Orientation: Laser parallel to (-1 -1 0). Fiducial mark perpendicular to laser is parallel to c [0 0 1]
Raman shift (cm-1)	intensity
109.512	0
114.44	246.553
119.365	212.327
124.288	84.1133
129.209	249.889
134.127	1110.21
139.043	3079.19
143.956	6338.55
148.867	9497.91
153.775	18235.8
158.681	25842.8
163.585	32276.8
168.486	23645.6
173.385	18372.8
178.282	20182.8
183.176	22205.4
188.067	21107.4
192.956	14117.5
197.843	10599.8
202.727	12868.5
207.609	14284.1
212.489	13689.6
217.366	5658.01
222.24	1934.25
227.112	744.289
231.982	179.137
236.849	10.8701
241.714	46.0327
246.577	37.6675
251.437	115.459
256.294	180.569
261.149	587.554
266.002	995.481
270.852	1994.31
275.7	4395.91
280.545	12146.8
285.388	24248.3
290.229	33606
295.067	27350
299.902	10372.5
304.735	4694.14
309.566	3283.71
314.394	2500.25
319.22	2014.71
324.043	2086.39
328.864	2360.48
333.682	1565.43
338.498	669.252
343.311	462.955
348.122	402.508
352.931	349.903
357.737	138.137
362.54	19.1636
367.341	6.9082
372.14	30.7607
376.936	43.9502
381.73	82.4648
386.521	32.6025
391.31	182.278
396.096	669.69
400.88	1850.54
405.661	2584.47
410.44	2958.64
415.216	702.996
419.99	135.462
424.761	68.4985
429.53	35.9228
434.297	28.5864
439.061	241.911
443.822	544.099
448.581	1257.14
453.337	2238.02
458.091	3414.76
462.843	4596.34
467.592	9939.78
472.338	25163.1
477.082	38670.3
481.824	39049.4
486.563	17188.4
491.3	9936.25
496.034	14723
500.765	34921.5
505.494	53315.7
510.221	53719.5
514.945	23682.9
519.666	9864.38
524.385	5339.2
529.102	3313.17
533.816	2433.77
538.527	1760.64
543.236	1451.65
547.943	1181.42
552.647	941.048
557.348	901.87
562.047	906.322
566.744	980.19
571.438	1543.91
576.129	1870.9
580.818	1766.88
585.504	1034.5
590.188	473.184
594.87	393.862
599.549	207.533
604.225	240.325
608.899	201.29
613.57	296.384
618.239	413.685
622.905	571.029
627.569	898.428
632.23	1218.79
636.889	1230.11
641.545	1366.39
646.198	1519.7
650.849	1129.1
655.498	587.753
660.144	376.717
664.787	186.151
669.428	190.948
674.067	72.8384
678.703	16.3438
683.336	53.2822
687.967	100.334
692.595	23.2871
697.221	80.4853
701.844	13.6895
706.465	62.3223
711.083	40.251
715.698	10.6919
720.311	49.1152
724.922	106.776
729.53	163.326
734.135	229.088
738.738	140.149
743.338	211.38
747.936	484.38
752.531	798.212
757.124	1967.28
761.714	2865.59
766.302	3151.02
770.887	2808.28
775.469	2805.37
780.049	1911.29
784.626	916.035
789.201	567.606
793.773	457
798.343	638.404
802.91	807.427
807.475	1929.26
812.037	3740.89
816.596	4303
821.153	2297.23
825.707	1082.62
830.259	569.271
834.808	454.472
839.355	365.505
843.899	237.157
848.441	72.4653
852.98	78.8799
857.516	24.9497
862.05	129.762
866.581	77.5161
871.11	7.15283
875.636	12.5562
880.159	68.4219
884.68	19.1152
889.199	23.2105
893.714	44.9028
898.228	96.355
902.738	42.6435
907.246	63.8984
911.752	64.1265
916.255	167.336
920.755	115.534
925.253	81.7388
929.748	155.969
934.241	99.2539
938.731	167.663
943.218	176.127
947.703	364.633
952.186	546.213
956.665	592.987
961.142	596.976
965.617	474.373
970.089	543
974.558	662.893
979.025	785.134
983.489	604.723
987.951	494.534
992.41	353.856
996.866	517.97
1001.32	769.209
1005.77	992.977
1010.22	1289.01
1014.67	1446.92
1019.11	1145.68
1023.55	753.819
1027.99	955.755
1032.42	1039.5
1036.86	918.15
1041.29	566.021
1045.72	448.111
1050.14	418.419
1054.56	418.958
1058.98	365.153
1063.4	532.061
1067.82	657.281
1072.23	860.213
1076.64	1227.23
1081.05	1876.18
1085.45	3059.59
1089.85	5174.08
1094.25	9495.75
1098.65	13860.6
1103.04	12777.2
1107.43	9732.48
1111.82	8522.19
1116.21	8045.99
1120.59	5998.96
1124.97	3687.71
1129.35	1978.73
1133.73	1157.22
1138.1	721.977
1142.47	503.7
1146.84	484.111
1151.21	500.898
1155.57	361.053
1159.93	320.68
1164.29	118.47
1168.64	138.441
1172.99	82.5679
1177.34	61.8716
1181.69	65.165
1186.04	21.0547
1190.38	47.0879
1194.72	73.5591
1199.05	81.0376
1203.39	89.0894
1207.72	43.8789
1212.05	58.3779
1216.37	5.46826
1220.7	46.6431
1225.02	74.0552
1229.34	21.8501
1233.65	130.277
1237.97	39.2666
1242.28	91.2266
1246.59	34.4507
1250.89	142.375
1255.19	27.3223
1259.49	22.1074
1263.79	90.0073
1268.09	44.6094
1272.38	123.953
1276.67	17.9941
1280.95	99.146
1285.24	77.3818
1289.52	72.8584
1293.8	99.7046
1298.08	31.5327
1302.35	113.356
1306.62	255.051
1310.89	196.583
1315.15	176.93
1319.42	143.641
1323.68	136.714
1327.94	110.686
1332.19	141.654
1336.44	114.852
1340.69	28.8076
1344.94	33.1357
1349.19	196.099
1353.43	90.9292
1357.67	289.544
1361.9	125.491
1366.14	26.0698
1370.37	171.846
1374.6	55.7036
1378.83	129.982
1383.05	88.4136
1387.27	31.3828
1391.49	10.0317
1395.7	121.115
1399.92	22.2666
1404.13	0.479004
1408.34	86.5176
1412.54	60.6323
1416.74	29.5679
1420.94	42.4482
1425.14	106.971
1429.34	135.173
1433.53	185.079
1437.72	214.711
1441.9	236.696
1446.09	171.537
1450.27	233.441
1454.45	280.862
1458.63	153.137
1462.8	191.48
1466.97	219.193
1471.14	177.244
1475.31	153.289
1479.47	154.574
1483.63	131.497
1487.79	143.403
1491.94	161.49
1496.09	16.6865
1500.24	91.1221
1504.39	180.761
1508.54	96.3945
1512.68	3.20606
1516.82	65.9019
1520.95	48.6382
1525.09	81.8237
1529.22	40.8911
1533.35	38.6494
1537.47	103.471
1541.6	171.33
1545.72	133.646
1549.83	111.86
1553.95	172.922
1558.06	102.067
1562.17	155.11
1566.28	57.4131
1570.38	0
