Measurement: Raman, 514 nm, ccw, Raman Data Processed
Mineral: Albite
Rruff sample: R040129
Ideal chemistry: NaAlSi_3_O_8_
Locality: LaChance Quarry, Brunswick, Cumberland County, Maine, USA
Source: Bob Downs
Description: Colorless fragment of a tabular single crystal
Measured chemistry: (Na_0.99_K_0.01_)Al_1.00_Si_3.00_O_8_
Pin_id: L00382
Orientation: Laser parallel to b* (0 1 0). Fiducial mark perpendicular to laser is parallel to c [0 0 1]
Raman shift (cm-1)	intensity
130.08	0
134.248	13.272
138.413	365.32
142.577	2949.01
146.739	4798.19
150.898	1276.21
155.056	1375.22
159.212	4016.5
163.365	4951.43
167.517	3706.34
171.666	5284.36
175.813	6337.42
179.959	9201.48
184.102	12967.6
188.244	11409.2
192.383	6232.9
196.52	3783.02
200.656	3303.15
204.789	5512.35
208.92	8602.99
213.049	3693.66
217.176	1063.75
221.302	338.109
225.425	191.116
229.546	318.021
233.665	62.76
237.782	31.543
241.898	180.771
246.011	1579.37
250.122	6442.16
254.231	5122.55
258.338	1437.95
262.443	995.562
266.546	2055.63
270.647	2815.98
274.747	2386.37
278.844	3347.81
282.939	7391.44
287.032	19208.6
291.123	31310.8
295.212	14652.6
299.3	5319.06
303.385	2111.02
307.468	1088.69
311.549	929.998
315.629	781.369
319.706	885.535
323.781	2670.93
327.855	10513.5
331.926	5835.34
335.995	1596.6
340.063	813.319
344.128	709.051
348.192	823.556
352.253	366.201
356.313	240.767
360.37	250.152
364.426	130.353
368.479	39.804
372.531	91.389
376.581	71.478
380.629	18.845
384.674	84.057
388.718	77.961
392.76	369.568
396.8	1296.63
400.838	1092.46
404.874	479.098
408.908	1019.61
412.94	582.547
416.97	798.693
420.999	136.898
425.025	35.55
429.049	59.836
433.072	81.954
437.092	64.263
441.111	190.216
445.127	359.78
449.142	268.332
453.155	363.453
457.166	838.703
461.175	1023.08
465.181	1117.13
469.186	1890.83
473.19	4934.16
477.191	14317.1
481.19	12439.7
485.187	4841.85
489.183	3043.67
493.176	3395.12
497.168	5396.21
501.157	11317.1
505.145	31517.6
509.131	35238.3
513.115	14238.6
517.097	6285.32
521.077	3219.36
525.055	2035.82
529.031	1756.32
533.006	1287.35
536.978	849.756
540.949	527.814
544.917	697.741
548.884	801.741
552.849	460.363
556.812	263.808
560.773	293.128
564.732	571.279
568.689	632.938
572.644	711.229
576.598	1047.84
580.55	1247.19
584.499	795.004
588.447	591.982
592.393	30.255
596.337	157.811
600.279	395.312
604.219	598.112
608.158	273.42
612.094	68.396
616.029	263.703
619.962	568.819
623.892	793.746
627.821	978.488
631.749	1553.05
635.674	1587.45
639.597	1561.71
643.519	1945.82
647.438	1639.76
651.356	803.54
655.272	587.164
659.186	520.635
663.098	513.955
667.009	47.118
670.917	49.878
674.824	302.832
678.728	455.311
682.631	257.521
686.532	19.73
690.432	7.5
694.329	84.905
698.224	437.544
702.118	249.595
706.01	8.566
709.9	170.815
713.788	30.29
717.674	271.987
721.558	415.205
725.441	70.864
729.322	110.455
733.201	29.816
737.078	319.758
740.953	409.637
744.826	249.54
748.698	150.457
752.567	530.139
756.435	984.245
760.301	2224.31
764.165	2441.21
768.028	1060.16
771.888	550.02
775.747	829.813
779.604	789.542
783.459	579.21
787.312	279.659
791.164	129.213
795.013	332.604
798.861	542.06
802.707	721.47
806.551	810.84
810.394	1330.17
814.234	2769.3
818.073	2378.46
821.91	1366.58
825.745	861.082
829.578	376.942
833.41	107.316
837.24	224.073
841.068	528.172
844.894	646.891
848.718	244.503
852.54	116.299
856.361	39.508
860.18	295.19
863.997	521.118
867.812	496.848
871.626	225.59
875.438	105.156
879.248	79.99
883.056	229.853
886.862	558.253
890.667	625.463
894.469	154.874
898.27	58.817
902.07	190.82
905.867	360.621
909.663	510.428
913.457	510.24
917.249	140.166
921.039	30.176
924.827	40.268
928.614	320.381
932.399	740.586
936.182	590.893
939.964	291.291
943.744	108.203
947.521	292.365
951.298	433.045
955.072	823.832
958.845	754.754
962.615	615.809
966.384	177.012
970.152	38.371
973.917	919.902
977.681	1561.62
981.443	1253.66
985.203	915.891
988.962	158.389
992.719	59.393
996.474	133.574
1000.23	708.812
1003.98	1172.17
1007.73	1076.25
1011.48	921.443
1015.22	620.137
1018.97	815.393
1022.71	1231.57
1026.45	2300.3
1030.19	3503.71
1033.93	3336.5
1037.66	1634.19
1041.4	982.494
1045.13	631.625
1048.86	929.66
1052.59	1110.1
1056.32	996.518
1060.04	716.648
1063.77	321.605
1067.49	167.197
1071.21	553.09
1074.93	813.895
1078.64	1080.27
1082.36	1406.99
1086.07	1194.06
1089.78	1021.5
1093.49	1659.31
1097.2	2487.5
1100.91	2983.88
1104.61	2822.71
1108.32	2341.89
1112.02	1651.59
1115.72	1291.73
1119.41	1022.54
1123.11	693.805
1126.8	535.232
1130.5	946.779
1134.19	1109.18
1137.88	992.311
1141.56	526.465
1145.25	78.408
1148.93	17.678
1152.62	484.867
1156.3	803.361
1159.98	963.211
1163.65	944.57
1167.33	687.488
1171	502.826
1174.68	0.205
1178.35	39.256
1182.02	306.613
1185.68	732.045
1189.35	879.934
1193.01	933.287
1196.67	917.637
1200.33	319.674
