Measurement: Raman, 514 nm, ccw, Raman Data Processed
Mineral: Albite
Rruff sample: R050253
Ideal chemistry: NaAlSi_3_O_8_
Locality: Madawaska/Faraday mine, Bancroft, Ontario, Canada
Source: Marcus Origlieri
Description: Colorless to brown prismatic single crystals
Measured chemistry: (Na_0.99_Ca_0.01_)Al_1.00_(Si_0.99_Al_0.01_)_3_O_8_
Pin_id: L01416
Orientation: Laser parallel to b* (0 1 0). Fiducial mark perpendicular to laser is parallel to c [0 0 1]
Raman shift (cm-1)	intensity
77.423	0
82.367	858.71
87.308	2673.69
92.246	2179.55
97.182	63.1055
102.116	124.227
107.047	650.703
111.976	781.332
116.903	798.047
121.827	430.395
126.749	521.341
131.668	1701.65
136.585	3708.91
141.5	6935.16
146.412	9560.67
151.321	13606.3
156.229	12597.6
161.134	10184.3
166.036	10448.5
170.936	8102.34
175.834	9726.39
180.729	12213.8
185.622	14825.5
190.512	13120.7
195.4	8390.23
200.286	7537.12
205.169	8291.33
210.049	10349.8
214.928	6796.53
219.803	2069.45
224.677	802.457
229.548	224.127
234.416	253.383
239.282	451.492
244.146	1276.74
249.007	1861.52
253.866	2847.02
258.722	2450.93
263.576	3129.97
268.427	4656.91
273.276	5116.58
278.123	4405.84
282.967	7928.58
287.809	12192.7
292.648	15638.2
297.485	8407.95
302.319	3092.78
307.151	1713.61
311.98	1191.4
316.807	993.162
321.631	1631.9
326.454	2431.6
331.273	3371.24
336.09	1333.83
340.905	475.332
345.717	305.752
350.527	274.076
355.334	60.7085
360.139	99.835
364.941	187.889
369.741	119.806
374.538	155.041
379.333	156.56
384.126	16.7046
388.916	345.507
393.703	878.993
398.488	1875.59
403.271	2532.3
408.051	3841.06
412.828	3679.05
417.603	3795.32
422.376	1705.6
427.146	457.96
431.914	340.307
436.679	420.582
441.442	891.695
446.202	2181.64
450.96	4793.43
455.715	7759.05
460.467	7919.5
465.218	6146.93
469.965	11490.1
474.711	21765
479.454	32114.8
484.194	21742.5
488.932	9234.98
493.667	7889.33
498.4	15986.8
503.13	31119.2
507.858	45504.8
512.583	30860.5
517.306	11390.3
522.026	5259.54
526.744	3049.14
531.459	2032.16
536.172	1452.15
540.882	1222.43
545.59	954.54
550.295	829.915
554.998	590.785
559.698	675.27
564.396	621.309
569.091	806.378
573.784	1370.14
578.474	1701.2
583.162	1503.25
587.847	446.342
592.529	326.476
597.209	149.651
601.887	131.928
606.562	25.3061
611.235	250.74
615.905	142.328
620.572	199.988
625.237	336.709
629.9	646.461
634.56	894.185
639.217	825.887
643.872	914.831
648.524	878.4
653.174	535.762
657.821	299.821
662.466	208.738
667.108	10.3501
671.748	114.007
676.385	55.3203
681.02	29.6069
685.652	4.01514
690.281	107.772
694.908	58.4756
699.533	17.0625
704.155	58.1548
708.774	10.2622
713.391	160.898
718.005	160.82
722.617	246.729
727.226	169.79
731.833	222.298
736.437	421.106
741.039	594.28
745.638	960.342
750.234	1734.91
754.828	3683.61
759.419	7935.99
764.008	11780
768.595	8046.52
773.178	3708.68
777.759	2226.16
782.338	1516.23
786.914	962.034
791.488	764.596
796.059	1017.84
800.627	1414.77
805.193	2637.27
809.756	5953.67
814.317	9964.64
818.875	9101.67
823.431	3586.94
827.984	1496.67
832.534	928.747
837.082	557.211
841.627	448.003
846.17	180.371
850.71	188.514
855.248	191.226
859.783	13.6685
864.316	9.73828
868.846	19.5068
873.373	18.1729
877.898	47.29
882.42	34.8452
886.94	19.1406
891.457	30.353
895.971	110.708
900.483	37.4619
904.993	3.07324
909.5	124.219
914.004	151.388
918.505	130.442
923.004	14.3896
927.501	179.236
931.995	92.999
936.486	99.7978
940.975	222.613
945.461	351.511
949.945	538.566
954.426	704.739
958.904	778.126
963.38	684.685
967.853	868.658
972.324	1533.88
976.792	2363.29
981.258	2284.94
985.72	1305.73
990.181	930.584
994.639	913.977
999.094	1429.46
1003.55	2069.78
1008	2410.54
1012.44	2317.92
1016.89	2136.77
1021.33	1394.05
1025.77	997.111
1030.21	1245.08
1034.64	1185.88
1039.07	932.712
1043.5	883.551
1047.93	946.979
1052.35	794.334
1056.78	555.81
1061.19	507.475
1065.61	477.72
1070.02	656.963
1074.43	675.086
1078.84	917.536
1083.25	1546.83
1087.65	2457.33
1092.05	4337.05
1096.45	7604.23
1100.85	9055.02
1105.24	6541.1
1109.63	4638
1114.02	3661.26
1118.4	3252.63
1122.78	2411.53
1127.16	1415.18
1131.54	753.248
1135.92	396.731
1140.29	467.074
1144.66	355.245
1149.02	808.023
1153.39	779.102
1157.75	455.622
1162.11	242.338
1166.46	171.05
1170.82	156.279
1175.17	16.8369
1179.52	81.1816
1183.86	8.12207
1188.21	154.318
1192.55	49.4541
1196.89	90.5019
1201.22	118.161
1205.55	180.727
1209.88	44.7266
1214.21	49.5879
1218.54	18.6094
1222.86	44.4609
1227.18	46.0059
1231.5	94.8867
1235.81	36.7285
1240.12	8.63574
1244.43	123.971
1248.74	31.5664
1253.04	150.148
1257.34	68.9141
1261.64	63.2217
1265.94	72.293
1270.23	114.626
1274.52	60.9111
1278.81	108.025
1283.1	108.302
1287.38	130.719
1291.66	147.624
1295.94	43.9707
1300.21	156.924
1304.48	282.941
1308.75	302.128
1313.02	194.755
1317.29	84.707
1321.55	105.228
1325.81	211.908
1330.06	238.085
1334.32	105.329
1338.57	144.038
1342.82	198.587
1347.06	167.206
1351.31	207.105
1355.55	256.7
1359.79	98.8701
1364.02	135.832
1368.26	223.976
1372.49	194.112
1376.71	144.954
1380.94	75.8769
1385.16	46.334
1389.38	173.678
1393.6	38.3232
1397.81	30.9922
1402.02	123.04
1406.23	151.88
1410.44	173.862
1414.64	142.76
1418.85	33.7334
1423.04	88.7256
1427.24	100.58
1431.43	272.922
1435.62	169.218
1439.81	173.768
1444	206.348
1448.18	117.843
1452.36	99.79
1456.54	203.584
1460.71	97.4492
1464.89	32.2002
1469.06	65.4219
1473.22	102.613
1477.39	141.076
1481.55	159.707
1485.71	12.9316
1489.86	188.74
1494.02	105.651
1498.17	541.349
1502.32	96.0352
1506.46	208.247
1510.61	64.332
1514.75	136.315
1518.88	148.547
1523.02	186.42
1527.15	139.326
1531.28	39.9893
1535.41	93.8037
1539.53	146.376
1543.66	134.253
1547.78	160.262
1551.89	1.57422
1556.01	141.599
1560.12	135.128
1564.23	160.576
1568.33	44.9209
