Measurement: Raman, 514 nm, ccw, Raman Data Processed
Mineral: Albite
Rruff sample: R050253
Ideal chemistry: NaAlSi_3_O_8_
Locality: Madawaska/Faraday mine, Bancroft, Ontario, Canada
Source: Marcus Origlieri
Description: Colorless to brown prismatic single crystals
Measured chemistry: (Na_0.99_Ca_0.01_)Al_1.00_(Si_0.99_Al_0.01_)_3_O_8_
Pin_id: L01944
Orientation: Laser parallel to (0 -1 -1). Fiducial mark perpendicular to laser is parallel to a [1 0 0]
Raman shift (cm-1)	intensity
94.714	0
99.649	88.3047
104.582	773.003
109.512	3336.31
114.44	5810.48
119.365	3198.88
124.288	516.344
129.209	34.1738
134.127	59.1367
139.043	735.89
143.956	2047.15
148.867	3808.02
153.775	4262.79
158.681	6763.86
163.585	11288.9
168.486	10442.8
173.385	11863.1
178.282	10363.2
183.176	12952.2
188.067	15092.1
192.956	10762.9
197.843	7187.95
202.727	7825.22
207.609	10785.7
212.489	13697.2
217.366	4642.93
222.24	1344.72
227.112	408.572
231.982	107.564
236.849	51.1074
241.714	245.863
246.577	1038.18
251.437	2429.62
256.294	3173.73
261.149	1545
266.002	1108.43
270.852	1738.88
275.7	2336.21
280.545	4602.49
285.388	11323.4
290.229	25172.6
295.067	23907.5
299.902	7610.97
304.735	2738.3
309.566	1454.75
314.394	1370.16
319.22	1329.51
324.043	3153.81
328.864	7883.07
333.682	5745.28
338.498	1526.42
343.311	617.477
348.122	547.429
352.931	320.269
357.737	45.9912
362.54	15.581
367.341	71.0029
372.14	17.9238
376.936	17.4668
381.73	138.518
386.521	81.2676
391.31	79.8799
396.096	253.725
400.88	728.547
405.661	1228.33
410.44	1560.05
415.216	887.538
419.99	617.389
424.761	33.1621
429.53	104.586
434.297	30.7656
439.061	43.1934
443.822	158.616
448.581	461.988
453.337	836.879
458.091	1250.77
462.843	1323.95
467.592	2298.03
472.338	5651.97
477.082	13428.8
481.824	18570.4
486.563	7257.88
491.3	3982.22
496.034	5346.41
500.765	12079.5
505.494	29527.3
510.221	38655.3
514.945	14594.4
519.666	5749.86
524.385	3087.86
529.102	2015.15
533.816	1543.83
538.527	981.735
543.236	747.489
547.943	676.756
552.647	538.361
557.348	501.816
562.047	618.793
566.744	698.886
571.438	955.917
576.129	1618.09
580.818	2092.15
585.504	1240.07
590.188	363.013
594.87	215.369
599.549	138.378
604.225	286.642
608.899	251.478
613.57	176.671
618.239	340.847
622.905	455.203
627.569	736.54
632.23	1011.92
636.889	1220.24
641.545	1274.51
646.198	1823.72
650.849	1679.09
655.498	733.73
660.144	377.523
664.787	81.5381
669.428	172.161
674.067	125.081
678.703	114.998
683.336	104.789
687.967	150.447
692.595	27.0264
697.221	51.25
701.844	74.7559
706.465	14.3262
711.083	4.96484
715.698	54.7637
720.311	92.3887
724.922	62.2764
729.53	41.5781
734.135	116.784
738.738	105.897
743.338	44.377
747.936	98.1738
752.531	372.618
757.124	882.355
761.714	1947.71
766.302	2423.43
770.887	1078.79
775.469	794.833
780.049	513.934
784.626	430.961
789.201	269.192
793.773	282.918
798.343	483.889
802.91	637.554
807.475	1427.9
812.037	3323.94
816.596	5884.57
821.153	3066.47
825.707	1107.52
830.259	615.087
834.808	362.85
839.355	304.256
843.899	241.83
848.441	226.693
852.98	272.023
857.516	131.961
862.05	186.275
866.581	120.699
871.11	79.2227
875.636	86.4688
880.159	29.7715
884.68	27.4512
889.199	110.408
893.714	69.3711
898.228	107.166
902.738	59.332
907.246	23.0957
911.752	350.562
916.255	194.777
920.755	71.7129
925.253	24.0488
929.748	150.055
934.241	226.785
938.731	164.478
943.218	100.922
947.703	207.217
952.186	377.445
956.665	157.543
961.142	238.49
965.617	255.312
970.089	356.076
974.558	537.85
979.025	585.723
983.489	472.565
987.951	366.391
992.41	572.76
996.866	405.359
1001.32	546.559
1005.77	742.992
1010.22	973.445
1014.67	1221.49
1019.11	1076.12
1023.55	746.66
1027.99	945.654
1032.42	1872.4
1036.86	1454.58
1041.29	748.912
1045.72	527.041
1050.14	329.324
1054.56	222.315
1058.98	364.035
1063.4	195.664
1067.82	196.742
1072.23	167.481
1076.64	398.297
1081.05	574.539
1085.45	968.148
1089.85	1214.27
1094.25	1980.55
1098.65	3145.65
1103.04	3300.07
1107.43	2212.75
1111.82	1866.38
1116.21	2063.11
1120.59	2067.52
1124.97	1418.57
1129.35	706.939
1133.73	330.623
1138.1	152.279
1142.47	221.213
1146.84	319.451
1151.21	515.842
1155.57	228.879
1159.93	184.18
1164.29	306.44
1168.64	30.9648
1172.99	224.279
1177.34	21.5918
1181.69	16.2598
1186.04	157.738
1190.38	3.93555
1194.72	39.252
1199.05	154.816
1203.39	83.2598
1207.72	11.2383
1212.05	38.2559
1216.37	50.6055
1220.7	245.703
1225.02	0.28125
1229.34	252.582
1233.65	30.1426
1237.97	102.022
1242.28	37.332
1246.59	92.6699
1250.89	92.3418
1255.19	209.797
1259.49	148.578
1263.79	211.629
1268.09	207.098
1272.38	281.935
1276.67	243.445
1280.95	170.453
1285.24	24.7812
1289.52	164.26
1293.8	335.772
1298.08	255.951
1302.35	321.193
1306.62	239.996
1310.89	22.75
1315.15	236.486
1319.42	372.785
1323.68	450.69
1327.94	260.182
1332.19	592.787
1336.44	339.078
1340.69	270.981
1344.94	380.785
1349.19	223.984
1353.43	234.738
1357.67	265.707
1361.9	198.207
1366.14	360.147
1370.37	46.668
1374.6	203.356
1378.83	3.31055
1383.05	36.4648
1387.27	218.004
1391.49	137.871
1395.7	67.3652
1399.92	103.273
1404.13	18.7168
1408.34	199.787
1412.54	123.949
1416.74	50.709
1420.94	107.277
1425.14	130.266
1429.34	127.701
1433.53	143.272
1437.72	275.07
1441.9	82.1934
1446.09	41.3926
1450.27	277.502
1454.45	34.9219
1458.63	276.293
1462.8	25.2715
1466.97	346.945
1471.14	313.787
1475.31	354.565
1479.47	468.898
1483.63	516.35
1487.79	408.709
1491.94	327.656
1496.09	387.734
1500.24	393.641
1504.39	540.148
1508.54	512.705
1512.68	409.328
1516.82	453.273
1520.95	308.519
1525.09	495.203
1529.22	261.908
1533.35	444.031
1537.47	64.168
1541.6	387.275
1545.72	238.6
1549.83	262.887
1553.95	510.459
1558.06	8.04492
1562.17	206.293
1566.28	45.832
1570.38	0
