Measurement: Raman, 514 nm, ccw, Raman Data Processed
Mineral: Albite
Rruff sample: R050253
Ideal chemistry: NaAlSi_3_O_8_
Locality: Madawaska/Faraday mine, Bancroft, Ontario, Canada
Source: Marcus Origlieri
Description: Colorless to brown prismatic single crystals
Measured chemistry: (Na_0.99_Ca_0.01_)Al_1.00_(Si_0.99_Al_0.01_)_3_O_8_
Pin_id: L01266
Orientation: Laser parallel to (-1 -1 0). Fiducial mark perpendicular to laser is parallel to c [0 0 1]
Raman shift (cm-1)	intensity
109.512	0
114.44	98.0703
119.365	59.8555
124.288	20.8506
129.209	561.149
134.127	1880.79
139.043	5424.09
143.956	10659.7
148.867	14156.7
153.775	15471.5
158.681	5967.58
163.585	3435.4
168.486	4192.06
173.385	6664.05
178.282	10281.1
183.176	13629.2
188.067	14728.4
192.956	10559.6
197.843	7323.03
202.727	8031.6
207.609	8797.92
212.489	9280.69
217.366	3622.37
222.24	917.902
227.112	143.266
231.982	206.395
236.849	0.879883
241.714	888.211
246.577	2178.36
251.437	3532.31
256.294	3911.81
261.149	3619.9
266.002	4644.6
270.852	6168.47
275.7	4828.88
280.545	5105.04
285.388	8139.44
290.229	11309.7
295.067	10540.5
299.902	4318.15
304.735	1410.82
309.566	891.356
314.394	519.865
319.22	1234.92
324.043	2315.48
328.864	3699.69
333.682	2869.56
338.498	860.104
343.311	357.356
348.122	271.31
352.931	153.967
357.737	39.2148
362.54	48.2334
367.341	129.599
372.14	183.275
376.936	153.994
381.73	71.4424
386.521	269.076
391.31	779.166
396.096	1414.15
400.88	2871.05
405.661	3021.13
410.44	4990.66
415.216	5174.5
419.99	4766.52
424.761	1330.59
429.53	609.558
434.297	670.26
439.061	1131.67
443.822	2220.77
448.581	5566.54
453.337	9149.99
458.091	12072.3
462.843	8538.6
467.592	9315.15
472.338	19906.3
477.082	29490.1
481.824	32532.7
486.563	14767.9
491.3	8694.8
496.034	12346.3
500.765	28201.1
505.494	43528.4
510.221	47819.5
514.945	21627.3
519.666	8598.71
524.385	4644.53
529.102	2905.72
533.816	2143.42
538.527	1459.18
543.236	1149.8
547.943	895.852
552.647	869.942
557.348	915.998
562.047	798.981
566.744	865.525
571.438	1969.18
576.129	1882.02
580.818	1983.85
585.504	1155.54
590.188	553.123
594.87	220.64
599.549	149.137
604.225	136.549
608.899	183.931
613.57	200.333
618.239	128.67
622.905	197.951
627.569	439.256
632.23	509.558
636.889	674.771
641.545	854.051
646.198	1078.68
650.849	900.046
655.498	404.394
660.144	235.762
664.787	185.958
669.428	23.5371
674.067	42.1758
678.703	24.1123
683.336	6.34766
687.967	104.309
692.595	71.0205
697.221	79.8994
701.844	23.6621
706.465	35.9082
711.083	173.111
715.698	84.1231
720.311	302.973
724.922	396.344
729.53	403.699
734.135	535.496
738.738	582.555
743.338	927.424
747.936	1561.26
752.531	3681.59
757.124	8905.61
761.714	14956.2
766.302	15491.1
770.887	7033.4
775.469	3067.25
780.049	1892.92
784.626	1333.57
789.201	1136.74
793.773	1158.72
798.343	1631.95
802.91	2560.34
807.475	6122.36
812.037	12030.1
816.596	14776.4
821.153	8209.77
825.707	2928.22
830.259	1309.66
834.808	919.273
839.355	669.834
843.899	397.721
848.441	258.055
852.98	287.617
857.516	131.023
862.05	65.3359
866.581	176.537
871.11	88.4199
875.636	21.666
880.159	50.9375
884.68	134.639
889.199	12.4199
893.714	166.428
898.228	112.264
902.738	49.8262
907.246	75.2422
911.752	230.647
916.255	193.07
920.755	157.488
925.253	104.656
929.748	171.18
934.241	42.6934
938.731	176.772
943.218	345.123
947.703	584.713
952.186	726.613
956.665	851.805
961.142	740.43
965.617	837.041
970.089	1217.3
974.558	1855.9
979.025	2737.65
983.489	2145.65
987.951	1293.88
992.41	907.326
996.866	928.494
1001.32	1705
1005.77	2083.05
1010.22	2169.49
1014.67	1775.58
1019.11	1496.8
1023.55	919.867
1027.99	1004.78
1032.42	827.227
1036.86	951.641
1041.29	1033.69
1045.72	1177.28
1050.14	848.195
1054.56	786.387
1058.98	804.305
1063.4	388.898
1067.82	505.758
1072.23	351.135
1076.64	598.867
1081.05	994.383
1085.45	1164.88
1089.85	2446.63
1094.25	4176.87
1098.65	5834.82
1103.04	4853.12
1107.43	2750.84
1111.82	1520.86
1116.21	1129.21
1120.59	968.695
1124.97	821.67
1129.35	496.975
1133.73	243.606
1138.1	245.662
1142.47	221.115
1146.84	404.938
1151.21	696.191
1155.57	859.051
1159.93	345.322
1164.29	337.977
1168.64	42.8301
1172.99	68.3672
1177.34	126.971
1181.69	53.8164
1186.04	175.959
1190.38	190.44
1194.72	53.1777
1199.05	143.461
1203.39	71.1094
1207.72	15.0176
1212.05	329.106
1216.37	179.25
1220.7	81.4356
1225.02	26.002
1229.34	86.3496
1233.65	56.5879
1237.97	105.375
1242.28	107.756
1246.59	15.4609
1250.89	205.545
1255.19	204.027
1259.49	266.367
1263.79	46.75
1268.09	102.201
1272.38	70.918
1276.67	207.422
1280.95	61.1973
1285.24	196.758
1289.52	219.43
1293.8	169.074
1298.08	225.404
1302.35	135.836
1306.62	290.232
1310.89	136.533
1315.15	351.365
1319.42	303.191
1323.68	205.168
1327.94	203.066
1332.19	322.039
1336.44	342.42
1340.69	125.609
1344.94	298.516
1349.19	42.4395
1353.43	288.01
1357.67	193.514
1361.9	295.203
1366.14	267.004
1370.37	126.865
1374.6	384.857
1378.83	232.451
1383.05	138.99
1387.27	215.467
1391.49	101.639
1395.7	158.949
1399.92	372.807
1404.13	310.17
1408.34	53.2012
1412.54	170.312
1416.74	95.7676
1420.94	255.531
1425.14	164.769
1429.34	130.703
1433.53	161.336
1437.72	308.584
1441.9	125.156
1446.09	195.891
1450.27	385.606
1454.45	33.209
1458.63	31.2344
1462.8	248.875
1466.97	147.365
1471.14	76.834
1475.31	120.506
1479.47	76.1758
1483.63	95.6641
1487.79	307.6
1491.94	31.0957
1496.09	119.482
1500.24	287.764
1504.39	180.84
1508.54	249.602
1512.68	144.166
1516.82	118.693
1520.95	153.557
1525.09	106.363
1529.22	57.8887
1533.35	200.285
1537.47	17.8789
1541.6	200.473
1545.72	273.053
1549.83	207.154
1553.95	92.9551
1558.06	119.486
1562.17	212.269
1566.28	137.299
1570.38	0
