Measurement: Raman, 514 nm, ccw, Raman Data Processed
Mineral: Albite
Rruff sample: R040068
Ideal chemistry: NaAlSi_3_O_8_
Locality: Harding Pegmatite, Dixon, New Mexico, USA
Source: University of Arizona Mineral Museum
Description: Tan colored crystal fragment
Measured chemistry: (Na_0.99_Ca_0.01_)Al_1.00_(Si_0.99_Al_0.01_)_3_O_8_
Pin_id: M00277
Orientation: Laser parallel to (-1 0 -1). Fiducial mark perpendicular to laser is parallel to b [0 1 0]
Raman shift (cm-1)	intensity
121.897	0
126.063	7.905
130.228	107.926
134.39	220.865
138.55	514.373
142.709	1107.06
146.865	1881.79
151.019	2355.7
155.171	2158.69
159.322	3345.45
163.47	3395.11
167.617	2396.87
171.761	1910.16
175.904	2014.7
180.044	2698.82
184.183	3641.1
188.319	3050.25
192.454	1781.27
196.586	1272.25
200.717	1333.55
204.846	2474.93
208.972	3105.8
213.097	1566.48
217.22	597.228
221.341	128.14
225.46	29.253
229.577	100.573
233.692	75.75
237.805	124.095
241.916	186.698
246.025	285.82
250.132	504.449
254.237	266.808
258.34	278.308
262.442	447.988
266.541	977.604
270.639	877.346
274.734	776.858
278.828	907.875
282.919	1797.61
287.009	4425.04
291.097	5249.6
295.183	2617.32
299.266	1046.71
303.348	577.227
307.428	428.521
311.507	410.383
315.583	232.672
319.657	345.25
323.729	588.039
327.8	1140.99
331.868	534.075
335.935	187.287
339.999	150.638
344.062	3.86
348.123	146.938
352.182	30.067
356.239	3.207
360.294	76.299
364.347	9.303
368.398	77.805
372.448	65.007
376.495	97.757
380.54	89.575
384.584	32.979
388.626	105.428
392.666	157.793
396.704	177.317
400.74	382.215
404.774	932.385
408.806	783.657
412.836	755.085
416.865	636.185
420.891	197.059
424.916	52.053
428.939	78.648
432.959	39.276
436.978	140.212
440.996	411.908
445.011	252.743
449.024	594.688
453.036	1517.78
457.045	1738.85
461.053	1202.93
465.059	1133.87
469.063	2134.18
473.065	5024.29
477.065	11144.3
481.063	8194.47
485.06	3674.28
489.054	1943.99
493.047	1703.59
497.038	2779.55
501.027	6189.35
505.014	13823.1
508.999	11067.1
512.982	4737.61
516.964	2148.69
520.944	1493.51
524.921	1047.31
528.897	596.86
532.871	635.604
536.844	511.02
540.814	413.021
544.783	338.159
548.749	260.035
552.714	216.969
556.677	175.352
560.638	333.34
564.597	341.182
568.555	229.002
572.511	307.686
576.464	436.211
580.416	654.844
584.366	263.211
588.315	109.256
592.261	76.068
596.206	12.945
600.148	71.879
604.089	46.225
608.028	42.625
611.965	28.865
615.901	35.068
619.834	70.764
623.766	116.447
627.696	241.979
631.624	277.369
635.551	72.615
639.475	207.711
643.398	332.662
647.318	377.471
651.237	352.129
655.155	196.533
659.07	130.734
662.984	15.307
666.895	28.354
670.805	111.822
674.713	45.086
678.62	8.221
682.524	71.35
686.427	55.672
690.328	72.955
694.227	369.986
698.124	42.92
702.02	65.207
705.913	18.473
709.805	41.906
713.695	74.389
717.584	420.604
721.47	94.875
725.355	20.574
729.238	102.525
733.119	273.779
736.998	245.975
740.876	206.852
744.752	361.037
748.626	462.668
752.498	492.459
756.368	1002.28
760.237	2301.79
764.104	2430.35
767.969	1190.91
771.832	867.967
775.693	837.523
779.553	346.51
783.411	456.049
787.267	395.367
791.122	274.205
794.974	173.195
798.825	332.01
802.674	590.695
806.522	699.26
810.367	1641.22
814.211	2579.09
818.053	1759.01
821.893	643.895
825.732	440.898
829.568	365.262
833.403	120.777
837.236	137.205
841.068	135.182
844.898	306.475
848.726	16.611
852.552	122.424
856.376	8.533
860.199	73.975
864.02	249.34
867.839	295.557
871.656	27.918
875.472	278.074
879.286	293.535
883.098	109.205
886.909	5.561
890.717	159.113
894.524	55.158
898.33	179.266
902.133	56.129
905.935	171.699
909.735	267.246
913.533	102.76
917.33	61.758
921.124	223.615
924.918	108.938
928.709	224.211
932.499	349.414
936.286	304.537
940.073	279.596
943.857	84.621
947.64	289.611
951.421	274.57
955.2	269.506
958.978	324.414
962.753	439.383
966.527	574.332
970.3	499.352
974.071	404.418
977.84	569.486
981.607	574.598
985.372	299.738
989.136	298.223
992.898	143.438
996.659	468.998
1000.42	462.418
1004.17	708.92
1007.93	833.914
1011.68	698.734
1015.43	616.27
1019.18	448.562
1022.93	388.201
1026.68	344.688
1030.42	477.234
1034.17	443.051
1037.91	588.18
1041.65	613.809
1045.39	387.213
1049.12	1073.02
1052.86	563.225
1056.59	1218.73
1060.33	606.895
1064.06	442.758
1067.78	344.945
1071.51	329.643
1075.23	532.322
1078.96	675.287
1082.68	757.707
1086.4	1070.59
1090.12	1446.4
1093.83	2442.32
1097.55	3308.28
1101.26	3024.3
1104.97	2410.38
1108.68	1796.51
1112.39	1822.64
1116.1	1618.76
1119.8	1005.18
1123.5	951.795
1127.2	628.549
1130.9	445.33
1134.6	412.146
1138.3	289.055
1141.99	76.258
1145.69	483.646
1149.38	311.059
1153.07	413.451
1156.76	286.891
1160.44	142.424
1164.13	254.459
1167.81	243.717
1171.49	156.688
1175.17	13.299
1178.85	43.719
1182.52	184.605
1186.2	134.957
1189.87	395.217
1193.54	416.791
1197.21	488.279
1200.88	178.832
1204.55	14.475
1208.21	65.004
1211.88	353.869
1215.54	317.312
1219.2	219.928
1222.86	447.984
1226.51	363.99
1230.17	0.896
