Measurement: Raman, 514 nm, ccw, Raman Data Processed
Mineral: Albite
Rruff sample: R040129
Ideal chemistry: NaAlSi_3_O_8_
Locality: LaChance Quarry, Brunswick, Cumberland County, Maine, USA
Source: Bob Downs
Description: Colorless fragment of a tabular single crystal
Measured chemistry: (Na_0.99_K_0.01_)Al_1.00_Si_3.00_O_8_
Pin_id: M00199
Orientation: Laser parallel to (0 -1 -1). Fiducial mark perpendicular to laser is parallel to a [1 0 0]
Raman shift (cm-1)	intensity
93.714	0
97.916	31.567
102.115	43.852
106.312	296.687
110.507	1199.3
114.7	1934.2
118.891	1309.1
123.079	1009.75
127.265	1050.19
131.449	1208.2
135.631	1589.06
139.81	2687.6
143.988	4766.14
148.163	5237.36
152.336	4846.34
156.507	7399.4
160.675	11646
164.842	11676.2
169.006	9432.23
173.168	9581.91
177.328	10543.1
181.485	13775.1
185.641	16428.7
189.794	13283.5
193.945	8228.91
198.094	5565.05
202.241	5742.01
206.385	9019.84
210.528	10438.5
214.668	6088.12
218.806	2659.54
222.942	1233.76
227.076	823.761
231.207	585.793
235.337	423.495
239.464	504.316
243.589	762.302
247.712	1557.77
251.833	3099.44
255.951	2389.69
260.068	1220.61
264.182	1007.11
268.294	1340.81
272.404	1684.62
276.512	2296.75
280.618	4190.84
284.721	10241.5
288.823	23553.3
292.922	28635.9
297.019	14969.6
301.114	5914.44
305.207	2666.17
309.298	1657.72
313.387	1199.98
317.473	978.904
321.558	1419.41
325.64	3819.46
329.72	7168.99
333.798	4498.94
337.874	1649.22
341.948	793.826
346.019	606.728
350.089	625.911
354.156	383.359
358.222	262.061
362.285	69.023
366.346	34.765
370.405	36.294
374.462	90.668
378.516	88.902
382.569	77.076
386.62	108.222
390.668	18.266
394.714	140.829
398.759	512.957
402.801	598.982
406.841	783.692
410.879	520.372
414.915	243.185
418.949	55.452
422.98	21.866
427.01	111.726
431.037	110.746
435.063	67.061
439.086	33.413
443.108	24.879
447.127	65.431
451.144	240.259
455.159	807.052
459.172	1058.96
463.183	1057.94
467.192	1428.99
471.198	3023.1
475.203	7806.25
479.206	16749.4
483.206	13432.6
487.205	6395.84
491.201	3729.06
495.196	3812.27
499.188	6165.47
503.178	15308.6
507.166	34781.8
511.153	32575.1
515.137	14428.3
519.119	6452.68
523.099	3527.39
527.077	2266.58
531.053	1515.31
535.027	1296.65
538.998	855.156
542.968	784.431
546.936	587.224
550.902	566.217
554.865	521.952
558.827	368.989
562.786	406.653
566.744	477.415
570.7	455.356
574.653	778.161
578.604	1270.68
582.554	1337.24
586.501	751.3
590.447	470.743
594.39	202.878
598.331	224.074
602.271	202.106
606.208	93.478
610.143	214.529
614.077	115.943
618.008	257.261
621.937	308.479
625.865	529.589
629.79	900.593
633.713	1401.49
637.634	1222.27
641.553	1162.94
645.471	1523.49
649.386	1573.93
653.299	934.256
657.21	484.46
661.12	384.545
665.027	244.512
668.932	194.354
672.835	104.073
676.737	93.649
680.636	173.058
684.533	82.256
688.428	41.26
692.322	6.324
696.213	1.153
700.102	72.527
703.99	5.901
707.875	5.845
711.758	14.387
715.64	24.432
719.519	161.626
723.397	48.924
727.272	17.799
731.146	144.817
735.017	114.53
738.887	171.255
742.755	189.088
746.62	217.767
750.484	260.479
754.346	427.427
758.206	784.357
762.063	1461.04
765.919	1757.78
769.773	1064.4
773.625	781.365
777.475	837.793
781.323	494.122
785.169	390.351
789.013	316.531
792.856	242.572
796.696	208.523
800.534	404.387
804.371	590.164
808.205	915.86
812.037	2151.48
815.868	3587.01
819.697	2632.48
823.523	1187.67
827.348	692.738
831.171	556.612
834.992	240.338
838.811	197.792
842.628	190.32
846.443	177.916
850.256	115.394
854.067	201.259
857.876	44.606
861.684	38.033
865.489	136.499
869.293	127.995
873.095	30.73
876.894	132.301
880.692	145.541
884.488	29.938
888.282	104.288
892.074	138.469
895.864	107.664
899.652	123.268
903.439	21.071
907.223	85.443
911.006	169.859
914.786	44.316
918.565	108.813
922.342	133.354
926.117	77.931
929.89	132.551
933.661	27.222
937.43	161.948
941.198	116.731
944.963	162.767
948.727	146.484
952.488	131.461
956.248	96.508
960.006	261.628
963.762	36.823
967.516	122.095
971.269	317.445
975.019	542.879
978.767	688.399
982.514	594.029
986.259	239.779
990.002	205.704
993.743	121.793
997.482	278.119
1001.22	354.74
1004.95	251.658
1008.69	458.892
1012.42	314.394
1016.15	541.968
1019.88	517.767
1023.6	726.337
1027.33	1314.79
1031.05	2535.41
1034.77	2473.26
1038.49	1400.25
1042.21	699.87
1045.92	483.235
1049.63	430.114
1053.35	330.143
1057.05	460.204
1060.76	271.195
1064.47	221.454
1068.17	231.733
1071.87	222.117
1075.57	402.212
1079.27	422.822
1082.97	683.604
1086.66	824.533
1090.36	1405.57
1094.05	2186.78
1097.73	3488.08
1101.42	3469.46
1105.11	2751.11
1108.79	2292.64
1112.47	2164.23
1116.15	1995.89
1119.83	1497.83
1123.51	1069.63
1127.18	651.683
1130.86	424.062
1134.53	417.223
1138.19	250.802
1141.86	174.022
1145.53	398.771
1149.19	187.903
1152.85	181.031
1156.51	144.973
1160.17	399.144
1163.83	18.174
1167.48	99.015
1171.13	44.622
1174.78	92.266
1178.43	10.377
1182.08	42.911
1185.73	172.268
1189.37	108.5
1193.01	200.885
1196.65	404.004
1200.29	37.703
1203.93	19.771
1207.56	182.773
1211.19	154.703
1214.83	217.369
1218.45	238.586
1222.08	411.213
1225.71	328.816
1229.33	273.264
1232.95	206.166
1236.57	286.582
1240.19	348.029
1243.81	148.623
1247.42	208.979
1251.04	359.115
1254.65	269.344
1258.26	309.266
1261.87	119.096
1265.47	199.402
1269.08	208.703
1272.68	67.203
1276.28	15.615
1279.88	84.443
1283.47	152.201
1287.07	59.428
1290.66	246.402
1294.26	112.85
1297.85	29.02
1301.43	14.629
1305.02	9.65
1308.61	124.219
1312.19	198.469
1315.77	272.18
1319.35	231.738
1322.93	184.729
1326.5	2.674
1330.08	30.527
1333.65	130.844
1337.22	43.256
1340.79	204.416
1344.36	215.219
1347.92	344.912
1351.49	275.297
1355.05	375.371
1358.61	205.275
1362.17	185.053
1365.72	104.746
1369.28	3.695
1372.83	32.996
1376.38	36.457
1379.93	129.742
1383.48	515.459
1387.03	391.129
1390.57	466.277
1394.12	410.57
1397.66	343.385
1401.2	179.119
1404.73	62.432
1408.27	146.58
1411.8	393.432
1415.34	386.422
1418.87	229.215
1422.4	419.619
1425.92	265.049
1429.45	468.979
1432.97	232.75
1436.49	195.213
1440.02	236.166
1443.54	182.748
1447.05	199.078
1450.57	247.971
1454.08	376.387
1457.59	453.422
1461.1	467.371
1464.61	515.594
1468.12	599.963
1471.62	497.033
1475.13	594.529
1478.63	172.953
1482.13	13.562
1485.63	214.002
1489.12	256.566
1492.62	281.363
1496.11	230.57
1499.6	327.215
1503.09	479.504
1506.58	532.725
1510.07	220.695
