Measurement: Raman, 514 nm, ccw, Raman Data Processed
Mineral: Albite
Rruff sample: R040068
Ideal chemistry: NaAlSi_3_O_8_
Locality: Harding Pegmatite, Dixon, New Mexico, USA
Source: University of Arizona Mineral Museum
Description: Tan colored crystal fragment
Measured chemistry: (Na_0.99_Ca_0.01_)Al_1.00_(Si_0.99_Al_0.01_)_3_O_8_
Pin_id: M00277
Orientation: Laser parallel to (-1 0 -1). Fiducial mark perpendicular to laser is parallel to b [0 1 0]
Raman shift (cm-1)	intensity
124.675	0
128.84	269.241
133.003	145.521
137.164	245.19
141.323	513.916
145.48	930.809
149.635	1379.32
153.788	2327.86
157.939	4113.38
162.088	5702.92
166.235	3845.56
170.38	2660.54
174.523	2377.23
178.664	2803.12
182.803	3830.98
186.94	3770.98
191.076	2344.31
195.209	1518.87
199.34	1403.58
203.47	2028.8
207.597	3434.38
211.722	2579.53
215.846	1044.53
219.967	439.637
224.087	94.952
228.204	19.482
232.32	33.003
236.434	36.962
240.545	36.572
244.655	85.191
248.763	120.254
252.869	96.169
256.973	203.714
261.075	149.938
265.175	375.73
269.273	530.775
273.369	525.979
277.463	738.59
281.556	1708.83
285.646	4234.29
289.734	7527.6
293.821	5006.56
297.905	1988.96
301.988	863.017
306.069	538.227
310.147	544.306
314.224	280.994
318.299	268.154
322.372	255.639
326.443	723.382
330.512	561.331
334.579	209.449
338.645	2.292
342.708	156.037
346.769	154.188
350.829	152.42
354.887	120.686
358.942	8.979
362.996	62.708
367.048	95.535
371.098	6.225
375.146	68.043
379.192	50.047
383.236	38.038
387.279	53.991
391.319	133.681
395.358	229.218
399.394	221.676
403.429	478.072
407.462	1115.66
411.493	533.05
415.522	210.108
419.549	76.913
423.575	43.671
427.598	40.374
431.619	26.996
435.639	26.392
439.657	223.688
443.673	200.17
447.687	446.43
451.699	545.595
455.709	803.812
459.717	893.482
463.724	1120.5
467.728	1713.28
471.731	3870.52
475.732	9797.99
479.731	11854.3
483.728	5240.27
487.723	2506.12
491.716	1751.9
495.708	2257.73
499.697	4592.88
503.685	11699.2
507.671	15698.4
511.655	7693.93
515.637	3228.83
519.617	2115.47
523.596	1094.37
527.572	892.242
531.547	613.303
535.52	562.109
539.491	348.631
543.46	329.355
547.427	481.98
551.393	335.641
555.356	359.564
559.318	212.924
563.278	246.926
567.236	270.859
571.192	335.072
575.147	499.752
579.099	574.668
583.05	373.057
586.999	190.277
590.946	112.543
594.891	7.416
598.834	85.311
602.776	358.016
606.715	200.578
610.653	92.979
614.589	14.793
618.523	87.193
622.456	10.998
626.386	10.531
630.315	171.818
634.242	70.998
638.167	204.01
642.09	295.422
646.012	407.111
649.931	170.26
653.849	150.58
657.765	60.736
661.679	210.719
665.592	120.467
669.502	141.107
673.411	119.459
677.318	28.906
681.223	10.496
685.126	110.02
689.028	179.256
692.927	48.396
696.825	204.146
700.721	46.699
704.616	119.008
708.508	427.219
712.399	410.279
716.288	328.438
720.175	235.752
724.06	102.551
727.944	169.637
731.825	36.635
735.705	46.199
739.584	80.676
743.46	287.447
747.334	94.1
751.207	581.092
755.078	475.711
758.947	821.229
762.815	1516.58
766.68	1182.5
770.544	585.939
774.406	709.684
778.267	702.119
782.125	341.258
785.982	225.729
789.837	278.342
793.69	358.488
797.542	138.994
801.391	17.279
805.239	366.223
809.085	819.428
812.93	1492.26
816.772	1484.8
820.613	583.742
824.452	206.332
828.29	306.17
832.125	162.514
835.959	213.113
839.791	220.627
843.621	151.977
847.45	185.533
851.277	45.852
855.102	12.814
858.925	283.516
862.746	65.545
866.566	15.203
870.384	175.824
874.2	63.543
878.015	116.521
881.828	146.717
885.639	65.15
889.448	39.949
893.256	29.16
897.061	79.062
900.865	128.051
904.668	37.777
908.468	287.439
912.267	267.051
916.064	56.586
919.86	75.982
923.653	235.289
927.445	34.541
931.236	273.717
935.024	122.869
938.811	191.945
942.596	20.785
946.379	429.674
950.161	227.666
953.94	362.857
957.719	251.527
961.495	590.156
965.27	1168.74
969.043	297.285
972.814	365.844
976.583	294.369
980.351	402.826
984.117	471.074
987.882	417.219
991.644	435.082
995.405	213.023
999.165	181.037
1002.92	421.861
1006.68	249.424
1010.43	451.094
1014.18	594.932
1017.93	462.533
1021.68	358.242
1025.43	241.135
1029.18	286.297
1032.92	745.424
1036.66	296.086
1040.4	654.742
1044.14	663.252
1047.88	554.68
1051.62	614.004
1055.35	651.145
1059.08	622.283
1062.81	491.168
1066.54	409.357
1070.27	663.164
1073.99	530.629
1077.72	568.57
1081.44	734.279
1085.16	830.535
1088.88	1326.27
1092.59	2541.57
1096.31	3568.09
1100.02	3857.05
1103.73	2806.04
1107.44	2095.06
1111.15	2074.1
1114.86	2153.22
1118.57	1882.43
1122.27	1751.56
1125.97	631.262
1129.67	531.271
1133.37	41.201
1137.07	551.16
1140.76	251.127
1144.45	101.146
1148.15	321.18
1151.84	441.225
1155.53	331.449
1159.21	196.859
1162.9	112.811
1166.58	4.094
1170.26	185.865
1173.94	307.93
1177.62	410.307
1181.3	253.031
1184.97	66.131
1188.65	179.041
1192.32	122.92
1195.99	87.34
1199.66	382.416
1203.33	505.068
1206.99	224.139
1210.65	133.277
1214.32	5.617
1217.98	74.777
1221.64	182.125
1225.29	204.133
1228.95	213.865
1232.6	152.832
1236.26	96.834
