Measurement: Raman, 514 nm, ccw, Raman Data Processed
Mineral: Albite
Rruff sample: R050253
Ideal chemistry: NaAlSi_3_O_8_
Locality: Madawaska/Faraday mine, Bancroft, Ontario, Canada
Source: Marcus Origlieri
Description: Colorless to brown prismatic single crystals
Measured chemistry: (Na_0.99_Ca_0.01_)Al_1.00_(Si_0.99_Al_0.01_)_3_O_8_
Pin_id: L00649
Orientation: Laser parallel to c* (0 0 1). Fiducial mark perpendicular to laser is parallel to a [1 0 0]
Raman shift (cm-1)	intensity
87.308	0
92.246	75.0186
97.182	21.4766
102.116	1315.2
107.047	4182.78
111.976	6926.46
116.903	6673.88
121.827	2135.48
126.749	705.312
131.668	545.329
136.585	621.301
141.5	1554.19
146.412	2473.32
151.321	3940.17
156.229	2716.57
161.134	1415.58
166.036	1435.19
170.936	1619.27
175.834	2499.02
180.729	3631.69
185.622	4588.4
190.512	4192.17
195.4	3637.15
200.286	4330.91
205.169	5439.76
210.049	6131.54
214.928	3098.23
219.803	791.537
224.677	52.1948
229.548	93.3486
234.416	112.379
239.282	69.7827
244.146	590.475
249.007	1235.13
253.866	1818.9
258.722	1478.96
263.576	2165.93
268.427	3404.56
273.276	3867.62
278.123	4231.92
282.967	8932.38
287.809	14129.9
292.648	15835.5
297.485	7827.08
302.319	2915.62
307.151	1588.73
311.98	1019.28
316.807	522.636
321.631	611.786
326.454	692.732
331.273	586.47
336.09	276.995
340.905	86.3023
345.717	36.374
350.527	27.1567
355.334	86.4258
360.139	50.5122
364.941	112.245
369.741	19.9121
374.538	93.9175
379.333	54.7383
384.126	35.0332
388.916	74.9477
393.703	133.519
398.488	413.92
403.271	798.172
408.051	1947.34
412.828	2444.5
417.603	2651.65
422.376	1118.79
427.146	454.794
431.914	365.755
436.679	481.527
441.442	586.077
446.202	877.408
450.96	1294.52
455.715	1989.44
460.467	3323.17
465.218	6820.71
469.965	18262.1
474.711	35513.3
479.454	45807.3
484.194	26215.2
488.932	11151.3
493.667	10382.2
498.4	22829.4
503.13	44365.4
507.858	57262.2
512.583	33956.2
517.306	12485
522.026	6123.99
526.744	3872.63
531.459	2522.78
536.172	1927.44
540.882	1489.92
545.59	1171.29
550.295	914.924
554.998	849.199
559.698	720.841
564.396	639.16
569.091	762.581
573.784	1012.16
578.474	1356.92
583.162	935.815
587.847	376.877
592.529	308.002
597.209	111.266
601.887	133.727
606.562	168.371
611.235	163.207
615.905	129.193
620.572	254.346
625.237	180.552
629.9	220.827
634.56	297.21
639.217	350.83
643.872	544.774
648.524	567.149
653.174	280.971
657.821	142.198
662.466	27.9883
667.108	53.105
671.748	50.5376
676.385	49.103
681.02	22.6943
685.652	3.75098
690.281	14.4941
694.908	76.5644
699.533	103.065
704.155	44.0596
708.774	121.957
713.391	62.6489
718.005	270.721
722.617	139.664
727.226	112.586
731.833	181.003
736.437	195.443
741.039	285.458
745.638	520.15
750.234	919.364
754.828	2176.89
759.419	4969.37
764.008	6551.5
768.595	4062.55
773.178	2195.5
777.759	1596.36
782.338	822.128
786.914	530.786
791.488	298.333
796.059	189.754
800.627	373.047
805.193	454.204
809.756	730.22
814.317	922.093
818.875	791.821
823.431	377.43
827.984	297.164
832.534	244.855
837.082	261.346
841.627	123.367
846.17	38.8325
850.71	5.78369
855.248	9.56592
859.783	72.0312
864.316	41.1943
868.846	7.2168
873.373	7.10938
877.898	30.7837
882.42	57.8486
886.94	19.7412
891.457	31.9536
895.971	59.104
900.483	92.4092
904.993	61.0884
909.5	19.0249
914.004	155.931
918.505	180.817
923.004	2.7041
927.501	78.5981
931.995	82.5234
936.486	48.6152
940.975	75.7178
945.461	246.828
949.945	312.048
954.426	533.321
958.904	625.825
963.38	706.607
967.853	1113.58
972.324	1819.82
976.792	2513.29
981.258	2305.93
985.72	1202.37
990.181	710.105
994.639	642.099
999.094	789.895
1003.55	1228.01
1008	1318.61
1012.44	925.095
1016.89	587.769
1021.33	772.692
1025.77	1083.03
1030.21	1659.02
1034.64	1734.16
1039.07	1107.47
1043.5	927.943
1047.93	1030.58
1052.35	692.859
1056.78	469.75
1061.19	451.42
1065.61	438.884
1070.02	627.889
1074.43	791.584
1078.84	1258.1
1083.25	1939.34
1087.65	3294.87
1092.05	6409.26
1096.45	11630.7
1100.85	13268.3
1105.24	9940.18
1109.63	7478.02
1114.02	6845.6
1118.4	5753.77
1122.78	3639.06
1127.16	2287.59
1131.54	1249.33
1135.92	903.224
1140.29	657.445
1144.66	638.032
1149.02	709.988
1153.39	689.167
1157.75	323.603
1162.11	286.224
1166.46	250.942
1170.82	72.7617
1175.17	151.733
1179.52	78.79
1183.86	82.9009
1188.21	29.9502
1192.55	5.79346
1196.89	32.7402
1201.22	47.1035
1205.55	20.9912
1209.88	2.02832
1214.21	11.7642
1218.54	37.5478
1222.86	13.8599
1227.18	68.7651
1231.5	67.2534
1235.81	98.7427
1240.12	103.29
1244.43	75.1211
1248.74	23.1572
1253.04	89.4824
1257.34	125.778
1261.64	168.059
1265.94	128.415
1270.23	227.753
1274.52	54.9541
1278.81	71.1763
1283.1	124.72
1287.38	160.089
1291.66	190.584
1295.94	174.842
1300.21	165.17
1304.48	225.909
1308.75	175.452
1313.02	225.576
1317.29	285.293
1321.55	232.659
1325.81	242.378
1330.06	182.524
1334.32	46.563
1338.57	142.738
1342.82	212.599
1347.06	153.855
1351.31	182.784
1355.55	170.345
1359.79	101.241
1364.02	50.0371
1368.26	164.572
1372.49	151.284
1376.71	115.512
1380.94	114.072
1385.16	92.7656
1389.38	48.4795
1393.6	9.88574
1397.81	39.2861
1402.02	3.46826
1406.23	26.3276
1410.44	100.033
1414.64	48.3599
1418.85	152.472
1423.04	130.422
1427.24	113.785
1431.43	146.815
1435.62	171.886
1439.81	194.357
1444	116.53
1448.18	229.321
1452.36	230.999
1456.54	126.557
1460.71	124.37
1464.89	181.823
1469.06	170.551
1473.22	71.1719
1477.39	57.9717
1481.55	13.3916
1485.71	63.9487
1489.86	21.6665
1494.02	87.7261
1498.17	18.7632
1502.32	42.272
1506.46	128.529
1510.61	47.1348
1514.75	98.501
1518.88	70.4199
1523.02	61.106
1527.15	85.6562
1531.28	182.152
1535.41	106.018
1539.53	160.56
1543.66	109.998
1547.78	62.1685
1551.89	98.5527
1556.01	80.1455
1560.12	114.509
1564.23	23.6748
1568.33	12.169
