Measurement: Raman, 514 nm, ccw, Raman Data Processed
Mineral: Albite
Rruff sample: R040129
Ideal chemistry: NaAlSi_3_O_8_
Locality: LaChance Quarry, Brunswick, Cumberland County, Maine, USA
Source: Bob Downs
Description: Colorless fragment of a tabular single crystal
Measured chemistry: (Na_0.99_K_0.01_)Al_1.00_Si_3.00_O_8_
Pin_id: L00331
Orientation: Laser parallel to (1 0 1). Fiducial mark perpendicular to laser is parallel to -b [0 -1 0]
Raman shift (cm-1)	intensity
124.519	0
128.69	20.718
132.858	61.61
137.025	265.49
141.189	731.981
145.352	1562.97
149.512	2484.86
153.67	5520.6
157.827	11870.7
161.981	17961
166.133	10587.4
170.283	7320.99
174.431	6462.58
178.577	8162.67
182.721	11792.1
186.863	11430.3
191.003	6758.18
195.141	4090.1
199.277	3318.86
203.411	4881.25
207.543	9752.43
211.673	7973.49
215.801	3028.66
219.927	1113.11
224.051	538.834
228.173	288.786
232.292	70.899
236.41	48.869
240.526	83.63
244.64	96.556
248.752	56.016
252.861	9.458
256.969	45.49
261.075	121.661
265.179	219.891
269.281	404.788
273.38	730.228
277.478	1451.66
281.574	3686.64
285.668	10911.6
289.76	22390.8
293.85	14541.9
297.937	5502.93
302.023	2457.42
306.107	1669.49
310.189	1518.82
314.269	1047.25
318.347	814.688
322.423	741.947
326.497	1338.92
330.569	1381.64
334.639	599.156
338.707	300.488
342.773	232.658
346.837	324.444
350.899	196.858
354.96	243.589
359.018	67.123
363.074	12.376
367.128	45.045
371.181	15.361
375.231	41.312
379.28	27.179
383.326	17.844
387.37	12.747
391.413	14.568
395.454	4.409
399.492	214.561
403.529	805.644
407.564	1928.77
411.596	568.032
415.627	140.2
419.656	22.328
423.683	47.423
427.708	13.961
431.731	23.648
435.752	46.201
439.772	21.532
443.789	142.801
447.804	263.036
451.817	754.25
455.829	1240.41
459.838	1344.53
463.846	1605.58
467.852	3064.52
471.855	6973.36
475.857	19201.1
479.857	26428.7
483.855	11806.2
487.851	5223.63
491.845	3610.93
495.837	4228.13
499.828	8805.23
503.816	24642.2
507.802	38370.3
511.787	18457.4
515.77	7746.72
519.75	4193.13
523.729	2616.27
527.706	1768.49
531.681	1354.9
535.654	1083.8
539.625	967.354
543.595	734.356
547.562	560.172
551.527	533.672
555.491	627.892
559.453	529.793
563.412	374.661
567.37	359.901
571.326	445.961
575.28	1060.65
579.233	1297.03
583.183	786.68
587.131	463.469
591.078	301.464
595.022	339.427
598.965	128.633
602.906	154.016
606.845	195.341
610.782	256.609
614.718	303.865
618.651	205.066
622.582	275.209
626.512	406.296
630.44	611.327
634.366	512.301
638.29	480.231
642.212	538.125
646.132	946.969
650.05	810.76
653.967	419.501
657.882	196.193
661.794	9.133
665.705	196.467
669.614	161.035
673.522	71.503
677.427	21.095
681.331	55.23
685.232	154.524
689.132	105.796
693.03	120.042
696.926	18.464
700.82	50.718
704.713	36.262
708.603	110.271
712.492	169.067
716.379	40.82
720.264	24.779
724.147	137.518
728.028	206.722
731.908	208.808
735.785	87.771
739.661	11.225
743.535	149.806
747.407	265.788
751.278	352.746
755.146	412.672
759.013	813.561
762.878	1828.41
766.741	1527.57
770.602	1288.65
774.461	1633.4
778.319	1013.11
782.174	410.79
786.028	364.438
789.88	369.097
793.73	331.71
797.579	357.276
801.425	373.818
805.27	556.337
809.113	1252.83
812.954	2533.53
816.794	2475.79
820.631	916.095
824.467	600.277
828.301	351.127
832.133	424.505
835.963	494.966
839.792	169.521
843.618	156.835
847.443	140.391
851.266	223.738
855.088	263.059
858.907	216.102
862.725	118.482
866.541	54.568
870.355	57.452
874.167	273.319
877.978	90.522
881.787	2.389
885.594	102.72
889.399	11.573
893.202	209.291
897.004	258.72
900.803	193.164
904.601	205.658
908.398	38.288
912.192	76.974
915.985	171.718
919.776	287.488
923.565	140.248
927.352	115.063
931.138	28.938
934.922	12.874
938.704	69.875
942.484	161.942
946.262	153.037
950.039	245.183
953.814	21.397
957.587	50.683
961.359	198.041
965.128	222.451
968.896	246.9
972.662	121.472
976.427	116.111
980.189	40.876
983.95	40.264
987.709	270.672
991.467	265.688
995.222	200.769
998.976	116.042
1002.73	290.181
1006.48	345.737
1010.23	479.062
1013.97	924.973
1017.72	667.951
1021.46	411.293
1025.2	305.305
1028.94	402.072
1032.68	428.953
1036.42	486.023
1040.15	372.818
1043.89	340.182
1047.62	236.229
1051.35	194.002
1055.07	178.356
1058.8	86.187
1062.52	444.798
1066.25	652.838
1069.97	667.592
1073.69	575.54
1077.4	623.774
1081.12	842.209
1084.83	1280.74
1088.55	2239.27
1092.26	3528.05
1095.96	6214.69
1099.67	7243.46
1103.38	5452.37
1107.08	4331.29
1110.78	3750.24
1114.48	4097.05
1118.18	3671.5
1121.88	2588.79
1125.57	1428.91
1129.27	758.935
1132.96	347.146
1136.65	327.528
1140.34	463.656
1144.02	587.099
1147.71	547.271
1151.39	388.27
1155.07	119.4
1158.75	70.186
1162.43	40.112
1166.11	113.733
1169.78	173.816
1173.45	378.171
1177.12	318.22
1180.79	262.039
1184.46	44.954
1188.13	144.847
1191.79	9.951
1195.45	42.886
1199.11	164.508
1202.77	404.38
1206.43	423.977
1210.09	314.2
1213.74	183.697
1217.39	43.975
1221.05	132.757
1224.69	241.463
1228.34	344.716
1231.99	485.935
1235.63	464.646
1239.27	363.436
1242.91	215.005
1246.55	83.753
1250.19	102.119
1253.83	210.633
1257.46	320.312
1261.09	428.509
1264.72	426.562
1268.35	412.303
1271.98	410.707
1275.61	188.29
1279.23	16.619
1282.85	35.595
1286.47	173.316
1290.09	90.011
1293.71	317.128
1297.33	463.673
1300.94	209.852
1304.55	195.771
1308.16	241.495
1311.77	86.893
1315.38	37.927
1318.99	77.755
1322.59	162.296
1326.19	346.508
1329.79	290.362
1333.39	453.964
1336.99	347.181
1340.59	30.217
1344.18	132.864
1347.77	59.494
1351.37	32.397
1354.95	203.828
1358.54	85.743
1362.13	367.331
1365.71	539.09
1369.3	390.609
1372.88	190.866
1376.46	147.52
1380.04	153.888
1383.61	9.851
1387.19	126.367
1390.76	216.271
1394.33	420.801
1397.9	514.084
1401.47	588.255
1405.04	567.151
1408.6	497.648
1412.16	289.855
1415.72	136.616
1419.29	28.829
1422.84	0.181
1426.4	32.272
1429.96	203.955
1433.51	311.982
1437.06	610.85
1440.61	659.863
1444.16	561.42
1447.71	535.096
1451.25	566.136
1454.8	493.838
1458.34	326.688
1461.88	252.715
1465.42	163.692
1468.96	338.987
1472.49	410.066
1476.03	501.026
1479.56	522.326
1483.09	664.068
1486.62	674.858
1490.15	376.047
1493.67	249.341
1497.2	163.66
1500.72	129.17
1504.24	1.113
1507.76	0.516
1511.28	0.098
