Measurement: Raman, 514 nm, ccw, Raman Data Processed
Mineral: Albite
Rruff sample: R040068
Ideal chemistry: NaAlSi_3_O_8_
Locality: Harding Pegmatite, Dixon, New Mexico, USA
Source: University of Arizona Mineral Museum
Description: Tan colored crystal fragment
Measured chemistry: (Na_0.99_Ca_0.01_)Al_1.00_(Si_0.99_Al_0.01_)_3_O_8_
Pin_id: L00433
Orientation: Laser parallel to -b* (0 -1 0). Fiducial mark perpendicular to laser is parallel to -c [0 0 -1]
Raman shift (cm-1)	intensity
121.738	0
125.91	68.34
130.08	197.328
134.248	191.798
138.413	563.649
142.577	1125.87
146.739	1412.96
150.898	1540.98
155.056	1942.48
159.212	3302.18
163.365	3130.8
167.517	2578.77
171.666	2136.32
175.813	2011.85
179.959	2933.35
184.102	3424.93
188.244	2598.45
192.383	1522.81
196.52	1127.23
200.656	1451.77
204.789	2267.14
208.92	2432.7
213.049	1158.24
217.176	433.99
221.302	259.967
225.425	153.856
229.546	42.497
233.665	48.986
237.782	5.537
241.898	209.814
246.011	1175.74
250.122	2005.41
254.231	1069.23
258.338	464.772
262.443	669.862
266.546	1164.92
270.647	1150.1
274.747	955.719
278.844	1352.27
282.939	3153.42
287.032	6969.18
291.123	7076.22
295.212	3222.81
299.3	1267.41
303.385	565.283
307.468	443.436
311.549	391.776
315.629	290.189
319.706	488.558
323.781	1406.9
327.855	2545.22
331.926	1033.54
335.995	431.844
340.063	159.772
344.128	326.954
348.192	254.086
352.253	91.277
356.313	188.512
360.37	65.798
364.426	86.91
368.479	120.309
372.531	52.437
376.581	44.762
380.629	11.896
384.674	40.88
388.718	116.144
392.76	120.99
396.8	531.53
400.838	665.355
404.874	896.239
408.908	903.4
412.94	600.44
416.97	657.416
420.999	94.368
425.025	41.357
429.049	36.692
433.072	4.592
437.092	124.271
441.111	182.158
445.127	120.402
449.142	242.766
453.155	369.844
457.166	417.312
461.175	374.854
465.181	691.264
469.186	1177.57
473.19	2823.81
477.191	5869.99
481.19	4126.09
485.187	1863.7
489.183	1128.07
493.176	1243.94
497.168	2220.08
501.157	5575.99
505.145	12282.3
509.131	8808.23
513.115	3584.55
517.097	1693.92
521.077	897.43
525.055	696.713
529.031	461.746
533.006	387.301
536.978	346.635
540.949	289.633
544.917	298.893
548.884	344.217
552.849	90.01
556.812	185.074
560.773	66.865
564.732	142.93
568.689	278.66
572.644	338.811
576.598	620.279
580.55	395.66
584.499	244.518
588.447	298.875
592.393	12.354
596.337	68.674
600.279	125.027
604.219	88.834
608.158	162.387
612.094	15.775
616.029	9.045
619.962	322.162
623.892	185.152
627.821	148.502
631.749	431.25
635.674	443.875
639.597	476.404
643.519	678.939
647.438	491.195
651.356	123.326
655.272	435.33
659.186	257.201
663.098	228.938
667.009	10.533
670.917	28.029
674.824	323.203
678.728	134.268
682.631	75.223
686.532	43.822
690.432	186.834
694.329	87.51
698.224	128.514
702.118	28.727
706.01	100.018
709.9	154.859
713.788	80.082
717.674	18.945
721.558	228.209
725.441	80.729
729.322	77.096
733.201	21.264
737.078	39.564
740.953	68.398
744.826	197.752
748.698	165.486
752.567	301.803
756.435	378.621
760.301	1084.35
764.165	1166.06
768.028	565.027
771.888	381.32
775.747	298.012
779.604	255.25
783.459	272.121
787.312	198.877
791.164	125.533
795.013	92.396
798.861	228.84
802.707	315.189
806.551	491.391
810.394	1027.27
814.234	1453.14
818.073	1038.5
821.91	413.188
825.745	325.873
829.578	329.367
833.41	212.68
837.24	167.846
841.068	124.52
844.894	223.596
848.718	218.225
852.54	143.527
856.361	0.324
860.18	57.758
863.997	158.99
867.812	186.977
871.626	421.004
875.438	64.514
879.248	10.908
883.056	161.994
886.862	135.805
890.667	176.088
894.469	0.016
898.27	25.494
902.07	59.002
905.867	173.492
909.663	157.951
913.457	382.418
917.249	136.965
921.039	8.516
924.827	236.008
928.614	120.549
932.399	345.096
936.182	199.182
939.964	343.758
943.744	11.668
947.521	212.791
951.298	217.432
955.072	332.111
958.845	266.83
962.615	451.596
966.384	36.408
970.152	201.287
973.917	426.236
977.681	409.33
981.443	336.453
985.203	531.842
988.962	237.439
992.719	182.928
996.474	68.717
1000.23	334.969
1003.98	640.6
1007.73	587.695
1011.48	569.586
1015.22	652.389
1018.97	434.092
1022.71	541.926
1026.45	752.449
1030.19	889.703
1033.93	1034.25
1037.66	380.379
1041.4	533.5
1045.13	578.711
1048.86	643.586
1052.59	730.016
1056.32	583.059
1060.04	469.619
1063.77	425.949
1067.49	152.385
1071.21	509.336
1074.93	336.439
1078.64	723.699
1082.36	851.121
1086.07	588.709
1089.78	1016.9
1093.49	1294.18
1097.2	1532.22
1100.91	1410.44
1104.61	1519.22
1108.32	1178.1
1112.02	957.123
1115.72	806.529
1119.41	706.465
1123.11	496.889
1126.8	197.885
1130.5	739.412
1134.19	361.51
1137.88	664.24
1141.56	387.709
1145.25	22.025
1148.93	107.314
1152.62	383.777
1156.3	521.611
1159.98	461.035
1163.65	720.545
1167.33	349.957
1171	464.49
1174.68	217.846
1178.35	365.293
1182.02	126.986
1185.68	80.395
