Measurement: Raman, 514 nm, ccw, Raman Data Processed
Mineral: Albite
Rruff sample: R050402
Ideal chemistry: NaAlSi_3_O_8_
Locality: Urbano mine, Golconda District, Brazil
Source: Bob Downs
Description: Colorless tabular single crystals associated with fluorapatite R050401
Measured chemistry: Na_1.00_Al_1.00_Si_3.00_O_8_
Pin_id: M00171
Orientation: Laser parallel to (1 1 0). Fiducial mark perpendicular to laser is parallel to c [0 0 1]
Raman shift (cm-1)	intensity
81.131	0
86.072	564.963
91.012	686.229
95.948	0.263672
100.883	442.43
105.815	2344.09
110.744	4365.5
115.671	5438.76
120.596	1814.72
125.519	397.774
130.439	220.37
135.356	538.433
140.271	1966.63
145.184	3590.02
150.094	6419.02
155.002	9356.45
159.908	12884.9
164.811	14081.1
169.711	8416.57
174.61	6963.59
179.505	7579.42
184.399	9004.19
189.29	8129.94
194.178	5370.67
199.064	4961.34
203.948	6630.9
208.829	8765.33
213.708	5947.57
218.585	1763.42
223.459	421.346
228.33	135.807
233.199	37.2559
238.066	327.999
242.93	1324.47
247.792	2276.66
252.651	3413.72
257.508	2258.13
262.363	2963.54
267.215	4569.68
272.064	5430.32
276.912	4645.3
281.756	7441.51
286.598	13447.8
291.438	19071.2
296.276	11438.6
301.111	4432.9
305.943	2531.84
310.773	1884.43
315.601	1347.68
320.426	1472.6
325.248	1856.17
330.068	2414.39
334.886	999.248
339.701	347.744
344.514	194.866
349.324	58.6035
354.132	4.91699
358.938	21.4126
363.741	60.669
368.541	99.7173
373.339	145.272
378.135	95.4531
382.928	39.4185
387.718	163.873
392.506	449.853
397.292	965.585
402.075	2214.15
406.856	3834.51
411.634	3598.71
416.41	2861.72
421.183	1404.65
425.954	520.486
430.722	255.058
435.488	356.315
440.251	489.135
445.012	848.516
449.77	1415.46
454.526	2310.96
459.28	3215.03
464.03	4560.67
468.779	10618.9
473.525	24564.7
478.268	40579.1
483.009	29826
487.747	11665.6
492.483	8377.27
497.217	14506
501.948	32182.2
506.676	51716.4
511.402	39949.8
516.125	15198
520.846	6778.54
525.565	3821.75
530.281	2628.77
534.994	1746.24
539.705	1469.58
544.413	1074.54
549.119	787.558
553.822	758.342
558.523	575.231
563.222	607.48
567.917	698.166
572.611	993.019
577.302	1431.6
581.99	1209.78
586.676	624.787
591.359	341.615
596.04	242.273
600.718	184.773
605.394	208.17
610.067	195.458
614.737	188.703
619.406	343.942
624.071	448.059
628.734	681.035
633.395	736.886
638.053	714.68
642.708	873.22
647.361	1105.21
652.012	737.429
656.66	386.338
661.305	126.225
665.948	119.822
670.588	19.293
675.226	79.3345
679.861	36.7007
684.494	10.5566
689.124	11.0889
693.752	31.2798
698.377	62.1113
702.999	52.7261
707.619	57.8906
712.237	92.0967
716.852	224.012
721.464	273.793
726.074	132.443
730.681	178.964
735.286	234.358
739.888	207.258
744.488	459.059
749.085	809.574
753.68	1615.25
758.272	3821.55
762.861	6229.15
767.448	4707.6
772.033	2478.98
776.614	1892.21
781.194	998.012
785.77	496.61
790.345	416.221
794.916	478.099
799.485	445.977
804.052	766.216
808.616	1506.79
813.177	2793.32
817.736	2821.84
822.292	1218.33
826.846	540.769
831.397	375.736
835.945	363.632
840.491	92.4067
845.035	219.529
849.576	113.272
854.114	41.4106
858.65	289.579
863.183	221.664
867.713	35.6685
872.241	28.5962
876.767	19.5796
881.29	25.0391
885.81	35.4883
890.328	30.3564
894.843	20.498
899.356	111.28
903.866	58.0391
908.373	37.7432
912.878	90.396
917.38	23.9014
921.88	28.7026
926.377	6.47607
930.872	115.606
935.364	23.5181
939.853	116.419
944.34	114.525
948.824	233.952
953.306	153.494
957.785	280.276
962.261	362.3
966.735	682.602
971.207	1083.29
975.675	1902.33
980.141	1997.73
984.605	1095.33
989.066	648.024
993.524	665.796
997.98	723.646
1002.43	1507.58
1006.88	1825.59
1011.33	2093.49
1015.78	2002.59
1020.22	1485.9
1024.66	1405.88
1029.1	1808.93
1033.53	2080.58
1037.97	1406.37
1042.4	1130.2
1046.82	1086.8
1051.25	827.304
1055.67	555.422
1060.09	486.21
1064.51	544.743
1068.92	517.71
1073.33	727.441
1077.74	1078.38
1082.15	1571.72
1086.55	2396.24
1090.95	4623.85
1095.35	8342.96
1099.75	11264.8
1104.14	9199.06
1108.53	6693.2
1112.92	5723.45
1117.31	5142.82
1121.69	3639.32
1126.07	2093.95
1130.45	1251.77
1134.82	759.635
1139.19	499.608
1143.57	424.724
1147.93	378.972
1152.3	455.476
1156.66	333.207
1161.02	198.154
1165.38	164.326
1169.73	199.641
1174.08	15.8545
1178.43	20.7559
1182.78	2.51562
1187.12	162.382
1191.46	102.391
1195.8	22.5352
1200.14	20.7246
1204.47	48.126
1208.8	31.3613
1213.13	117.15
1217.46	94.3594
1221.78	26.0049
1226.1	41.6953
1230.42	0.635742
1234.73	103.031
1239.04	78.7598
1243.35	30.5488
1247.66	170.394
1251.97	61.791
1256.27	6.7959
1260.57	162.838
1264.86	328.932
1269.16	107.066
1273.45	224.245
1277.74	172.921
1282.03	190.412
1286.31	139.897
1290.59	331.995
1294.87	234.908
1299.14	196.328
1303.42	230.668
1307.69	246.03
1311.95	278.308
1316.22	222.654
1320.48	269.975
1324.74	324.356
1329	51.9522
1333.26	183.721
1337.51	124.189
1341.76	5.75195
1346	87.585
1350.25	131.99
1354.49	231.028
1358.73	87.2647
1362.96	55.7315
1367.2	23.2148
1371.43	67.5537
1375.66	98.1279
1379.88	104.491
1384.11	170.524
1388.33	100.763
1392.54	101.217
1396.76	116.249
1400.97	79.8623
1405.18	110.564
1409.39	38.6748
1413.59	33.624
1417.8	91.6621
1421.99	145.877
1426.19	43.7715
1430.38	211.106
1434.58	231.843
1438.77	367.39
1442.95	326.01
1447.13	385.353
1451.32	479.644
1455.49	508.454
1459.67	398.062
1463.84	321.401
1468.01	262.94
1472.18	284.548
1476.35	169.935
1480.51	104.394
1484.67	202.917
1488.83	116.787
1492.98	162.686
1497.13	61.0732
1501.28	37.915
1505.43	103.218
1509.57	115.44
1513.71	47.7373
1517.85	154.881
1521.99	10.7012
1526.12	41.6943
1530.25	48.4834
1534.38	218.839
1538.5	165.212
1542.62	92.4336
1546.74	49.9932
1550.86	212.43
1554.98	208.866
1559.09	80.0762
1563.2	24.6885
1567.31	24.9961
