Measurement: Raman, 514 nm, ccw, Raman Data Processed
Mineral: Albite
Rruff sample: R040129
Ideal chemistry: NaAlSi_3_O_8_
Locality: LaChance Quarry, Brunswick, Cumberland County, Maine, USA
Source: Bob Downs
Description: Colorless fragment of a tabular single crystal
Measured chemistry: (Na_0.99_K_0.01_)Al_1.00_Si_3.00_O_8_
Pin_id: L00382
Orientation: Laser parallel to b* (0 1 0). Fiducial mark perpendicular to laser is parallel to c [0 0 1]
Raman shift (cm-1)	intensity
124.519	0
128.69	42.572
132.858	149.819
137.025	362.96
141.189	979.103
145.352	2836.23
149.512	3137.18
153.67	3921.57
157.827	6946.02
161.981	12274.9
166.133	6979.89
170.283	4302.06
174.431	3538.66
178.577	4788.68
182.721	6793.73
186.863	6649.91
191.003	4009.62
195.141	2427.95
199.277	1617.4
203.411	1992.51
207.543	4178.35
211.673	2947.99
215.801	734.565
219.927	120.216
224.051	0.924
228.173	92.383
232.292	131.761
236.41	120.673
240.526	143.029
244.64	667.091
248.752	2611.14
252.861	4230.02
256.969	1307.52
261.075	712.054
265.179	1382.55
269.281	2326.21
273.38	1975.05
277.478	1610.95
281.574	2771.55
285.668	7363.98
289.76	15970
293.85	9537.76
297.937	3525.37
302.023	1805.34
306.107	1373.65
310.189	1207.98
314.269	813.197
318.347	716.07
322.423	1036.44
326.497	3334.38
330.569	3862.94
334.639	1290.14
338.707	512.939
342.773	171.117
346.837	393.996
350.899	352.63
354.96	141.085
359.018	43.602
363.074	21.367
367.128	31.213
371.181	66.19
375.231	51.993
379.28	32.848
383.326	94.306
387.37	60.575
391.413	139.164
395.454	571.628
399.492	1208.07
403.529	1358.2
407.564	3759.41
411.596	1400.64
415.627	1810.43
419.656	742.739
423.683	40.864
427.708	56.821
431.731	81.192
435.752	83.704
439.772	180.659
443.789	3.644
447.804	198.179
451.817	514.64
455.829	601.446
459.838	573.353
463.846	820.415
467.852	1336.58
471.855	2862.27
475.857	7817.68
479.857	11612.8
483.855	5187.61
487.851	2472.15
491.845	1696.4
495.837	2440.38
499.828	5264.09
503.816	14187.3
507.802	23004.4
511.787	10398.1
515.77	4420.71
519.75	2490.23
523.729	1379.14
527.706	878.843
531.681	749.549
535.654	676.848
539.625	612.01
543.595	261.701
547.562	137.705
551.527	300.719
555.491	372.688
559.453	155.127
563.412	176.812
567.37	128.212
571.326	379.129
575.28	590.164
579.233	718.35
583.183	319.967
587.131	317.771
591.078	400.55
595.022	224.908
598.965	33.842
602.906	57.482
606.845	189.097
610.782	307.261
614.718	225.453
618.651	13.437
622.582	141.217
626.512	508.81
630.44	896.512
634.366	713.738
638.29	540.787
642.212	567.658
646.132	1054.36
650.05	770.881
653.967	167.239
657.882	93.433
661.794	39.456
665.705	335.281
669.614	260.863
673.522	46.258
677.427	88.505
681.331	28.465
685.232	243.188
689.132	201.994
693.03	6.555
696.926	2.101
700.82	92.256
704.713	299.985
708.603	93.967
712.492	124.262
716.379	67.569
720.264	230.333
724.147	408.267
728.028	275.617
731.908	122.551
735.785	4.779
739.661	147.62
743.535	369.909
747.407	442.242
751.278	353.423
755.146	370.073
759.013	917.515
762.878	2268.74
766.741	1710.45
770.602	961.353
774.461	702.014
778.319	374.488
782.174	416.144
786.028	607.708
789.88	289.182
793.73	210.574
797.579	291.889
801.425	303.129
805.27	514.298
809.113	835.387
812.954	1436.11
816.794	1326.56
820.631	453.507
824.467	453.152
828.301	550.753
832.133	534.883
835.963	320.016
839.792	66.96
843.618	60.742
847.443	166.925
851.266	295.354
855.088	260.332
858.907	5.852
862.725	288.679
866.541	130.341
870.355	338.635
874.167	518.239
877.978	267.474
881.787	83.058
885.594	85.862
889.399	165.317
893.202	354.868
897.004	324.19
900.803	263.877
904.601	263.688
908.398	251.562
912.192	274.739
915.985	463.748
919.776	433.948
923.565	84.228
927.352	35.424
931.138	104.968
934.922	315.43
938.704	365.667
942.484	446.274
946.262	366.969
950.039	297.728
953.814	198.545
957.587	359.42
961.359	540.359
965.128	781.371
968.896	552.459
972.662	433.666
976.427	524.986
980.189	536.441
983.95	338.027
987.709	667.783
991.467	625.543
995.222	237.738
998.976	200.113
1002.73	485.779
1006.48	908.498
1010.23	1187.56
1013.97	1533.4
1017.72	1126.7
1021.46	743.918
1025.2	987.562
1028.94	1519.63
1032.68	2045.01
1036.42	1669.2
1040.15	1173.7
1043.89	879.297
1047.62	441.865
1051.35	326.316
1055.07	441.729
1058.8	477.395
1062.52	713.209
1066.25	909.641
1069.97	725.523
1073.69	351.377
1077.4	406.211
1081.12	652.262
1084.83	1018.09
1088.55	1824.06
1092.26	2221.67
1095.96	3137.28
1099.67	3272.12
1103.38	2357.14
1107.08	1952.38
1110.78	1807.85
1114.48	2103.54
1118.18	1919.52
1121.88	1265.87
1125.57	772.592
1129.27	159.74
1132.96	197.738
1136.65	305.924
1140.34	774.627
1144.02	833.715
1147.71	682.854
1151.39	542.188
1155.07	91.762
1158.75	61.574
1162.43	21.701
1166.11	392.172
1169.78	482.941
1173.45	694.158
1177.12	445.975
1180.79	378.439
1184.46	81.594
1188.13	14.547
1191.79	79.994
1195.45	415.271
1199.11	551.336
1202.77	858.33
1206.43	651.766
1210.09	374.131
1213.74	131.004
1217.39	213.568
1221.05	351.209
1224.69	457.889
1228.34	726.689
1231.99	1019.69
1235.63	666.143
1239.27	242.969
1242.91	0
