Measurement: Raman, 514 nm, ccw, Raman Data Processed
Mineral: Albite
Rruff sample: R040068
Ideal chemistry: NaAlSi_3_O_8_
Locality: Harding Pegmatite, Dixon, New Mexico, USA
Source: University of Arizona Mineral Museum
Description: Tan colored crystal fragment
Measured chemistry: (Na_0.99_Ca_0.01_)Al_1.00_(Si_0.99_Al_0.01_)_3_O_8_
Pin_id: L00307
Orientation: Laser parallel to c* (0 0 1). Fiducial mark perpendicular to laser is parallel to -a [-1 0 0]
Raman shift (cm-1)	intensity
118.956	0
123.129	55.193
127.3	5.852
131.469	164.941
135.636	390.387
139.801	1244.04
143.964	2087.16
148.125	2154.28
152.284	2882.07
156.441	5108.28
160.596	7131.37
164.749	5899.98
168.9	4572.66
173.049	4628.55
177.195	5709.59
181.34	7490.48
185.483	7604.99
189.624	5252.97
193.762	3161.92
197.899	2373.25
202.034	3087.02
206.166	4800.06
210.297	3952.65
214.425	1635.23
218.552	688.026
222.676	371.131
226.799	154.588
230.919	48.411
235.038	67.411
239.154	147.109
243.269	258.504
247.381	830.573
251.492	1194.77
255.6	540.167
259.707	264.723
263.811	358.955
267.914	493.452
272.014	867.238
276.113	1356.05
280.209	3096.72
284.304	8066.27
288.396	14037.7
292.487	10963.9
296.575	4802.84
300.662	1883.73
304.746	1116.1
308.829	659.584
312.909	643.938
316.988	488.99
321.065	944.611
325.139	2400.69
329.212	2537.14
333.283	1113.9
337.351	440.904
341.418	338.102
345.483	305.447
349.546	142.924
353.606	60.555
357.665	88.334
361.722	86.182
365.777	46.01
369.83	58.232
373.881	10.488
377.93	67.125
381.977	35.346
386.023	55.135
390.066	20.666
394.107	197.021
398.146	333.469
402.184	320.801
406.219	549.309
410.252	296.104
414.284	122.582
418.313	18.678
422.341	109.773
426.367	9.932
430.39	14.838
434.412	31.83
438.432	65.934
442.45	152.416
446.466	251.805
450.48	496.695
454.492	760.941
458.502	757.199
462.51	664.922
466.517	1150.87
470.521	2764.13
474.523	6707.26
478.524	9260.24
482.523	5483.07
486.519	2805.72
490.514	1978.2
494.507	2420.49
498.498	4942.6
502.487	13024.5
506.474	19516.2
510.459	11240.8
514.442	4963.86
518.424	2479.66
522.403	1690.6
526.381	1059.32
530.356	843.385
534.33	718.844
538.302	583.293
542.272	435.998
546.24	451.461
550.206	306.627
554.17	185.965
558.132	214.846
562.093	293.479
566.051	332.918
570.008	517.686
573.963	607.662
577.915	672.711
581.866	619.189
585.815	274.664
589.763	129.734
593.708	168.262
597.651	46.27
601.593	251.725
605.532	57.771
609.47	113.514
613.406	19.055
617.34	84.322
621.272	19.33
625.202	434.041
629.131	538.561
633.057	722.898
636.982	327.055
640.905	651.033
644.825	664.836
648.744	648.463
652.662	341.922
656.577	349.594
660.49	198.338
664.402	51.305
668.312	55.93
672.219	46.432
676.125	118.488
680.03	14.482
683.932	41.998
687.832	117.549
691.731	18.801
695.628	140.004
699.522	21.119
703.415	132.113
707.307	15.525
711.196	124.535
715.083	75.141
718.969	205.254
722.853	93.625
726.735	22.969
730.615	56.908
734.493	196.654
738.37	116.529
742.244	126.486
746.117	146.348
749.988	204.758
753.857	243.201
757.724	592.377
761.59	975.346
765.453	795.367
769.315	602.268
773.175	511.859
777.033	415.709
780.889	235.834
784.744	145.971
788.596	336.117
792.447	206.283
796.296	256.473
800.143	276.691
803.989	476.941
807.832	667.232
811.674	1517.57
815.514	1757.95
819.352	767.861
823.189	339.826
827.023	264.152
830.856	60.559
834.687	149.68
838.516	34.201
842.343	147.494
846.169	187.615
849.992	86.328
853.814	7.018
857.634	49.941
861.453	278.646
865.269	191.688
869.084	33.334
872.897	65.158
876.708	199.461
880.517	149.516
884.325	251.855
888.13	84.434
891.934	112.457
895.737	216.734
899.537	149.926
903.336	43.34
907.132	16.957
910.928	150.797
914.721	194.93
918.512	69.289
922.302	443.859
926.09	308.645
929.876	363.676
933.66	378.914
937.443	314.328
941.224	369.926
945.003	441.348
948.78	381.68
952.556	447.848
956.33	404.219
960.102	330.801
963.872	290.203
967.64	404.605
971.407	611.844
975.172	759.371
978.935	957.25
982.697	565.434
986.456	249.73
990.214	309.113
993.971	398.367
997.725	327.758
1001.48	467.426
1005.23	357.359
1008.98	416.805
1012.73	556.785
1016.47	417.781
1020.22	718.867
1023.96	710.973
1027.7	1330.49
1031.44	1648.58
1035.17	1243.25
1038.91	793.199
1042.64	786.551
1046.37	860.16
1050.1	754.191
1053.83	388.5
1057.56	413.008
1061.28	579.844
1065.01	523.738
1068.73	687.594
1072.45	471.195
1076.16	764.234
1079.88	637.23
1083.6	709.816
1087.31	952.949
1091.02	1496.47
1094.73	2130.4
1098.44	2824.73
1102.14	2289.48
1105.85	1744.64
1109.55	1260.29
1113.25	1426.38
1116.95	1082.88
1120.65	1119.81
1124.34	567.184
1128.04	434.949
1131.73	523.07
1135.42	341.164
1139.11	10.527
1142.79	158.07
1146.48	346.91
1150.16	456.043
1153.84	525.637
1157.52	365.828
1161.2	26.695
1164.88	58.246
1168.56	9.5
1172.23	73.465
1175.9	17.156
1179.57	391.594
1183.24	394.77
1186.9	350.363
1190.57	127.465
1194.23	265.82
1197.89	305.523
1201.55	173.711
1205.21	480.023
1208.87	408.797
1212.52	335.977
1216.18	280.871
1219.83	212.625
1223.48	226.332
1227.13	0
