Measurement: Raman, 514 nm, ccw, Raman Data Processed
Mineral: Albite
Rruff sample: R050402
Ideal chemistry: NaAlSi_3_O_8_
Locality: Urbano mine, Golconda District, Brazil
Source: Bob Downs
Description: Colorless tabular single crystals associated with fluorapatite R050401
Measured chemistry: Na_1.00_Al_1.00_Si_3.00_O_8_
Pin_id: M00068
Orientation: Laser parallel to a* (1 0 0). Fiducial mark perpendicular to laser is parallel to b [0 1 0]
Raman shift (cm-1)	intensity
86.072	0
91.012	21.2974
95.948	39.9912
100.883	524.201
105.815	1757.61
110.744	4968.09
115.671	3982.7
120.596	887.081
125.519	383.227
130.439	387.103
135.356	732.737
140.271	1878.95
145.184	2757.05
150.094	2731.38
155.002	2710.29
159.908	3697.73
164.811	4488.77
169.711	5411.47
174.61	3358.1
179.505	2971.89
184.399	3555.05
189.29	2888
194.178	2137.88
199.064	2245.35
203.948	3330.18
208.829	4357.35
213.708	2000.55
218.585	577.52
223.459	161.414
228.33	171.051
233.199	86.7637
238.066	259.715
242.93	675.372
247.792	1749.04
252.651	2328.25
257.508	1280.16
262.363	1502.48
267.215	2836.03
272.064	2748.68
276.912	2069.32
281.756	3560.59
286.598	7464.8
291.438	9621.05
296.276	4086.82
301.111	1515.17
305.943	942.907
310.773	505.081
315.601	301.621
320.426	574.679
325.248	1659.18
330.068	1815.11
334.886	431.419
339.701	203.105
344.514	57.1074
349.324	46.3281
354.132	31.3408
358.938	226.062
363.741	4.87109
368.541	131.47
373.339	34.8174
378.135	32.8818
382.928	56.2432
387.718	4.05176
392.506	298.427
397.292	574.352
402.075	1114.83
406.856	2878.45
411.634	1710.64
416.41	1773.95
421.183	591.369
425.954	209.866
430.722	117.074
435.488	54.8916
440.251	227.598
445.012	294.147
449.77	434.976
454.526	1075.04
459.28	1073.17
464.03	1348.51
468.779	2983.18
473.525	7409.15
478.268	13155.4
483.009	6899.29
487.747	3022.94
492.483	2472.87
497.217	4648.38
501.948	11598.5
506.676	21155.1
511.402	11018.4
516.125	3881.75
520.846	1765.62
525.565	1064.33
530.281	678.625
534.994	342.852
539.705	389.054
544.413	291.881
549.119	278.111
553.822	220.115
558.523	85.9688
563.222	186.97
567.917	395.634
572.611	463.39
577.302	900.033
581.99	851.86
586.676	157.162
591.359	95.5742
596.04	5.11035
600.718	135.929
605.394	7.71289
610.067	158.974
614.737	159.732
619.406	95.9014
624.071	271.033
628.734	457.31
633.395	633.719
638.053	571.434
642.708	773.031
647.361	901.58
652.012	624.016
656.66	248.783
661.305	214.795
665.948	130.027
670.588	137.164
675.226	296.195
679.861	19.9355
684.494	1.40625
689.124	92.6582
693.752	59.5488
698.377	33.4707
702.999	29.6016
707.619	223.914
712.237	331.777
716.852	384.262
721.464	460.252
726.074	165.068
730.681	30.459
735.286	92.3613
739.888	187.117
744.488	150.715
749.085	298.047
753.68	959.752
758.272	1969.94
762.861	3536.36
767.448	2111.33
772.033	954.627
776.614	537.887
781.194	248.791
785.77	408.283
790.345	359.289
794.916	283.119
799.485	372.996
804.052	648.268
808.616	1298.4
813.177	2707
817.736	2338.99
822.292	920.795
826.846	418.975
831.397	159.352
835.945	280.394
840.491	396.486
845.035	57.2793
849.576	219.764
854.114	194.781
858.65	18.7871
863.183	295.369
867.713	135.861
872.241	202.947
876.767	3.13086
881.29	19.3906
885.81	208.082
890.328	136.227
894.843	63.5762
899.356	101.969
903.866	58.3672
908.373	240.922
912.878	115.656
917.38	336.475
921.88	54.5137
926.377	104.42
930.872	245.42
935.364	247.103
939.853	245.045
944.34	189.955
948.824	157.373
953.306	285.596
957.785	394.223
962.261	704.793
966.735	895.793
971.207	839.856
975.675	1072.1
980.141	1084.12
984.605	666.352
989.066	372.756
993.524	138.467
997.98	209.457
1002.43	480.873
1006.88	769.83
1011.33	1140.04
1015.78	1017.47
1020.22	814.695
1024.66	514.102
1029.1	565.203
1033.53	759.227
1037.97	455.613
1042.4	207.758
1046.82	251.438
1051.25	379.477
1055.67	491.602
1060.09	173.496
1064.51	211.106
1068.92	218.219
1073.33	436.273
1077.74	351.957
1082.15	416.418
1086.55	1459.88
1090.95	1278.84
1095.35	2416.58
1099.75	2951.28
1104.14	2377.09
1108.53	1460.03
1112.92	1448.13
1117.31	1114.44
1121.69	1134.93
1126.07	672.648
1130.45	195.609
1134.82	289.242
1139.19	163.668
1143.57	520.426
1147.93	322.523
1152.3	388.027
1156.66	308.91
1161.02	234.191
1165.38	221.769
1169.73	225.816
1174.08	92.6055
1178.43	54.9844
1182.78	215.867
1187.12	32.0117
1191.46	83.75
1195.8	409.148
1200.14	105.457
1204.47	21.7773
1208.8	102.824
1213.13	164.633
1217.46	21.6875
1221.78	111.121
1226.1	138.078
1230.42	57.1445
1234.73	217.586
1239.04	331.426
1243.35	120.656
1247.66	57.2852
1251.97	220.352
1256.27	264.836
1260.57	628.727
1264.86	225.004
1269.16	32.6953
1273.45	341.84
1277.74	377.406
1282.03	399.394
1286.31	298.785
1290.59	297.926
1294.87	60.3789
1299.14	431.019
1303.42	486.926
1307.69	160.504
1311.95	200.34
1316.22	279.652
1320.48	420.09
1324.74	401.039
1329	183.457
1333.26	587.652
1337.51	271.93
1341.76	234.188
1346	211.121
1350.25	12.457
1354.49	321.758
1358.73	467.949
1362.96	103.539
1367.2	58.5117
1371.43	419.848
1375.66	221.746
1379.88	299.801
1384.11	347.184
1388.33	281.789
1392.54	308.805
1396.76	212.434
1400.97	66.7617
1405.18	463.477
1409.39	121.508
1413.59	178.387
1417.8	135.211
1421.99	116.894
1426.19	156.152
1430.38	185.262
1434.58	368.621
1438.77	136.637
1442.95	104.047
1447.13	259.027
1451.32	601.512
1455.49	117.535
1459.67	42.375
1463.84	172.562
1468.01	545.617
1472.18	529.211
1476.35	185.262
1480.51	340.785
1484.67	247.703
1488.83	219.945
1492.98	319.637
1497.13	352.199
1501.28	51.3203
1505.43	497.719
1509.57	304.086
1513.71	277.57
1517.85	7.19922
1521.99	229.473
1526.12	133.863
1530.25	320.871
1534.38	468.691
1538.5	230.508
1542.62	420.297
1546.74	100.273
1550.86	509.344
1554.98	559.887
1559.09	385.609
1563.2	312.582
1567.31	1.97656
