Measurement: Raman, 514 nm, ccw, Raman Data Processed
Mineral: Albite
Rruff sample: R050253
Ideal chemistry: NaAlSi_3_O_8_
Locality: Madawaska/Faraday mine, Bancroft, Ontario, Canada
Source: Marcus Origlieri
Description: Colorless to brown prismatic single crystals
Measured chemistry: (Na_0.99_Ca_0.01_)Al_1.00_(Si_0.99_Al_0.01_)_3_O_8_
Pin_id: L00649
Orientation: Laser parallel to c* (0 0 1). Fiducial mark perpendicular to laser is parallel to a [1 0 0]
Raman shift (cm-1)	intensity
87.308	0
92.246	150.098
97.182	2.99805
102.116	408.076
107.047	2160.56
111.976	3598.27
116.903	2843.97
121.827	758.521
126.749	347.386
131.668	849.062
136.585	2016.32
141.5	6235.31
146.412	10348.9
151.321	14596.3
156.229	10621.4
161.134	9503.61
166.036	9055.72
170.936	8017.15
175.834	10094.5
180.729	14056.2
185.622	16390.7
190.512	13040.9
195.4	7283.14
200.286	5822.32
205.169	6382.47
210.049	6564.57
214.928	3269.6
219.803	736.558
224.677	84.1763
229.548	55.6621
234.416	249.64
239.282	641.859
244.146	2632.69
249.007	4480.92
253.866	5045.1
258.722	3647.99
263.576	5024.17
268.427	7266.36
273.276	6278.34
278.123	5200.9
282.967	9614.92
287.809	16048.3
292.648	17293.9
297.485	8610.69
302.319	3440.64
307.151	2049.57
311.98	1672.29
316.807	1601.81
321.631	2631.14
326.454	3989.3
331.273	3670.28
336.09	1206.08
340.905	545.691
345.717	412.119
350.527	373.351
355.334	54.3838
360.139	85.0332
364.941	194.308
369.741	78.9228
374.538	140.469
379.333	165.343
384.126	93.2227
388.916	473.118
393.703	1427.56
398.488	2532.03
403.271	2685.64
408.051	3602.48
412.828	3867.54
417.603	3832.81
422.376	1309.37
427.146	426.147
431.914	505.88
436.679	628.11
441.442	1280.76
446.202	3055.87
450.96	6619.76
455.715	10234.4
460.467	8547.86
465.218	7499.15
469.965	15822.2
474.711	31840
479.454	39667.6
484.194	22338
488.932	9800.13
493.667	9384.09
498.4	20156.4
503.13	40188.9
507.858	50794.2
512.583	28598.7
517.306	10976.2
522.026	5379.43
526.744	3316.31
531.459	2296.2
536.172	1592.78
540.882	1198.55
545.59	900.042
550.295	770.289
554.998	645.977
559.698	602.527
564.396	612.9
569.091	721.631
573.784	1188.22
578.474	1281.4
583.162	900.43
587.847	428.374
592.529	249.228
597.209	197.332
601.887	124.739
606.562	116.47
611.235	77.25
615.905	119.061
620.572	286.997
625.237	396.957
629.9	661.901
634.56	888.806
639.217	725.644
643.872	983.856
648.524	954.68
653.174	432.321
657.821	192.713
662.466	167.95
667.108	129.958
671.748	109.823
676.385	1.11035
681.02	19.2666
685.652	153.311
690.281	98.2314
694.908	74.8447
699.533	91.8721
704.155	72.7861
708.774	35.5234
713.391	316.321
718.005	449.993
722.617	358.494
727.226	343.824
731.833	321.985
736.437	464.684
741.039	759.531
745.638	1045
750.234	2054.15
754.828	4740.47
759.419	10959
764.008	14190.8
768.595	8188.31
773.178	4120.73
777.759	2633.51
782.338	1526.48
786.914	953.354
791.488	826.097
796.059	843.977
800.627	1302.92
805.193	2489.82
809.756	5719.17
814.317	9118.08
818.875	6725.95
823.431	2797.76
827.984	1257.49
832.534	702.749
837.082	569.114
841.627	311.9
846.17	265.287
850.71	53.4805
855.248	125.766
859.783	157.013
864.316	31.1611
868.846	204.223
873.373	40.8047
877.898	61.0508
882.42	31.4141
886.94	9.4209
891.457	36.5996
895.971	101.758
900.483	179.863
904.993	144.803
909.5	99.6475
914.004	67.3877
918.505	178.034
923.004	148.614
927.501	19.8574
931.995	19.6504
936.486	174.279
940.975	258.978
945.461	545.912
949.945	754.076
954.426	707.598
958.904	807.526
963.38	1131.02
967.853	1590.13
972.324	2845.7
976.792	4497.9
981.258	3831.46
985.72	2018.31
990.181	1061.39
994.639	1126.66
999.094	1564.06
1003.55	2589.61
1008	2930.58
1012.44	2207.19
1016.89	1781.47
1021.33	1238.04
1025.77	1133.78
1030.21	1415.18
1034.64	1440.02
1039.07	1121.05
1043.5	1290.22
1047.93	1299.03
1052.35	947.657
1056.78	556.384
1061.19	546.559
1065.61	550.891
1070.02	715.01
1074.43	1043.1
1078.84	1305.25
1083.25	2081.54
1087.65	3695.11
1092.05	7175.84
1096.45	12929.7
1100.85	13935.2
1105.24	9396.4
1109.63	6444.72
1114.02	5387.19
1118.4	4466.95
1122.78	2795.78
1127.16	1873.65
1131.54	1007.63
1135.92	627.736
1140.29	776.003
1144.66	586.515
1149.02	1042.26
1153.39	1169.43
1157.75	739.487
1162.11	410.102
1166.46	335.021
1170.82	116.095
1175.17	211.284
1179.52	237.627
1183.86	23.0693
1188.21	42.6387
1192.55	70.2959
1196.89	35.9697
1201.22	14.4521
1205.55	59.6992
1209.88	16.084
1214.21	66.3232
1218.54	59.8281
1222.86	81.1553
1227.18	170.098
1231.5	25.334
1235.81	45.6035
1240.12	50.8096
1244.43	42.8164
1248.74	120.596
1253.04	262.357
1257.34	72.3213
1261.64	161.305
1265.94	203.704
1270.23	219.761
1274.52	217.969
1278.81	168.02
1283.1	252.279
1287.38	426.611
1291.66	354.274
1295.94	230.367
1300.21	340.693
1304.48	346.688
1308.75	362.519
1313.02	508.33
1317.29	295.953
1321.55	273.437
1325.81	370.986
1330.06	432.896
1334.32	371.873
1338.57	237.596
1342.82	284.975
1347.06	320.238
1351.31	307.211
1355.55	229.16
1359.79	200.167
1364.02	116.598
1368.26	248.864
1372.49	120.248
1376.71	233.039
1380.94	355.94
1385.16	308.514
1389.38	158.66
1393.6	164.049
1397.81	40.0137
1402.02	247.014
1406.23	157.269
1410.44	96.1807
1414.64	70.5596
1418.85	135.867
1423.04	63.8291
1427.24	77.2158
1431.43	157.965
1435.62	86.9883
1439.81	310.293
1444	244.523
1448.18	163.329
1452.36	306.894
1456.54	347.113
1460.71	362.797
1464.89	173.874
1469.06	250.136
1473.22	197.239
1477.39	92.7402
1481.55	116.299
1485.71	75.1836
1489.86	17.3428
1494.02	181.076
1498.17	82.2852
1502.32	191.758
1506.46	4.87988
1510.61	221.228
1514.75	67.5576
1518.88	16.0098
1523.02	340.518
1527.15	162.99
1531.28	82.0449
1535.41	169.332
1539.53	117.629
1543.66	302.783
1547.78	86.5293
1551.89	296.715
1556.01	454.107
1560.12	265.144
1564.23	233.102
1568.33	144.623
