Measurement: Raman, 514 nm, ccw, Raman Data Processed
Mineral: Albite
Rruff sample: R040129
Ideal chemistry: NaAlSi_3_O_8_
Locality: LaChance Quarry, Brunswick, Cumberland County, Maine, USA
Source: Bob Downs
Description: Colorless fragment of a tabular single crystal
Measured chemistry: (Na_0.99_K_0.01_)Al_1.00_Si_3.00_O_8_
Pin_id: L00143
Orientation: Laser parallel to -a* (-1 0 0). Fiducial mark perpendicular to laser is parallel to -b [0 -1 0]
Raman shift (cm-1)	intensity
102.242	0
106.423	597.877
110.603	3705.49
114.78	4187.51
118.956	1326.24
123.129	397.611
127.3	299.673
131.469	108.067
135.636	98.917
139.801	158.929
143.964	363.01
148.125	923.759
152.284	681.181
156.441	653.758
160.596	1581.15
164.749	1380.19
168.9	1504.07
173.049	1680.89
177.195	2275.97
181.34	3835.25
185.483	4590.35
189.624	3428.59
193.762	2200.51
197.899	1962.56
202.034	2786.88
206.166	5759.56
210.297	6256.59
214.425	2516.98
218.552	837.697
222.676	278.123
226.799	35.552
230.919	51.099
235.038	62.687
239.154	140.715
243.269	87.622
247.381	149.313
251.492	304.871
255.6	169.744
259.707	253.613
263.811	617.56
267.914	1404.78
272.014	1386.2
276.113	1231.86
280.209	2035.35
284.304	5703.74
288.396	13980.5
292.487	12958.2
296.575	4976.71
300.662	1970.8
304.746	878.304
308.829	538.102
312.909	417.135
316.988	291.358
321.065	193.738
325.139	344.245
329.212	512.855
333.283	186.468
337.351	24.637
341.418	71.598
345.483	81.527
349.546	3.425
353.606	2.721
357.665	24.969
361.722	57.318
365.777	92.812
369.83	121.476
373.881	25.611
377.93	22.58
381.977	63.523
386.023	20.229
390.066	67.905
394.107	85.474
398.146	71.479
402.184	143.853
406.219	243.715
410.252	363.428
414.284	766.992
418.313	704.543
422.341	276.089
426.367	234.625
430.39	193.173
434.412	248.857
438.432	368.612
442.45	549.39
446.466	516.158
450.48	839.894
454.492	1151.58
458.502	1628.21
462.51	2319.76
466.517	4009.24
470.521	8715.63
474.523	24491.9
478.524	43518.1
482.523	22294.3
486.519	8680.28
490.514	5436.19
494.507	5462.01
498.498	9277.59
502.487	24533
506.474	51148.3
510.459	30882.3
514.442	11854.5
518.424	6035.27
522.403	3727.6
526.381	2537.23
530.356	1934.02
534.33	1439.04
538.302	1234.01
542.272	986.765
546.24	960.673
550.206	756.993
554.17	542.489
558.132	565.75
562.093	513.465
566.051	507.188
570.008	481.986
573.963	744.991
577.915	1149.76
581.866	966.474
585.815	467.124
589.763	280.722
593.708	186.284
597.651	195.78
601.593	294.218
605.532	130.607
609.47	135.926
613.406	239.184
617.34	262.377
621.272	250.508
625.202	136.579
629.131	244.584
633.057	189.525
636.982	370.403
640.905	395.263
644.825	552.012
648.744	482.699
652.662	256.325
656.577	213.891
660.49	104.405
664.402	148.866
668.312	35.282
672.219	42.666
676.125	124.061
680.03	58.447
683.932	37.117
687.832	41.63
691.731	105.905
695.628	51.397
699.522	2.361
703.415	16.375
707.307	27.234
711.196	96.818
715.083	109.468
718.969	120.726
722.853	124.173
726.735	126.456
730.615	162.912
734.493	98.462
738.37	103.956
742.244	189.449
746.117	249.508
749.988	489.845
753.857	988.132
757.724	1870.39
761.59	4182.58
765.453	3554.72
769.315	1747.52
773.175	1839.66
777.033	1429.45
780.889	695.425
784.744	442.389
788.596	204.437
792.447	264.302
796.296	214.133
800.143	182.932
803.989	213.702
807.832	362.446
811.674	943.166
815.514	1370.86
819.352	743.537
823.189	305.61
827.023	225.811
830.856	181.956
834.687	278.97
838.516	176.649
842.343	263.581
846.169	156.045
849.992	41.273
853.814	102.184
857.634	62.593
861.453	78.723
865.269	34.542
869.084	36.441
872.897	53.176
876.708	60.89
880.517	112.755
884.325	37.052
888.13	22.086
891.934	4.184
895.737	29.681
899.537	69.456
903.336	206.631
907.132	223.871
910.928	140.126
914.721	48.416
918.512	26.234
922.302	78.15
926.09	170.603
929.876	118.118
933.66	94.692
937.443	8.666
941.224	86.042
945.003	40.826
948.78	260.645
952.556	172.585
956.33	184.607
960.102	136.711
963.872	208.901
967.64	111.179
971.407	393.541
975.172	795.992
978.935	908.546
982.697	471.239
986.456	324.098
990.214	187.103
993.971	220.323
997.725	473.797
1001.48	617.564
1005.23	910.134
1008.98	614.618
1012.73	659.309
1016.47	509.222
1020.22	570.911
1023.96	782.747
1027.7	964.972
1031.44	1252.24
1035.17	846.021
1038.91	543.342
1042.64	809.172
1046.37	914.137
1050.1	818.715
1053.83	607.558
1057.56	414.121
1061.28	398.576
1065.01	475.26
1068.73	471.232
1072.45	768.044
1076.16	896.641
1079.88	1252.83
1083.6	1580.31
1087.31	2247.63
1091.02	4145.33
1094.73	8243.35
1098.44	11040.6
1102.14	9808.98
1105.85	6866.94
1109.55	5295.1
1113.25	5373.62
1116.95	5171.77
1120.65	3679.96
1124.34	2258.84
1128.04	1317.12
1131.73	1025.45
1135.42	754.836
1139.11	559.623
1142.79	390.358
1146.48	349.784
1150.16	438.615
1153.84	600.952
1157.52	505.846
1161.2	190.469
1164.88	269.759
1168.56	19.247
1172.23	78
1175.9	16.526
1179.57	185.383
1183.24	265.229
1186.9	204.587
1190.57	93.477
1194.23	16.015
1197.89	53.666
1201.55	4.485
1205.21	102.394
1208.87	101.183
1212.52	170.081
1216.18	298.419
1219.83	176.323
1223.48	86.006
1227.13	21.71
1230.77	93.946
1234.42	304.978
1238.06	207.285
1241.7	344.664
1245.34	321.413
1248.98	268.506
1252.62	225.356
1256.25	52.729
1259.88	149.284
1263.51	175.797
1267.14	171.695
1270.77	297.201
1274.4	812.425
1278.02	958.243
1281.65	363.405
1285.27	88.126
1288.89	77.589
1292.51	53.082
1296.12	99.628
1299.74	23.462
1303.35	166.263
1306.96	258.419
1310.57	89.922
1314.18	171.113
1317.79	193.984
1321.39	187.896
1324.99	90.429
1328.59	100.448
1332.19	38.53
1335.79	87.861
1339.39	176.736
1342.98	272.805
1346.58	250.958
1350.17	119.062
1353.76	80.116
1357.35	77.646
1360.93	115.081
1364.52	142.321
1368.1	177.518
1371.68	13.724
1375.26	179.798
1378.84	365.848
1382.42	336.214
1385.99	219.001
1389.57	251.328
1393.14	143.068
1396.71	74.33
1400.28	176.059
1403.85	128.667
1407.41	353.208
1410.98	252.483
1414.54	294.861
1418.1	430.586
1421.66	407.999
1425.21	113.144
1428.77	153.027
1432.33	29.413
1435.88	175.298
1439.43	127.559
1442.98	391.131
1446.53	406.19
1450.07	482.49
1453.62	401.655
1457.16	550.461
1460.7	496.129
1464.24	351.81
1467.78	358.854
1471.32	233.855
1474.85	98.534
1478.38	51.872
1481.91	166.765
1485.44	221.542
1488.97	370.046
1492.5	348.995
1496.03	318.583
1499.55	269.62
1503.07	263.126
1506.59	199.737
1510.11	70.335
1513.63	0.698
1517.14	34.122
1520.66	0
