Measurement: Raman, 514 nm, ccw, Raman Data Processed
Mineral: Albite
Rruff sample: R050402
Ideal chemistry: NaAlSi_3_O_8_
Locality: Urbano mine, Golconda District, Brazil
Source: Bob Downs
Description: Colorless tabular single crystals associated with fluorapatite R050401
Measured chemistry: Na_1.00_Al_1.00_Si_3.00_O_8_
Pin_id: M00163
Orientation: Laser parallel to (1 0 1). Fiducial mark perpendicular to laser is parallel to b [0 1 0]
Raman shift (cm-1)	intensity
126.749	0
131.668	114.6
136.585	472.031
141.5	4574.19
146.412	6462.44
151.321	8960.9
156.229	7909.55
161.134	5844.2
166.036	6319.43
170.936	5457.15
175.834	7678.16
180.729	11404.1
185.622	12321.7
190.512	9756.56
195.4	6498.3
200.286	6160.9
205.169	7144.1
210.049	7098.9
214.928	4106.01
219.803	963.482
224.677	146.734
229.548	252.207
234.416	450.812
239.282	215.449
244.146	748.006
249.007	996.848
253.866	1550.75
258.722	1807.77
263.576	2462.29
268.427	2933.96
273.276	3074.79
278.123	3158.17
282.967	7266.48
287.809	10273.8
292.648	11925.4
297.485	7034.25
302.319	2943.51
307.151	2163.13
311.98	1696.12
316.807	1086.37
321.631	2013.13
326.454	2927.47
331.273	2734.62
336.09	1691.92
340.905	1696.67
345.717	2497.2
350.527	3310.8
355.334	3385.26
360.139	2998.39
364.941	2439.17
369.741	1815.09
374.538	1117.12
379.333	548.383
384.126	233.227
388.916	345.846
393.703	974.955
398.488	1162.78
403.271	1699.04
408.051	2437.87
412.828	2259.99
417.603	2333.29
422.376	547.746
427.146	189.81
431.914	412.139
436.679	33.7148
441.442	228.691
446.202	1820.85
450.96	4525.2
455.715	5977.71
460.467	6141.99
465.218	5943.9
469.965	12474.6
474.711	22189.7
479.454	26883.3
484.194	18195.1
488.932	9564.84
493.667	9532.03
498.4	17673.8
503.13	29961
507.858	35867.1
512.583	24655.1
517.306	9563.43
522.026	4246.63
526.744	2261.43
531.459	1434.7
536.172	881.519
540.882	773.686
545.59	822.322
550.295	1427.89
554.998	666.519
559.698	625.092
564.396	825.787
569.091	979.068
573.784	1588.94
578.474	1865.88
583.162	2316.36
587.847	2747.63
592.529	3335.41
597.209	3843.36
601.887	3741.93
606.562	2928.19
611.235	2337.85
615.905	2394.84
620.572	2733.16
625.237	3323.96
629.9	3199.16
634.56	2396.63
639.217	2306.36
643.872	2751.32
648.524	3032.54
653.174	2513.24
657.821	1686.32
662.466	1131.9
667.108	545.836
671.748	440.996
676.385	92.1016
681.02	50.7598
685.652	57.3438
690.281	129.022
694.908	219.916
699.533	262.609
704.155	12.2383
708.774	30.0156
713.391	131.371
718.005	150.356
722.617	172.728
727.226	560.178
731.833	629.449
736.437	604.625
741.039	726.701
745.638	1024.69
750.234	1852.59
754.828	4127.42
759.419	8177.19
764.008	9690.92
768.595	6576.61
773.178	3811.3
777.759	2925.97
782.338	2131.67
786.914	2066.39
791.488	2324.4
796.059	2908.59
800.627	4423.31
805.193	8821.51
809.756	13411.5
814.317	13214.7
818.875	9306.1
823.431	4528.94
827.984	3136.4
832.534	2487.56
837.082	2288.78
841.627	2550.96
846.17	3467.82
850.71	4900.19
855.248	6362.38
859.783	6129.54
864.316	4791.79
868.846	2668.77
873.373	1720.72
877.898	1187.68
882.42	756.684
886.94	566.754
891.457	455.928
895.971	604.236
900.483	753.709
904.993	755.383
909.5	593.281
914.004	655.443
918.505	127.894
923.004	20.5
927.501	71.9648
931.995	13.4121
936.486	94.8086
940.975	195.654
945.461	166.816
949.945	527.144
954.426	1117.68
958.904	1303.92
963.38	1758.62
967.853	1914.97
972.324	2334.26
976.792	2624.16
981.258	2660.23
985.72	2312.88
990.181	2249.3
994.639	2273.33
999.094	3434.22
1003.55	4471.8
1008	2947.08
1012.44	2215.06
1016.89	2627.94
1021.33	2226.18
1025.77	1574.32
1030.21	1439.19
1034.64	1190.81
1039.07	954.162
1043.5	920.266
1047.93	715.113
1052.35	593.713
1056.78	137.31
1061.19	53.8496
1065.61	188.168
1070.02	549.146
1074.43	593.969
1078.84	1191.57
1083.25	1993.13
1087.65	3456.79
1092.05	5650.34
1096.45	8825.56
1100.85	9678.52
1105.24	8027.26
1109.63	7435.77
1114.02	6714.88
1118.4	5148.55
1122.78	3541.75
1127.16	2737.46
1131.54	1439.67
1135.92	1060.37
1140.29	832.551
1144.66	810.213
1149.02	1110.35
1153.39	1493.95
1157.75	1340.02
1162.11	1305.53
1166.46	943.488
1170.82	822.887
1175.17	885.715
1179.52	879.965
1183.86	793.625
1188.21	588.644
1192.55	290.578
1196.89	1.61328
1201.22	298.371
1205.55	85.5039
1209.88	128.82
1214.21	25.6797
1218.54	352.059
1222.86	323.289
1227.18	544.031
1231.5	801.023
1235.81	1574.78
1240.12	1419.21
1244.43	1241.19
1248.74	1162.51
1253.04	1397.26
1257.34	1446.9
1261.64	1666.9
1265.94	1916.88
1270.23	2121.17
1274.52	2171.79
1278.81	1959.79
1283.1	1657.14
1287.38	1623.81
1291.66	2006.79
1295.94	1921.06
1300.21	1778.6
1304.48	1605.41
1308.75	1746.48
1313.02	1967.82
1317.29	1909.43
1321.55	1753.62
1325.81	1399.43
1330.06	630.773
1334.32	413.742
1338.57	220.785
1342.82	215.762
1347.06	43.8359
1351.31	47.957
1355.55	3.41406
1359.79	137.047
1364.02	115.121
1368.26	56.8555
1372.49	402.148
1376.71	302.766
1380.94	647.582
1385.16	815.664
1389.38	956.418
1393.6	1076.36
1397.81	949.652
1402.02	871.051
1406.23	568.82
1410.44	706.332
1414.64	448.238
1418.85	757.84
1423.04	1158
1427.24	1763.07
1431.43	2840.66
1435.62	4310.19
1439.81	6324.66
1444	8634.48
1448.18	9630.75
1452.36	9993.38
1456.54	9685.69
1460.71	8357.21
1464.89	6224.25
1469.06	4513.7
1473.22	3625.77
1477.39	3078.13
1481.55	2601.56
1485.71	2298.98
1489.86	1456.6
1494.02	793.32
1498.17	448.363
1502.32	101.144
1506.46	59.8672
1510.61	101.523
1514.75	39.1484
1518.88	276.344
1523.02	241.055
1527.15	44.9805
1531.28	261.902
1535.41	167.082
1539.53	299.062
1543.66	502.027
1547.78	201.234
1551.89	333.176
1556.01	610.875
1560.12	214.133
1564.23	97.8516
1568.33	146.797
