Measurement: Raman, 514 nm, ccw, Raman Data Processed
Mineral: Albite
Rruff sample: R050402
Ideal chemistry: NaAlSi_3_O_8_
Locality: Urbano mine, Golconda District, Brazil
Source: Bob Downs
Description: Colorless tabular single crystals associated with fluorapatite R050401
Measured chemistry: Na_1.00_Al_1.00_Si_3.00_O_8_
Pin_id: M00145
Orientation: Laser parallel to (0 1 1). Fiducial mark perpendicular to laser is parallel to -a [-1 0 0]
Raman shift (cm-1)	intensity
93.48	0
98.416	382.42
103.349	2714.45
108.28	7026.74
113.208	5382.91
118.134	1670.2
123.058	485.628
127.979	241.39
132.898	868.047
137.814	2130.28
142.728	4470.62
147.639	5379.93
152.549	4428.17
157.455	5535.32
162.359	7579.87
167.261	8577.37
172.161	6998.02
177.058	6666.16
181.952	7700.36
186.845	6925.32
191.734	4478.3
196.622	3873.41
201.507	5785.62
206.389	7534.88
211.269	4847.04
216.147	1657.18
221.022	444.267
225.895	147.957
230.765	60.8555
235.633	247.148
240.498	540.737
245.361	1153.04
250.222	1881.35
255.08	2039.57
259.936	4105.15
264.789	6924.6
269.64	6971.98
274.488	4604.64
279.334	6037.07
284.178	12300.9
289.019	17313.8
293.857	10084.5
298.693	3754.03
303.527	1982.08
308.358	1109.52
313.187	740.075
318.013	600.616
322.837	935.166
327.659	1062.72
332.478	479.268
337.294	14.7725
342.108	161.158
346.92	26.707
351.729	193.863
356.535	187.626
361.34	114.172
366.141	107.812
370.94	124.059
375.737	60.6016
380.531	77.0928
385.323	44.3555
390.113	225.319
394.9	566.438
399.684	1393.77
404.466	3075.17
409.245	2973.03
414.022	3037.18
418.797	1664.65
423.569	585.054
428.338	464.238
433.105	646.182
437.87	617.852
442.632	1632.23
447.391	3324.31
452.149	6896.08
456.903	7277.52
461.655	6431.65
466.405	10717.9
471.152	25906.4
475.897	45462.5
480.639	30363.2
485.378	12293.8
490.116	7911.56
494.85	11332
499.582	26061.8
504.312	45709.9
509.039	33580.5
513.764	13716.8
518.486	6280.59
523.206	3684.46
527.923	2660.06
532.638	1760.25
537.35	1356.46
542.059	905.227
546.766	841.246
551.471	831.613
556.173	786.405
560.873	495.185
565.57	589.177
570.264	978.87
574.957	1235.12
579.646	1290.03
584.333	738.873
589.018	339.626
593.7	237.307
598.379	267.941
603.056	315.497
607.73	200.964
612.402	181.444
617.072	357.922
621.739	421.386
626.403	546.976
631.065	751.866
635.724	666.946
640.381	974.595
645.035	1262.89
649.687	788.877
654.336	483.732
658.983	262.31
663.627	73.5488
668.268	16.6289
672.907	119.289
677.544	13.9434
682.178	98.0977
686.809	179.129
691.438	46
696.065	136.248
700.688	41.6895
705.31	181.891
709.929	65.0234
714.545	364.08
719.158	385.309
723.77	210.254
728.378	316.143
732.984	335.545
737.588	433.41
742.189	825.125
746.787	1285.32
751.383	2574.05
755.976	6702.58
760.567	11831.4
765.155	8457.41
769.741	3999.18
774.324	2652.5
778.904	1591.62
783.482	1053.69
788.058	822.078
792.631	925.809
797.201	817.383
801.769	1412.69
806.334	2972.81
810.897	6367.44
815.457	6451.31
820.014	3120.57
824.569	1427.94
829.122	819.693
833.671	678.877
838.219	395.035
842.763	414.893
847.306	258.863
851.845	87.7305
856.382	69.4648
860.917	221.088
865.448	90.6445
869.978	22.0684
874.505	175.383
879.029	176.633
883.55	77.168
888.069	35.7402
892.586	37.5742
897.1	14.0762
901.611	24.332
906.12	48.4512
910.626	69.3144
915.129	118.045
919.63	33.7461
924.129	127.217
928.625	187.522
933.118	89.9863
937.609	10.6016
942.097	46.75
946.582	41.1582
951.065	73.5664
955.546	244.07
960.023	224.897
964.499	262.522
968.971	661.689
973.441	1061.21
977.909	1007.9
982.374	841.652
986.836	535.471
991.295	434.133
995.753	738.092
1000.21	1183.13
1004.66	1718.58
1009.11	1915.77
1013.55	2500.05
1018	1652.9
1022.44	1250.74
1026.88	1334.32
1031.32	1437.65
1035.75	1125.84
1040.18	1131.63
1044.61	1173.18
1049.04	1131.4
1053.46	599.717
1057.88	463.721
1062.3	701.986
1066.71	675.801
1071.13	975.414
1075.54	1216.15
1079.94	1769.36
1084.35	3215.43
1088.75	4975.05
1093.15	9711.35
1097.55	12591
1101.94	10182.5
1106.34	6819.5
1110.73	5092.8
1115.11	4479.37
1119.5	2678.03
1123.88	1518.3
1128.26	1007.19
1132.63	645.174
1137.01	371.324
1141.38	407.57
1145.75	260.908
1150.12	241.356
1154.48	323.637
1158.84	262.365
1163.2	115.385
1167.55	220.541
1171.91	176.82
1176.26	105.283
1180.61	115.953
1184.95	23.4766
1189.29	155.773
1193.63	131.728
1197.97	152.67
1202.31	7.81055
1206.64	91.3438
1210.97	306.043
1215.29	120.732
1219.62	255.211
1223.94	61.4824
1228.26	33.0078
1232.57	79.8711
1236.89	156.734
1241.2	176.56
1245.51	354.348
1249.81	278.172
1254.12	66.9805
1258.42	159.783
1262.72	208.047
1267.01	338.023
1271.3	333.932
1275.59	286.842
1279.88	243.746
1284.17	75.9824
1288.45	268.019
1292.73	129.525
1297.01	171.338
1301.28	346.279
1305.55	57.8359
1309.82	339.559
1314.09	176.225
1318.35	516.697
1322.61	250.838
1326.87	158.33
1331.13	205.707
1335.38	98.8125
1339.63	112.176
1343.88	410.342
1348.12	146.371
1352.37	321.818
1356.61	343.703
1360.85	62.5996
1365.08	79.2988
1369.31	275.441
1373.54	284.068
1377.77	81.6875
1381.99	250.832
1386.22	92.4394
1390.43	7.25
1394.65	149.654
1398.87	129.264
1403.08	97.4648
1407.29	173.269
1411.49	20.3555
1415.69	340.031
1419.89	70.7676
1424.09	55.3203
1428.29	2.6875
1432.48	248.459
1436.67	337.498
1440.86	182.465
1445.04	503.338
1449.23	328.359
1453.4	630.479
1457.58	564.768
1461.76	311.361
1465.93	309.205
1470.1	202.5
1474.26	118.957
1478.43	192.861
1482.59	163.613
1486.75	117.356
1490.9	90.9981
1495.06	190.853
1499.21	150.328
1503.35	318.603
1507.5	290.252
1511.64	158.033
1515.78	279.154
1519.92	314.416
1524.05	73.6992
1528.18	197.732
1532.31	145.84
1536.44	348.299
1540.56	177.584
1544.69	348.109
1548.8	164.022
1552.92	185.844
1557.03	264.258
1561.14	99.9238
1565.25	43.0723
1569.36	73.2715
