Measurement: Raman, 514 nm, ccw, Raman Data Processed
Mineral: Albite
Rruff sample: R040129
Ideal chemistry: NaAlSi_3_O_8_
Locality: LaChance Quarry, Brunswick, Cumberland County, Maine, USA
Source: Bob Downs
Description: Colorless fragment of a tabular single crystal
Measured chemistry: (Na_0.99_K_0.01_)Al_1.00_Si_3.00_O_8_
Pin_id: L00382
Orientation: Laser parallel to b* (0 1 0). Fiducial mark perpendicular to laser is parallel to c [0 0 1]
Raman shift (cm-1)	intensity
124.519	0
128.69	7.318
132.858	78.604
137.025	113.669
141.189	117.999
145.352	353.481
149.512	713.28
153.67	716.779
157.827	1069.88
161.981	2002.24
166.133	1504.85
170.283	1864.06
174.431	1044.9
178.577	1340.03
182.721	2080.65
186.863	2083.11
191.003	1555.29
195.141	1149.66
199.277	984.992
203.411	1377.35
207.543	3392.93
211.673	2517.36
215.801	713.908
219.927	238.553
224.051	85.505
228.173	75.918
232.292	178.179
236.41	19.066
240.526	48.108
244.64	97.098
248.752	390.089
252.861	742.641
256.969	629.204
261.075	670.966
265.179	1945.14
269.281	3762.08
273.38	2548.9
277.478	1606.52
281.574	2225.11
285.668	5562.12
289.76	12132
293.85	7847.56
297.937	3013.91
302.023	1490.28
306.107	886.412
310.189	618.179
314.269	449.545
318.347	422.42
322.423	331.656
326.497	517.336
330.569	348.536
334.639	90.308
338.707	79.638
342.773	44.09
346.837	73.523
350.899	95.541
354.96	147.346
359.018	0.045
363.074	75.366
367.128	4.621
371.181	7.75
375.231	79.328
379.28	78.253
383.326	91.568
387.37	44.915
391.413	13.033
395.454	116.988
399.492	197.784
403.529	364.091
407.564	976.695
411.596	651.784
415.627	834.629
419.656	531.211
423.683	215.526
427.708	149.698
431.731	203.763
435.752	68.552
439.772	72.481
443.789	236.603
447.804	411.068
451.817	764.958
455.829	1058.81
459.838	1404.69
463.846	2068.42
467.852	3591.77
471.855	8144.24
475.857	22656.6
479.857	32868.8
483.855	13390.5
487.851	5772.13
491.845	3603.58
495.837	4102.55
499.828	7881.31
503.816	20675.9
507.802	33530.2
511.787	15749.1
515.77	6950.24
519.75	3788.87
523.729	2330.6
527.706	1575.2
531.681	1408.23
535.654	1043.8
539.625	929.317
543.595	556.113
547.562	478.093
551.527	457.642
555.491	433.332
559.453	252.597
563.412	291.824
567.37	351.729
571.326	371.569
575.28	531.543
579.233	682.039
583.183	282.049
587.131	320.704
591.078	49.253
595.022	107.454
598.965	116.016
602.906	105.096
606.845	124.05
610.782	112.866
614.718	38.427
618.651	9.911
622.582	18.463
626.512	166.714
630.44	155.212
634.366	82.881
638.29	120.797
642.212	258.611
646.132	486.322
650.05	463.932
653.967	61.456
657.882	118.911
661.794	23.687
665.705	43.594
669.614	80.718
673.522	12.278
677.427	45.414
681.331	68.717
685.232	2.245
689.132	36.015
693.03	40.689
696.926	23.409
700.82	57.518
704.713	136.398
708.603	43.157
712.492	105.822
716.379	282.164
720.264	240.8
724.147	292.009
728.028	182.93
731.908	196.131
735.785	101.379
739.661	316.506
743.535	231.53
747.407	350.107
751.278	534.371
755.146	769.086
759.013	2253.31
762.878	3807.41
766.741	2982.12
770.602	1613.5
774.461	1456.69
778.319	860.446
782.174	584.286
786.028	448.283
789.88	181.923
793.73	255.777
797.579	279.531
801.425	183.207
805.27	206.808
809.113	280.136
812.954	563.593
816.794	624.873
820.631	442.937
824.467	215.898
828.301	235.377
832.133	263.495
835.963	181.056
839.792	89.2
843.618	73.004
847.443	67.394
851.266	86.467
855.088	115.146
858.907	3.404
862.725	72.766
866.541	0.799
870.355	18.959
874.167	153.024
877.978	74.875
881.787	123.41
885.594	147.903
889.399	108.513
893.202	169.661
897.004	201.099
900.803	212.525
904.601	263.908
908.398	45.348
912.192	116.803
915.985	128.279
919.776	199.791
923.565	101.361
927.352	112.986
931.138	182.867
934.922	226.344
938.704	18.08
942.484	309.854
946.262	181.664
950.039	273.518
953.814	155.414
957.587	227.363
961.359	159.359
965.128	181.41
968.896	393.527
972.662	385.762
976.427	438.084
980.189	460.512
983.95	295.238
987.709	285.73
991.467	298.58
995.222	281.625
998.976	229.922
1002.73	505.514
1006.48	718.908
1010.23	856.256
1013.97	974.914
1017.72	646.301
1021.46	588.602
1025.2	783.783
1028.94	1282.18
1032.68	1453.05
1036.42	1087.28
1040.15	1111.63
1043.89	926.109
1047.62	941.117
1051.35	704.414
1055.07	473.197
1058.8	288.174
1062.52	563.283
1066.25	728.6
1069.97	717.928
1073.69	763.453
1077.4	829.127
1081.12	1244.95
1084.83	1711.37
1088.55	3107.5
1092.26	4963.79
1095.96	7930.17
1099.67	9246.72
1103.38	6943.43
1107.08	5520.27
1110.78	4707.15
1114.48	4774.14
1118.18	4061.17
1121.88	2528.29
1125.57	1595.56
1129.27	842.975
1132.96	460.549
1136.65	529.805
1140.34	637.709
1144.02	665.824
1147.71	654.197
1151.39	592.699
1155.07	271.857
1158.75	181.018
1162.43	110.287
1166.11	178.02
1169.78	36.062
1173.45	424.676
1177.12	213.598
1180.79	222.748
1184.46	62.109
1188.13	181.674
1191.79	18.615
1195.45	68.682
1199.11	281.484
1202.77	291.896
1206.43	262.561
1210.09	203.48
1213.74	64.668
1217.39	116.143
1221.05	227.914
1224.69	259.918
1228.34	352.229
1231.99	484.832
1235.63	467.689
1239.27	300.947
1242.91	288.691
1246.55	152.535
1250.19	325.799
1253.83	263.699
1257.46	397.08
1261.09	491.148
1264.72	479.275
1268.35	342.641
1271.98	414.135
1275.61	307.348
1279.23	29.49
1282.85	74.756
1286.47	211.15
1290.09	80.012
1293.71	185.383
1297.33	68.541
1300.94	184.957
1304.55	198.039
