Measurement: Raman, 514 nm, ccw, Raman Data Processed
Mineral: Albite
Rruff sample: R040068
Ideal chemistry: NaAlSi_3_O_8_
Locality: Harding Pegmatite, Dixon, New Mexico, USA
Source: University of Arizona Mineral Museum
Description: Tan colored crystal fragment
Measured chemistry: (Na_0.99_Ca_0.01_)Al_1.00_(Si_0.99_Al_0.01_)_3_O_8_
Pin_id: L00467
Orientation: Laser parallel to a* (1 0 0). Fiducial mark perpendicular to laser is parallel to -b [0 -1 0]
Raman shift (cm-1)	intensity
123.129	0
127.3	38.268
131.469	30.952
135.636	424.375
139.801	2186.33
143.964	4216.48
148.125	3531.32
152.284	2979.03
156.441	4997.44
160.596	7284.75
164.749	6771.89
168.9	6489.33
173.049	6926.9
177.195	8837.88
181.34	12556.8
185.483	13534.7
189.624	9387.56
193.762	5603.22
197.899	3948.56
202.034	4926.11
206.166	7945.85
210.297	6904.62
214.425	2923.03
218.552	911.396
222.676	99.826
226.799	8.312
230.919	143.158
235.038	154.647
239.154	233.711
243.269	1052.19
247.381	3137.46
251.492	4732.37
255.6	2399.63
259.707	1053.03
263.811	1255.87
267.914	2148.41
272.014	2190.98
276.113	2847.59
280.209	5691.37
284.304	14645.7
288.396	27556.2
292.487	22875.7
296.575	9809.15
300.662	3845.19
304.746	1962.48
308.829	1210.51
312.909	778.975
316.988	747.629
321.065	2006.19
325.139	6224.64
329.212	7222.98
333.283	3281.2
337.351	1199.28
341.418	666.668
345.483	692.498
349.546	657.967
353.606	303.371
357.665	268.748
361.722	294.053
365.777	10.781
369.83	44.139
373.881	8.775
377.93	33.113
381.977	7.158
386.023	180.914
390.066	201.793
394.107	583.697
398.146	1266.24
402.184	776.119
406.219	949.195
410.252	581.848
414.284	744.033
418.313	465.547
422.341	126.66
426.367	192.439
430.39	112.055
434.412	82.256
438.432	127.355
442.45	276.043
446.466	223.887
450.48	461.807
454.492	1069.35
458.502	1256.68
462.51	1233.82
466.517	1840.73
470.521	4067.41
474.523	10103.8
478.524	15910
482.523	9305.9
486.519	4871.54
490.514	3536.92
494.507	4582.03
498.498	8846.88
502.487	23451.4
506.474	38395.8
510.459	23089.9
514.442	9619.32
518.424	4675.61
522.403	3024.54
526.381	1956.06
530.356	1413.58
534.33	1268.42
538.302	713.844
542.272	837.838
546.24	765.15
550.206	560.717
554.17	553.52
558.132	370.152
562.093	563.223
566.051	455.352
570.008	764.299
573.963	1064.71
577.915	1448.94
581.866	1283.25
585.815	723.805
589.763	414.994
593.708	124.891
597.651	262.135
601.593	270.395
605.532	149.418
609.47	268.816
613.406	258.055
617.34	297.111
621.272	415.973
625.202	714.641
629.131	1383.12
633.057	1661.4
636.982	1159.5
640.905	1617.41
644.825	1505.13
648.744	1302.68
652.662	930.041
656.577	497.227
660.49	424.236
664.402	281.078
668.312	157.75
672.219	5.803
676.125	59.691
680.03	126.102
683.932	11.656
687.832	57.035
691.731	57.656
695.628	87.525
699.522	160.053
703.415	26.436
707.307	93.25
711.196	154.096
715.083	25.348
718.969	268.68
722.853	77.006
726.735	67.553
730.615	156.82
734.493	389.082
738.37	511.113
742.244	233.18
746.117	460.061
749.988	430.033
753.857	512.686
757.724	1374.76
761.59	2066.76
765.453	1509.09
769.315	975.213
773.175	877.328
777.033	709.34
780.889	341.246
784.744	353.053
788.596	334.766
792.447	406.389
796.296	197.922
800.143	269.373
803.989	690.742
807.832	1152.04
811.674	2743.26
815.514	3014.41
819.352	1925.51
823.189	946.328
827.023	659.807
830.856	404.703
834.687	204.98
838.516	343.43
842.343	152.713
846.169	417.676
849.992	12.65
853.814	76.801
857.634	112.311
861.453	269.816
865.269	316.826
869.084	211.596
872.897	51.701
876.708	364.84
880.517	428.352
884.325	136.08
888.13	133.609
891.934	199.158
895.737	50.311
899.537	49.701
903.336	120.91
907.132	271.557
910.928	382.254
914.721	262.938
918.512	116.324
922.302	444.418
926.09	215.225
929.876	536.098
933.66	117.043
937.443	198.068
941.224	309.18
945.003	70.379
948.78	361.68
952.556	463.082
956.33	464.598
960.102	336.234
963.872	238.008
967.64	369.914
971.407	1091.96
975.172	1154.15
978.935	1326.56
982.697	1069.2
986.456	622.076
990.214	215.412
993.971	358.857
997.725	722.559
1001.48	755.582
1005.23	453.57
1008.98	570.818
1012.73	566.051
1016.47	649.389
1020.22	989.438
1023.96	1616.34
1027.7	2040.07
1031.44	3102.3
1035.17	2258.53
1038.91	1566.96
1042.64	962.994
1046.37	926.934
1050.1	1030.06
1053.83	714.213
1057.56	949.639
1061.28	581.119
1065.01	586.945
1068.73	553.051
1072.45	639.434
1076.16	1096.12
1079.88	913.133
1083.6	870.463
1087.31	1078.14
1091.02	1476.17
1094.73	2824.56
1098.44	3673.3
1102.14	3112.44
1105.85	2322.29
1109.55	1872.8
1113.25	1893.76
1116.95	1654.53
1120.65	1105.7
1124.34	897.262
1128.04	989.543
1131.73	582.609
1135.42	536.609
1139.11	331.449
1142.79	107.203
1146.48	803.961
1150.16	681.82
1153.84	780.891
1157.52	671.273
1161.2	913.227
1164.88	27.066
1168.56	142.531
1172.23	218.996
1175.9	102.477
1179.57	497.676
1183.24	715.258
1186.9	377.945
1190.57	367.898
1194.23	139.77
1197.89	1.074
