Measurement: Raman, 514 nm, ccw, Raman Data Processed
Mineral: Albite
Rruff sample: R040129
Ideal chemistry: NaAlSi_3_O_8_
Locality: LaChance Quarry, Brunswick, Cumberland County, Maine, USA
Source: Bob Downs
Description: Colorless fragment of a tabular single crystal
Measured chemistry: (Na_0.99_K_0.01_)Al_1.00_Si_3.00_O_8_
Pin_id: M00199
Orientation: Laser parallel to (0 -1 -1). Fiducial mark perpendicular to laser is parallel to a [1 0 0]
Raman shift (cm-1)	intensity
106.312	0
110.507	2019.46
114.7	4009.2
118.891	1809.57
123.079	254.34
127.265	104.884
131.449	68.156
135.631	372.943
139.81	1239.64
143.988	2862.78
148.163	4123.24
152.336	3938.83
156.507	3818.15
160.675	6240.46
164.842	7515.28
169.006	7657.63
173.168	7031.17
177.328	5585.95
181.485	6585.05
185.641	8053.67
189.794	6621.87
193.945	4078.8
198.094	2705.25
202.241	3101.77
206.385	5558.65
210.528	6695.98
214.668	3503.79
218.806	1112.05
222.942	320.706
227.076	29.779
231.207	34.394
235.337	124.368
239.464	125.226
243.589	98.917
247.712	503.138
251.833	1253.87
255.951	936.361
260.068	858.576
264.182	1490.91
268.294	2823.34
272.404	2921.53
276.512	1882.23
280.618	2020.31
284.721	4342.35
288.823	9937.12
292.922	11992.5
297.019	6480.63
301.114	2659.88
305.207	1179.92
309.298	810.424
313.387	661.261
317.473	542.34
321.558	593.599
325.64	1454.99
329.72	2606.47
333.798	1567.91
337.874	538.573
341.948	228.713
346.019	188.729
350.089	178.617
354.156	28.38
358.222	108.07
362.285	97.51
366.346	123.37
370.405	44.656
374.462	136.324
378.516	18.525
382.569	21.173
386.62	54.152
390.668	82.455
394.714	362.91
398.759	586.237
402.801	974.439
406.841	2824.6
410.879	3027.58
414.915	2130
418.949	1802.36
422.98	724.656
427.01	276.858
431.037	168.949
435.063	220.948
439.086	322.978
443.108	475.3
447.127	778.265
451.144	1770.7
455.159	4174.65
459.172	5098.63
463.183	3151.53
467.192	2393.56
471.198	4224.38
475.203	10075
479.206	20845.3
483.206	16495.4
487.205	7645.21
491.201	3854.79
495.196	3172.25
499.188	5073.15
503.178	11582
507.166	25701
511.153	23260.8
515.137	10773.5
519.119	4819.7
523.099	2860.7
527.077	1764.36
531.053	1354.58
535.027	1062.28
538.998	738.375
542.968	615.036
546.936	519.049
550.902	581.465
554.865	247.097
558.827	140.458
562.786	376.379
566.744	312.245
570.7	427.954
574.653	553.582
578.604	1026.79
582.554	1242.29
586.501	497.559
590.447	259.89
594.39	154.697
598.331	129.626
602.271	87.873
606.208	79.143
610.143	13.633
614.077	7.923
618.008	31.998
621.937	55.872
625.865	179.566
629.79	393.112
633.713	506.51
637.634	449.763
641.553	502.879
645.471	885.855
649.386	1148.7
653.299	591.408
657.21	333.99
661.12	236.445
665.027	78.771
668.932	70.953
672.835	12.947
676.737	14.691
680.636	14.828
684.533	8.346
688.428	10.297
692.322	109.084
696.213	104.738
700.102	170.125
703.99	72.166
707.875	24.605
711.758	2.848
715.64	82.621
719.519	444.625
723.397	287.135
727.272	164.613
731.146	103.074
735.017	271.188
738.887	307.176
742.755	459.402
746.62	593.242
750.484	684.4
754.346	1108.15
758.206	2609.17
762.063	6059.22
765.919	6878.5
769.773	3578.57
773.625	1887.7
777.475	1377.48
781.323	868.197
785.169	728.865
789.013	559.492
792.856	450.152
796.696	500.711
800.534	551.322
804.371	1031.82
808.205	1922.29
812.037	4292.74
815.868	7223.18
819.697	5202.88
823.523	2061.75
827.348	1151.38
831.171	819.117
834.992	376.459
838.811	312.385
842.628	228.74
846.443	239.18
850.256	124.174
854.067	65.91
857.876	6.064
861.684	45.719
865.489	234.16
869.293	258.412
873.095	11.162
876.894	179.354
880.692	109.879
884.488	82.629
888.282	113.127
892.074	153.443
895.864	226.109
899.652	14.092
903.439	75.627
907.223	25.311
911.006	235.086
914.786	24.414
918.565	53.828
922.342	116.842
926.117	7.639
929.89	228.551
933.661	59.572
937.43	70.695
941.198	241.922
944.963	183.258
948.727	5.301
952.488	186.25
956.248	207.912
960.006	329.711
963.762	281.617
967.516	231.121
971.269	725.791
975.019	1128.08
978.767	1810.6
982.514	1413.33
986.259	696.229
990.002	479.324
993.743	392.703
997.482	576.295
1001.22	760.217
1004.95	1281.76
1008.69	1306.27
1012.42	1160.93
1016.15	1285.7
1019.88	697.787
1023.6	744.281
1027.33	755.238
1031.05	1425.92
1034.77	1321.68
1038.49	945.83
1042.21	788.434
1045.92	703.078
1049.63	810.434
1053.35	595.818
1057.05	825.342
1060.76	553.449
1064.47	411.037
1068.17	358.031
1071.87	436.256
1075.57	494.502
1079.27	732.918
1082.97	1011.54
1086.66	1340.29
1090.36	2099.14
1094.05	3398.02
1097.73	5557.14
1101.42	5096.23
1105.11	3636.73
1108.79	2495.93
1112.47	2255.19
1116.15	1664.49
1119.83	1233.87
1123.51	864.125
1127.18	634.818
1130.86	274.703
1134.53	335.234
1138.19	112.898
1141.86	323.92
1145.53	159.984
1149.19	242.443
1152.85	433.676
1156.51	195.869
1160.17	474.832
1163.83	238.191
1167.48	251.256
1171.13	112.094
1174.78	38.541
1178.43	107.367
1182.08	212.258
1185.73	163.213
1189.37	384.668
1193.01	385.879
1196.65	572.918
1200.29	38.562
1203.93	96.279
1207.56	66.957
1211.19	214.92
1214.83	416.619
1218.45	343.447
1222.08	493.805
1225.71	512.35
1229.33	353.141
1232.95	351.672
1236.57	530.811
1240.19	527.863
1243.81	403.16
1247.42	399.281
1251.04	603.934
1254.65	608.539
1258.26	332.949
1261.87	488.854
1265.47	226.072
1269.08	119.414
1272.68	340.838
1276.28	112.184
1279.88	253.516
1283.47	443.266
1287.07	222.234
1290.66	300.855
1294.26	178.344
1297.85	85.139
1301.43	271.609
1305.02	167.225
1308.61	371.943
1312.19	395.746
1315.77	472.178
1319.35	504.047
1322.93	225.561
1326.5	176.342
1330.08	103.848
1333.65	35.201
1337.22	36.186
1340.79	371.029
1344.36	385.438
1347.92	472.418
1351.49	488.932
1355.05	616.742
1358.61	312.65
1362.17	342.523
1365.72	71.715
1369.28	40.268
1372.83	88.098
1376.38	34.102
1379.93	351.135
1383.48	687.104
1387.03	640.92
1390.57	833.885
1394.12	415.445
1397.66	211.869
1401.2	128.162
1404.73	29.779
1408.27	131.871
1411.8	470.137
1415.34	228.715
1418.87	332.486
1422.4	569.842
1425.92	351.926
1429.45	420.91
1432.97	247.352
1436.49	136.242
1440.02	48.104
1443.54	93.385
1447.05	176.932
1450.57	455.447
1454.08	169.07
1457.59	600.637
1461.1	657.949
1464.61	559.725
1468.12	640.549
1471.62	731.74
1475.13	595.195
1478.63	92.027
1482.13	42.156
1485.63	86.781
1489.12	178.676
1492.62	242.172
1496.11	448.516
