Measurement: Raman, 514 nm, ccw, Raman Data Processed
Mineral: Albite
Rruff sample: R040068
Ideal chemistry: NaAlSi_3_O_8_
Locality: Harding Pegmatite, Dixon, New Mexico, USA
Source: University of Arizona Mineral Museum
Description: Tan colored crystal fragment
Measured chemistry: (Na_0.99_Ca_0.01_)Al_1.00_(Si_0.99_Al_0.01_)_3_O_8_
Pin_id: L00433
Orientation: Laser parallel to -b* (0 -1 0). Fiducial mark perpendicular to laser is parallel to -c [0 0 -1]
Raman shift (cm-1)	intensity
121.738	0
125.91	66.261
130.08	184.484
134.248	102.45
138.413	575.994
142.577	1459.43
146.739	1588.28
150.898	1325.27
155.056	1496.42
159.212	2387.53
163.365	2588.89
167.517	2630.6
171.666	2462.57
175.813	2546.83
179.959	3486.21
184.102	4355.16
188.244	3516.12
192.383	1918.42
196.52	1560.7
200.656	1733.72
204.789	2797.71
208.92	3131.46
213.049	1435.04
217.176	598.646
221.302	102.314
225.425	3.941
229.546	0.125
233.665	13.753
237.782	17.646
241.898	121.758
246.011	1125.43
250.122	2031.43
254.231	1166.03
258.338	408.686
262.443	450.926
266.546	963.213
270.647	1095.59
274.747	992.504
278.844	1420.94
282.939	3475.9
287.032	8258.16
291.123	9119.85
295.212	4282.31
299.3	1664.51
303.385	788.297
307.468	312.436
311.549	266.814
315.629	431.342
319.706	615.91
323.781	1740.51
327.855	3135.14
331.926	1639.79
335.995	734.441
340.063	259.061
344.128	332.947
348.192	246.979
352.253	121.088
356.313	245.219
360.37	59.355
364.426	23.504
368.479	97.58
372.531	18.32
376.581	75.742
380.629	200.238
384.674	13.578
388.718	146.344
392.76	197.939
396.8	505.547
400.838	439.865
404.874	713.76
408.908	697.672
412.94	511.297
416.97	314.688
420.999	38.01
425.025	1.324
429.049	135.01
433.072	22.023
437.092	70.795
441.111	253.914
445.127	147.125
449.142	240.305
453.155	258.262
457.166	484.545
461.175	607.098
465.181	699.311
469.186	1311.33
473.19	2743.14
477.191	5974.86
481.19	4366.49
485.187	1798.02
489.183	1219.44
493.176	1430.77
497.168	2503
501.157	6014.77
505.145	13821.9
509.131	10669.2
513.115	4450.25
517.097	2104.2
521.077	1147.64
525.055	666.689
529.031	506.693
533.006	401.037
536.978	600.025
540.949	297.129
544.917	359.289
548.884	439.5
552.849	136.803
556.812	226.82
560.773	151.879
564.732	145.902
568.689	339.49
572.644	417.797
576.598	768.141
580.55	516.199
584.499	131.553
588.447	159.078
592.393	194.154
596.337	289.75
600.279	97.809
604.219	145.752
608.158	263.332
612.094	323.275
616.029	268.617
619.962	286.014
623.892	203.762
627.821	401
631.749	637.889
635.674	615.125
639.597	671.855
643.519	728.371
647.438	534.928
651.356	180.977
655.272	356.854
659.186	182.531
663.098	387.98
667.009	183.064
670.917	12.07
674.824	212.543
678.728	146.951
682.631	321.207
686.532	54.443
690.432	239.553
694.329	53.016
698.224	280.881
702.118	64.131
706.01	11.822
709.9	102.18
713.788	52.646
717.674	48.525
721.558	312.436
725.441	61.969
729.322	93.578
733.201	104.891
737.078	68.498
740.953	168.834
744.826	176.986
748.698	157.525
752.567	567.789
756.435	578.439
760.301	1087.66
764.165	1266.64
768.028	666.34
771.888	415.881
775.747	384.771
779.604	393.771
783.459	402.738
787.312	51.678
791.164	130.465
795.013	139.111
798.861	237.619
802.707	325.986
806.551	684.195
810.394	1071.31
814.234	1432.39
818.073	1340.42
821.91	613.982
825.745	438.582
829.578	335.639
833.41	120.146
837.24	106.799
841.068	453.787
844.894	429.932
848.718	230.627
852.54	217.266
856.361	22.172
860.18	181.773
863.997	223.26
867.812	164.383
871.626	270.312
875.438	137.113
879.248	24.418
883.056	251.824
886.862	228.312
890.667	233.488
894.469	279.4
898.27	25.035
902.07	80.713
905.867	43.48
909.663	332.297
913.457	328.07
917.249	133.852
921.039	59.629
924.827	245.404
928.614	161.164
932.399	386.396
936.182	121.977
939.964	397.25
943.744	22.877
947.521	338.578
951.298	244.443
955.072	330.016
958.845	435.965
962.615	521.979
966.384	48.07
970.152	75.707
973.917	400.689
977.681	657.195
981.443	513.969
985.203	670.719
988.962	137.586
992.719	204.73
996.474	91.91
1000.23	331.092
1003.98	594.855
1007.73	381.562
1011.48	540.082
1015.22	557.777
1018.97	414.25
1022.71	704.102
1026.45	769.203
1030.19	1089.54
1033.93	1205.72
1037.66	429.988
1041.4	689.359
1045.13	705.59
1048.86	503.59
1052.59	761.727
1056.32	740.016
1060.04	628.48
1063.77	437.141
1067.49	206.004
1071.21	655.078
1074.93	464.367
1078.64	880.555
1082.36	910.16
1086.07	789.535
1089.78	699.539
1093.49	1228.9
1097.2	1269.4
1100.91	1250.18
1104.61	1141.16
1108.32	1152.45
1112.02	1054.57
1115.72	1287.48
1119.41	510.977
1123.11	585.078
1126.8	19.84
1130.5	545.539
1134.19	472.254
1137.88	810.113
1141.56	399.301
1145.25	39.93
1148.93	42.691
1152.62	567.492
1156.3	594.246
1159.98	453.867
1163.65	835.621
1167.33	568.895
1171	639.801
1174.68	233.91
1178.35	26.16
