Measurement: Raman, 514 nm, ccw, Raman Data Processed
Mineral: Albite
Rruff sample: R040129
Ideal chemistry: NaAlSi_3_O_8_
Locality: LaChance Quarry, Brunswick, Cumberland County, Maine, USA
Source: Bob Downs
Description: Colorless fragment of a tabular single crystal
Measured chemistry: (Na_0.99_K_0.01_)Al_1.00_Si_3.00_O_8_
Pin_id: L00347
Orientation: Laser parallel to (-1 -1 0). Fiducial mark perpendicular to laser is parallel to -c [0 0 -1]
Raman shift (cm-1)	intensity
106.423	0
110.603	4716.97
114.78	6496.81
118.956	1161.97
123.129	11.889
127.3	12.102
131.469	171.497
135.636	298.427
139.801	989.271
143.964	2071.14
148.125	3141.61
152.284	2378.15
156.441	1149.07
160.596	1713.35
164.749	3140.36
168.9	6699.42
173.049	4654.65
177.195	2936.95
181.34	3611.64
185.483	3945.71
189.624	2849.28
193.762	1802
197.899	1764.16
202.034	2655.85
206.166	5997.47
210.297	6189.28
214.425	2121.33
218.552	823.624
222.676	186.153
226.799	112.794
230.919	20.357
235.038	64.611
239.154	22.205
243.269	233.891
247.381	1046.26
251.492	2018.43
255.6	935.77
259.707	1003.31
263.811	1740.94
267.914	4088.71
272.014	2994.85
276.113	1578.06
280.209	1592.84
284.304	3888.74
288.396	9745.94
292.487	9022.6
296.575	3507.71
300.662	1419.2
304.746	561.402
308.829	434.127
312.909	137.244
316.988	110.654
321.065	332.711
325.139	1128.07
329.212	1721.98
333.283	565.883
337.351	89.738
341.418	36.518
345.483	136.977
349.546	0.221
353.606	33.279
357.665	56.148
361.722	100.961
365.777	168.197
369.83	14.219
373.881	133.457
377.93	71.561
381.977	70.092
386.023	111.137
390.066	239.096
394.107	169.883
398.146	490.521
402.184	831.428
406.219	3020.85
410.252	2079.1
414.284	2176.99
418.313	1454.75
422.341	402.387
426.367	349.877
430.39	107.207
434.412	164.342
438.432	511.619
442.45	558.623
446.466	725.785
450.48	1582.44
454.492	3989.22
458.502	3355.78
462.51	2141.95
466.517	2397.88
470.521	4443.56
474.523	12129
478.524	22424.1
482.523	11049
486.519	4093.64
490.514	2787.96
494.507	2942
498.498	5265.75
502.487	13252.4
506.474	28249.2
510.459	16555.9
514.442	6509.39
518.424	3237.9
522.403	2092.22
526.381	1381.86
530.356	1154.35
534.33	806.127
538.302	768.84
542.272	442.01
546.24	524.967
550.206	677.41
554.17	277.506
558.132	437.158
562.093	227.559
566.051	376.279
570.008	584.914
573.963	1035.41
577.915	1431.1
581.866	1029.08
585.815	706.443
589.763	350.361
593.708	216.922
597.651	401.443
601.593	327.781
605.532	283.863
609.47	199.662
613.406	215.174
617.34	520.404
621.272	775.428
625.202	820.176
629.131	674.654
633.057	628.873
636.982	812.826
640.905	986.521
644.825	1659.96
648.744	1363.16
652.662	876.102
656.577	798.807
660.49	271.336
664.402	333.725
668.312	65.98
672.219	27.984
676.125	259.693
680.03	39.148
683.932	21.688
687.832	67.666
691.731	172.496
695.628	52.738
699.522	142.787
703.415	117.527
707.307	318.479
711.196	79.637
715.083	27.266
718.969	133.699
722.853	380.979
726.735	171.277
730.615	243.744
734.493	52.941
738.37	249.686
742.244	196.316
746.117	283.303
749.988	709.553
753.857	1665.96
757.724	3035.52
761.59	7211.41
765.453	5537.32
769.315	2073.25
773.175	1333.79
777.033	769.795
780.889	397.475
784.744	411.695
788.596	127.598
792.447	473.48
796.296	439.346
800.143	685.205
803.989	961.064
807.832	2006.93
811.674	5362.81
815.514	7418.72
819.352	3724.38
823.189	1498.28
827.023	890.832
830.856	685.051
834.687	623.43
838.516	554.84
842.343	788.199
846.169	536.039
849.992	325.938
853.814	508.324
857.634	426.895
861.453	815.234
865.269	653.77
869.084	210.188
872.897	217.332
876.708	104.875
880.517	52.875
884.325	370.977
888.13	509.117
891.934	197.758
895.737	33.355
899.537	245.785
903.336	645.207
907.132	464.902
910.928	434.812
914.721	394.961
918.512	55.406
922.302	76.125
926.09	347.09
929.876	308.27
933.66	209.633
937.443	51.242
941.224	123.105
945.003	105.227
948.78	637.625
952.556	510.297
956.33	513.262
960.102	226.531
963.872	230.105
967.64	44.004
971.407	198.223
975.172	1002.79
978.935	1007.74
982.697	413.164
986.456	659.309
990.214	175.773
993.971	322.82
997.725	580.664
1001.48	1209.78
1005.23	1132.44
1008.98	611.805
1012.73	1232.16
1016.47	892.934
1020.22	1237.41
1023.96	1199.42
1027.7	1069.39
1031.44	572.16
1035.17	796.266
1038.91	319.215
1042.64	973.801
1046.37	1018.84
1050.1	1084.49
1053.83	1071.47
1057.56	627.359
1061.28	669.059
1065.01	396.672
1068.73	321.316
1072.45	1036.66
1076.16	1320.65
1079.88	1378.46
1083.6	1411.8
1087.31	1355.75
1091.02	1890.32
1094.73	3685.54
1098.44	4331.42
1102.14	3657.99
1105.85	2585.24
1109.55	1753.19
1113.25	991.809
1116.95	940.984
1120.65	1640.73
1124.34	951.027
1128.04	601.816
1131.73	803.215
1135.42	834.801
1139.11	706.84
1142.79	39.242
1146.48	27.703
1150.16	104.125
1153.84	750.242
1157.52	1135.86
1161.2	572.598
1164.88	540.48
1168.56	179.535
1172.23	299.805
1175.9	231.371
1179.57	874.328
1183.24	878.406
1186.9	890.156
1190.57	772.012
1194.23	558.883
1197.89	121.906
1201.55	570.547
1205.21	434.973
1208.87	427.828
1212.52	872.887
1216.18	1086.79
1219.83	554.059
1223.48	635.078
