Measurement: Raman, 514 nm, ccw, Raman Data Processed
Mineral: Albite
Rruff sample: R050402
Ideal chemistry: NaAlSi_3_O_8_
Locality: Urbano mine, Golconda District, Brazil
Source: Bob Downs
Description: Colorless tabular single crystals associated with fluorapatite R050401
Measured chemistry: Na_1.00_Al_1.00_Si_3.00_O_8_
Pin_id: M00163
Orientation: Laser parallel to (1 0 1). Fiducial mark perpendicular to laser is parallel to b [0 1 0]
Raman shift (cm-1)	intensity
126.749	0
131.668	308.033
136.585	7.63379
141.5	539.856
146.412	1676.21
151.321	4952.26
156.229	10492.9
161.134	15876
166.036	16136.3
170.936	10189
175.834	10096
180.729	11698.4
185.622	12267.9
190.512	9972
195.4	6278.67
200.286	6934.56
205.169	8871.35
210.049	10521
214.928	6769.07
219.803	2282.23
224.677	919.673
229.548	580.925
234.416	186.381
239.282	102.268
244.146	124.582
249.007	197.68
253.866	123.985
258.722	7.55957
263.576	207.705
268.427	601.783
273.276	1382.77
278.123	3918.01
282.967	10225
287.809	17674
292.648	21135.9
297.485	12179.9
302.319	4904.15
307.151	2527.83
311.98	2124.02
316.807	1344.37
321.631	950.368
326.454	976.783
331.273	884.081
336.09	815.025
340.905	923.81
345.717	1106.41
350.527	1408.94
355.334	1456.02
360.139	1220.56
364.941	985.527
369.741	780.319
374.538	598.13
379.333	473.867
384.126	571.782
388.916	515.172
393.703	528.793
398.488	624.573
403.271	753.405
408.051	1453.08
412.828	663.791
417.603	68.4297
422.376	107.596
427.146	47.8818
431.914	162.317
436.679	38.2598
441.442	185.144
446.202	532.528
450.96	1190.25
455.715	1934.31
460.467	3229.75
465.218	5478.53
469.965	14003.5
474.711	27314.8
479.454	36505.8
484.194	23753.5
488.932	10545.4
493.667	8960.99
498.4	16723.3
503.13	31735.5
507.858	43945.3
512.583	30982.8
517.306	12204.7
522.026	5762.68
526.744	3502.58
531.459	2534.13
536.172	1783.3
540.882	1469.93
545.59	1226
550.295	961.616
554.998	832.528
559.698	833.986
564.396	969.488
569.091	1024.71
573.784	1306.69
578.474	1695.79
583.162	1911.95
587.847	1814.32
592.529	1954.97
597.209	2075.37
601.887	1787.45
606.562	1568.21
611.235	1269.65
615.905	1415.78
620.572	2015.61
625.237	2495.14
629.9	2195.35
634.56	1635.22
639.217	1777.77
643.872	2138.96
648.524	2453.82
653.174	2123.4
657.821	1176.85
662.466	734.043
667.108	464.015
671.748	331.751
676.385	38.7344
681.02	87.209
685.652	47.5996
690.281	37
694.908	10.9316
699.533	75.0781
704.155	23.5225
708.774	171.627
713.391	196.94
718.005	10.208
722.617	30.8174
727.226	268.047
731.833	286.383
736.437	320.239
741.039	329.644
745.638	526.605
750.234	685.123
754.828	1241.21
759.419	2216.87
764.008	3192.12
768.595	2743.95
773.178	2516.39
777.759	2368.43
782.338	1392.08
786.914	1113.47
791.488	1268.44
796.059	1258.82
800.627	1839.61
805.193	3652.68
809.756	4610.38
814.317	4454.78
818.875	3208.74
823.431	1876.71
827.984	1348.44
832.534	1069.18
837.082	1203.79
841.627	1378.97
846.17	1778.49
850.71	2342.66
855.248	2858.45
859.783	3030.58
864.316	2330.61
868.846	1347.21
873.373	897.785
877.898	805.434
882.42	567.171
886.94	458.013
891.457	369.973
895.971	528.068
900.483	490.313
904.993	547.725
909.5	524.312
914.004	337.096
918.505	94.0898
923.004	64.293
927.501	93.3926
931.995	41.5254
936.486	84.7754
940.975	73.3272
945.461	73.0781
949.945	18.2402
954.426	402.969
958.904	467.578
963.38	503.902
967.853	343.988
972.324	378.464
976.792	365.652
981.258	489.182
985.72	484.715
990.181	684.33
994.639	762.755
999.094	1361.86
1003.55	2040.39
1008	1100.36
1012.44	815.755
1016.89	1156.58
1021.33	890.837
1025.77	665.76
1030.21	495.921
1034.64	321.231
1039.07	237.243
1043.5	168.698
1047.93	270.596
1052.35	10.9375
1056.78	115.573
1061.19	32.1602
1065.61	113.247
1070.02	274.87
1074.43	642.093
1078.84	1222.63
1083.25	2145.37
1087.65	3503.01
1092.05	6133.7
1096.45	10184.2
1100.85	11966.2
1105.24	9870.69
1109.63	8712.64
1114.02	8188.93
1118.4	6628.55
1122.78	4153.48
1127.16	2356.7
1131.54	1441.21
1135.92	835.002
1140.29	559.068
1144.66	476.404
1149.02	486.004
1153.39	495.862
1157.75	510.973
1162.11	401.328
1166.46	522.926
1170.82	460.756
1175.17	305.812
1179.52	258.087
1183.86	296.576
1188.21	169.286
1192.55	137.273
1196.89	133.59
1201.22	10.419
1205.55	112.211
1209.88	69.3272
1214.21	143.697
1218.54	301.875
1222.86	282.793
1227.18	95.9228
1231.5	434.566
1235.81	626.815
1240.12	625.322
1244.43	651.541
1248.74	729.631
1253.04	665.513
1257.34	789.048
1261.64	708.636
1265.94	1099.4
1270.23	1109.26
1274.52	1150.22
1278.81	921.276
1283.1	846.423
1287.38	538.659
1291.66	760.984
1295.94	1147.38
1300.21	1082.84
1304.48	947.354
1308.75	1073.92
1313.02	958.556
1317.29	1135.31
1321.55	1089.88
1325.81	737.863
1330.06	402.167
1334.32	137.758
1338.57	192.272
1342.82	105.183
1347.06	163.028
1351.31	105.303
1355.55	22.3232
1359.79	23.7285
1364.02	19.166
1368.26	118.112
1372.49	116.161
1376.71	162.31
1380.94	324.849
1385.16	490.071
1389.38	537.46
1393.6	359.297
1397.81	384.027
1402.02	279.135
1406.23	242.219
1410.44	414.457
1414.64	254.893
1418.85	409.844
1423.04	468.236
1427.24	716.621
1431.43	1214.92
1435.62	2041.08
1439.81	3013.62
1444	3934.73
1448.18	4430.89
1452.36	4619.19
1456.54	4429.44
1460.71	3515.16
1464.89	2715.19
1469.06	2113
1473.22	1581.53
1477.39	1397.18
1481.55	1242.63
1485.71	1168.88
1489.86	535.258
1494.02	390.766
1498.17	265.434
1502.32	182.371
1506.46	294.594
1510.61	135.06
1514.75	243.982
1518.88	328.484
1523.02	114.828
1527.15	160.943
1531.28	370.785
1535.41	213.57
1539.53	235.473
1543.66	285.269
1547.78	231.121
1551.89	127.178
1556.01	279.555
1560.12	254.549
1564.23	213.986
1568.33	9.43555
