Measurement: Raman, 514 nm, ccw, Raman Data Processed
Mineral: Albite
Rruff sample: R050402
Ideal chemistry: NaAlSi_3_O_8_
Locality: Urbano mine, Golconda District, Brazil
Source: Bob Downs
Description: Colorless tabular single crystals associated with fluorapatite R050401
Measured chemistry: Na_1.00_Al_1.00_Si_3.00_O_8_
Pin_id: M00163
Orientation: Laser parallel to (1 0 1). Fiducial mark perpendicular to laser is parallel to b [0 1 0]
Raman shift (cm-1)	intensity
126.749	0
131.668	242.117
136.585	506.685
141.5	3079.94
146.412	6246.37
151.321	10538.3
156.229	7051.59
161.134	1384.9
166.036	1219.82
170.936	2240.41
175.834	4234.2
180.729	7872.29
185.622	10597.9
190.512	9363.51
195.4	5210.22
200.286	4275.34
205.169	4415.33
210.049	5748.98
214.928	3757.82
219.803	873.337
224.677	34.042
229.548	119.567
234.416	256.531
239.282	107.28
244.146	674.174
249.007	1779.66
253.866	3315.68
258.722	2334.69
263.576	2425.61
268.427	3812.68
273.276	4264.52
278.123	2484.04
282.967	3111.77
287.809	5927.98
292.648	8999.23
297.485	5665.66
302.319	1951.71
307.151	613.264
311.98	393.971
316.807	178.398
321.631	737.334
326.454	1663.18
331.273	2750.13
336.09	1325.69
340.905	808.616
345.717	964.855
350.527	1221.46
355.334	1050.4
360.139	781.593
364.941	710.979
369.741	412.756
374.538	117.363
379.333	211.994
384.126	151.154
388.916	285.092
393.703	386.838
398.488	1139.49
403.271	1309.38
408.051	1518.16
412.828	2156.56
417.603	3605.45
422.376	1689.06
427.146	366.234
431.914	23.1191
436.679	79.125
441.442	223.164
446.202	1491.26
450.96	3730.4
455.715	6813.28
460.467	7138.95
465.218	4673.42
469.965	7088.64
474.711	13675.4
479.454	22559.9
484.194	16391.4
488.932	7140.56
493.667	6006.95
498.4	10430
503.13	20606.3
507.858	33905
512.583	25632.5
517.306	9602.74
522.026	4354.28
526.744	2451.53
531.459	1572.78
536.172	1045.83
540.882	910.781
545.59	791.936
550.295	540.201
554.998	591.334
559.698	362.867
564.396	404.34
569.091	702.055
573.784	1115.07
578.474	1567.08
583.162	1681.42
587.847	1399.31
592.529	1693.38
597.209	1492.23
601.887	1659.01
606.562	1470.74
611.235	989.158
615.905	1060.22
620.572	1704.92
625.237	2604.28
629.9	2404.35
634.56	1719.07
639.217	1689.43
643.872	2090.43
648.524	2500.12
653.174	2079.66
657.821	1325.05
662.466	710.688
667.108	361.916
671.748	229.215
676.385	171.117
681.02	66.3477
685.652	122.627
690.281	232.268
694.908	225.164
699.533	8.6875
704.155	159.088
708.774	200.228
713.391	68.4492
718.005	4.99609
722.617	364.387
727.226	363.242
731.833	321.635
736.437	777.578
741.039	757.078
745.638	1035.13
750.234	1659.76
754.828	3878.95
759.419	7185.74
764.008	11469.1
768.595	7940.1
773.178	3534.69
777.759	2019.91
782.338	1596.77
786.914	1545.32
791.488	1438.07
796.059	1826.24
800.627	2416.28
805.193	4448.38
809.756	7572.47
814.317	9971.47
818.875	8846.22
823.431	4154.98
827.984	2283.95
832.534	1739.46
837.082	1573.37
841.627	1703.3
846.17	2081.22
850.71	2450.04
855.248	2906.84
859.783	3347.25
864.316	2680.84
868.846	1567.02
873.373	1075.67
877.898	790.285
882.42	607.547
886.94	469.428
891.457	558.523
895.971	611.846
900.483	484.01
904.993	356.231
909.5	391.328
914.004	498.707
918.505	96.3887
923.004	16.7988
927.501	96.0606
931.995	120.111
936.486	52.2891
940.975	218.754
945.461	180.164
949.945	225.482
954.426	390.516
958.904	783.199
963.38	692.742
967.853	665.391
972.324	1408.12
976.792	1961.75
981.258	2282.64
985.72	1292.75
990.181	1107.71
994.639	994.453
999.094	1644.65
1003.55	2919.28
1008	1794.36
1012.44	1511.89
1016.89	1067.87
1021.33	1088.28
1025.77	852.143
1030.21	818.447
1034.64	610.193
1039.07	501.381
1043.5	797.008
1047.93	431.072
1052.35	337.568
1056.78	247.414
1061.19	73.1875
1065.61	84.8945
1070.02	21.1348
1074.43	89.0508
1078.84	629.416
1083.25	1048.19
1087.65	1528.77
1092.05	2423.11
1096.45	3843.37
1100.85	4131.04
1105.24	3211.03
1109.63	2601.38
1114.02	2018.12
1118.4	1245.11
1122.78	1101.33
1127.16	588.773
1131.54	379.434
1135.92	354.303
1140.29	246.375
1144.66	187.647
1149.02	622.113
1153.39	709.766
1157.75	634.606
1162.11	539.621
1166.46	463.81
1170.82	379.164
1175.17	491.676
1179.52	328.344
1183.86	235.16
1188.21	100.684
1192.55	183.721
1196.89	21.3828
1201.22	155.594
1205.55	40.4844
1209.88	137.781
1214.21	263.957
1218.54	46.6074
1222.86	63.375
1227.18	325.906
1231.5	303.234
1235.81	424.338
1240.12	722.488
1244.43	746.844
1248.74	666.305
1253.04	936.879
1257.34	512.693
1261.64	948.707
1265.94	1198.82
1270.23	1036.06
1274.52	1300.53
1278.81	1299.14
1283.1	911.867
1287.38	769.707
1291.66	895.652
1295.94	998.699
1300.21	928.846
1304.48	1032.07
1308.75	992.381
1313.02	1160.77
1317.29	1143.29
1321.55	932.857
1325.81	905.248
1330.06	558.922
1334.32	133.254
1338.57	177.004
1342.82	133.369
1347.06	180.935
1351.31	97.3008
1355.55	164.174
1359.79	244.148
1364.02	161.266
1368.26	191.451
1372.49	232.725
1376.71	400.19
1380.94	296.332
1385.16	406.197
1389.38	476.207
1393.6	487.992
1397.81	414.572
1402.02	225.842
1406.23	91.7617
1410.44	77.9512
1414.64	164.41
1418.85	184.416
1423.04	498.455
1427.24	596.746
1431.43	1122.97
1435.62	1961.07
1439.81	2815.2
1444	3732.72
1448.18	4115.4
1452.36	4461.46
1456.54	4278.64
1460.71	3700.65
1464.89	2859.7
1469.06	2271.51
1473.22	1367.93
1477.39	1566.59
1481.55	1303.03
1485.71	1162.71
1489.86	686.193
1494.02	391.914
1498.17	58.8984
1502.32	9.26172
1506.46	50.8926
1510.61	218.471
1514.75	232.555
1518.88	394.098
1523.02	125.92
1527.15	378.307
1531.28	451.4
1535.41	344.537
1539.53	480.219
1543.66	288.385
1547.78	167.188
1551.89	401.715
1556.01	103.15
1560.12	4.79883
1564.23	287.514
1568.33	249.68
