Measurement: Raman, 514 nm, ccw, Raman Data Processed
Mineral: Albite
Rruff sample: R050253
Ideal chemistry: NaAlSi_3_O_8_
Locality: Madawaska/Faraday mine, Bancroft, Ontario, Canada
Source: Marcus Origlieri
Description: Colorless to brown prismatic single crystals
Measured chemistry: (Na_0.99_Ca_0.01_)Al_1.00_(Si_0.99_Al_0.01_)_3_O_8_
Pin_id: L01398
Orientation: Laser parallel to a* (1 0 0). Fiducial mark perpendicular to laser is parallel to b [0 1 0]
Raman shift (cm-1)	intensity
87.308	0
92.246	232.562
97.182	15.2393
102.116	1239.98
107.047	3698.3
111.976	4057.01
116.903	2333.43
121.827	731.618
126.749	499.207
131.668	957.751
136.585	2480.72
141.5	4467.72
146.412	5438.43
151.321	7676.38
156.229	12834.8
161.134	16980.8
166.036	14197.3
170.936	13455.2
175.834	14706.9
180.729	18118.2
185.622	17280.2
190.512	11818.5
195.4	8628.21
200.286	10454.5
205.169	13647.1
210.049	10773.1
214.928	4765.32
219.803	1912.68
224.677	1085.79
229.548	590.908
234.416	379.738
239.282	903.799
244.146	2460.12
249.007	2919.39
253.866	2011.87
258.722	1523.38
263.576	1651.12
268.427	2309.5
273.276	3174.1
278.123	7442.56
282.967	19433.6
287.809	30435.9
292.648	22607.2
297.485	9459.52
302.319	3648.2
307.151	2156.55
311.98	1637.46
316.807	1928.89
321.631	4942.85
326.454	7358.29
331.273	4481.2
336.09	1721.53
340.905	476.19
345.717	559.129
350.527	441.32
355.334	253.738
360.139	84.7988
364.941	105.518
369.741	85.8203
374.538	151.551
379.333	134.625
384.126	183.31
388.916	205.764
393.703	766.826
398.488	1511.59
403.271	2354.73
408.051	2491.25
412.828	1931.07
417.603	790.629
422.376	548.58
427.146	7.11133
431.914	120.598
436.679	104.611
441.442	130.348
446.202	435.223
450.96	881.248
455.715	1647.34
460.467	1874.57
465.218	3227.87
469.965	8332.32
474.711	17822.8
479.454	18101.2
484.194	8797.6
488.932	5749.98
493.667	7546.33
498.4	17782.7
503.13	36431.4
507.858	36677.5
512.583	16857.9
517.306	6675.7
522.026	3418.31
526.744	2342.03
531.459	1518.47
536.172	1070.1
540.882	666.805
545.59	671.852
550.295	695.137
554.998	448.043
559.698	534.506
564.396	677.756
569.091	1128.34
573.784	1792.82
578.474	1778.99
583.162	1030.2
587.847	423.711
592.529	298.334
597.209	397.305
601.887	563.283
606.562	550.736
611.235	627.438
615.905	960.457
620.572	888.508
625.237	1277.85
629.9	1867.42
634.56	1659.98
639.217	1643.5
643.872	2019.19
648.524	1718.33
653.174	900.998
657.821	621.338
662.466	503.361
667.108	491.619
671.748	631.074
676.385	446.356
681.02	274.428
685.652	125.244
690.281	37.6914
694.908	231.32
699.533	99.1797
704.155	76.0234
708.774	16.2383
713.391	55.1797
718.005	21.7852
722.617	137.137
727.226	208.873
731.833	173.156
736.437	83.6543
741.039	127.492
745.638	253.611
750.234	478.881
754.828	1138.59
759.419	2208.26
764.008	2551.85
768.595	1381
773.178	1162.1
777.759	1033.11
782.338	471.463
786.914	371.022
791.488	392.51
796.059	422.74
800.627	715.688
805.193	1721.27
809.756	3569.34
814.317	5140.23
818.875	3069.45
823.431	1285.71
827.984	761.564
832.534	574.383
837.082	365.84
841.627	243.332
846.17	132.244
850.71	398.916
855.248	259.894
859.783	304.984
864.316	148.799
868.846	215.639
873.373	10.043
877.898	108.756
882.42	56.3438
886.94	14.4512
891.457	48.5859
895.971	37.1816
900.483	75.5644
904.993	72.3047
909.5	199.326
914.004	174.656
918.505	64.6172
923.004	223.928
927.501	118.818
931.995	150.734
936.486	223.133
940.975	253.062
945.461	446.502
949.945	339.537
954.426	301.141
958.904	290.328
963.38	352.133
967.853	732.727
972.324	391.496
976.792	1047.66
981.258	838.766
985.72	834.189
990.181	954.951
994.639	750.951
999.094	1394.74
1003.55	3262.87
1008	7415.62
1012.44	3613.28
1016.89	1801.22
1021.33	1599.77
1025.77	2520.97
1030.21	3306.62
1034.64	2523.47
1039.07	1489.94
1043.5	934.488
1047.93	533.727
1052.35	448.957
1056.78	78.9297
1061.19	432.43
1065.61	440.656
1070.02	332.086
1074.43	748.039
1078.84	591.18
1083.25	1004.88
1087.65	1366.05
1092.05	2573.28
1096.45	4320.02
1100.85	4824.88
1105.24	3213.14
1109.63	3031.44
1114.02	2612.79
1118.4	2384.7
1122.78	2080.23
1127.16	1577.83
1131.54	797.551
1135.92	699.559
1140.29	728.691
1144.66	361.406
1149.02	166.473
1153.39	286.785
1157.75	243.398
1162.11	109.242
1166.46	262.703
1170.82	196.426
1175.17	74.3438
1179.52	101.477
1183.86	258.707
1188.21	183.836
1192.55	30.2109
1196.89	0.039063
1201.22	69.2461
1205.55	15.6836
1209.88	44.8203
1214.21	48.5938
1218.54	194.172
1222.86	107.812
1227.18	17.625
1231.5	143.535
1235.81	171.512
1240.12	217.574
1244.43	17.1758
1248.74	164.106
1253.04	330.473
1257.34	294.234
1261.64	697.644
1265.94	305.57
1270.23	668.019
1274.52	740.871
1278.81	792.66
1283.1	785.934
1287.38	895.996
1291.66	1139.47
1295.94	1171.82
1300.21	1204.58
1304.48	1385.18
1308.75	1583.46
1313.02	1729.87
1317.29	1614.68
1321.55	1523.59
1325.81	1644.43
1330.06	1391.49
1334.32	1047.41
1338.57	1128.02
1342.82	1292.61
1347.06	898.992
1351.31	1032.04
1355.55	830.758
1359.79	691.285
1364.02	520.273
1368.26	739.988
1372.49	406.254
1376.71	669.824
1380.94	346.969
1385.16	576.57
1389.38	138.293
1393.6	507.156
1397.81	359.246
1402.02	313.625
1406.23	199.523
1410.44	6.42578
1414.64	149.941
1418.85	292.426
1423.04	139.879
1427.24	509.894
1431.43	279.938
1435.62	88.6328
1439.81	215.438
1444	299.902
1448.18	34.8047
1452.36	3.49219
1456.54	21.1016
1460.71	158.246
1464.89	182.144
1469.06	262.367
1473.22	287.668
1477.39	98.1875
1481.55	114.812
1485.71	239.867
1489.86	133.082
1494.02	20.8359
1498.17	303.156
1502.32	224.535
1506.46	330.727
1510.61	282.074
1514.75	449.949
1518.88	148.242
1523.02	288.41
1527.15	181.894
1531.28	454.238
1535.41	433.277
1539.53	191.617
1543.66	196.863
1547.78	162.664
1551.89	373.504
1556.01	233.574
1560.12	373.301
1564.23	195.047
1568.33	154.758
