Measurement: Raman, 514 nm, ccw, Raman Data Processed
Mineral: Albite
Rruff sample: R040129
Ideal chemistry: NaAlSi_3_O_8_
Locality: LaChance Quarry, Brunswick, Cumberland County, Maine, USA
Source: Bob Downs
Description: Colorless fragment of a tabular single crystal
Measured chemistry: (Na_0.99_K_0.01_)Al_1.00_Si_3.00_O_8_
Pin_id: L00347
Orientation: Laser parallel to (-1 -1 0). Fiducial mark perpendicular to laser is parallel to -c [0 0 -1]
Raman shift (cm-1)	intensity
107.817	0
111.996	2193.6
116.172	1344.67
120.347	125.838
124.519	59.936
128.69	6.092
132.858	22.147
137.025	195.611
141.189	674.028
145.352	1091.66
149.512	1635.66
153.67	1724.44
157.827	3176.74
161.981	4381.81
166.133	2939.15
170.283	3370.85
174.431	2680.02
178.577	3500.41
182.721	4719.5
186.863	4398.59
191.003	2618.55
195.141	1740.79
199.277	1887.58
203.411	3446.8
207.543	6626.16
211.673	4265.74
215.801	1375.57
219.927	595.668
224.051	276.014
228.173	100.845
232.292	27.149
236.41	65.447
240.526	77.25
244.64	267.199
248.752	370.93
252.861	598.357
256.969	256.555
261.075	434.735
265.179	793.024
269.281	1091.8
273.38	739.262
277.478	841.296
281.574	1835.75
285.668	5261.02
289.76	9626.94
293.85	5315.22
297.937	1764.29
302.023	884.369
306.107	535.031
310.189	466.138
314.269	227.585
318.347	169.3
322.423	511.224
326.497	1693.31
330.569	1235.52
334.639	257.805
338.707	80.05
342.773	42.199
346.837	25.753
350.899	196.205
354.96	8.128
359.018	20.079
363.074	72.079
367.128	56.023
371.181	4.352
375.231	67.249
379.28	101.283
383.326	19.982
387.37	18.847
391.413	101.992
395.454	143.662
399.492	202.457
403.529	342.187
407.564	860.46
411.596	742.661
415.627	769
419.656	358
423.683	216.861
427.708	104.461
431.731	83.861
435.752	145.031
439.772	212.836
443.789	242.398
447.804	320.676
451.817	788.49
455.829	1476.41
459.838	1323.61
463.846	1540.72
467.852	2347.49
471.855	5854.06
475.857	15770.4
479.857	17627
483.855	6892.9
487.851	3468.55
491.845	2613.97
495.837	3089.14
499.828	6534.06
503.816	18416.6
507.802	24677.3
511.787	10474
515.77	4512.4
519.75	2668.58
523.729	1645.66
527.706	1308.61
531.681	795.117
535.654	792.047
539.625	567.137
543.595	726.217
547.562	461.289
551.527	1060.2
555.491	395.227
559.453	356.992
563.412	330.061
567.37	300.84
571.326	675.633
575.28	995.314
579.233	1024.99
583.183	762.951
587.131	313.871
591.078	289.666
595.022	376
598.965	380.646
602.906	386.703
606.845	183.996
610.782	390.99
614.718	437.709
618.651	344.16
622.582	320.371
626.512	506.307
630.44	531.969
634.366	497.391
638.29	402.537
642.212	757.412
646.132	952.025
650.05	966.375
653.967	760.465
657.882	254.301
661.794	187.898
665.705	201.283
669.614	294.389
673.522	137.15
677.427	19.363
681.331	41.143
685.232	72.74
689.132	34.09
693.03	145.061
696.926	14.229
700.82	173.793
704.713	56.229
708.603	95.896
712.492	63.453
716.379	32.1
720.264	150.506
724.147	51.307
728.028	256.477
731.908	255.795
735.785	106.188
739.661	232.023
743.535	349.391
747.407	436.383
751.278	640.105
755.146	867.027
759.013	1841.98
762.878	2897.69
766.741	1685.29
770.602	1061.2
774.461	922.334
778.319	578.531
782.174	244.787
786.028	403.328
789.88	579.68
793.73	535.271
797.579	191.451
801.425	47.416
805.27	893.348
809.113	1489.24
812.954	3155.11
816.794	2711.51
820.631	1313.59
824.467	596.986
828.301	506.596
832.133	576.424
835.963	369.531
839.792	302.789
843.618	191.822
847.443	294.535
851.266	219.182
855.088	620.379
858.907	374.541
862.725	405.662
866.541	197.928
870.355	242.973
874.167	88.084
877.978	479.033
881.787	376.527
885.594	46.26
889.399	59.18
893.202	177.535
897.004	255.289
900.803	403.221
904.601	81.531
908.398	10.043
912.192	1.219
915.985	277.736
919.776	46.902
923.565	476.271
927.352	55.797
931.138	235.506
934.922	24.434
938.704	165.824
942.484	516.264
946.262	506.93
950.039	337.809
953.814	178.883
957.587	100.146
961.359	341.596
965.128	413.252
968.896	585.139
972.662	557.301
976.427	419.73
980.189	142.482
983.95	375.705
987.709	109.242
991.467	233.088
995.222	307.377
998.976	552.066
1002.73	867.16
1006.48	559.535
1010.23	818.666
1013.97	1145.16
1017.72	1212.19
1021.46	749.547
1025.2	527.23
1028.94	525.957
1032.68	760.781
1036.42	459.381
1040.15	927.559
1043.89	927.109
1047.62	596.773
1051.35	409.498
1055.07	340.186
1058.8	691.232
1062.52	752.648
1066.25	894.775
1069.97	845.947
1073.69	757.861
1077.4	667.148
1081.12	889.281
1084.83	1291.27
1088.55	2061.08
1092.26	3082.73
1095.96	4724.83
1099.67	5444.44
1103.38	3803.12
1107.08	2650.7
1110.78	2672.55
1114.48	2743.36
1118.18	2286.23
1121.88	1739.64
1125.57	1153.59
1129.27	758.082
1132.96	619.285
1136.65	458.664
1140.34	334.719
1144.02	521.191
1147.71	1087.72
1151.39	844.695
1155.07	511.801
1158.75	79.152
1162.43	156.895
1166.11	205.121
1169.78	243.559
1173.45	622.418
1177.12	611.871
1180.79	592.199
1184.46	323.543
1188.13	225.789
1191.79	448.902
1195.45	182.895
1199.11	787.793
1202.77	643.684
1206.43	790.68
1210.09	888.996
1213.74	618.816
1217.39	381.898
1221.05	86.199
1224.69	799.23
1228.34	1171.61
1231.99	1090.85
1235.63	1080.46
1239.27	1114.65
1242.91	801.48
1246.55	190.914
1250.19	1.488
