Measurement: Raman, 514 nm, ccw, Raman Data Processed
Mineral: Albite
Rruff sample: R040068
Ideal chemistry: NaAlSi_3_O_8_
Locality: Harding Pegmatite, Dixon, New Mexico, USA
Source: University of Arizona Mineral Museum
Description: Tan colored crystal fragment
Measured chemistry: (Na_0.99_Ca_0.01_)Al_1.00_(Si_0.99_Al_0.01_)_3_O_8_
Pin_id: L00467
Orientation: Laser parallel to a* (1 0 0). Fiducial mark perpendicular to laser is parallel to -b [0 -1 0]
Raman shift (cm-1)	intensity
123.129	0
127.3	17.445
131.469	89.125
135.636	533.116
139.801	1613.11
143.964	3698.95
148.125	5898.96
152.284	4755.16
156.441	1624.16
160.596	903.606
164.749	1116.12
168.9	1763.4
173.049	2117.45
177.195	3029.93
181.34	4618.35
185.483	5469.19
189.624	4144.97
193.762	2561.26
197.899	2026.47
202.034	2880.85
206.166	4844.61
210.297	4618.19
214.425	2222.04
218.552	870.4
222.676	197.44
226.799	121.65
230.919	24.105
235.038	153.129
239.154	82.643
243.269	165.548
247.381	879.86
251.492	1214.09
255.6	884.549
259.707	598.033
263.811	1185.01
267.914	1730.95
272.014	1446.81
276.113	893.452
280.209	915.486
284.304	2361.6
288.396	4780.36
292.487	4384.74
296.575	2161.37
300.662	928.657
304.746	426.106
308.829	173.386
312.909	120.37
316.988	186.903
321.065	492.723
325.139	1477.91
329.212	1952.55
333.283	856.71
337.351	390.463
341.418	263.275
345.483	44.037
349.546	163.406
353.606	62.568
357.665	51.486
361.722	9.912
365.777	88.421
369.83	13.399
373.881	14.549
377.93	17.758
381.977	159.62
386.023	156.553
390.066	217.088
394.107	346.318
398.146	718.877
402.184	828.125
406.219	1426.64
410.252	1502.02
414.284	2506.8
418.313	1841.07
422.341	565.078
426.367	68.951
430.39	162.678
434.412	76.797
438.432	321.289
442.45	560.771
446.466	966.863
450.48	2431.49
454.492	4435.22
458.502	3896.07
462.51	2320.82
466.517	2102.73
470.521	3943.87
474.523	9953.72
478.524	15473.1
482.523	9413.85
486.519	4624.26
490.514	2774.4
494.507	3234.26
498.498	5598.42
502.487	14207.5
506.474	22754.7
510.459	14593
514.442	6419.04
518.424	3054.85
522.403	2611.11
526.381	1440.06
530.356	912.436
534.33	747.363
538.302	546.256
542.272	463.93
546.24	347.535
550.206	291.975
554.17	325.469
558.132	136.922
562.093	296.217
566.051	214.08
570.008	513.129
573.963	750.215
577.915	867.215
581.866	864.258
585.815	449.871
589.763	201.861
593.708	35.996
597.651	201.172
601.593	306.645
605.532	41.836
609.47	56.752
613.406	98.49
617.34	105.9
621.272	180.041
625.202	193.959
629.131	307.699
633.057	331.264
636.982	164.674
640.905	467.908
644.825	560.967
648.744	453.857
652.662	416.578
656.577	329.053
660.49	91.322
664.402	43.418
668.312	155.354
672.219	37.15
676.125	18.811
680.03	20.447
683.932	138.119
687.832	52.938
691.731	176.115
695.628	104.525
699.522	18.957
703.415	79.469
707.307	150.145
711.196	54.299
715.083	136.684
718.969	375.957
722.853	2.957
726.735	171.951
730.615	160.824
734.493	409.537
738.37	428.109
742.244	346.551
746.117	654.906
749.988	851.934
753.857	1629.73
757.724	3621.52
761.59	6975.8
765.453	5392.01
769.315	2409.73
773.175	1306
777.033	931.289
780.889	578.768
784.744	745.58
788.596	682.906
792.447	469.996
796.296	517.174
800.143	674.285
803.989	1481.33
807.832	2588.32
811.674	5760.68
815.514	6596.21
819.352	3901.38
823.189	1887.45
827.023	923.238
830.856	668.754
834.687	492.816
838.516	434.607
842.343	423.859
846.169	307.619
849.992	77.482
853.814	37.383
857.634	51.672
861.453	347.15
865.269	306.146
869.084	208.398
872.897	77.412
876.708	236.447
880.517	592.689
884.325	168.906
888.13	185.059
891.934	221.025
895.737	27.498
899.537	4.062
903.336	0.703
907.132	127.439
910.928	404.344
914.721	201.359
918.512	171.473
922.302	355.609
926.09	272.85
929.876	420.191
933.66	207.607
937.443	235.088
941.224	262.646
945.003	160.283
948.78	408.004
952.556	535.812
956.33	273.711
960.102	351.709
963.872	139.867
967.64	398.145
971.407	916.555
975.172	885.096
978.935	1283.77
982.697	843.381
986.456	333.857
990.214	113.098
993.971	302.627
997.725	462.389
1001.48	728.588
1005.23	808.797
1008.98	469.193
1012.73	251.391
1016.47	677.799
1020.22	665.938
1023.96	584.367
1027.7	294.133
1031.44	386.031
1035.17	348.109
1038.91	500.361
1042.64	862.854
1046.37	918.131
1050.1	801.07
1053.83	494.227
1057.56	848.465
1061.28	522.189
1065.01	458.475
1068.73	563.512
1072.45	566.174
1076.16	938.461
1079.88	769.998
1083.6	761.223
1087.31	872.936
1091.02	1245.42
1094.73	2178.16
1098.44	2601.15
1102.14	1924.41
1105.85	1257.95
1109.55	961.734
1113.25	805.742
1116.95	410.016
1120.65	254.68
1124.34	389.738
1128.04	565.473
1131.73	211.352
1135.42	417.473
1139.11	93.82
1142.79	130.316
1146.48	486.988
1150.16	643.812
1153.84	431.246
1157.52	579.113
1161.2	507.547
1164.88	96.559
1168.56	176.172
1172.23	193.57
1175.9	217.375
1179.57	309.047
1183.24	374.52
1186.9	317.195
1190.57	620.742
1194.23	385.309
1197.89	394.129
1201.55	40.168
1205.21	15.586
1208.87	262.957
1212.52	558.352
1216.18	604.277
1219.83	286.648
1223.48	454.945
1227.13	2.023
1230.77	0
