Measurement: Raman, 514 nm, ccw, Raman Data Processed
Mineral: Albite
Rruff sample: R050402
Ideal chemistry: NaAlSi_3_O_8_
Locality: Urbano mine, Golconda District, Brazil
Source: Bob Downs
Description: Colorless tabular single crystals associated with fluorapatite R050401
Measured chemistry: Na_1.00_Al_1.00_Si_3.00_O_8_
Pin_id: M00139
Orientation: Laser parallel to c* (0 0 1). Fiducial mark perpendicular to laser is parallel to a [1 0 0]
Raman shift (cm-1)	intensity
81.131	0
86.072	1155.89
91.012	2476.12
95.948	319.029
100.883	16.7612
105.815	570.239
110.744	2382.65
115.671	5685.46
120.596	2306.16
125.519	547.029
130.439	350.699
135.356	672.512
140.271	1831.74
145.184	4161.14
150.094	9231.78
155.002	9595.39
159.908	2181.75
164.811	2029.02
169.711	3694.97
174.61	5932.34
179.505	6067.36
184.399	8880.12
189.29	10068.6
194.178	6302.86
199.064	4550.71
203.948	5622.1
208.829	11069
213.708	10846.2
218.585	3211.29
223.459	1001.15
228.33	394.043
233.199	79.3931
238.066	102.114
242.93	64.1333
247.792	524.837
252.651	2367.43
257.508	1462.42
262.363	562.135
267.215	1277.21
272.064	2270.33
276.912	1344.27
281.756	1511.85
286.598	3884.95
291.438	10002.4
296.276	7398.24
301.111	2307.24
305.943	801.27
310.773	394.179
315.601	231
320.426	397.727
325.248	1427.34
330.068	4911.83
334.886	2480.16
339.701	617.32
344.514	259.277
349.324	159.013
354.132	56.5098
358.938	43.3516
363.741	166.915
368.541	96.9722
373.339	214.227
378.135	101.133
382.928	61.7861
387.718	54.1875
392.506	100.283
397.292	554.005
402.075	873.644
406.856	1656.3
411.634	2606.76
416.41	3839.14
421.183	2734.39
425.954	635.499
430.722	311.414
435.488	337.108
440.251	446.507
445.012	763.518
449.77	1675.14
454.526	4345.36
459.28	6525.19
464.03	3723.66
468.779	4103.97
473.525	8852.2
478.268	23315.4
483.009	23086.5
487.747	8003.92
492.483	4988.95
497.217	6217.08
501.948	13617.2
506.676	36166.5
511.402	36515.1
516.125	12784.2
520.846	5462.32
525.565	3194.08
530.281	2121.87
534.994	1405.09
539.705	1173.6
544.413	806.971
549.119	780.492
553.822	686.09
558.523	516.565
563.222	363.556
567.917	664.688
572.611	944.061
577.302	1533.52
581.99	1940.04
586.676	983.35
591.359	315.457
596.04	197.438
600.718	97.2686
605.394	69.9102
610.067	148.357
614.737	104.605
619.406	58.7129
624.071	296.671
628.734	449.534
633.395	301.272
638.053	499.876
642.708	588.531
647.361	1092.55
652.012	858.249
656.66	403.694
661.305	318.909
665.948	186.692
670.588	119.819
675.226	16.9893
679.861	28.3701
684.494	2.50098
689.124	32.5049
693.752	4.88574
698.377	52.1426
702.999	75.2549
707.619	40.7578
712.237	21.4092
716.852	96.6309
721.464	184.655
726.074	176.569
730.681	226.378
735.286	172.077
739.888	322.108
744.488	583.405
749.085	723.729
753.68	1547.46
758.272	3840.28
762.861	9221
767.448	8591.75
772.033	3087.69
776.614	1280.52
781.194	974.291
785.77	727.666
790.345	557.977
794.916	762.76
799.485	893.48
804.052	1539.69
808.616	3247.3
813.177	8227.97
817.736	11758.2
822.292	4807.15
826.846	1861.12
831.397	931.356
835.945	711.014
840.491	659.856
845.035	454.609
849.576	230.203
854.114	341.961
858.65	240.978
863.183	345.972
867.713	86.0566
872.241	10.3018
876.767	26.4111
881.29	109.125
885.81	67.8359
890.328	52.4404
894.843	131.178
899.356	126.754
903.866	30.2539
908.373	130.78
912.878	133.298
917.38	9.88086
921.88	57.5449
926.377	146.004
930.872	90.3477
935.364	98.6738
939.853	21.0215
944.34	178.423
948.824	24.9473
953.306	238.603
957.785	198.806
962.261	389.81
966.735	351.992
971.207	763.16
975.675	1418.25
980.141	2191.67
984.605	1268.34
989.066	605.283
993.524	289.337
997.98	411.501
1002.43	771.632
1006.88	544.707
1011.33	597.055
1015.78	356.69
1020.22	256.451
1024.66	336.528
1029.1	322.507
1033.53	413.159
1037.97	323.209
1042.4	463.639
1046.82	535.227
1051.25	593.594
1055.67	406.56
1060.09	139.928
1064.51	164.316
1068.92	132.995
1073.33	258.755
1077.74	245.341
1082.15	526.12
1086.55	671.081
1090.95	964.551
1095.35	1897.99
1099.75	2710.98
1104.14	2063.61
1108.53	1278.45
1112.92	895.585
1117.31	613.644
1121.69	593.81
1126.07	433.073
1130.45	370.434
1134.82	154.914
1139.19	5.70117
1143.57	116.439
1147.93	95.2627
1152.3	126.178
1156.66	56.1982
1161.02	109.415
1165.38	29.8027
1169.73	13.2832
1174.08	79.7695
1178.43	110.349
1182.78	37.1592
1187.12	58.7148
1191.46	65.1504
1195.8	13.4395
1200.14	47.0586
1204.47	192.733
1208.8	57.9619
1213.13	105.398
1217.46	123.412
1221.78	219.369
1226.1	39.8838
1230.42	174.03
1234.73	183.606
1239.04	347.313
1243.35	128.972
1247.66	144.783
1251.97	189.402
1256.27	188.037
1260.57	270.682
1264.86	147.414
1269.16	259.059
1273.45	351.834
1277.74	178.81
1282.03	189.807
1286.31	165.463
1290.59	189.022
1294.87	226.965
1299.14	185.065
1303.42	383.609
1307.69	389.109
1311.95	273.084
1316.22	190.367
1320.48	238.137
1324.74	105.406
1329	125.484
1333.26	173.998
1337.51	127.738
1341.76	216.666
1346	94.3887
1350.25	152.725
1354.49	248.603
1358.73	33.1426
1362.96	99.7793
1367.2	249.164
1371.43	207.107
1375.66	209.838
1379.88	182.004
1384.11	111.611
1388.33	114.43
1392.54	70.3223
1396.76	193.162
1400.97	59.8828
1405.18	145.881
1409.39	112.18
1413.59	64.1094
1417.8	19.6328
1421.99	108.564
1426.19	162.975
1430.38	146.736
1434.58	303.998
1438.77	240.938
1442.95	395.293
1447.13	128.422
1451.32	306.359
1455.49	202.678
1459.67	263.1
1463.84	274.633
1468.01	219.893
1472.18	175.156
1476.35	150.203
1480.51	269.404
1484.67	179.426
1488.83	102.025
1492.98	183.022
1497.13	31.0918
1501.28	57.6875
1505.43	47.2383
1509.57	237.775
1513.71	109.227
1517.85	51.7402
1521.99	240.869
1526.12	276.955
1530.25	186.344
1534.38	225.707
1538.5	250.803
1542.62	170.728
1546.74	69.7207
1550.86	202.057
1554.98	329.106
1559.09	226.596
1563.2	102.504
1567.31	0.515625
