Measurement: Raman, 514 nm, ccw, Raman Data Processed
Mineral: Albite
Rruff sample: R040129
Ideal chemistry: NaAlSi_3_O_8_
Locality: LaChance Quarry, Brunswick, Cumberland County, Maine, USA
Source: Bob Downs
Description: Colorless fragment of a tabular single crystal
Measured chemistry: (Na_0.99_K_0.01_)Al_1.00_Si_3.00_O_8_
Pin_id: L00331
Orientation: Laser parallel to (1 0 1). Fiducial mark perpendicular to laser is parallel to -b [0 -1 0]
Raman shift (cm-1)	intensity
118.956	0
123.129	83.167
127.3	41.179
131.469	22.589
135.636	163.925
139.801	733.555
143.964	1920.07
148.125	2901.09
152.284	3482.71
156.441	2899.08
160.596	5338.7
164.749	4800.57
168.9	3623.88
173.049	3368.2
177.195	3103.41
181.34	4497.63
185.483	6446.79
189.624	4910.39
193.762	2543.3
197.899	1735.53
202.034	1968.2
206.166	3839.66
210.297	5170.35
214.425	2250.56
218.552	910.446
222.676	350.062
226.799	119.436
230.919	148.659
235.038	2.141
239.154	121.824
243.269	107.587
247.381	389.617
251.492	966.339
255.6	535.692
259.707	429.745
263.811	871.483
267.914	1642.96
272.014	1444.66
276.113	884.903
280.209	1185.5
284.304	2425.56
288.396	7074.57
292.487	8556.81
296.575	3350.32
300.662	1385
304.746	690.283
308.829	615.956
312.909	521.872
316.988	217.888
321.065	303.903
325.139	949.861
329.212	2185.72
333.283	791.448
337.351	277.03
341.418	202.446
345.483	217.286
349.546	191.889
353.606	126.207
357.665	110.221
361.722	113.896
365.777	2.873
369.83	29.925
373.881	62.272
377.93	94.037
381.977	74.686
386.023	43.977
390.066	116.272
394.107	196.215
398.146	518.901
402.184	393.974
406.219	1338.44
410.252	1226.74
414.284	873.935
418.313	810.401
422.341	146.543
426.367	52.462
430.39	28.005
434.412	129.229
438.432	97.845
442.45	382.041
446.466	376.236
450.48	949.928
454.492	2043.74
458.502	2427.19
462.51	1300.42
466.517	1123.4
470.521	2116.14
474.523	5448.63
478.524	12640.9
482.523	7692.85
486.519	3354.56
490.514	2066.03
494.507	1957.24
498.498	2928.19
502.487	7048.84
506.474	18857
510.459	13557.2
514.442	5276.77
518.424	2445.63
522.403	1658.71
526.381	1281.67
530.356	854.687
534.33	712.755
538.302	384.624
542.272	432.238
546.24	417.445
550.206	326.945
554.17	26.978
558.132	54.533
562.093	323.101
566.051	340.737
570.008	338.258
573.963	285.646
577.915	602.654
581.866	809.393
585.815	448.623
589.763	235.461
593.708	97.162
597.651	208.812
601.593	134.555
605.532	101.5
609.47	233.205
613.406	248.18
617.34	251.189
621.272	357.625
625.202	304.027
629.131	351.354
633.057	456.682
636.982	382.932
640.905	539.139
644.825	545.305
648.744	541.506
652.662	467.674
656.577	343.814
660.49	429.938
664.402	35.904
668.312	201.791
672.219	157.672
676.125	223.561
680.03	379.529
683.932	14.316
687.832	21.934
691.731	18.438
695.628	295.23
699.522	264.033
703.415	156.334
707.307	136.209
711.196	80.143
715.083	374.473
718.969	471.537
722.853	135.742
726.735	103.57
730.615	120.84
734.493	608.074
738.37	519.275
742.244	356.523
746.117	190.387
749.988	598.127
753.857	896
757.724	1823.95
761.59	3231.78
765.453	2979.88
769.315	1369.22
773.175	1027.47
777.033	1177.67
780.889	656.775
784.744	375.281
788.596	353.873
792.447	502.551
796.296	451.32
800.143	455.195
803.989	814.146
807.832	953.191
811.674	2762.33
815.514	4481.57
819.352	2843.02
823.189	1132.45
827.023	531.996
830.856	301.645
834.687	411.398
838.516	529.805
842.343	410.293
846.169	272.135
849.992	37.287
853.814	43.154
857.634	253.646
861.453	506.145
865.269	456.748
869.084	232.74
872.897	146.369
876.708	154.713
880.517	526.021
884.325	367.432
888.13	419.277
891.934	90.896
895.737	137.408
899.537	34.227
903.336	285.967
907.132	457.961
910.928	490.135
914.721	162.422
918.512	35.096
922.302	297.459
926.09	420.117
929.876	612.859
933.66	245.648
937.443	258.559
941.224	91.582
945.003	54.709
948.78	507.938
952.556	661.223
956.33	394.514
960.102	287.906
963.872	261.391
967.64	134.967
971.407	508.748
975.172	922.617
978.935	1176.58
982.697	810.617
986.456	125.027
990.214	14.357
993.971	229.918
997.725	614.846
1001.48	947.59
1005.23	792.123
1008.98	461.674
1012.73	387.152
1016.47	674.146
1020.22	687.51
1023.96	899.461
1027.7	854.75
1031.44	919.91
1035.17	460.434
1038.91	326.012
1042.64	337.443
1046.37	676.695
1050.1	812.27
1053.83	598.242
1057.56	671.131
1061.28	197.586
1065.01	250.568
1068.73	505.383
1072.45	841.246
1076.16	1037.18
1079.88	1011.33
1083.6	766.719
1087.31	805.377
1091.02	1121.72
1094.73	2418.01
1098.44	3984.29
1102.14	3155.38
1105.85	2201.53
1109.55	1397.71
1113.25	1283.82
1116.95	879.305
1120.65	946.365
1124.34	952.1
1128.04	1027.94
1131.73	522.891
1135.42	468.398
1139.11	172.969
1142.79	142.479
1146.48	380.193
1150.16	514.381
1153.84	708.826
1157.52	672.883
1161.2	777.756
1164.88	146.342
1168.56	29.939
1172.23	444.854
1175.9	629.145
1179.57	82.355
1183.24	455.314
1186.9	520.801
1190.57	446.137
1194.23	327.648
1197.89	147.189
1201.55	232.832
1205.21	114.393
1208.87	231.514
1212.52	928.664
1216.18	875.92
1219.83	1223.15
1223.48	750.408
1227.13	377.865
1230.77	25.369
1234.42	332.918
1238.06	1020.54
1241.7	898.93
1245.34	991.131
1248.98	898.23
1252.62	804.414
1256.25	434.137
1259.88	253.699
1263.51	36.838
1267.14	362.602
1270.77	866.971
1274.4	1045.4
1278.02	816.197
1281.65	901.074
1285.27	461.072
1288.89	233.512
1292.51	250.279
1296.12	176.502
1299.74	321.943
1303.35	847.758
1306.96	869.541
1310.57	1283.74
1314.18	958.498
1317.79	918.434
1321.39	468.074
1324.99	329.842
1328.59	15.293
1332.19	334.42
1335.79	683.811
1339.39	799.357
1342.98	729.195
