Measurement: Raman, 514 nm, ccw, Raman Data Processed
Mineral: Albite
Rruff sample: R040129
Ideal chemistry: NaAlSi_3_O_8_
Locality: LaChance Quarry, Brunswick, Cumberland County, Maine, USA
Source: Bob Downs
Description: Colorless fragment of a tabular single crystal
Measured chemistry: (Na_0.99_K_0.01_)Al_1.00_Si_3.00_O_8_
Pin_id: M00199
Orientation: Laser parallel to (0 -1 -1). Fiducial mark perpendicular to laser is parallel to a [1 0 0]
Raman shift (cm-1)	intensity
106.312	0
110.507	1446.43
114.7	2796.64
118.891	1118.72
123.079	191.312
127.265	113.53
131.449	173.676
135.631	476.232
139.81	1441.87
143.988	3197.98
148.163	4905.67
152.336	4143.13
156.507	1661.22
160.675	1181.35
164.842	2009.1
169.006	3679.52
173.168	4505.62
177.328	3771.46
181.485	4637.48
185.641	5732.62
189.794	4896.96
193.945	3020.19
198.094	1960.86
202.241	2332.26
206.385	4617.62
210.528	5760.05
214.668	3207.57
218.806	1145.2
222.942	329.902
227.076	64.277
231.207	18.271
235.337	87.974
239.464	60.582
243.589	114.887
247.712	471.476
251.833	1017.97
255.951	847.783
260.068	889.434
264.182	1947.04
268.294	3742.6
272.404	3885.46
276.512	2348.97
280.618	1829.48
284.721	3059.86
288.823	7018.71
292.922	8925.89
297.019	4976.7
301.114	2086.11
305.207	969.952
309.298	582.061
313.387	452.338
317.473	208.72
321.558	151.16
325.64	307.626
329.72	652.09
333.798	376.501
337.874	114.567
341.948	73.313
346.019	46.861
350.089	28.189
354.156	1.302
358.222	22.225
362.285	5.181
366.346	44.979
370.405	9.314
374.462	57.527
378.516	65.348
382.569	58.539
386.62	7.956
390.668	100.326
394.714	239.416
398.759	507.203
402.801	652.908
406.841	1555.17
410.879	1775.37
414.915	2095.2
418.949	2379.92
422.98	926.538
427.01	446.052
431.037	414.459
435.063	333.779
439.086	538.086
443.108	767.317
447.127	1065.44
451.144	2534.63
455.159	6068.51
459.172	7362.39
463.183	4395.96
467.192	3389.49
471.198	5152.64
475.203	12425.6
479.206	25778.3
483.206	20060.9
487.205	8873.24
491.201	4565.38
495.196	3867.32
499.188	5319.05
503.178	12120.6
507.166	26770.2
511.153	24237.8
515.137	11169.4
519.119	5142.29
523.099	3105.33
527.077	2078.28
531.053	1389.16
535.027	1196.93
538.998	934.759
542.968	825.908
546.936	622.584
550.902	586.194
554.865	336.136
558.827	362.73
562.786	324.369
566.744	325.461
570.7	449.421
574.653	648.29
578.604	1087.08
582.554	1055.77
586.501	634.352
590.447	302.851
594.39	261.283
598.331	169.621
602.271	217.896
606.208	86.067
610.143	154.124
614.077	142.074
618.008	119.919
621.937	157.655
625.865	185.338
629.79	232.971
633.713	280.511
637.634	367.967
641.553	475.333
645.471	882.612
649.386	959.806
653.299	566.914
657.21	213.941
661.12	210.893
665.027	127.782
668.932	64.644
672.835	21.437
676.737	18.17
680.636	75.009
684.533	61.963
688.428	51.053
692.322	5.886
696.213	7.007
700.102	89.925
703.99	6.989
707.875	101.67
711.758	91.157
715.64	10.059
719.519	326.69
723.397	164.643
727.272	162.236
731.146	191.583
735.017	199.296
738.887	325.725
742.755	342.117
746.62	591.959
750.484	901.404
754.346	1591.41
758.206	3457.74
762.063	8253.89
765.919	9509.96
769.773	4636.47
773.625	2232.44
777.475	1432.06
781.323	942.087
785.169	698.182
789.013	635.259
792.856	591.321
796.696	587.59
800.534	683.628
804.371	1309.66
808.205	2185.68
812.037	5361.7
815.868	8927.72
819.697	5923.5
823.523	2549.5
827.348	1331.56
831.171	805.593
834.992	438.755
838.811	339.115
842.628	278.465
846.443	237.977
850.256	27.995
854.067	30.179
857.876	23.667
861.684	79.826
865.489	3.65
869.293	44.542
873.095	19.243
876.894	86.982
880.692	113.261
884.488	50.454
888.282	85.815
892.074	102.142
895.864	81.47
899.652	75.112
903.439	21.225
907.223	27.596
911.006	33.97
914.786	80.413
918.565	13.07
922.342	173.508
926.117	80.161
929.89	96.861
933.661	103.538
937.43	70.223
941.198	96.968
944.963	103.786
948.727	60.685
952.488	167.664
956.248	84.729
960.006	191.884
963.762	59.123
967.516	146.447
971.269	263.866
975.019	176.856
978.767	306.208
982.514	267.565
986.259	259.266
990.002	332.739
993.743	200.961
997.482	419.5
1001.22	708.448
1004.95	1017.74
1008.69	1067.25
1012.42	1266.89
1016.15	1436.44
1019.88	774.896
1023.6	566.534
1027.33	436.735
1031.05	656.887
1034.77	534.285
1038.49	495.34
1042.21	536.75
1045.92	714.653
1049.63	762.864
1053.35	564.327
1057.05	612.419
1060.76	424.35
1064.47	406.132
1068.17	347.641
1071.87	419.639
1075.57	521.699
1079.27	640.303
1082.97	768.403
1086.66	1350.67
1090.36	2032.03
1094.05	3604.85
1097.73	5687.1
1101.42	5199.7
1105.11	3302.66
1108.79	2325.26
1112.47	1697.95
1116.15	1210.62
1119.83	853.752
1123.51	776.703
1127.18	399.538
1130.86	212.435
1134.53	185.154
1138.19	228.531
1141.86	165.507
1145.53	287.364
1149.19	383.436
1152.85	318.125
1156.51	194.149
1160.17	269.057
1163.83	230.25
1167.48	142.756
1171.13	37.967
1174.78	0.211
1178.43	6.736
1182.08	158.132
1185.73	150.782
1189.37	304.986
1193.01	247.791
1196.65	254.18
1200.29	56.766
1203.93	53.398
1207.56	125.252
1211.19	266.6
1214.83	265.844
1218.45	167.256
1222.08	388.154
1225.71	250.711
1229.33	212.061
1232.95	253.947
1236.57	236.441
1240.19	236.723
1243.81	166.787
1247.42	296.908
1251.04	346.686
1254.65	386.523
1258.26	295.375
1261.87	104.326
1265.47	192.742
1269.08	221.047
1272.68	178.082
1276.28	259.422
1279.88	212.182
1283.47	84.439
1287.07	15.705
1290.66	51.387
1294.26	73.877
1297.85	18.303
1301.43	91.967
1305.02	134.42
1308.61	258.539
1312.19	280.367
1315.77	290.082
1319.35	220.865
1322.93	101.127
1326.5	101.562
1330.08	21.664
1333.65	81.162
1337.22	140.459
1340.79	159.613
1344.36	188.248
1347.92	256.621
1351.49	275.123
1355.05	404.461
1358.61	113.965
1362.17	226.166
1365.72	92.154
1369.28	107.805
1372.83	122.662
1376.38	47.105
1379.93	361.73
1383.48	415.576
1387.03	419.234
1390.57	492.859
1394.12	279.949
1397.66	328.609
1401.2	142.174
1404.73	67.352
1408.27	36.371
1411.8	166.723
1415.34	147.521
1418.87	147.49
1422.4	342.229
1425.92	75.539
1429.45	311.9
1432.97	251.766
1436.49	45.93
1440.02	235.939
1443.54	31.896
1447.05	35.506
1450.57	168.367
1454.08	150.666
1457.59	344.523
1461.1	427.58
1464.61	382.363
1468.12	409.324
1471.62	405.279
1475.13	370.32
1478.63	199.807
1482.13	91.24
1485.63	155.34
1489.12	193.828
1492.62	178.812
1496.11	345.154
1499.6	0
