Measurement: Raman, 514 nm, ccw, Raman Data Processed
Mineral: Albite
Rruff sample: R050402
Ideal chemistry: NaAlSi_3_O_8_
Locality: Urbano mine, Golconda District, Brazil
Source: Bob Downs
Description: Colorless tabular single crystals associated with fluorapatite R050401
Measured chemistry: Na_1.00_Al_1.00_Si_3.00_O_8_
Pin_id: M00139
Orientation: Laser parallel to c* (0 0 1). Fiducial mark perpendicular to laser is parallel to a [1 0 0]
Raman shift (cm-1)	intensity
81.131	0
86.072	2357.78
91.012	5116.18
95.948	610.727
100.883	66.5996
105.815	799.154
110.744	3040.05
115.671	6769.01
120.596	1767.88
125.519	68.8789
130.439	87.7598
135.356	23.3472
140.271	992.785
145.184	4267.74
150.094	6820.79
155.002	4427.58
159.908	2558.16
164.811	3901.96
169.711	5601.96
174.61	7094.97
179.505	7336.95
184.399	10702.1
189.29	11108.9
194.178	6971.68
199.064	5114.83
203.948	5189.26
208.829	8144.92
213.708	6202.76
218.585	1446.74
223.459	292.94
228.33	125.251
233.199	162.927
238.066	452.106
242.93	1439.28
247.792	4601.14
252.651	13403.5
257.508	7135.85
262.363	2824.38
267.215	4483.89
272.064	7604.16
276.912	5415.22
281.756	6487.47
286.598	15401.1
291.438	35507.2
296.276	22066.8
301.111	6878.65
305.943	2719.8
310.773	1678
315.601	1017.07
320.426	1369
325.248	3858.79
330.068	11553.4
334.886	4782.95
339.701	1318.28
344.514	582.429
349.324	578.376
354.132	290.114
358.938	67.626
363.741	24.1553
368.541	101.638
373.339	112.055
378.135	96.0322
382.928	187.629
387.718	30.1636
392.506	521.497
397.292	1700.64
402.075	2360.65
406.856	2526.52
411.634	3069.26
416.41	3110.91
421.183	1845.68
425.954	411.959
430.722	150.226
435.488	131.144
440.251	102.612
445.012	98.4814
449.77	324.797
454.526	530.206
459.28	972.155
464.03	1229.81
468.779	2408.16
473.525	6050.21
478.268	16945
483.009	15394.4
487.747	6170.59
492.483	4454.46
497.217	6807.04
501.948	16332.4
506.676	44678.5
511.402	40639.9
516.125	13373.1
520.846	6077.74
525.565	3077.03
530.281	1981.35
534.994	1333.33
539.705	1008.12
544.413	704.689
549.119	633.096
553.822	561.506
558.523	449.962
563.222	441.088
567.917	598.577
572.611	619.183
577.302	1263.16
581.99	1464.12
586.676	683.362
591.359	301.112
596.04	210.535
600.718	210.28
605.394	252.776
610.067	170.256
614.737	350.704
619.406	327.06
624.071	725.329
628.734	1348.52
633.395	2087.62
638.053	1786.65
642.708	1787.64
647.361	2375.71
652.012	1500.3
656.66	653.651
661.305	374.672
665.948	191.503
670.588	58.8579
675.226	29.2217
679.861	53.4805
684.494	36.4116
689.124	15.5361
693.752	28.9106
698.377	44.6768
702.999	97.0606
707.619	11.564
712.237	8.88623
716.852	130.867
721.464	84.8608
726.074	110.245
730.681	73.5884
735.286	38.9375
739.888	106.698
744.488	197.198
749.085	245.386
753.68	678.335
758.272	1633.23
762.861	3939.06
767.448	3521.84
772.033	1255.56
776.614	653.23
781.194	382.812
785.77	287.351
790.345	302.951
794.916	240.903
799.485	213.689
804.052	381.929
808.616	821.058
813.177	2103.06
817.736	2989.08
822.292	1326.66
826.846	534.916
831.397	510.853
835.945	156.433
840.491	261.898
845.035	203.487
849.576	158.417
854.114	15.0869
858.65	76.1963
863.183	55.4614
867.713	99.7173
872.241	159.178
876.767	0.195801
881.29	58.2817
885.81	40.21
890.328	33.0601
894.843	33.9233
899.356	14.8042
903.866	46.7051
908.373	91.6294
912.878	51.581
917.38	38.4898
921.88	2.6333
926.377	11.8687
930.872	30.1411
935.364	31.6148
939.853	184.502
944.34	75.5303
948.824	99.2158
953.306	266.878
957.785	237.324
962.261	371.978
966.735	449.832
971.207	1120.98
975.675	2230.57
980.141	3436.68
984.605	1818.99
989.066	760.722
993.524	629.573
997.98	380.206
1002.43	740.943
1006.88	1035.7
1011.33	1387.66
1015.78	1652.76
1020.22	1199.83
1024.66	1075.21
1029.1	1295.71
1033.53	1971.35
1037.97	1330.12
1042.4	593.019
1046.82	501.057
1051.25	321.397
1055.67	225.444
1060.09	254.476
1064.51	229.512
1068.92	171.136
1073.33	122.307
1077.74	198.343
1082.15	415.53
1086.55	617.12
1090.95	906.464
1095.35	1871.91
1099.75	2890.59
1104.14	2463.53
1108.53	1697.44
1112.92	1470.28
1117.31	1276.43
1121.69	1212.71
1126.07	747.141
1130.45	342.65
1134.82	364.274
1139.19	122.014
1143.57	114.867
1147.93	136.005
1152.3	200.464
1156.66	112.753
1161.02	166.25
1165.38	84.8516
1169.73	14.5527
1174.08	13.3232
1178.43	118.153
1182.78	45.082
1187.12	21.8945
1191.46	101.23
1195.8	45.3965
1200.14	45.4365
1204.47	26.4629
1208.8	81.5947
1213.13	66.4385
1217.46	11.21
1221.78	10.9355
1226.1	181.652
1230.42	32.7647
1234.73	30.7588
1239.04	33.3252
1243.35	122.989
1247.66	81.3584
1251.97	175.65
1256.27	145.061
1260.57	27.4648
1264.86	94.5713
1269.16	212.295
1273.45	69.3799
1277.74	183.622
1282.03	155.394
1286.31	163.815
1290.59	100.647
1294.87	261.783
1299.14	204.231
1303.42	235.004
1307.69	202.218
1311.95	252.366
1316.22	301.435
1320.48	90.4502
1324.74	98.626
1329	236.99
1333.26	85.1387
1337.51	113.99
1341.76	156.808
1346	62.3086
1350.25	161.442
1354.49	187.966
1358.73	136.423
1362.96	70.8496
1367.2	36.8779
1371.43	238.348
1375.66	11.8242
1379.88	183.114
1384.11	147.305
1388.33	196.238
1392.54	83.3926
1396.76	198.445
1400.97	75.9062
1405.18	24.0674
1409.39	202.477
1413.59	180.843
1417.8	63.669
1421.99	48.9258
1426.19	18.0547
1430.38	222.425
1434.58	257.538
1438.77	102.317
1442.95	229.379
1447.13	375.307
1451.32	368.334
1455.49	404.415
1459.67	305.865
1463.84	262.293
1468.01	179.036
1472.18	180.848
1476.35	309.253
1480.51	134.981
1484.67	217.936
1488.83	171.53
1492.98	39.9453
1497.13	32.0225
1501.28	108.047
1505.43	163.94
1509.57	119.917
1513.71	98.8633
1517.85	181.555
1521.99	273.981
1526.12	197.175
1530.25	118.117
1534.38	166.794
1538.5	149.377
1542.62	157.712
1546.74	173.999
1550.86	153.525
1554.98	251.028
1559.09	169.632
1563.2	49.7734
1567.31	45.4092
