Measurement: Raman, 514 nm, ccw, Raman Data Processed
Mineral: Albite
Rruff sample: R050402
Ideal chemistry: NaAlSi_3_O_8_
Locality: Urbano mine, Golconda District, Brazil
Source: Bob Downs
Description: Colorless tabular single crystals associated with fluorapatite R050401
Measured chemistry: Na_1.00_Al_1.00_Si_3.00_O_8_
Pin_id: M00068
Orientation: Laser parallel to a* (1 0 0). Fiducial mark perpendicular to laser is parallel to b [0 1 0]
Raman shift (cm-1)	intensity
86.072	0
91.012	11.479
95.948	61.1787
100.883	424.601
105.815	1317.89
110.744	4099.17
115.671	3942.23
120.596	1139.6
125.519	304.894
130.439	302.056
135.356	655.247
140.271	1427.31
145.184	1662.58
150.094	1825.46
155.002	1887.46
159.908	2606.72
164.811	3561.28
169.711	5213.91
174.61	3871.95
179.505	3776.41
184.399	4631.44
189.29	3869.51
194.178	2738.92
199.064	2406.1
203.948	4038.81
208.829	6595.01
213.708	3086.82
218.585	1061.06
223.459	391.365
228.33	193.234
233.199	176.168
238.066	82.8994
242.93	240.843
247.792	611.509
252.651	1088.63
257.508	739.714
262.363	635.451
267.215	1361.54
272.064	1340.84
276.912	1411.21
281.756	2282.08
286.598	5895.94
291.438	8418.96
296.276	3432.51
301.111	1335.21
305.943	574.463
310.773	461.938
315.601	313.919
320.426	651.495
325.248	1982.57
330.068	2548.14
334.886	628.304
339.701	219.106
344.514	200.339
349.324	164.879
354.132	42.3057
358.938	68.2002
363.741	66.3828
368.541	50.0635
373.339	4.71387
378.135	11.4609
382.928	39.6055
387.718	30.6191
392.506	230.688
397.292	199.428
402.075	590.93
406.856	1655.77
411.634	1013.6
416.41	1095.33
421.183	350.368
425.954	161.176
430.722	39.4307
435.488	92.4717
440.251	80.3369
445.012	348.216
449.77	432.731
454.526	1367.6
459.28	1167.92
464.03	1186.26
468.779	2286.39
473.525	5487.89
478.268	12022.9
483.009	6553.97
487.747	2619.62
492.483	1974.32
497.217	3629.78
501.948	9049.78
506.676	19174.8
511.402	10359.9
516.125	3618.02
520.846	1699.4
525.565	891.485
530.281	785.675
534.994	417.423
539.705	297.624
544.413	70.6397
549.119	200.528
553.822	301.743
558.523	62.0781
563.222	148.173
567.917	246.199
572.611	518.332
577.302	898.172
581.99	669.081
586.676	316.586
591.359	132.469
596.04	8.53125
600.718	35.6123
605.394	93.1973
610.067	79.4609
614.737	64.6914
619.406	37.3477
624.071	130.284
628.734	205.904
633.395	459.598
638.053	464.533
642.708	548.953
647.361	835.832
652.012	389.762
656.66	304.344
661.305	183.393
665.948	164.09
670.588	155.932
675.226	44.8594
679.861	92.9219
684.494	27.084
689.124	34.0156
693.752	50.9668
698.377	13.1973
702.999	2.29102
707.619	80.3125
712.237	191.961
716.852	225.603
721.464	253.459
726.074	237.459
730.681	93.3281
735.286	203.178
739.888	70.1797
744.488	78.1055
749.085	158.633
753.68	600.996
758.272	1568.42
762.861	2792.63
767.448	1795.7
772.033	835.311
776.614	537.268
781.194	529.029
785.77	273.818
790.345	247.445
794.916	534.141
799.485	401.533
804.052	655.066
808.616	1662.19
813.177	3751.11
817.736	3366.93
822.292	1282.33
826.846	588.887
831.397	366.818
835.945	257.978
840.491	580.307
845.035	307.639
849.576	149.25
854.114	123.143
858.65	265.457
863.183	150.006
867.713	8.1582
872.241	106.652
876.767	52.5723
881.29	137.584
885.81	131.74
890.328	174.315
894.843	32.8574
899.356	97.6856
903.866	97.75
908.373	101.01
912.878	84.334
917.38	304.525
921.88	364.695
926.377	17.5742
930.872	172.803
935.364	271.393
939.853	289.691
944.34	54.9043
948.824	114.492
953.306	120.506
957.785	308.019
962.261	659.168
966.735	736.012
971.207	573.898
975.675	623.945
980.141	800.381
984.605	255.647
989.066	383.748
993.524	326.074
997.98	373.588
1002.43	412.219
1006.88	518.691
1011.33	840.459
1015.78	816.387
1020.22	435.938
1024.66	128.738
1029.1	686.051
1033.53	221.129
1037.97	235.152
1042.4	229.406
1046.82	221.715
1051.25	44.4492
1055.67	89.8398
1060.09	100.211
1064.51	189.168
1068.92	7.85938
1073.33	291.328
1077.74	373.727
1082.15	459.68
1086.55	831.586
1090.95	1016.95
1095.35	1734.11
1099.75	2164.31
1104.14	1649.65
1108.53	885.106
1112.92	967.719
1117.31	958.5
1121.69	934.602
1126.07	366.957
1130.45	77.5859
1134.82	62.5625
1139.19	212.477
1143.57	79.7773
1147.93	169.332
1152.3	234.273
1156.66	92.7266
1161.02	122.356
1165.38	188.613
1169.73	42.8867
1174.08	130.481
1178.43	38.4062
1182.78	40.3398
1187.12	167.441
1191.46	92.5664
1195.8	144.492
1200.14	248.352
1204.47	118.992
1208.8	258.684
1213.13	355.727
1217.46	96.8047
1221.78	31.9297
1226.1	50.9727
1230.42	329.422
1234.73	100.18
1239.04	365.309
1243.35	139.809
1247.66	328.766
1251.97	359.133
1256.27	124.547
1260.57	382.996
1264.86	42.043
1269.16	303.926
1273.45	326.191
1277.74	393.031
1282.03	257.316
1286.31	192.719
1290.59	430.606
1294.87	88.0117
1299.14	258.809
1303.42	505.559
1307.69	54.8711
1311.95	215.477
1316.22	204.734
1320.48	189.293
1324.74	357.129
1329	334.984
1333.26	9.47656
1337.51	363.125
1341.76	232.562
1346	285.684
1350.25	131.617
1354.49	422.391
1358.73	449.59
1362.96	242.117
1367.2	255.352
1371.43	294.023
1375.66	316.594
1379.88	300.828
1384.11	162.371
1388.33	323.344
1392.54	219.512
1396.76	308.953
1400.97	287.078
1405.18	314.375
1409.39	101.461
1413.59	404.832
1417.8	199.93
1421.99	216.324
1426.19	413.348
1430.38	135.91
1434.58	361.34
1438.77	426.273
1442.95	396.582
1447.13	405.809
1451.32	333.438
1455.49	568.352
1459.67	19.1836
1463.84	448.879
1468.01	128.461
1472.18	291.504
1476.35	423.727
1480.51	4.38281
1484.67	244.488
1488.83	192.652
1492.98	334.082
1497.13	82.3203
1501.28	354.125
1505.43	284.019
1509.57	111.535
1513.71	416.406
1517.85	485.894
1521.99	454.699
1526.12	169.66
1530.25	338.762
1534.38	275.512
1538.5	47.9062
1542.62	402.914
1546.74	179.992
1550.86	298.856
1554.98	65.4023
1559.09	290.875
1563.2	304.988
1567.31	56.3203
