Measurement: Raman, 514 nm, ccw, Raman Data Processed
Mineral: Albite
Rruff sample: R050253
Ideal chemistry: NaAlSi_3_O_8_
Locality: Madawaska/Faraday mine, Bancroft, Ontario, Canada
Source: Marcus Origlieri
Description: Colorless to brown prismatic single crystals
Measured chemistry: (Na_0.99_Ca_0.01_)Al_1.00_(Si_0.99_Al_0.01_)_3_O_8_
Pin_id: L01398
Orientation: Laser parallel to a* (1 0 0). Fiducial mark perpendicular to laser is parallel to b [0 1 0]
Raman shift (cm-1)	intensity
87.308	0
92.246	212.636
97.182	125.593
102.116	1512.86
107.047	4986.07
111.976	6460.2
116.903	2667.52
121.827	658.581
126.749	347.467
131.668	775.402
136.585	1759.4
141.5	3881.29
146.412	5262.75
151.321	7251.62
156.229	10265.9
161.134	12309.8
166.036	10477.1
170.936	9563.74
175.834	9899.64
180.729	11627.3
185.622	10533
190.512	7502.83
195.4	6295.48
200.286	7764.1
205.169	9669.61
210.049	6283.95
214.928	2269.07
219.803	1049.89
224.677	565.013
229.548	250.436
234.416	454.16
239.282	916.702
244.146	3190.26
249.007	5165.98
253.866	3102.81
258.722	1834.75
263.576	2826.14
268.427	3718.5
273.276	3620.48
278.123	6326.77
282.967	15394.2
287.809	23182.1
292.648	14828.7
297.485	6252.65
302.319	2660.05
307.151	1554.74
311.98	1345.65
316.807	1550.79
321.631	4484.14
326.454	7338.7
331.273	3316.45
336.09	1038.37
340.905	364.394
345.717	166.507
350.527	85.6856
355.334	86.0547
360.139	240.37
364.941	2.27344
369.741	4.375
374.538	160.565
379.333	7.94336
384.126	104.836
388.916	472.873
393.703	1146.9
398.488	2389.16
403.271	4126.67
408.051	4497.39
412.828	3205.27
417.603	1739.39
422.376	479.641
427.146	155.096
431.914	44.2754
436.679	4.6875
441.442	179.812
446.202	296.863
450.96	781.844
455.715	944.986
460.467	1194.11
465.218	2475.32
469.965	7247.68
474.711	14467
479.454	13128.1
484.194	6048.23
488.932	4229.23
493.667	5997.13
498.4	15320.9
503.13	30865.8
507.858	27737.1
512.583	11623
517.306	4799.15
522.026	2375.34
526.744	1625.14
531.459	939.025
536.172	661.986
540.882	427.019
545.59	572.334
550.295	258.648
554.998	289.94
559.698	326.397
564.396	235.047
569.091	948.031
573.784	1212.62
578.474	1212.66
583.162	677.787
587.847	350.422
592.529	3.9668
597.209	324.035
601.887	453.227
606.562	624.668
611.235	645.957
615.905	506.394
620.572	655.025
625.237	1123.7
629.9	1262.48
634.56	1171.4
639.217	1286.39
643.872	1814.74
648.524	1406.96
653.174	754.84
657.821	418.457
662.466	524.941
667.108	439.223
671.748	515.504
676.385	217.625
681.02	74.5762
685.652	96.0879
690.281	108.289
694.908	30.793
699.533	43.4375
704.155	143.111
708.774	55.6348
713.391	79.6367
718.005	210.791
722.617	355.018
727.226	92.4688
731.833	129.133
736.437	149.051
741.039	277.082
745.638	214.348
750.234	462.246
754.828	1314.2
759.419	2772.51
764.008	2719.81
768.595	1347.64
773.178	920.092
777.759	485.748
782.338	486.242
786.914	330.412
791.488	366.545
796.059	209.166
800.627	533.617
805.193	1212.04
809.756	2831.92
814.317	3929.95
818.875	1959.36
823.431	832.488
827.984	539.107
832.534	361.147
837.082	441.103
841.627	387.434
846.17	100.924
850.71	143.756
855.248	192.092
859.783	278.977
864.316	9.52539
868.846	57.3379
873.373	266.57
877.898	118.406
882.42	41.6621
886.94	19.3613
891.457	79.5215
895.971	42.5137
900.483	209.853
904.993	13.7715
909.5	241.775
914.004	248.047
918.505	227.797
923.004	181.982
927.501	7.51758
931.995	193.748
936.486	138.016
940.975	172.815
945.461	335.129
949.945	293.984
954.426	335.402
958.904	520.623
963.38	304.465
967.853	816.891
972.324	982.15
976.792	1608.53
981.258	1187.7
985.72	582.576
990.181	853.865
994.639	811.688
999.094	1247.1
1003.55	3272.75
1008	6877.79
1012.44	3351.14
1016.89	1813.47
1021.33	1472.41
1025.77	1882.75
1030.21	2547.87
1034.64	1909.37
1039.07	860.5
1043.5	694.572
1047.93	423.316
1052.35	526.17
1056.78	411.051
1061.19	372.68
1065.61	273.6
1070.02	429.848
1074.43	562.752
1078.84	581.57
1083.25	1129.45
1087.65	1320.66
1092.05	2308.35
1096.45	4136.19
1100.85	3864.06
1105.24	2951.1
1109.63	2096.8
1114.02	2181.8
1118.4	2033.89
1122.78	1507.09
1127.16	1037.39
1131.54	863.848
1135.92	662.488
1140.29	542.32
1144.66	360.422
1149.02	406.971
1153.39	308.875
1157.75	51.0605
1162.11	266.537
1166.46	100.277
1170.82	18.6367
1175.17	160.475
1179.52	3.57227
1183.86	111.564
1188.21	135.182
1192.55	52.0664
1196.89	21.6016
1201.22	156.19
1205.55	50.8535
1209.88	37.6875
1214.21	95.8438
1218.54	85.832
1222.86	119.424
1227.18	293.055
1231.5	104.299
1235.81	268.027
1240.12	306.834
1244.43	197.941
1248.74	372.236
1253.04	431.648
1257.34	502.148
1261.64	450.699
1265.94	428.262
1270.23	783.047
1274.52	683.727
1278.81	786.191
1283.1	870.406
1287.38	1002.37
1291.66	1230.08
1295.94	1268.48
1300.21	1543.19
1304.48	1444.91
1308.75	1730.15
1313.02	1750.52
1317.29	1747.61
1321.55	1580.36
1325.81	1635.83
1330.06	1545.23
1334.32	1590.76
1338.57	1393.29
1342.82	1177.18
1347.06	1195.22
1351.31	940.75
1355.55	859.066
1359.79	721.957
1364.02	684.07
1368.26	758.168
1372.49	752.871
1376.71	538.41
1380.94	494.059
1385.16	434.781
1389.38	499.555
1393.6	410.156
1397.81	164.242
1402.02	470.203
1406.23	461.211
1410.44	268.199
1414.64	166.188
1418.85	353.816
1423.04	106.258
1427.24	273.57
1431.43	252.387
1435.62	105.371
1439.81	111.231
1444	47.8984
1448.18	97.7461
1452.36	151.992
1456.54	251.277
1460.71	139.691
1464.89	104.191
1469.06	80.1172
1473.22	218.394
1477.39	242.91
1481.55	28.2031
1485.71	273.168
1489.86	396.184
1494.02	21.2734
1498.17	165.859
1502.32	50.6172
1506.46	347.738
1510.61	425.969
1514.75	364.188
1518.88	299.156
1523.02	405.461
1527.15	385.297
1531.28	637.875
1535.41	266.91
1539.53	448.328
1543.66	119.25
1547.78	256.332
1551.89	387.59
1556.01	300.098
1560.12	242.707
1564.23	124.988
1568.33	10.6289
