Measurement: Raman, 514 nm, ccw, Raman Data Processed
Mineral: Albite
Rruff sample: R050402
Ideal chemistry: NaAlSi_3_O_8_
Locality: Urbano mine, Golconda District, Brazil
Source: Bob Downs
Description: Colorless tabular single crystals associated with fluorapatite R050401
Measured chemistry: Na_1.00_Al_1.00_Si_3.00_O_8_
Pin_id: M00107
Orientation: Laser parallel to b* (0 1 0). Fiducial mark perpendicular to laser is parallel to c [0 0 1]
Raman shift (cm-1)	intensity
73.714	0
78.659	1219.14
83.602	3803.44
88.542	4060.14
93.48	1086.57
98.416	479.103
103.349	2615.35
108.28	5707.11
113.208	6672.27
118.134	3220.84
123.058	158.288
127.979	243.713
132.898	688.883
137.814	3683.62
142.728	6700.33
147.639	9439.13
152.549	11724.9
157.455	14858.7
162.359	19837.6
167.261	18763
172.161	19471.1
177.058	21724.6
181.952	24919.3
186.845	23460.2
191.734	15190.7
196.622	10992.6
201.507	14001
206.389	15143.6
211.269	12576.3
216.147	4319.25
221.022	1094.8
225.895	83.0181
230.765	164.381
235.633	134.644
240.498	729.275
245.361	2543.41
250.222	4001.19
255.08	3554.94
259.936	2847.37
264.789	3131.98
269.64	4395.45
274.488	5695.61
279.334	13463.2
284.178	29205.7
289.019	38752.7
293.857	29287.3
298.693	10347.6
303.527	3854.7
308.358	2061.53
313.187	1595.1
318.013	2890.4
322.837	6651.4
327.659	9465.06
332.478	6342.35
337.294	1947.24
342.108	1026.72
346.92	940.752
351.729	583.328
356.535	163.43
361.34	25.4883
366.141	127.126
370.94	206.322
375.737	300.856
380.531	166.37
385.323	67.8169
390.113	498.154
394.9	1377.7
399.684	2743.99
404.466	3077.84
409.245	3051.35
414.022	1531.63
418.797	981.909
423.569	239.205
428.338	121.069
433.105	154.027
437.87	443.205
442.632	787.74
447.391	2031.65
452.149	3610.95
456.903	4447.62
461.655	4014.68
466.405	6428.12
471.152	16664
475.897	26517.2
480.639	24875.8
485.378	11575.8
490.116	7629.11
494.85	12406.1
499.582	33185.3
504.312	52359.6
509.039	49460.3
513.764	20662.3
518.486	8276.31
523.206	4412.2
527.923	2738
532.638	1963.81
537.35	1455.92
542.059	1087.52
546.766	938.739
551.471	823.608
556.173	643.511
560.873	752.819
565.57	863.012
570.264	1409.99
574.957	2221.31
579.646	2378.31
584.333	1377.74
589.018	547.801
593.7	430.175
598.379	199.367
603.056	295.387
607.73	336.327
612.402	260.167
617.072	499.848
621.739	951.426
626.403	1683.88
631.065	2331.16
635.724	2229.26
640.381	2268.18
645.035	2639.1
649.687	2059.62
654.336	899.111
658.983	473.784
663.627	201.733
668.268	107.555
672.907	31.4038
677.544	5.76807
682.178	49.377
686.809	53.8003
691.438	90.5747
696.065	128.247
700.688	116.993
705.31	3.8916
709.929	100.665
714.545	288.14
719.158	353.514
723.77	336.753
728.378	212.857
732.984	188.923
737.588	269.73
742.189	347.035
746.787	597.174
751.383	1273.69
755.976	3214.28
760.567	5779.03
765.155	5516.41
769.741	2820.3
774.324	1800.92
778.904	1176.56
783.482	692.134
788.058	498.509
792.631	571.736
797.201	1341.29
801.769	1382.18
806.334	3528.07
810.897	7646.15
815.457	8792.37
820.014	4477.14
824.569	1753.02
829.122	944.438
833.671	650.392
838.219	368.66
842.763	290.872
847.306	202.43
851.845	124.989
856.382	94.3706
860.917	95.7305
865.448	93.0752
869.978	52.6743
874.505	94.4224
879.029	98.6704
883.55	107.074
888.069	55.7139
892.586	25.4673
897.1	20.4126
901.611	74.5454
906.12	20.4956
910.626	129.479
915.129	27.4824
919.63	71.6562
924.129	80.9463
928.625	60.6782
933.118	109.731
937.609	116.271
942.097	165.01
946.582	261.326
951.065	296.27
955.546	433.904
960.023	584.835
964.499	973.2
968.971	1791.14
973.441	3476.76
977.909	4135.01
982.374	2658.63
986.836	1193.44
991.295	873.429
995.753	928.591
1000.21	1218.94
1004.66	1743.53
1009.11	1596.21
1013.55	1420.71
1018	1384.12
1022.44	1773.67
1026.88	3191.63
1031.32	4637.17
1035.75	3428.84
1040.18	1896.31
1044.61	1153.88
1049.04	796.878
1053.46	597.637
1057.88	377.943
1062.3	473.572
1066.71	540.683
1071.13	521.606
1075.54	630.246
1079.94	907.802
1084.35	1476.55
1088.75	2602.49
1093.15	5134.11
1097.55	7689.85
1101.94	6756.96
1106.34	4650.72
1110.73	3619.64
1115.11	3201.71
1119.5	2561.18
1123.88	1708.59
1128.26	1023.13
1132.63	621.871
1137.01	328.105
1141.38	284.173
1145.75	332.73
1150.12	694.393
1154.48	563.365
1158.84	386.57
1163.2	99.9951
1167.55	81.6313
1171.91	165.404
1176.26	8.73193
1180.61	38.8047
1184.95	39.9697
1189.29	84.7178
1193.63	47.5073
1197.97	88.2754
1202.31	32.7734
1206.64	10.3496
1210.97	26.5347
1215.29	14.2476
1219.62	21.6289
1223.94	48.5127
1228.26	113.544
1232.57	74.4902
1236.89	101.335
1241.2	76.4199
1245.51	115.934
1249.81	188.204
1254.12	61.3227
1258.42	31.1133
1262.72	6.67041
1267.01	149.717
1271.3	159.235
1275.59	149.133
1279.88	154.139
1284.17	159.718
1288.45	91.0039
1292.73	163.478
1297.01	215.957
1301.28	196.786
1305.55	186.52
1309.82	207.335
1314.09	327.79
1318.35	217.059
1322.61	312.265
1326.87	50.2905
1331.13	91.4741
1335.38	2.36035
1339.63	147.603
1343.88	43.7227
1348.12	176.116
1352.37	122.658
1356.61	75.8486
1360.85	161.159
1365.08	197.9
1369.31	116.357
1373.54	57.5967
1377.77	73.7197
1381.99	52.3594
1386.22	76.166
1390.43	56.4629
1394.65	108.661
1398.87	96.4873
1403.08	37.7617
1407.29	86.2891
1411.49	135.636
1415.69	99.1807
1419.89	48.4219
1424.09	161.247
1428.29	104.976
1432.48	140.16
1436.67	211.353
1440.86	294.201
1445.04	396.576
1449.23	376.827
1453.4	458.749
1457.58	476.809
1461.76	310.85
1465.93	223.591
1470.1	303.178
1474.26	278.248
1478.43	239.7
1482.59	180.715
1486.75	128.626
1490.9	162.897
1495.06	132.393
1499.21	141.246
1503.35	43.6309
1507.5	132.453
1511.64	157.226
1515.78	67.7334
1519.92	202.966
1524.05	127.692
1528.18	184.06
1532.31	142.009
1536.44	106.978
1540.56	174.542
1544.69	141.061
1548.8	81.9981
1552.92	207.57
1557.03	155.216
1561.14	46.9844
1565.25	93.4668
1569.36	0.496094
