Measurement: Raman, 514 nm, ccw, Raman Data Processed
Mineral: Albite
Rruff sample: R040129
Ideal chemistry: NaAlSi_3_O_8_
Locality: LaChance Quarry, Brunswick, Cumberland County, Maine, USA
Source: Bob Downs
Description: Colorless fragment of a tabular single crystal
Measured chemistry: (Na_0.99_K_0.01_)Al_1.00_Si_3.00_O_8_
Pin_id: L00089
Orientation: Laser parallel to c* (0 0 1). Fiducial mark perpendicular to laser is parallel to -a [-1 0 0]
Raman shift (cm-1)	intensity
130.08	0
134.248	23.982
138.413	275.376
142.577	1321.01
146.739	2951.66
150.898	3177.63
155.056	1948.34
159.212	3938.09
163.365	5459.07
167.517	3408.58
171.666	4599.65
175.813	3452
179.959	4769.4
184.102	7374.02
188.244	7036.65
192.383	3715.54
196.52	2229.23
200.656	1963.18
204.789	3551.99
208.92	6680.55
213.049	3161.52
217.176	999.792
221.302	378.754
225.425	66.705
229.546	119.042
233.665	163.55
237.782	93.225
241.898	143.736
246.011	163.181
250.122	1098.92
254.231	1072.93
258.338	298.381
262.443	432.599
266.546	1272.52
270.647	1889.98
274.747	1004.02
278.844	1114.9
282.939	2301.62
287.032	6540.29
291.123	12227.5
295.212	5830.22
299.3	1993.82
303.385	822.114
307.468	520.678
311.549	355.067
315.629	241.313
319.706	221.885
323.781	639.178
327.855	3145.04
331.926	1899.71
335.995	430.405
340.063	224.239
344.128	239.412
348.192	312.459
352.253	191.066
356.313	55.432
360.37	57.45
364.426	216.08
368.479	22.324
372.531	1.069
376.581	15.084
380.629	46.616
384.674	77.243
388.718	15.597
392.76	141.121
396.8	414.262
400.838	533.001
404.874	665.713
408.908	1387.78
412.94	564.683
416.97	1058.38
420.999	148.56
425.025	6.542
429.049	8.129
433.072	2.454
437.092	10.789
441.111	93.23
445.127	261.239
449.142	523.155
453.155	1377.06
457.166	2710.84
461.175	1502.89
465.181	1145.61
469.186	1608.97
473.19	3670.52
477.191	11336
481.19	10804.8
485.187	3697.01
489.183	1930.66
493.176	1843
497.168	2632.93
501.157	5454.24
505.145	15760.7
509.131	19698.2
513.115	7786.25
517.097	3428.36
521.077	1776.24
525.055	1229.85
529.031	960.424
533.006	737.822
536.978	543.361
540.949	418.197
544.917	288.349
548.884	424.833
552.849	332.36
556.812	204.922
560.773	95.112
564.732	261.971
568.689	364.326
572.644	408.704
576.598	647.037
580.55	874.958
584.499	544.672
588.447	252.979
592.393	163.64
596.337	80.338
600.279	111.472
604.219	109.569
608.158	89.605
612.094	61.537
616.029	129.341
619.962	141.021
623.892	257.58
627.821	365.022
631.749	522.352
635.674	479.591
639.597	485.754
643.519	659.832
647.438	817.808
651.356	422.684
655.272	229.465
659.186	212.163
663.098	108.804
667.009	106.38
670.917	13.866
674.824	30.285
678.728	54.69
682.631	42.943
686.532	36.85
690.432	67.868
694.329	28.003
698.224	3.759
702.118	35.56
706.01	13.953
709.9	10.542
713.788	55.094
717.674	150.665
721.558	228.545
725.441	140.731
729.322	70.191
733.201	47.921
737.078	92.309
740.953	132.421
744.826	256.731
748.698	342.909
752.567	467.883
756.435	951.736
760.301	2632.56
764.165	4050.07
768.028	1863.42
771.888	935.94
775.747	662.554
779.604	553.073
783.459	341.5
787.312	292.835
791.164	250.082
795.013	251.241
798.861	356.312
802.707	485.298
806.551	915.201
810.394	2133.02
814.234	4615.76
818.073	3406.38
821.91	1359.64
825.745	666.369
829.578	427.825
833.41	277.329
837.24	142.134
841.068	177.381
844.894	239.217
848.718	136.275
852.54	138.747
856.361	59.031
860.18	85.505
863.997	32.567
867.812	27.449
871.626	1.702
875.438	97.733
879.248	33.712
883.056	60.096
886.862	16.398
890.667	90.019
894.469	63.807
898.27	82.588
902.07	56.341
905.867	59.081
909.663	86.811
913.457	79.534
917.249	48.275
921.039	59.006
924.827	74.728
928.614	79.451
932.399	102.177
936.182	164.909
939.964	96.65
943.744	154.401
947.521	78.166
951.298	108.942
955.072	159.734
958.845	309.543
962.615	356.375
966.384	308.228
970.152	403.106
973.917	925.016
977.681	1567.97
981.443	1146.32
985.203	621.028
988.962	303.209
992.719	140.361
996.474	142.768
1000.23	441.293
1003.98	811.945
1007.73	804.682
1011.48	663.539
1015.22	646.617
1018.97	462.565
1022.71	492.384
1026.45	731.174
1030.19	1183.1
1033.93	1242.2
1037.66	671.914
1041.4	451.644
1045.13	403.95
1048.86	366.9
1052.59	388.01
1056.32	201.236
1060.04	301.583
1063.77	243.037
1067.49	218.689
1071.21	233.217
1074.93	285.902
1078.64	387.648
1082.36	554.654
1086.07	1099.71
1089.78	1248.7
1093.49	1572.85
1097.2	2549.95
1100.91	2684.13
1104.61	1917.37
1108.32	1385.8
1112.02	1085.16
1115.72	1000.58
1119.41	739.35
1123.11	816.899
1126.8	301.473
1130.5	270.242
1134.19	234.041
1137.88	280.772
1141.56	157.943
1145.25	87.157
1148.93	165.305
1152.62	235.453
1156.3	213.497
1159.98	159.726
1163.65	286.916
1167.33	148.54
1171	78.875
1174.68	91.562
1178.35	327.165
1182.02	43.748
1185.68	21.222
1189.35	89.546
1193.01	51.3
1196.67	103.275
1200.33	157.437
1203.99	108.137
1207.65	26.869
1211.31	39.682
1214.96	89.117
1218.61	119.138
1222.26	159.284
1225.91	256.143
1229.56	162.301
1233.2	128.706
1236.85	44.841
1240.49	79.557
1244.13	78.672
1247.77	189.412
1251.4	214.803
1255.04	225.286
1258.67	260.323
1262.3	491.822
1265.93	91.033
1269.56	158.747
1273.19	76.17
1276.82	141.487
1280.44	204.489
1284.06	169.239
1287.68	169.623
1291.3	177.545
1294.92	123.305
1298.53	115.726
1302.14	73.991
1305.76	26.908
1309.37	6.635
1312.98	30.298
1316.58	154.737
1320.19	207.538
1323.79	189.54
1327.39	159.896
1330.99	159.195
1334.59	27.68
1338.19	1.892
1341.79	43.566
1345.38	89.768
1348.97	52.033
1352.56	163.861
1356.15	112.542
1359.74	184.008
1363.32	146.622
1366.91	66.925
1370.49	18.03
1374.07	25.961
1377.65	12.959
1381.23	129.963
1384.8	244.268
1388.38	154.246
1391.95	188.173
1395.52	199.549
1399.09	99.931
1402.66	103.114
1406.22	117.246
1409.79	40.407
1413.35	41.503
1416.91	85.338
1420.47	216.897
1424.03	123.837
1427.59	328.911
1431.14	349.494
1434.69	203.476
1438.24	196.275
1441.8	256.994
1445.34	235.283
1448.89	208.657
1452.43	231.966
1455.98	257.619
1459.52	392.92
1463.06	375.287
1466.6	346.227
1470.14	406.823
1473.67	301.914
1477.2	171.757
1480.74	157.639
1484.27	173.662
1487.8	14.552
1491.32	93.538
1494.85	18.866
1498.37	143.751
1501.9	187.62
1505.42	287.083
1508.94	251.103
1512.45	327.718
1515.97	286.003
1519.49	0
