Measurement: Raman, 514 nm, ccw, Raman Data Processed
Mineral: Albite
Rruff sample: R040129
Ideal chemistry: NaAlSi_3_O_8_
Locality: LaChance Quarry, Brunswick, Cumberland County, Maine, USA
Source: Bob Downs
Description: Colorless fragment of a tabular single crystal
Measured chemistry: (Na_0.99_K_0.01_)Al_1.00_Si_3.00_O_8_
Pin_id: L00143
Orientation: Laser parallel to -a* (-1 0 0). Fiducial mark perpendicular to laser is parallel to -b [0 -1 0]
Raman shift (cm-1)	intensity
102.242	0
106.423	529.414
110.603	3174.68
114.78	3527.78
118.956	1202.49
123.129	401.222
127.3	263.402
131.469	213.496
135.636	139.25
139.801	520.218
143.964	1140.19
148.125	2604.1
152.284	2268.89
156.441	1140.02
160.596	1494.13
164.749	1130.57
168.9	1553.28
173.049	1642.07
177.195	2128.62
181.34	3355.25
185.483	4057.81
189.624	2970.56
193.762	1840.03
197.899	1528.66
202.034	2210.65
206.166	4589.05
210.297	4927.88
214.425	1862.13
218.552	649.786
222.676	115.782
226.799	10.134
230.919	91.738
235.038	82.138
239.154	106.718
243.269	26.234
247.381	365.177
251.492	575.822
255.6	258.061
259.707	342.419
263.811	708.976
267.914	1555.4
272.014	1411.54
276.113	982.05
280.209	1645.54
284.304	3944.05
288.396	10253
292.487	9333.05
296.575	3600.94
300.662	1422.49
304.746	626.521
308.829	499.905
312.909	322.578
316.988	290.487
321.065	375.599
325.139	1396.88
329.212	1999.3
333.283	595.61
337.351	167.568
341.418	201.449
345.483	108.376
349.546	9.747
353.606	0.921
357.665	35.863
361.722	37.457
365.777	103.9
369.83	52.513
373.881	9.3
377.93	62.216
381.977	91.202
386.023	4.292
390.066	69.324
394.107	200.165
398.146	245.659
402.184	122.379
406.219	701.287
410.252	646.385
414.284	1223.47
418.313	896.57
422.341	351.673
426.367	269.77
430.39	106.882
434.412	149.14
438.432	405.56
442.45	487.196
446.466	626.564
450.48	998.904
454.492	2006.43
458.502	2169.66
462.51	1980.57
466.517	2943.39
470.521	6343.56
474.523	17343.4
478.524	31583.2
482.523	16442.9
486.519	6432.46
490.514	3971.91
494.507	3961.24
498.498	6570.46
502.487	17192.9
506.474	36942.5
510.459	22513.9
514.442	8640.43
518.424	4354.06
522.403	2738.62
526.381	1965.79
530.356	1398.03
534.33	1137.68
538.302	882.687
542.272	729.708
546.24	744.192
550.206	592.719
554.17	456.934
558.132	435.113
562.093	424.792
566.051	407.648
570.008	440.978
573.963	580.18
577.915	982.141
581.866	712.501
585.815	378.791
589.763	236.909
593.708	106.998
597.651	183.986
601.593	132.864
605.532	151.63
609.47	33.275
613.406	124.756
617.34	239.1
621.272	307.309
625.202	182.376
629.131	115.315
633.057	169.132
636.982	265.834
640.905	404.42
644.825	465.892
648.744	398.247
652.662	268.487
656.577	286.616
660.49	15.427
664.402	122.329
668.312	114.063
672.219	120.724
676.125	155.341
680.03	103.999
683.932	110.642
687.832	27.573
691.731	103.104
695.628	32.217
699.522	49.056
703.415	83.188
707.307	73.186
711.196	96.493
715.083	55.843
718.969	63.753
722.853	127.769
726.735	27.482
730.615	181.194
734.493	110.036
738.37	78.439
742.244	175.242
746.117	273.562
749.988	418.769
753.857	901.156
757.724	1964.34
761.59	4246.35
765.453	3736.92
769.315	1797.91
773.175	1569.7
777.033	1280.69
780.889	581.619
784.744	353.054
788.596	174.617
792.447	256.486
796.296	187.954
800.143	319.378
803.989	370.76
807.832	772.103
811.674	2083.41
815.514	2748.07
819.352	1369.04
823.189	550.254
827.023	300.952
830.856	261.824
834.687	292.341
838.516	250.633
842.343	236.628
846.169	106.606
849.992	25.132
853.814	206.964
857.634	175.146
861.453	178.593
865.269	142.596
869.084	33.107
872.897	75.143
876.708	6.282
880.517	52.961
884.325	143.305
888.13	35.96
891.934	74.626
895.737	66.728
899.537	71.85
903.336	239.576
907.132	131.067
910.928	72.605
914.721	134.21
918.512	85.903
922.302	97.7
926.09	249.587
929.876	81.575
933.66	73.68
937.443	75.894
941.224	21.794
945.003	140.606
948.78	373.133
952.556	245.762
956.33	128.496
960.102	61.337
963.872	174.291
967.64	77.419
971.407	270.692
975.172	744.076
978.935	707.583
982.697	331.221
986.456	394.996
990.214	298.959
993.971	312.998
997.725	327.414
1001.48	632.149
1005.23	962.426
1008.98	637.405
1012.73	883.22
1016.47	689.401
1020.22	644.916
1023.96	683.792
1027.7	801.164
1031.44	1000.83
1035.17	677.037
1038.91	566.898
1042.64	832.611
1046.37	890.399
1050.1	895.764
1053.83	563.631
1057.56	331.107
1061.28	327.659
1065.01	376.023
1068.73	474.049
1072.45	802.39
1076.16	901.06
1079.88	1079.36
1083.6	1389.99
1087.31	1939.28
1091.02	3277.83
1094.73	6708.9
1098.44	8967.46
1102.14	7877.16
1105.85	5476.65
1109.55	4226.26
1113.25	4045.85
1116.95	3705.86
1120.65	2905.39
1124.34	1775.54
1128.04	1115.93
1131.73	865.959
1135.42	798.461
1139.11	469.231
1142.79	312.736
1146.48	338.863
1150.16	473.015
1153.84	492.258
1157.52	430.842
1161.2	110.888
1164.88	241.516
1168.56	67.49
1172.23	123.136
1175.9	6.952
1179.57	152.638
1183.24	244.148
1186.9	253.175
1190.57	52.247
1194.23	110.986
1197.89	18.497
1201.55	139.396
1205.21	127.175
1208.87	138.444
1212.52	296.797
1216.18	314.95
1219.83	251.66
1223.48	119.608
1227.13	13.184
1230.77	56.749
1234.42	414.61
1238.06	141.872
1241.7	337.672
1245.34	313.151
1248.98	368.296
1252.62	313.451
1256.25	109.65
1259.88	54.515
1263.51	149.765
1267.14	194.109
1270.77	337.863
1274.4	411.273
1278.02	438.072
1281.65	351.894
1285.27	94.025
1288.89	5.986
1292.51	17.605
1296.12	81.396
1299.74	159.146
1303.35	189.372
1306.96	248.861
1310.57	87.464
1314.18	222.733
1317.79	130.467
1321.39	146.973
1324.99	160.852
1328.59	156.43
1332.19	146.857
1335.79	231.776
1339.39	316.929
1342.98	290.87
1346.58	255.484
1350.17	109.81
1353.76	73.79
1357.35	66.96
1360.93	270.24
1364.52	123.126
1368.1	285.35
1371.68	35.843
1375.26	198.409
1378.84	350.865
1382.42	310.746
1385.99	218.207
1389.57	346.794
1393.14	233.726
1396.71	71.587
1400.28	227.379
1403.85	180.214
1407.41	426.724
1410.98	378.752
1414.54	499.301
1418.1	465.842
1421.66	334.229
1425.21	293.975
1428.77	300.572
1432.33	170.486
1435.88	307.225
1439.43	339.439
1442.98	627.777
1446.53	615.551
1450.07	748.629
1453.62	618.414
1457.16	742.416
1460.7	502.688
1464.24	543.158
1467.78	302.645
1471.32	373.338
1474.85	249.439
1478.38	177.869
1481.91	346.002
1485.44	312.529
1488.97	372.787
1492.5	433.326
1496.03	423.783
1499.55	435.143
1503.07	248.34
1506.59	343.498
1510.11	49.43
1513.63	10.35
1517.14	0.078
1520.66	10.656
