Measurement: Raman, 514 nm, ccw, Raman Data Processed
Mineral: Almandine
Rruff sample: R050029
Ideal chemistry: Fe^2+^_3_Al_2_(SiO_4_)_3_
Locality: Barton Garnet mine, Gore Mountain, Warren County, New York, USA
Source: University of Arizona Mineral Museum
Description: Reddish brown fragments
Measured chemistry: (Fe^2+^_1.34_Mg_1.26_Ca_0.37_Mn_0.03_)_Î£=3_Al_2.00_(Si_1.00_O_4_)_3_
Pin_id: L00523
Orientation: Laser parallel to a* (1 0 0). Fiducial mark perpendicular to laser is parallel to b [0 1 0]
Raman shift (cm-1)	intensity
83.667	0
87.858	22.526
92.046	87.425
96.233	99.647
100.418	71.35
104.6	64.968
108.781	169.991
112.959	376.896
117.136	237.472
121.31	139.185
125.482	124.344
129.653	103.382
133.821	102.031
137.987	167.777
142.152	145.349
146.314	110.461
150.474	127.094
154.633	73.184
158.789	9.358
162.943	30.833
167.095	7.646
171.246	197.11
175.394	519.438
179.54	470.316
183.684	275.029
187.826	79.111
191.967	2.366
196.105	5.048
200.241	20.035
204.375	15.524
208.507	10.584
212.638	21.748
216.766	67.923
220.892	57.819
225.016	130.116
229.139	152.864
233.259	148.69
237.377	205.429
241.493	255.437
245.608	248.339
249.72	274.733
253.83	275.744
257.939	293.686
262.045	317.694
266.15	373.947
270.252	348.747
274.353	400.071
278.451	417.14
282.548	454.559
286.642	473.493
290.735	519.918
294.826	579.186
298.914	594.377
303.001	628.318
307.086	683.463
311.168	769.235
315.249	939.161
319.328	1068.54
323.405	1296.01
327.48	1673.51
331.553	2294.1
335.624	3083.72
339.693	4045.36
343.76	5064.9
347.826	7129.34
351.889	9690.86
355.95	10933.2
360.01	9014.21
364.067	6641.83
368.123	5224.19
372.176	4442.47
376.228	3808.93
380.277	3053.03
384.325	2354.34
388.371	1644.24
392.415	1154.91
396.457	788.474
400.497	546.757
404.535	382.512
408.571	295.008
412.605	205.038
416.638	139.599
420.668	91.941
424.697	32.084
428.723	34.998
432.748	11.703
436.77	31.207
440.791	4.495
444.81	16.419
448.827	28.585
452.842	10.981
456.855	3.56
460.867	47.713
464.876	28.851
468.883	90.862
472.889	75.762
476.892	95.56
480.894	110.274
484.894	128.932
488.892	123.574
492.888	144.209
496.882	178.792
500.874	276.273
504.865	383.647
508.853	360.102
512.84	355.045
516.824	422.115
520.807	518.094
524.788	590.539
528.767	603.771
532.744	673.542
536.719	778.925
540.693	992.114
544.664	1321.91
548.634	1981.17
552.601	3226.12
556.567	4878.17
560.531	4843.27
564.493	2952.23
568.453	1603.36
572.412	904.003
576.368	619.096
580.323	503.778
584.275	408.117
588.226	394.65
592.175	378.5
596.122	368.021
600.068	375.318
604.011	407.418
607.952	433.561
611.892	403.032
615.83	229.613
619.766	192.751
623.7	139.778
627.632	193.376
631.563	238.418
635.491	278.54
639.418	336.737
643.343	338.045
647.266	281.349
651.187	209.702
655.106	165.935
659.024	137.052
662.939	99.053
666.853	70.937
670.765	29.695
674.675	32.317
678.583	29.803
682.49	16.14
686.394	13.692
690.297	20.769
694.198	31.001
698.097	16.724
701.995	1.342
705.89	27.81
709.784	12.238
713.675	39.891
717.565	11.231
721.453	1.778
725.34	0.058
729.224	27.245
733.107	9.71
736.988	9.685
740.867	2.047
744.744	50.141
748.62	15.751
752.493	42.268
756.365	24.238
760.235	27.18
764.103	33.099
767.969	48.009
771.834	21.894
775.697	47.746
779.558	14.436
783.417	56.335
787.274	58.075
791.13	72.784
794.983	44.465
798.835	104.119
802.686	178.747
806.534	248.349
810.38	305.941
814.225	327.536
818.068	406.103
821.909	380.391
825.749	419.026
829.586	433.667
833.422	445.428
837.256	467.785
841.088	522.964
844.919	612.659
848.748	868.543
852.575	1093.12
856.4	1245.29
860.223	1492.99
864.045	1644.74
867.864	1540.82
871.682	1384.9
875.499	1458.01
879.313	1692.38
883.126	1845.36
886.937	2369.47
890.746	2937.06
894.553	3804.48
898.359	5071.78
902.163	7276.16
905.965	11635.7
909.765	19982.4
913.564	32718.8
917.361	40695.7
921.156	34082.6
924.949	20789.7
928.74	12336.9
932.53	7890.73
936.318	5308.09
940.104	3744.52
943.889	2678.05
947.672	2009.67
951.453	1638.61
955.232	1355.46
959.01	1176.63
962.785	1024.75
966.559	983.621
970.332	856.147
974.102	804.402
977.871	739.759
981.638	773.276
985.404	721.457
989.167	644.657
992.929	566.78
996.689	486.645
1000.45	474.865
1004.2	467.157
1007.96	489.564
1011.71	555.555
1015.46	599.42
1019.21	694.315
1022.96	699.116
1026.71	714.43
1030.45	722.64
1034.19	765.955
1037.94	780.38
1041.68	838.911
1045.41	842.538
1049.15	809.256
1052.88	695.08
1056.62	548.011
1060.35	375.031
1064.08	251.123
1067.8	189.278
1071.53	120.503
1075.25	121.809
1078.97	83.178
1082.7	77.615
1086.41	68.131
1090.13	64.731
1093.85	0.379
1097.56	6.921
1101.27	1.173
1104.98	3.371
1108.69	26.544
1112.4	29.725
1116.1	4.058
1119.81	9.849
1123.51	43.227
1127.21	8.519
1130.91	35.733
1134.61	42.106
1138.3	47.637
1141.99	1.278
1145.68	4.022
1149.38	19.727
1153.06	27.528
1156.75	1.402
1160.43	12.299
1164.12	59.757
1167.8	66.871
1171.48	109.911
1175.16	126.996
1178.83	159.128
1182.51	142.133
1186.18	96.134
1189.85	74.37
1193.52	143.647
1197.19	130.063
1200.86	134.32
1204.52	102.607
1208.19	100.503
1211.85	118.377
1215.51	67.944
1219.17	102.916
1222.82	132.485
1226.48	123.771
1230.13	135.208
1233.78	116.461
1237.43	103.938
1241.08	98.238
1244.73	96.519
1248.37	116.58
1252.01	127.728
1255.66	143.313
1259.3	115.933
1262.93	124.531
1266.57	141.977
1270.21	136.744
1273.84	170.115
1277.47	150.977
1281.1	167.586
1284.73	158.993
1288.36	152.82
1291.98	144.23
1295.6	136.664
1299.23	105.876
1302.85	90.143
1306.46	83.686
1310.08	70.942
1313.7	83.053
1317.31	89.99
1320.92	67.812
1324.53	51.507
1328.14	55.061
1331.75	47.466
1335.35	15.757
1338.96	5.816
1342.56	20.745
1346.16	8.512
1349.76	5.121
1353.36	38.581
1356.95	51.914
1360.55	20.171
1364.14	10.262
1367.73	5.242
1371.32	12.146
1374.91	9.99
1378.49	2.403
1382.08	38.515
1385.66	25.224
1389.24	19.238
1392.82	36.234
1396.4	57.582
1399.97	39.881
1403.55	34.421
1407.12	38.04
1410.69	42.689
1414.26	18.341
1417.83	40.847
1421.4	34.22
1424.96	60.654
1428.53	56.141
1432.09	96.168
1435.65	47.406
1439.21	62.315
1442.76	77.776
1446.32	9.01
1449.87	33.947
1453.43	20.948
1456.98	40.925
1460.53	39.749
1464.07	54.145
1467.62	42.314
1471.16	25.598
1474.71	53.76
1478.25	67.983
1481.79	41.079
1485.32	37.8
1488.86	29.87
1492.39	46.045
1495.93	67.23
1499.46	3.11
1502.99	11.33
1506.52	44.616
1510.05	18.586
1513.57	60.265
1517.09	50.006
