Measurement: Raman, 514 nm, ccw, Raman Data Processed
Mineral: Almandine
Rruff sample: R060450
Ideal chemistry: Fe^2+^_3_Al_2_(SiO_4_)_3_
Locality: Canada
Source: Gemological Institute of America
Description: Reddish-brown translucent fragment
Measured chemistry: (Fe^2+^_1.92_Mg_1.03_Ca_0.04_Mn_0.01_)_Î£=3_Al_2.00_(Si_1.00_O_4_)_3_
Pin_id: L00665
Orientation: Laser parallel to c* (0 0 1). Fiducial mark perpendicular to laser is parallel to a [1 0 0]
Raman shift (cm-1)	intensity
91.012	0
95.948	41.7184
100.883	38.6517
105.815	199.605
110.744	515.153
115.671	311.901
120.596	138.221
125.519	183.649
130.439	412.163
135.356	617.738
140.271	852.707
145.184	1053.87
150.094	818.145
155.002	561.277
159.908	600.009
164.811	833.125
169.711	977.707
174.61	955.499
179.505	582.832
184.399	316.835
189.29	467.875
194.178	587.419
199.064	664.408
203.948	932.379
208.829	649.88
213.708	769.826
218.585	471.209
223.459	275.011
228.33	217.215
233.199	174.8
238.066	223.678
242.93	253.862
247.792	266.408
252.651	259.903
257.508	266.562
262.363	308.163
267.215	246.851
272.064	258.013
276.912	395.849
281.756	358.613
286.598	413.425
291.438	451.379
296.276	521.156
301.111	614.581
305.943	770.918
310.773	1073.95
315.601	1490.06
320.426	1746.74
325.248	2121.31
330.068	2861.15
334.886	4330.23
339.701	6327.55
344.514	9996.06
349.324	13599.7
354.132	11004.6
358.938	6002.56
363.741	4177.69
368.541	3911.94
373.339	3879.32
378.135	2707.81
382.928	1474.42
387.718	778.256
392.506	409.355
397.292	283.791
402.075	181.517
406.856	62.5938
411.634	44.9365
416.41	54.4775
421.183	47.26
425.954	6.23096
430.722	109.802
435.488	25.0295
440.251	19.4544
445.012	62.1057
449.77	38.1091
454.526	5.78906
459.28	30.6457
464.03	55.531
468.779	178.44
473.525	275.321
478.268	502.195
483.009	692.033
487.747	477.817
492.483	674.538
497.217	1238.19
501.948	1952.8
506.676	1607.41
511.402	795.93
516.125	577.385
520.846	622.017
525.565	524.418
530.281	645.274
534.994	674.528
539.705	878.63
544.413	1400.47
549.119	2436.25
553.822	4106.57
558.523	5386.54
563.222	3715.96
567.917	1806.1
572.611	1028.91
577.302	744.985
581.99	720.791
586.676	630.086
591.359	605.574
596.04	362.558
600.718	386.188
605.394	507.459
610.067	356.941
614.737	254.161
619.406	277.177
624.071	308.863
628.734	565.839
633.395	849.053
638.053	1043.3
642.708	743.035
647.361	429.357
652.012	301.556
656.66	192.294
661.305	163.534
665.948	106.738
670.588	111.62
675.226	8.82275
679.861	94.1604
684.494	19.648
689.124	26.4922
693.752	81.8511
698.377	15.2266
702.999	20.8184
707.619	8.77856
712.237	5.15845
716.852	36.2847
721.464	19.2825
726.074	63.158
730.681	77.9497
735.286	15.5315
739.888	32.0862
744.488	50.9497
749.085	89.7861
753.68	32.5374
758.272	26.9133
762.861	23.2234
767.448	64.4016
772.033	29.4568
776.614	36.6016
781.194	12.085
785.77	15.4111
790.345	5.04053
794.916	45.1765
799.485	1.05493
804.052	57.7534
808.616	75.9363
813.177	139.74
817.736	176.142
822.292	217.753
826.846	159.663
831.397	177.322
835.945	168.793
840.491	191.693
845.035	363.94
849.576	536.942
854.114	799.513
858.65	1385.31
863.183	2245.65
867.713	2597.35
872.241	2079.59
876.767	1711.59
881.29	1642.76
885.81	1870.11
890.328	2678.73
894.843	3731.65
899.356	5348.76
903.866	7784.07
908.373	13183.6
912.878	25178.8
917.38	44223.1
921.88	49723
926.377	30281.8
930.872	14775.3
935.364	7651.38
939.853	4493.53
944.34	2586.96
948.824	1806.68
953.306	1233.83
957.785	962.362
962.261	796.741
966.735	764.024
971.207	686.73
975.675	634.638
980.141	660.352
984.605	614.619
989.066	589.906
993.524	479.426
997.98	423.296
1002.43	476.781
1006.88	455.505
1011.33	428.104
1015.78	467.563
1020.22	555.503
1024.66	662.408
1029.1	869.333
1033.53	1101.96
1037.97	1403.74
1042.4	1663.67
1046.82	2016.74
1051.25	1743.03
1055.67	1344.47
1060.09	813.065
1064.51	429.822
1068.92	280.797
1073.33	233.902
1077.74	126.131
1082.15	184.461
1086.55	171.935
1090.95	108.541
1095.35	70.2017
1099.75	3.854
1104.14	33.0415
1108.53	59.4365
1112.92	4.68408
1117.31	41.4951
1121.69	202.661
1126.07	140.982
1130.45	63.1821
1134.82	72.731
1139.19	11.0015
1143.57	48.604
1147.93	53.6777
1152.3	13.314
1156.66	57.7495
1161.02	64.5034
1165.38	143.352
1169.73	123.104
1174.08	147.756
1178.43	139.303
1182.78	194.738
1187.12	214.056
1191.46	167.625
1195.8	166.958
1200.14	156.28
1204.47	191.811
1208.8	200.562
1213.13	199.091
1217.46	188.515
1221.78	110.03
1226.1	117.716
1230.42	166.753
1234.73	77.9565
1239.04	115.168
1243.35	114.396
1247.66	89.5327
1251.97	141.72
1256.27	176.17
1260.57	146.083
1264.86	285.863
1269.16	165.508
1273.45	321.161
1277.74	168.124
1282.03	54.7881
1286.31	175.065
1290.59	201.613
1294.87	93.0181
1299.14	223.311
1303.42	91.4976
1307.69	76.5811
1311.95	90.8257
1316.22	41.4863
1320.48	7.32519
1324.74	23.0474
1329	52.6206
1333.26	53.0068
1337.51	32.1582
1341.76	23.9395
1346	30.9551
1350.25	14.5815
1354.49	58.0112
1358.73	92.3677
1362.96	37.0776
1367.2	40.2315
1371.43	101.057
1375.66	34.2476
1379.88	64.6299
1384.11	113.229
1388.33	15.1328
1392.54	56.0493
1396.76	48.9414
1400.97	105.174
1405.18	137.474
1409.39	140.023
1413.59	46.6543
1417.8	66.5195
1421.99	61.2598
1426.19	120.093
1430.38	165.06
1434.58	146.216
1438.77	212.702
1442.95	158.995
1447.13	171.533
1451.32	81.4565
1455.49	259.799
1459.67	193.117
1463.84	252.554
1468.01	211.314
1472.18	180.051
1476.35	175.27
1480.51	150.786
1484.67	280.265
1488.83	151.578
1492.98	260.871
1497.13	204.436
1501.28	245.95
1505.43	180.353
1509.57	226.457
1513.71	238.542
1517.85	309.244
1521.99	203.377
1526.12	153.153
1530.25	119.828
1534.38	208.156
1538.5	51.1416
1542.62	96.1528
1546.74	235.617
1550.86	191.923
1554.98	276.633
1559.09	177.967
1563.2	12.9409
1567.31	108.948
