Measurement: Raman, 514 nm, ccw, Raman Data Processed
Mineral: Almandine
Rruff sample: R060099
Ideal chemistry: Fe^2+^_3_Al_2_(SiO_4_)_3_
Locality: Alaska, USA
Source: Roland Boehne
Description: Red cube shaped single crystal
Measured chemistry: (Fe^2+^_1.63_Mg_0.57_Mn_0.56_Ca_0.24_)_Σ=3_(Al_1.98_Fe^3+^_0.02_)_Σ=2_(Si_1.00_O_4_)_3_
Pin_id: M00497
Orientation: Laser parallel to -a* (-1 0 0). Fiducial mark perpendicular to laser is parallel to c [0 0 1]
Raman shift (cm-1)	intensity
93.48	0
98.416	70.4192
103.349	62.6465
108.28	263.258
113.208	161.273
118.134	181.019
123.058	45.4438
127.979	12.2153
132.898	73.4514
137.814	114.852
142.728	64.6599
147.639	103.884
152.549	355.402
157.455	583.993
162.359	919.484
167.261	1331.73
172.161	744.204
177.058	246.811
181.952	105.691
186.845	149.247
191.734	216.136
196.622	347.869
201.507	618.344
206.389	569.073
211.269	749.965
216.147	624.023
221.022	391.246
225.895	260.627
230.765	309.156
235.633	219.824
240.498	227.542
245.361	230.64
250.222	184.31
255.08	165.096
259.936	369.436
264.789	208.282
269.64	210.574
274.488	181.643
279.334	244.002
284.178	326.291
289.019	355.625
293.857	422.586
298.693	527.185
303.527	804.15
308.358	1053.03
313.187	1466.59
318.013	1910.28
322.837	2526.1
327.659	3462.06
332.478	4631.13
337.294	7668.3
342.108	12397.5
346.92	12912.8
351.729	7756.18
356.535	4367.57
361.34	3475
366.141	3857.46
370.94	3855.95
375.737	2663.46
380.531	1466.98
385.323	734.536
390.113	439.185
394.9	294.003
399.684	223.925
404.466	95.9707
409.245	79.2866
414.022	15.1255
418.797	97.6289
423.569	91.9331
428.338	79.8135
433.105	1.0874
437.87	20.1777
442.632	65.8652
447.391	37.2056
452.149	23.2749
456.903	170.685
461.655	175.049
466.405	279.337
471.152	408.54
475.897	709.65
480.639	584.669
485.378	439.594
490.116	873.437
494.85	1574.16
499.582	1938.84
504.312	1292.4
509.039	649.826
513.764	540.128
518.486	465.306
523.206	538.473
527.923	549.48
532.638	768.761
537.35	853.46
542.059	1364.09
546.766	2489.65
551.471	4097.54
556.173	4179.57
560.873	2597.4
565.57	1415.77
570.264	915.344
574.957	745.281
579.646	778.04
584.333	547.861
589.018	555.024
593.7	536.261
598.379	505.826
603.056	400.14
607.73	321.109
612.402	219.795
617.072	347.145
621.739	402.857
626.403	729.862
631.065	884.403
635.724	667.156
640.381	416.851
645.035	321.757
649.687	323.019
654.336	221.355
658.983	184.544
663.627	72.8413
668.268	79.5298
672.907	1.56299
677.544	27.1748
682.178	38.456
686.809	6.75244
691.438	67.6606
696.065	90.3574
700.688	29.7544
705.31	53.4307
709.929	68.2427
714.545	10.0918
719.158	114.216
723.77	43.3901
728.378	38.4629
732.984	105.408
737.588	111.176
742.189	18.7505
746.787	74.1797
751.383	125.481
755.976	17.3374
760.567	29.7114
765.155	103.624
769.741	74.4082
774.324	87.9038
778.904	91.5488
783.482	8.94043
788.058	44.2612
792.631	32.5259
797.201	109.685
801.769	79.4644
806.334	298.511
810.897	224.125
815.457	239.368
820.014	247.625
824.569	126.613
829.122	194.262
833.671	252.153
838.219	349.478
842.763	358.302
847.306	717.663
851.845	1064.05
856.382	1722.14
860.917	2207.91
865.448	1964.57
869.978	1614.69
874.505	1640.98
879.029	1802.73
883.55	2354.07
888.069	3282.69
892.586	4703.05
897.1	6710.3
901.611	10647.6
906.12	19130.3
910.626	35879.4
915.129	47359.4
919.63	35333.7
924.129	18449.7
928.625	9550.62
933.118	5506.67
937.609	3257.29
942.097	2130.8
946.582	1336.1
951.065	1156.69
955.546	819.614
960.023	727.993
964.499	511.902
968.971	533.591
973.441	589.354
977.909	653.086
982.374	529.398
986.836	457.644
991.295	254.181
995.753	365.051
1000.21	493.984
1004.66	547.644
1009.11	349.562
1013.55	513.552
1018	624.373
1022.44	889.878
1026.88	1008.2
1031.32	1382.79
1035.75	1877.57
1040.18	2031.52
1044.61	1729.66
1049.04	1061
1053.46	609.478
1057.88	508.101
1062.3	185.852
1066.71	195.773
1071.13	32.8101
1075.54	82.9399
1079.94	64.1899
1084.35	66.521
1088.75	82.9307
1093.15	23.4136
1097.55	70.4302
1101.94	50.0029
1106.34	31.4712
1110.73	4.81396
1115.11	23.9619
1119.5	5.0459
1123.88	87.0991
1128.26	39.1377
1132.63	0.837402
1137.01	71.0518
1141.38	47.4136
1145.75	13.4121
1150.12	66.0894
1154.48	11.8574
1158.84	98.2495
1163.2	209.262
1167.55	88.1929
1171.91	112.044
1176.26	253.81
1180.61	243.481
1184.95	155.05
1189.29	229.515
1193.63	107.872
1197.97	185.118
1202.31	70.249
1206.64	160.475
1210.97	189.306
1215.29	177.174
1219.62	126.374
1223.94	188.879
1228.26	181.163
1232.57	108.999
1236.89	181.857
1241.2	148.269
1245.51	205.097
1249.81	199.1
1254.12	205.6
1258.42	314.302
1262.72	158.416
1267.01	243.097
1271.3	275.765
1275.59	253.877
1279.88	282.783
1284.17	237.654
1288.45	212.152
1292.73	185.503
1297.01	368.782
1301.28	97.6113
1305.55	325.728
1309.82	170.776
1314.09	155.766
1318.35	205.718
1322.61	62.6343
1326.87	114.491
1331.13	94.2573
1335.38	71.9453
1339.63	71.5156
1343.88	47.9932
1348.12	35.2783
1352.37	17.6372
1356.61	51.8198
1360.85	119.713
1365.08	45.4648
1369.31	19.3975
1373.54	181.205
1377.77	152.936
1381.99	78.6431
1386.22	65.2773
1390.43	72.876
1394.65	113.488
1398.87	87.3037
1403.08	54.4263
1407.29	104.666
1411.49	60.0068
1415.69	63.4116
1419.89	128.893
1424.09	49.4815
1428.29	69.21
1432.48	293.136
1436.67	197.34
1440.86	289.944
1445.04	389.655
1449.23	367.33
1453.4	414.745
1457.58	349.958
1461.76	323.757
1465.93	316.661
1470.1	347.231
1474.26	187.568
1478.43	257.336
1482.59	242.845
1486.75	150.884
1490.9	244.998
1495.06	213.149
1499.21	107.846
1503.35	284.554
1507.5	59.124
1511.64	176.393
1515.78	182.643
1519.92	174.983
1524.05	86.2803
1528.18	89.6484
1532.31	155.558
1536.44	136.54
1540.56	15.4287
1544.69	64.6357
1548.8	211.753
1552.92	109.242
1557.03	127.054
1561.14	178.996
1565.25	148.712
1569.36	63.1475
