Measurement: Raman, 514 nm, ccw, Raman Data Processed
Mineral: Almandine
Rruff sample: R040168
Ideal chemistry: Fe^2+^_3_Al_2_(SiO_4_)_3_
Locality: Pocos Dos Cavatos, Ceara, Brazil
Source: University of Arizona Mineral Museum
Description: Dark red etched single crystal
Measured chemistry: (Fe^2+^_1.48_Mn_1.47_Ca_0.05_)_Î£=3_Al_2.00_(Si_1.00_O_4_)_3_; trace amounts of Ti and Y
Pin_id: L00513
Orientation: Laser parallel to -a* (-1 0 0). Fiducial mark perpendicular to laser is parallel to -c [0 0 -1]
Raman shift (cm-1)	intensity
71.747	0
75.937	276.844
80.125	100.404
84.311	309.44
88.496	240.401
92.678	281.799
96.858	182.881
101.036	165.337
105.212	231.252
109.387	404.129
113.559	481.559
117.729	371.28
121.897	212.928
126.063	59.776
130.228	13.442
134.39	107.246
138.55	191.005
142.709	66.796
146.865	21.779
151.019	29.011
155.171	141.734
159.322	392.391
163.47	1220.05
167.617	1509.53
171.761	921.675
175.904	568.482
180.044	363.661
184.183	259.065
188.319	73.303
192.454	55.413
196.586	43.655
200.717	6.806
204.846	127.553
208.972	445.401
213.097	1139.56
217.22	1890.51
221.341	1640.9
225.46	949.657
229.577	534.1
233.692	253.249
237.805	153.993
241.916	63.987
246.025	66.638
250.132	60.6
254.237	49.387
258.34	81.387
262.442	80.527
266.541	52
270.639	47.326
274.734	71.852
278.828	92.838
282.919	173.056
287.009	208.968
291.097	278.354
295.183	264.976
299.266	446.684
303.348	442.007
307.428	648.509
311.507	959.739
315.583	1336.69
319.657	1786.12
323.729	2084.63
327.8	1966.54
331.868	2261.86
335.935	3491.58
339.999	6888.65
344.062	13281.9
348.123	14592.6
352.182	7945.76
356.239	3938.04
360.294	2440.22
364.347	2029.72
368.398	2512.38
372.448	3093.86
376.495	2337.94
380.54	1325.89
384.584	802.747
388.626	511.508
392.666	406.154
396.704	291.503
400.74	224.697
404.774	216.899
408.806	169.949
412.836	136.235
416.865	105.485
420.891	64.121
424.916	65.367
428.939	38.181
432.959	31.265
436.978	7.245
440.996	22.789
445.011	9.311
449.024	8.463
453.036	21.705
457.045	78.268
461.053	156.018
465.059	210.595
469.063	500.155
473.065	1076.65
477.065	1069.15
481.063	523.584
485.06	397.89
489.054	497.086
493.047	945.653
497.038	2372.84
501.027	2997.99
505.014	1502.02
508.999	685.323
512.982	440.515
516.964	461.621
520.944	603.109
524.921	368.93
528.897	386.626
532.871	458.617
536.844	611.794
540.814	889.803
544.783	1573.64
548.749	2776.97
552.714	4380.49
556.677	3862.74
560.638	2152.24
564.597	1219.86
568.555	757.454
572.511	562.693
576.464	490.803
580.416	485.122
584.366	380.104
588.315	333.874
592.261	362.413
596.206	286.611
600.148	226.575
604.089	103.406
608.028	116.408
611.965	127.481
615.901	176.896
619.834	226.097
623.766	406.069
627.696	739.07
631.624	793.941
635.551	460.682
639.475	206.293
643.398	137.776
647.318	68.132
651.237	14.354
655.155	2.576
659.07	16.675
662.984	9.956
666.895	4.41
670.805	15.052
674.713	6.917
678.62	40.02
682.524	4.474
686.427	44.215
690.328	35.275
694.227	27.654
698.124	22.303
702.02	39.231
705.913	24.432
709.805	5.845
713.695	21.587
717.584	12.917
721.47	25.149
725.355	21.308
729.238	8.593
733.119	13.438
736.998	41.427
740.876	33.381
744.752	1.304
748.626	45.2
752.498	57.076
756.368	58.939
760.237	71.625
764.104	55.229
767.969	80.857
771.832	91.637
775.693	74.447
779.553	112.231
783.411	184.989
787.267	210.726
791.122	186.443
794.974	168.144
798.825	179.843
802.674	223.312
806.522	281.243
810.367	424.075
814.211	446.372
818.053	469.28
821.893	500.568
825.732	472.922
829.568	471.468
833.403	516.328
837.236	598.251
841.068	753.784
844.898	971.971
848.726	1385.69
852.552	2160.31
856.376	2700.64
860.199	2398.28
864.02	1903.77
867.839	1657.94
871.656	1726.82
875.472	2058.28
879.286	2643.2
883.098	3512.62
886.909	4739.91
890.717	5820.25
894.524	7157.73
898.33	10572.3
902.133	17650.1
905.935	31338
909.735	46556
913.533	44064.1
917.33	27962.3
921.124	15760.6
924.918	9819.09
928.709	6121.66
932.499	3960.35
936.286	2658.27
940.073	1977.2
943.857	1469.26
947.64	1264.76
951.421	1066.12
955.2	910.197
958.978	809.732
962.753	771.966
966.527	771.151
970.3	767.242
974.071	704.511
977.84	622.062
981.607	552.957
985.372	484.592
989.136	494.227
992.898	461.267
996.659	480.084
1000.42	520.533
1004.17	567.164
1007.93	583.986
1011.68	657.991
1015.43	765.148
1019.18	981.452
1022.93	1260.88
1026.68	1757.43
1030.42	2434.09
1034.17	2635.86
1037.91	1983.73
1041.65	1231.69
1045.39	732.771
1049.12	523.95
1052.86	383.23
1056.59	269.607
1060.33	161.083
1064.06	131.638
1067.78	117.26
1071.51	153.959
1075.23	70.724
1078.96	30.555
1082.68	31.458
1086.4	11.423
1090.12	32.444
1093.83	13.514
1097.55	16.62
1101.26	5.273
1104.97	17.247
1108.68	61.308
1112.39	49.478
1116.1	26.78
1119.8	0.183
1123.5	118.391
1127.2	0.976
1130.9	18.501
1134.6	11.12
1138.3	17.132
1141.99	20.667
1145.69	15.477
1149.38	103.599
1153.07	102.722
1156.76	162.267
1160.44	182.729
1164.13	158.692
1167.81	179.666
1171.49	207.552
1175.17	190.102
1178.85	199.448
1182.52	205.946
1186.2	232.015
1189.87	143.555
1193.54	127.777
1197.21	141.898
1200.88	133.418
1204.55	156.335
1208.21	169.708
1211.88	138.627
1215.54	124.934
1219.2	115.413
1222.86	129.39
1226.51	104.808
1230.17	137.446
1233.82	164.633
1237.47	194.028
1241.12	193.106
1244.77	229.767
1248.42	208.149
1252.06	246.534
1255.71	217.688
1259.35	207.112
1262.99	223.149
1266.63	221.387
1270.26	247.624
1273.9	229.826
1277.53	215.872
1281.16	187.672
1284.8	148.979
1288.42	91.377
1292.05	92.207
1295.68	80.41
1299.3	65.234
1302.92	38.575
1306.55	34.725
1310.16	24.583
1313.78	24.247
1317.4	19.796
1321.01	0.07
1324.62	4.838
1328.24	11.057
1331.85	13.762
1335.45	32.272
1339.06	1.409
1342.66	18.713
1346.27	33.641
1349.87	6.62
1353.47	11.931
1357.07	27.321
1360.66	2.444
1364.26	29.632
1367.85	14.569
1371.44	3.629
1375.04	14.095
1378.62	36.791
1382.21	12.106
1385.8	5.235
1389.38	6.687
1392.96	21.449
1396.54	9.671
1400.12	35.764
1403.7	32.933
1407.28	69.147
1410.85	50.27
1414.42	78.219
1417.99	33.871
1421.56	66.538
1425.13	54.265
1428.7	67.431
1432.26	50.128
1435.83	61.475
1439.39	51.447
1442.95	78.564
1446.51	30.604
1450.06	90.759
1453.62	126.72
1457.17	94.756
1460.73	65.276
1464.28	117.449
1467.83	63.379
1471.37	49.442
1474.92	57.081
1478.46	86.032
1482.01	74.254
1485.55	56.898
1489.09	80.302
1492.63	60.451
1496.16	65.072
1499.7	57.002
1503.23	43.256
1506.76	17.002
1510.29	21.444
1513.82	0.865
1517.35	1.108
1520.88	0.542
