Measurement: Raman, 514 nm, ccw, Raman Data Processed
Mineral: Almandine
Rruff sample: R070129
Ideal chemistry: Fe^2+^_3_Al_2_(SiO_4_)_3_
Locality: Wrangell, Wrangell Island, Wrangell-Petersburg Borough, Alaska, USA
Source: Michael Scott
Description: Dark red well-formed dodecahedral crystals in schist
Measured chemistry: (Fe^2+^_2.15_Mg_0.60_Mn_0.11_Fe^3+^_0.06_Ca_0.08_)_Σ=3_Al_2.00_((Si_0.98_Al_0.02_)_Σ=1_O_4_)_3_
Pin_id: L01134
Orientation: Laser parallel to b* (0 1 0). Fiducial mark perpendicular to laser is parallel to a [1 0 0]
Raman shift (cm-1)	intensity
137.683	0
142.633	2.75256
147.579	68.5874
152.522	232.271
157.462	476.913
162.4	1018.75
167.334	1741.4
172.265	1089.78
177.193	332.058
182.117	53.9048
187.039	5.10083
191.958	9.63586
196.874	83.5151
201.787	156.442
206.696	319.06
211.603	379.346
216.506	443.658
221.407	315.595
226.304	319.772
231.199	358.219
236.091	407.842
240.979	360.564
245.864	402.543
250.747	405.785
255.626	460.29
260.503	505.049
265.376	401.055
270.247	468.305
275.114	515.802
279.979	560.562
284.84	664.347
289.699	701.24
294.554	848.124
299.407	874.72
304.257	1220.47
309.103	1474.49
313.947	2073.34
318.788	2904.68
323.626	4184.35
328.461	5810.29
333.292	7322.4
338.121	11084.5
342.947	16889.2
347.771	17493
352.591	11018
357.408	6511.25
362.222	5865.61
367.034	6905.12
371.842	7442.76
376.648	5363.53
381.45	2936.42
386.25	1522.44
391.047	782.586
395.841	482.898
400.632	342.386
405.42	194.13
410.205	121.781
414.988	81.4092
419.767	68.9769
424.544	23.7703
429.318	5.79468
434.089	0.008545
438.857	15.7072
443.622	55.4036
448.384	37.2285
453.143	12.1431
457.9	33.3889
462.654	18.9305
467.405	97.0283
472.153	216.143
476.898	285.288
481.64	297.47
486.38	244.646
491.116	486.803
495.85	938.938
500.581	1302.04
505.309	835.118
510.035	488.177
514.757	323.193
519.477	402.301
524.194	513.451
528.908	488.974
533.62	611.734
538.328	864.74
543.034	1402.13
547.737	2673.59
552.437	4736.99
557.134	5415.32
561.829	3409.73
566.521	1627.44
571.21	906.081
575.896	674.463
580.58	665.908
585.261	666.933
589.939	658.273
594.614	772.058
599.286	845.173
603.956	525.904
608.623	333.398
613.287	254.31
617.949	213.751
622.608	316.809
627.264	392.625
631.917	527.337
636.568	449.764
641.215	282.327
645.861	223.144
650.503	156.216
655.143	91.5815
659.78	92.663
664.414	59.599
669.046	62.0394
673.674	0.699097
678.301	29.1702
682.924	5.61182
687.545	36.5134
692.163	12.2362
696.778	4.31445
701.391	38.6849
706.001	36.2983
710.609	25.5142
715.213	12.1699
719.815	29.9082
724.415	12.0991
729.011	21.5764
733.606	63.2566
738.197	45.8268
742.786	6.24744
747.372	59.5111
751.955	32.6523
756.536	48.6791
761.114	40.5958
765.69	24.4168
770.262	18.147
774.833	11.7927
779.4	10.6401
783.965	35.1776
788.528	9.16773
793.087	8.44202
797.645	57.5519
802.199	127.371
806.751	150.898
811.3	300.25
815.847	245.492
820.391	227.998
824.933	153.695
829.471	164.526
834.008	175.892
838.541	208.472
843.073	294.622
847.601	554.057
852.127	750.224
856.65	1217.37
861.171	1664.77
865.69	1776.59
870.205	1564.33
874.718	1573.38
879.229	1809.9
883.737	2325.43
888.242	3270.22
892.745	4779.07
897.246	7128.28
901.743	11247.7
906.239	20976.5
910.731	39862
915.221	60227.4
919.709	53340.1
924.194	28990
928.677	14550.7
933.157	8058.73
937.634	4856.99
942.109	3096.51
946.582	1989.3
951.052	1426.4
955.519	1132.86
959.984	934.723
964.447	793.021
968.906	750.055
973.364	698.783
977.819	796.359
982.271	675.995
986.721	611.851
991.169	527.848
995.614	536.499
1000.06	480.32
1004.5	541.009
1008.93	573.239
1013.37	591.488
1017.8	738.993
1022.23	845.881
1026.66	938.538
1031.09	1277.24
1035.51	1644.02
1039.93	1859.86
1044.35	1732.77
1048.76	1272.75
1053.17	700.804
1057.58	447.937
1061.99	258.137
1066.4	196.395
1070.8	112.761
1075.2	54.1637
1079.6	108.573
1084	111.993
1088.39	52.4657
1092.78	44.9923
1097.17	25.5031
1101.56	12.1669
1105.94	11.0934
1110.32	51.24
1114.7	40.9273
1119.08	23.178
1123.45	19.8408
1127.82	33.9633
1132.19	13.4226
1136.56	22.5142
1140.92	7.70129
1145.29	44.0638
1149.65	24.1118
1154	76.1847
1158.36	109.989
1162.71	176.8
1167.06	214.336
1171.41	193.684
1175.76	284.297
1180.1	262.289
1184.44	193.127
1188.78	294.339
1193.11	227.372
1197.45	203.297
1201.78	214.625
1206.11	239.31
1210.43	163.214
1214.76	191.399
1219.08	158.954
1223.4	103.74
1227.72	163.275
1232.03	139.891
1236.35	176.619
1240.66	134.367
1244.96	198.763
1249.27	153.501
1253.57	235.206
1257.88	179.173
1262.17	214.638
1266.47	185.667
1270.76	213.107
1275.06	200.258
1279.35	134.946
1283.63	173.34
1287.92	133.381
1292.2	96.9092
1296.48	65.2917
1300.76	47.5322
1305.04	19.635
1309.31	45.5994
1313.58	58.4238
1317.85	5.07959
1322.12	26.4544
1326.38	22.4304
1330.64	9.3706
1334.9	9.96558
1339.16	17.6028
1343.41	12.3962
1347.67	41.6311
1351.92	29.3652
1356.17	0.850342
1360.41	8.85645
1364.66	2.83911
1368.9	27.2266
1373.14	24.054
1377.38	92.9902
1381.61	77.9812
1385.84	41.0806
1390.08	41.0232
1394.3	70.5073
1398.53	16.7825
1402.75	38.0825
1406.97	16.4102
1411.19	100.768
1415.41	139.163
1419.63	114.771
1423.84	156.33
1428.05	162.976
1432.26	120.612
1436.46	206.677
1440.67	150.164
1444.87	190.605
1449.07	129.228
1453.27	97.8677
1457.46	160.46
1461.66	132.904
1465.85	148.227
1470.04	149.997
1474.22	230.998
1478.41	193.982
1482.59	193.92
1486.77	158.815
1490.95	218.642
1495.12	199.364
1499.3	243.943
1503.47	175.343
1507.63	189.129
1511.8	131.633
1515.97	134.789
1520.13	87.4294
1524.29	102.388
1528.45	128.792
1532.61	42.8623
1536.76	91.9604
1540.91	115.3
1545.06	23.1409
1549.21	13.1914
1553.35	177.59
1557.5	20.8977
1561.64	77.4014
