Measurement: Raman, 514 nm, ccw, Raman Data Processed
Mineral: Almandine
Rruff sample: R060450
Ideal chemistry: Fe^2+^_3_Al_2_(SiO_4_)_3_
Locality: Canada
Source: Gemological Institute of America
Description: Reddish-brown translucent fragment
Measured chemistry: (Fe^2+^_1.92_Mg_1.03_Ca_0.04_Mn_0.01_)_Î£=3_Al_2.00_(Si_1.00_O_4_)_3_
Pin_id: L00665
Orientation: Laser parallel to c* (0 0 1). Fiducial mark perpendicular to laser is parallel to a [1 0 0]
Raman shift (cm-1)	intensity
91.012	0
95.948	61.3148
100.883	4.2644
105.815	245.064
110.744	504.662
115.671	293.522
120.596	119.281
125.519	135.613
130.439	256.592
135.356	516.305
140.271	733.159
145.184	785.017
150.094	546.745
155.002	460.106
159.908	425.884
164.811	581.891
169.711	828.324
174.61	944.934
179.505	555.03
184.399	318.707
189.29	412.816
194.178	543.27
199.064	575.212
203.948	697.17
208.829	453.677
213.708	520.597
218.585	336.92
223.459	161.633
228.33	58.7168
233.199	163.156
238.066	138.03
242.93	208
247.792	274.326
252.651	218.143
257.508	238.126
262.363	284.955
267.215	330.504
272.064	312.685
276.912	435.528
281.756	323.532
286.598	438.719
291.438	421.804
296.276	584.185
301.111	638.588
305.943	759.519
310.773	906.615
315.601	1386.36
320.426	1547.05
325.248	2079.27
330.068	3113.74
334.886	4440.44
339.701	6219.34
344.514	9595.42
349.324	13357.7
354.132	10846.1
358.938	5981.63
363.741	4248.31
368.541	4193.12
373.339	4333.05
378.135	3072.09
382.928	1634.25
387.718	857.629
392.506	508.263
397.292	308.262
402.075	136.53
406.856	148.053
411.634	69.8679
416.41	42.9951
421.183	52.7268
425.954	76.4263
430.722	4.41113
435.488	7.52539
440.251	6.64966
445.012	16.9351
449.77	30.7241
454.526	29.3838
459.28	5.03101
464.03	96.5342
468.779	122.122
473.525	227.72
478.268	408.128
483.009	484.852
487.747	455.368
492.483	533.844
497.217	805.275
501.948	1366.65
506.676	1103.04
511.402	601.39
516.125	478.682
520.846	507.904
525.565	516.513
530.281	534.012
534.994	654.243
539.705	820.237
544.413	1264.03
549.119	2173.81
553.822	3776.33
558.523	5196.87
563.222	3641.28
567.917	1733.84
572.611	908.889
577.302	668.787
581.99	606.92
586.676	607.446
591.359	527.566
596.04	415.512
600.718	413.74
605.394	469.342
610.067	353.237
614.737	244.119
619.406	191.403
624.071	237.606
628.734	417.407
633.395	699.743
638.053	764.317
642.708	527.674
647.361	368.294
652.012	232.351
656.66	196.666
661.305	66.3162
665.948	59.1082
670.588	11.6172
675.226	20.2422
679.861	48.3523
684.494	44.4995
689.124	42.7905
693.752	9.71435
698.377	13.8271
702.999	29.0286
707.619	7.2937
712.237	8.54395
716.852	17.0159
721.464	51.1851
726.074	1.79663
730.681	15.0037
735.286	35.5876
739.888	3.01929
744.488	45.251
749.085	0.742676
753.68	19.0803
758.272	8.75757
762.861	70.2991
767.448	83.7158
772.033	48.9958
776.614	6.15918
781.194	22.1775
785.77	31.0188
790.345	2.59888
794.916	0.359619
799.485	1.4165
804.052	76.2126
808.616	41.7839
813.177	190.297
817.736	207.97
822.292	133.052
826.846	74.845
831.397	18.123
835.945	137.507
840.491	157.421
845.035	199.444
849.576	508.977
854.114	715.15
858.65	1192.14
863.183	1851.67
867.713	2108.01
872.241	1745.49
876.767	1463.3
881.29	1422.02
885.81	1773.01
890.328	2307.53
894.843	3318.39
899.356	4830.39
903.866	7036.77
908.373	12141.6
912.878	23090.1
917.38	41298.8
921.88	47432.2
926.377	29096
930.872	13989.7
935.364	7498.93
939.853	4294.02
944.34	2714.36
948.824	1782.03
953.306	1261.07
957.785	909.464
962.261	845.212
966.735	671.415
971.207	585.773
975.675	547.02
980.141	607.143
984.605	621.992
989.066	550.866
993.524	453.053
997.98	372.502
1002.43	325.195
1006.88	392.026
1011.33	392.022
1015.78	440.78
1020.22	513.843
1024.66	587.696
1029.1	756.465
1033.53	849.26
1037.97	1115.93
1042.4	1429.38
1046.82	1639.97
1051.25	1413.73
1055.67	1011.69
1060.09	621.816
1064.51	354.071
1068.92	239.504
1073.33	158.101
1077.74	116.818
1082.15	13.6646
1086.55	183.641
1090.95	35.7129
1095.35	20.9194
1099.75	41.229
1104.14	10.1187
1108.53	44.6284
1112.92	7.47119
1117.31	67.5727
1121.69	186.688
1126.07	204.803
1130.45	97.9023
1134.82	38.1001
1139.19	39.3506
1143.57	25.0117
1147.93	9.0459
1152.3	56.8213
1156.66	3.33984
1161.02	15.3276
1165.38	11.7407
1169.73	137.672
1174.08	124.517
1178.43	175.407
1182.78	158.065
1187.12	116.779
1191.46	104.075
1195.8	205.763
1200.14	193.123
1204.47	158.735
1208.8	171.138
1213.13	128.091
1217.46	225.638
1221.78	106.416
1226.1	111.897
1230.42	158.512
1234.73	161.023
1239.04	158.167
1243.35	128.862
1247.66	105.018
1251.97	145.746
1256.27	181.91
1260.57	179.517
1264.86	165.998
1269.16	69.772
1273.45	143.421
1277.74	198.238
1282.03	160.219
1286.31	210.611
1290.59	147.49
1294.87	135.148
1299.14	72.8389
1303.42	46.4141
1307.69	169.875
1311.95	41.2349
1316.22	8.4917
1320.48	63.6362
1324.74	40.6562
1329	54.5337
1333.26	15.0171
1337.51	36.6352
1341.76	43.4375
1346	48.3677
1350.25	97.0732
1354.49	76.585
1358.73	14.9058
1362.96	69.5571
1367.2	43.7534
1371.43	28.0835
1375.66	13.9658
1379.88	113.909
1384.11	49.7612
1388.33	52.52
1392.54	4.25977
1396.76	124.012
1400.97	148.923
1405.18	92.939
1409.39	73.0312
1413.59	108.196
1417.8	103.437
1421.99	142.805
1426.19	121.252
1430.38	162.68
1434.58	152.891
1438.77	188.778
1442.95	244.552
1447.13	166.593
1451.32	114.846
1455.49	199.802
1459.67	129.361
1463.84	169.397
1468.01	177.881
1472.18	258.914
1476.35	179.21
1480.51	192.082
1484.67	252.952
1488.83	118.661
1492.98	223.435
1497.13	253.223
1501.28	216.916
1505.43	234.445
1509.57	215.736
1513.71	219.107
1517.85	192.107
1521.99	128.74
1526.12	149.987
1530.25	71.896
1534.38	169.299
1538.5	109.337
1542.62	71.3779
1546.74	192.788
1550.86	150.859
1554.98	234.177
1559.09	104.893
1563.2	203.045
1567.31	66.0288
