Measurement: Raman, 514 nm, ccw, Raman Data Processed
Mineral: Almandine
Rruff sample: R060099
Ideal chemistry: Fe^2+^_3_Al_2_(SiO_4_)_3_
Locality: Alaska, USA
Source: Roland Boehne
Description: Red cube shaped single crystal
Measured chemistry: (Fe^2+^_1.63_Mg_0.57_Mn_0.56_Ca_0.24_)_Σ=3_(Al_1.98_Fe^3+^_0.02_)_Σ=2_(Si_1.00_O_4_)_3_
Pin_id: M00497
Orientation: Laser parallel to -a* (-1 0 0). Fiducial mark perpendicular to laser is parallel to c [0 0 1]
Raman shift (cm-1)	intensity
93.48	0
98.416	72.5046
103.349	11.7676
108.28	426.946
113.208	666.876
118.134	335.303
123.058	55.6728
127.979	62.5371
132.898	137.866
137.814	253.734
142.728	205.701
147.639	319.645
152.549	601.296
157.455	923.355
162.359	1245.6
167.261	1305.82
172.161	1000.27
177.058	541.886
181.952	252.06
186.845	244.474
191.734	407.163
196.622	741.824
201.507	1167.07
206.389	1526.6
211.269	1608.15
216.147	1334.4
221.022	860.816
225.895	553.087
230.765	328.728
235.633	318.545
240.498	206.494
245.361	256.806
250.222	74.1035
255.08	92.259
259.936	112.511
264.789	65.1663
269.64	72.9351
274.488	184.067
279.334	27.855
284.178	74.7009
289.019	149.57
293.857	166.382
298.693	291.755
303.527	632.317
308.358	1079.1
313.187	1384.02
318.013	1283.08
322.837	1365.29
327.659	2159.64
332.478	3699.11
337.294	7619.68
342.108	12973.3
346.92	13360
351.729	7606.71
356.535	3656.47
361.34	2126.25
366.141	1473.06
370.94	1069.56
375.737	703.71
380.531	432.541
385.323	232.38
390.113	153.333
394.9	61.425
399.684	23.6201
404.466	11.0342
409.245	9.62378
414.022	18.0747
418.797	16.5508
423.569	64.1016
428.338	19.1333
433.105	21.7554
437.87	36.873
442.632	82.8433
447.391	32.4663
452.149	94.0156
456.903	181.511
461.655	307.914
466.405	507.203
471.152	904.369
475.897	1488.42
480.639	1086.34
485.378	880.114
490.116	1577.75
494.85	3368.22
499.582	4091.56
504.312	2371.8
509.039	1103.89
513.764	764.27
518.486	698.648
523.206	681.277
527.923	717.172
532.638	723.153
537.35	1034.38
542.059	1483.83
546.766	2774.15
551.471	4616.87
556.173	4673.26
560.873	2834.2
565.57	1624.17
570.264	978.665
574.957	884.253
579.646	1060.57
584.333	942.228
589.018	528.744
593.7	434.649
598.379	379.334
603.056	319.34
607.73	307.039
612.402	368.207
617.072	435.28
621.739	762.019
626.403	1319.22
631.065	1631.33
635.724	1171.44
640.381	753.571
645.035	552.426
649.687	478.633
654.336	288.162
658.983	229.377
663.627	145.279
668.268	46.8628
672.907	48.0972
677.544	80.9468
682.178	31.4165
686.809	49.333
691.438	60.2144
696.065	16.4458
700.688	33.602
705.31	18.8814
709.929	55.2217
714.545	13.0229
719.158	21.5513
723.77	48.4326
728.378	67.3193
732.984	34.8428
737.588	73.063
742.189	162.102
746.787	47.9883
751.383	93.7256
755.976	135.31
760.567	105.777
765.155	147.115
769.741	52.352
774.324	55.4951
778.904	61.5049
783.482	7.72168
788.058	97.0132
792.631	32.5117
797.201	82.0112
801.769	137.467
806.334	218.769
810.897	173.551
815.457	228.268
820.014	164.31
824.569	255.9
829.122	217.381
833.671	307.644
838.219	389.547
842.763	623.252
847.306	1003.02
851.845	1715.07
856.382	2801.11
860.917	3607.33
865.448	3282.99
869.978	2403.53
874.505	2171.63
879.029	2461.48
883.55	3057.74
888.069	4317.38
892.586	6256.62
897.1	8438.9
901.611	12305.7
906.12	21674.5
910.626	40003.3
915.129	52306.9
919.63	39324.1
924.129	20580.9
928.625	10695.2
933.118	5970.91
937.609	3645.93
942.097	2335.28
946.582	1532.99
951.065	1173.07
955.546	976.546
960.023	853.52
964.499	633.253
968.971	552.366
973.441	596.312
977.909	550.151
982.374	599.074
986.836	448.444
991.295	366.881
995.753	287.13
1000.21	384.014
1004.66	599.218
1009.11	613.349
1013.55	639.485
1018	932.585
1022.44	1236.15
1026.88	1596.94
1031.32	2352.82
1035.75	3260.88
1040.18	3567.12
1044.61	3129.53
1049.04	2024.14
1053.46	1165.95
1057.88	582.928
1062.3	334.577
1066.71	222.351
1071.13	167.727
1075.54	64.208
1079.94	77.8315
1084.35	40.6265
1088.75	136.851
1093.15	38.8457
1097.55	19.1148
1101.94	37.1084
1106.34	30.1592
1110.73	13.248
1115.11	1.31934
1119.5	27.9888
1123.88	49.5825
1128.26	67.0898
1132.63	38.626
1137.01	66.0317
1141.38	9.96045
1145.75	89.4487
1150.12	55.3589
1154.48	36.3584
1158.84	90.9609
1163.2	93.437
1167.55	140.779
1171.91	162.982
1176.26	131.038
1180.61	236.942
1184.95	169.687
1189.29	247.269
1193.63	131.679
1197.97	168.915
1202.31	123.288
1206.64	157.211
1210.97	191.727
1215.29	106.372
1219.62	153.363
1223.94	117.294
1228.26	149.735
1232.57	89.2837
1236.89	97.0684
1241.2	152.976
1245.51	241.952
1249.81	340.15
1254.12	313.549
1258.42	294.496
1262.72	251.708
1267.01	379.871
1271.3	320.713
1275.59	229.678
1279.88	147.56
1284.17	357.26
1288.45	246.098
1292.73	174.813
1297.01	281.375
1301.28	202.789
1305.55	160.059
1309.82	243.189
1314.09	130.195
1318.35	187.079
1322.61	156.851
1326.87	25.5034
1331.13	65.9634
1335.38	17.0903
1339.63	4.521
1343.88	48.5757
1348.12	75.6484
1352.37	89.4365
1356.61	27.3999
1360.85	159.118
1365.08	71.0444
1369.31	158.782
1373.54	52.7402
1377.77	168.774
1381.99	172.12
1386.22	150.387
1390.43	59.6924
1394.65	69.2329
1398.87	111.922
1403.08	101.742
1407.29	52.7075
1411.49	17.251
1415.69	180.774
1419.89	218.82
1424.09	143.917
1428.29	160.098
1432.48	149.409
1436.67	273.282
1440.86	313.084
1445.04	469.676
1449.23	405.466
1453.4	536.24
1457.58	474.742
1461.76	432.987
1465.93	369.929
1470.1	340.037
1474.26	441.012
1478.43	308.807
1482.59	348.003
1486.75	254.694
1490.9	265.644
1495.06	173.539
1499.21	157.985
1503.35	148.306
1507.5	184.398
1511.64	191.156
1515.78	105.163
1519.92	85.9136
1524.05	179.416
1528.18	191.722
1532.31	81.4678
1536.44	132.879
1540.56	192.068
1544.69	207.515
1548.8	93.5342
1552.92	237.472
1557.03	45.2109
1561.14	68.2031
1565.25	289.482
1569.36	170.01
