Measurement: Raman, 514 nm, ccw, Raman Data Processed
Mineral: Almandine
Rruff sample: R040079
Ideal chemistry: Fe^2+^_3_Al_2_(SiO_4_)_3_
Locality: Ontario, Canada
Source: University of Arizona Mineral Museum
Description: Dark red dodecahedral crystal
Measured chemistry: (Fe^2+^_2.29_Mg_0.53_Ca_0.18_)_Î£=3_Al_2.00_(Si_1.00_O_4_)_3_
Pin_id: M00037
Orientation: Laser parallel to a* (1 0 0). Fiducial mark perpendicular to laser is parallel to b [0 1 0]
Raman shift (cm-1)	intensity
129.495	0
133.669	0.206
137.841	10.802
142.011	165.655
146.179	52.591
150.345	125.195
154.509	150.443
158.671	178.896
162.83	297.668
166.988	461.607
171.144	649.305
175.297	315.676
179.449	133.212
183.598	18.333
187.745	6.699
191.891	0.064
196.034	41.74
200.175	165.46
204.314	257.047
208.451	388.144
212.586	452.512
216.719	432.347
220.85	302.257
224.979	129.926
229.105	67.265
233.23	56.939
237.353	37.237
241.474	45.1
245.592	22.939
249.709	33.174
253.823	9.656
257.936	66.387
262.046	21.016
266.155	57.433
270.261	85.13
274.365	35.853
278.468	73.822
282.568	84.73
286.666	130.242
290.762	104.601
294.857	42.366
298.949	41.389
303.039	62.734
307.127	0.856
311.213	90.978
315.297	248.415
319.379	190.947
323.46	4.526
327.538	21.391
331.614	174.413
335.688	490.36
339.76	1134.03
343.83	2753.32
347.898	5372.83
351.964	5611.66
356.028	2605.5
360.09	926.219
364.15	311.78
368.208	280.804
372.264	337.864
376.318	325.41
380.37	190.523
384.42	50.205
388.468	18.546
392.514	20.846
396.558	0.417
400.6	55.188
404.641	135.576
408.679	157.531
412.715	167.337
416.749	158.008
420.781	111.706
424.811	114.438
428.84	116.079
432.866	83.652
436.89	62.324
440.913	38.975
444.933	85.745
448.951	64.45
452.968	8.119
456.982	15.981
460.995	7.622
465.005	20.45
469.014	22.888
473.02	47.393
477.025	173.558
481.027	335.137
485.028	240.243
489.027	20.821
493.024	120.167
497.019	388.009
501.012	1209.77
505.002	1477.56
508.992	553.51
512.979	205.74
516.964	100.944
520.947	16.83
524.928	28.752
528.907	11.377
532.885	3.177
536.86	24.928
540.834	77.554
544.805	163.764
548.775	411.939
552.742	938.828
556.708	1863.61
560.672	2061.8
564.634	1062.12
568.594	416.877
572.552	124.252
576.508	7.141
580.462	32.156
584.414	115.604
588.365	96.86
592.313	51.328
596.26	0.132
600.204	16.498
604.147	28.537
608.088	23.575
612.026	10.006
615.963	8.163
619.898	9.866
623.832	59.919
627.763	159.666
631.692	355.476
635.619	522.335
639.545	388.544
643.469	234.748
647.39	89.985
651.31	94.91
655.228	27.766
659.144	15.817
663.058	51.889
666.97	12.058
670.881	32.333
674.789	59.942
678.696	3.943
682.6	2.632
686.503	40.214
690.404	37.738
694.303	32.975
698.2	59.445
702.095	18.571
705.989	39.128
709.88	48.212
713.77	47.093
717.658	51.754
721.543	87.398
725.427	39.715
729.31	48.277
733.19	46.19
737.068	13.929
740.945	34.983
744.819	25.553
748.692	1.771
752.563	15.493
756.432	38.804
760.299	61.726
764.165	40.665
768.028	43.821
771.89	56.102
775.749	37.382
779.607	34.677
783.463	35.481
787.318	39.305
791.17	34.964
795.02	34.597
798.869	29.89
802.716	5.283
806.561	39.962
810.404	43.51
814.245	35.581
818.085	25.758
821.922	47.815
825.758	55.01
829.592	39.472
833.424	15.494
837.254	4.74
841.083	4.941
844.909	50.264
848.734	120.74
852.557	205.778
856.378	330.308
860.197	648.374
864.015	1027.94
867.83	1145.36
871.644	819.521
875.456	391.776
879.266	105.206
883.074	9.566
886.881	114.983
890.686	97.121
894.488	218.169
898.29	711.173
902.089	1343.66
905.886	2204.36
909.682	4920.11
913.476	10782.4
917.268	20124.5
921.058	22883.7
924.846	14442.4
928.633	6635.47
932.418	2850.98
936.201	1227.88
939.982	329.628
943.761	39.151
947.539	40.778
951.315	59.082
955.089	2.31
958.861	213.89
962.631	284.44
966.4	347.021
970.167	341.874
973.932	260.249
977.695	234.143
981.456	269.063
985.216	236.986
988.974	160.066
992.73	122.471
996.484	66.386
1000.24	60.316
1003.99	78.603
1007.74	29.279
1011.48	26.181
1015.23	5.419
1018.97	48.938
1022.72	83.681
1026.45	136.77
1030.19	252.371
1033.93	400.274
1037.66	682.241
1041.4	978.173
1045.13	1097.15
1048.86	990.534
1052.59	644.347
1056.31	323.186
1060.04	139.156
1063.76	88.33
1067.48	18.506
1071.2	12.847
1074.92	12.083
1078.63	11.708
1082.35	56.66
1086.06	43.825
1089.77	41.531
1093.47	46.141
1097.18	59.921
1100.89	1.232
1104.59	65.746
1108.29	26.847
1111.99	0.67
1115.69	43.982
1119.38	43.934
1123.08	29.753
1126.77	26.096
1130.46	75.92
1134.15	7.075
1137.84	12.942
1141.53	25.608
1145.21	33.33
1148.89	54.185
1152.57	63.223
1156.25	15.934
1159.93	32.365
1163.61	29.087
1167.28	0.201
1170.95	23.5
1174.62	30.428
1178.29	23.391
1181.96	32.901
1185.62	16.976
1189.28	21.235
1192.95	29.671
1196.61	45.698
1200.26	13.341
1203.92	22.883
1207.58	31.631
1211.23	2.467
1214.88	0.929
1218.53	13.336
1222.18	47.448
1225.82	52.668
1229.47	52.808
1233.11	24.041
1236.75	20.227
1240.39	29.428
1244.03	27.212
1247.66	18.326
1251.3	51.099
1254.93	31.124
1258.56	39.497
1262.19	65.093
1265.82	59.223
1269.45	51.843
1273.07	16.468
1276.69	45.338
1280.31	5.615
1283.93	37.669
1287.55	10.817
1291.16	12.939
1294.78	50.337
1298.39	53.104
1302	60.59
1305.61	66.332
1309.22	54.081
1312.82	0.174
1316.43	62.449
1320.03	77.596
1323.63	51.233
1327.23	68.266
1330.83	35.218
1334.42	7.829
1338.02	32.807
1341.61	22.838
1345.2	65.473
1348.79	14.478
1352.38	14.144
1355.96	5.819
1359.55	76.354
1363.13	79.648
1366.71	59.763
1370.29	35.489
1373.86	15.461
1377.44	21.519
1381.01	19.889
1384.59	5.871
1388.16	36.966
1391.72	36.603
1395.29	36.508
1398.86	26.557
1402.42	65.119
1405.98	75.68
1409.55	90.207
1413.11	23.177
1416.66	7.296
1420.22	28.247
1423.77	41.832
1427.32	20.153
1430.88	69.067
1434.42	69.937
1437.97	45.9
1441.52	78.938
1445.06	95.041
1448.61	17.811
1452.15	35.035
1455.68	40.546
1459.22	57.521
1462.76	33.512
1466.29	52.241
1469.83	36.967
1473.36	56.444
1476.89	77.379
1480.41	56.122
1483.94	81.714
1487.47	83.223
1490.99	86.25
1494.51	26.441
1498.03	13.659
1501.55	2.546
1505.07	29.741
1508.58	1.695
1512.09	49.527
1515.61	6.212
1519.12	28.268
