Measurement: Raman, 514 nm, ccw, Raman Data Processed
Mineral: Almandine
Rruff sample: R050029
Ideal chemistry: Fe^2+^_3_Al_2_(SiO_4_)_3_
Locality: Barton Garnet mine, Gore Mountain, Warren County, New York, USA
Source: University of Arizona Mineral Museum
Description: Reddish brown fragments
Measured chemistry: (Fe^2+^_1.34_Mg_1.26_Ca_0.37_Mn_0.03_)_Î£=3_Al_2.00_(Si_1.00_O_4_)_3_
Pin_id: L00523
Orientation: Laser parallel to a* (1 0 0). Fiducial mark perpendicular to laser is parallel to b [0 1 0]
Raman shift (cm-1)	intensity
89.254	0
93.442	54.932
97.628	142.754
101.812	7.344
105.994	45.151
110.174	122.993
114.351	325.386
118.527	235.02
122.701	144.387
126.873	102.841
131.042	148.216
135.21	105.296
139.376	122.913
143.539	158.9
147.701	202.992
151.861	182.585
156.018	108.46
160.174	42.96
164.327	8.157
168.479	92.954
172.628	316.76
176.776	573.48
180.922	407.184
185.065	214.681
189.207	51.687
193.346	0.041
197.484	70.766
201.619	50.703
205.753	28.061
209.884	28.941
214.014	61.251
218.141	49.239
222.267	100.91
226.391	94.88
230.512	177.793
234.632	180.05
238.749	210.989
242.865	243.673
246.979	216.189
251.09	283.59
255.2	296.025
259.308	283.204
263.414	294.523
267.517	348.214
271.619	329.281
275.719	399.132
279.817	427.461
283.913	467.65
288.007	510.747
292.099	469.202
296.189	558.277
300.277	568.124
304.363	669.799
308.447	747.868
312.529	801.047
316.609	1012.98
320.687	1078.65
324.764	1405.27
328.838	1863.21
332.91	2518.37
336.981	3315.22
341.049	4217.53
345.116	5612.73
349.18	7801.92
353.243	10312.6
357.304	10473
361.362	8125.1
365.419	5936.98
369.474	4862.74
373.527	4192.14
377.578	3638.34
381.627	2799.3
385.674	2073.39
389.719	1485.87
393.762	1041.16
397.804	713.969
401.843	450.966
405.881	358.57
409.916	265.198
413.95	210.11
417.981	95.984
422.011	70.805
426.039	82.415
430.065	41.731
434.089	4.772
438.111	22.53
442.131	24.025
446.149	29.733
450.166	19.765
454.18	20.952
458.193	0.453
462.203	36.738
466.212	24.833
470.219	86.768
474.224	92.574
478.227	88.264
482.228	101.851
486.227	99.374
490.224	116.864
494.22	142.321
498.213	226.7
502.205	328.982
506.194	381.229
510.182	343.752
514.168	382.282
518.152	446.383
522.134	504.026
526.114	573.659
530.093	650.56
534.069	674.635
538.044	830.698
542.017	1024.35
545.987	1502.94
549.956	2280.49
553.923	3743.64
557.889	5280.42
561.852	4290.44
565.813	2400.62
569.773	1285.31
573.731	818.248
577.686	554.002
581.64	453.899
585.593	359.615
589.543	394.771
593.491	346.497
597.438	339.041
601.382	403.508
605.325	468.442
609.266	491.64
613.205	337.345
617.142	208.065
621.078	213.184
625.011	145.026
628.943	186.359
632.872	202.069
636.8	286.396
640.726	304.773
644.651	258.005
648.573	237.093
652.494	209.468
656.412	152.727
660.329	157.872
664.244	88.902
668.157	72.812
672.069	44.598
675.978	35.253
679.886	29.76
683.792	2.929
687.696	46.857
691.598	19.091
695.498	18.596
699.397	38.337
703.293	14.396
707.188	32.727
711.081	4.341
714.972	35.836
718.862	14.849
722.749	23.254
726.635	6.474
730.519	17.056
734.401	24.514
738.281	21.76
742.16	30.943
746.036	11.046
749.911	19.074
753.784	2.048
757.655	38.972
761.525	26.86
765.392	34.725
769.258	34.573
773.122	53.395
776.984	24.211
780.844	28.997
784.703	71.751
788.56	36.475
792.415	45.172
796.268	81.84
800.119	153.48
803.969	208.109
807.816	258.725
811.662	332.329
815.506	361.906
819.349	389.332
823.189	427.384
827.028	382.289
830.865	406.69
834.7	423.641
838.534	503.957
842.365	544.206
846.195	685.875
850.023	800.858
853.85	1015.99
857.674	1297.88
861.497	1462.12
865.318	1471.62
869.137	1475.3
872.955	1419.87
876.77	1448.64
880.584	1636.08
884.396	2036.61
888.207	2429.08
892.015	3147.02
895.822	4070.23
899.627	5520.62
903.43	8427.91
907.232	13634.5
911.032	23511.3
914.83	35948.2
918.626	39745.3
922.42	28642.4
926.213	17359.6
930.004	10697
933.793	6962.37
937.581	4677.87
941.366	3290.46
945.15	2406.14
948.932	1837.91
952.713	1503.3
956.491	1301
960.268	1098.97
964.044	999.396
967.817	919.579
971.589	810.203
975.359	800.627
979.127	754.652
982.893	700.837
986.658	661.729
990.421	601.056
994.183	528.765
997.942	474.737
1001.7	434.878
1005.46	465.315
1009.21	489.258
1012.96	547.14
1016.71	590.389
1020.46	640.55
1024.21	707.8
1027.96	782.14
1031.7	772.587
1035.44	718.136
1039.18	773.796
1042.92	810.566
1046.66	819.433
1050.39	789.399
1054.13	644.446
1057.86	488.563
1061.59	329.754
1065.32	239.017
1069.05	176.361
1072.77	144.781
1076.49	121.261
1080.22	103.905
1083.94	83.431
1087.65	78.134
1091.37	24.88
1095.09	61.672
1098.8	1.484
1102.51	9.397
1106.22	8.711
1109.93	2.816
1113.63	1.902
1117.34	3.983
1121.04	42.929
1124.74	70.856
1128.44	8.203
1132.14	11.301
1135.84	34.468
1139.53	7.789
1143.22	2.237
1146.91	18.823
1150.61	26.54
1154.29	15.634
1157.98	15.785
1161.66	64.897
1165.35	85.015
1169.03	53.078
1172.71	125.116
1176.38	120.125
1180.06	127.241
1183.73	119.609
1187.41	152.88
1191.08	117.723
1194.75	142.094
1198.41	125.069
1202.08	108.547
1205.74	131.497
1209.41	120.195
1213.07	141.162
1216.73	150.32
1220.38	117.189
1224.04	149.48
1227.69	139.298
1231.35	118.532
1235	116.316
1238.65	112.585
1242.3	98.531
1245.94	91.176
1249.59	146.479
1253.23	117.62
1256.87	152.539
1260.51	129.802
1264.15	162.208
1267.78	172.512
1271.42	156.252
1275.05	188.963
1278.68	194.882
1282.31	141.853
1285.94	135.469
1289.56	153.335
1293.19	101.728
1296.81	99.582
1300.43	97.437
1304.05	88.921
1307.67	59.443
1311.29	94.66
1314.9	86.982
1318.52	76.147
1322.13	63.163
1325.74	33.058
1329.34	33.912
1332.95	7.551
1336.56	22.951
1340.16	0.386
1343.76	16.589
1347.36	10.667
1350.96	32.619
1354.56	34.448
1358.15	19.848
1361.74	3.272
1365.34	7.198
1368.93	18.411
1372.52	8.05
1376.1	11.401
1379.69	49.723
1383.27	30.74
1386.85	16.597
1390.43	3.342
1394.01	28.962
1397.59	14.453
1401.17	11.907
1404.74	5.454
1408.31	31.405
1411.88	42.395
1415.45	47.32
1419.02	53.24
1422.59	67.918
1426.15	59.562
1429.71	40.769
1433.28	51.115
1436.84	26.497
1440.39	61.466
1443.95	62.738
1447.5	63.09
1451.06	36.35
1454.61	69.478
1458.16	72.049
1461.71	59.789
1465.26	88.781
1468.8	102.083
1472.34	55.423
1475.89	38.398
1479.43	33.205
1482.97	35.729
1486.5	38.656
1490.04	40.516
1493.57	53.87
1497.11	62.869
1500.64	47.819
1504.17	65.344
1507.69	49.689
1511.22	32.417
1514.74	62.511
1518.27	0
