Measurement: Raman, 514 nm, ccw, Raman Data Processed
Mineral: Almandine
Rruff sample: R040076
Ideal chemistry: Fe^2+^_3_Al_2_(SiO_4_)_3_
Locality: Barton Garnet mine, Gore Mountain, Warren County, New York, USA
Source: University of Arizona Mineral Museum
Description: Red coarsely crystalline
Measured chemistry: (Fe^2+^_1.38_Mg_1.26_Ca_0.33_Mn_0.03_)_Î£=3_Al_2.00_(Si_1.00_O_4_)_3_; trace amounts of Ti
Pin_id: M00102
Orientation: Laser parallel to -a* (-1 0 0). Fiducial mark perpendicular to laser is parallel to b [0 1 0]
Raman shift (cm-1)	intensity
199.99	0
204.116	6.437
208.239	58.961
212.361	24.808
216.48	37.578
220.598	40.423
224.714	73.514
228.828	68.165
232.939	52.099
237.049	144.4
241.157	150.622
245.263	147.4
249.367	238.525
253.469	181.892
257.569	211.485
261.667	185.983
265.763	261.217
269.857	243.001
273.95	291.456
278.04	327.494
282.128	294.162
286.215	359.576
290.299	353.773
294.382	395.797
298.462	461.725
302.541	499.605
306.618	563.451
310.692	669.327
314.765	786.097
318.836	971.434
322.905	1162.56
326.972	1551.51
331.037	2100.45
335.101	2834.86
339.162	3921.39
343.221	4930.88
347.279	6559.53
351.334	9516.1
355.388	12804.6
359.44	12102.9
363.489	8901.69
367.537	6517.32
371.583	5526.78
375.627	4885.24
379.669	4065.98
383.71	3135.84
387.748	2224.24
391.784	1510.43
395.819	1036.76
399.852	696.176
403.882	467.628
407.911	396.104
411.938	280.576
415.963	164.031
419.986	80.436
424.007	36.789
428.027	12.045
432.044	6.177
436.059	25.831
440.073	29.014
444.085	8.359
448.095	35.87
452.103	4.414
456.109	34.482
460.113	2.408
464.115	21.139
468.116	20.743
472.114	51.216
476.111	67.542
480.106	128.67
484.099	114.522
488.09	130.068
492.079	136.286
496.066	195.312
500.052	246.203
504.035	367.966
508.017	458.628
511.997	431.524
515.975	442.646
519.951	495.154
523.925	649.398
527.897	736.222
531.868	762.076
535.837	806.368
539.803	916.807
543.768	1267.6
547.731	1762.86
551.693	2669.61
555.652	4462.99
559.609	6272.16
563.565	5003.34
567.519	2677.21
571.471	1443.99
575.421	880.353
579.369	638.986
583.316	556.965
587.26	485.964
591.203	426.541
595.144	441.573
599.083	445.69
603.02	480.255
606.956	551.802
610.889	533.383
614.821	357.096
618.751	276.941
622.679	182.738
626.605	230.413
630.53	222.076
634.452	299.592
638.373	410.16
642.292	410.877
646.209	343.599
650.124	301.156
654.038	220.552
657.95	217.789
661.859	155.869
665.767	127.792
669.674	82.559
673.578	74.158
677.48	24.584
681.381	9.808
685.28	15.801
689.177	11.979
693.073	12.851
696.966	43.586
700.858	21.7
704.748	27.185
708.636	39.043
712.522	29.27
716.407	7.183
720.289	7.58
724.17	0.594
728.049	24.799
731.927	21.813
735.802	18.297
739.676	0.353
743.548	30.895
747.418	1.944
751.286	36.162
755.153	6.764
759.018	40.271
762.881	55.299
766.742	46.352
770.601	49.414
774.459	48.508
778.315	39.569
782.169	45.586
786.021	45.566
789.872	67.512
793.72	105.426
797.567	104.307
801.412	135.155
805.256	208.976
809.098	275.792
812.937	375.602
816.775	446.431
820.612	423.257
824.446	383.587
828.279	400.778
832.11	441.222
835.939	413.857
839.767	502.481
843.593	626.706
847.417	767.166
851.239	969.895
855.059	1243.46
858.878	1615.76
862.695	1891.09
866.51	1904.03
870.324	1750.6
874.136	1645.15
877.945	1795.1
881.754	2010.07
885.56	2366.46
889.365	2918.73
893.168	3654.16
896.969	4773
900.769	6600.78
904.566	9521.52
908.362	15507.6
912.157	26654.2
915.949	42690.9
919.74	49477.7
923.529	36384.7
927.316	22131.8
931.102	12838.8
934.886	8356
938.668	5545.38
942.448	3993.88
946.227	2932.48
950.004	2203.2
953.779	1840.04
957.552	1554.18
961.324	1332.91
965.094	1202.47
968.862	1042.41
972.629	1007.86
976.394	923.509
980.157	918.193
983.919	890.496
987.678	799.593
991.436	724.738
995.193	622.034
998.947	541.227
1002.7	544.155
1006.45	527.103
1010.2	551.566
1013.95	629.754
1017.69	762.152
1021.44	1345.03
1025.18	1308.73
1028.92	921.594
1032.66	936.582
1036.4	1238.68
1040.13	978.879
1043.87	1077.19
1047.6	1138.02
1051.33	1019.11
1055.06	778.735
1058.79	537.448
1062.51	423.264
1066.24	267.176
1069.96	214.191
1073.68	189.302
1077.4	138.486
1081.12	174.771
1084.83	123.129
1088.55	105.539
1092.26	71.012
1095.97	55.238
1099.68	34.104
1103.38	30.716
1107.09	37.354
1110.79	41.993
1114.5	48.357
1118.2	16.758
1121.89	32.175
1125.59	4.332
1129.29	24.217
1132.98	26.879
1136.67	30.717
1140.36	14.649
1144.05	30.735
1147.74	0.965
1151.42	3.749
1155.11	10.444
1158.79	54.061
1162.47	72.626
1166.15	5.212
1169.83	51.78
1173.5	127.538
1177.17	168.24
1180.85	189.912
1184.52	164.48
1188.19	196.227
1191.85	144.561
1195.52	173.834
1199.18	136.252
1202.85	133.342
1206.51	127.462
1210.16	144.411
1213.82	143.318
1217.48	156.399
1221.13	158.991
1224.78	140.771
1228.43	145.357
1232.08	114.624
1235.73	146.427
1239.38	121.392
1243.02	136.15
1246.66	131.037
1250.3	172.347
1253.94	162.856
1257.58	149.448
1261.22	140.231
1264.85	90.547
1268.48	202.439
1272.11	207.557
1275.74	237.127
1279.37	223.041
1283	194.806
1286.62	171.068
1290.24	165.965
1293.87	123.644
1297.48	154.352
1301.1	124.895
1304.72	118.697
1308.33	141.779
1311.95	113.46
1315.56	87.223
1319.17	37.844
1322.78	35.303
1326.38	33.582
1329.99	1.685
1333.59	13.598
1337.19	36.333
1340.79	75.888
1344.39	16.242
1347.99	36.429
1351.59	3.445
1355.18	10.275
1358.77	31.064
1362.36	25.575
1365.95	32.742
1369.54	11.999
1373.12	10.106
1376.71	45.111
1380.29	35.993
1383.87	60.751
1387.45	50.007
1391.03	42.066
1394.61	20.976
1398.18	21.786
1401.75	14.423
1405.33	11.482
1408.89	75.572
1412.46	7.765
1416.03	41.917
1419.6	50.953
1423.16	98.241
1426.72	43.282
1430.28	99.152
1433.84	81.025
1437.4	50.351
1440.95	51.265
1444.51	84.097
1448.06	108.792
1451.61	58.426
1455.16	139.374
1458.71	135.929
1462.25	118.346
1465.8	79.274
1469.34	49.594
1472.88	95.056
1476.42	74.74
1479.96	79.34
1483.5	70.419
1487.03	51.924
1490.57	47.38
1494.1	124.026
1497.63	114.806
1501.16	103.055
1504.68	122.841
1508.21	50.306
1511.73	51.616
1515.26	14.105
1518.78	26.165
1522.3	0.677
