Measurement: Raman, 514 nm, ccw, Raman Data Processed
Mineral: Almandine
Rruff sample: R070129
Ideal chemistry: Fe^2+^_3_Al_2_(SiO_4_)_3_
Locality: Wrangell, Wrangell Island, Wrangell-Petersburg Borough, Alaska, USA
Source: Michael Scott
Description: Dark red well-formed dodecahedral crystals in schist
Measured chemistry: (Fe^2+^_2.15_Mg_0.60_Mn_0.11_Fe^3+^_0.06_Ca_0.08_)_Σ=3_Al_2.00_((Si_0.98_Al_0.02_)_Σ=1_O_4_)_3_
Pin_id: L01134
Orientation: Laser parallel to b* (0 1 0). Fiducial mark perpendicular to laser is parallel to a [1 0 0]
Raman shift (cm-1)	intensity
137.683	0
142.633	13.4614
147.579	102.808
152.522	376.701
157.462	734.533
162.4	1396.66
167.334	1754.04
172.265	1231.74
177.193	318.887
182.117	51.1105
187.039	57.0436
191.958	90.015
196.874	287.036
201.787	662.862
206.696	1089.37
211.603	1320.92
216.506	1174.41
221.407	725.665
226.304	622.25
231.199	356.927
236.091	262.702
240.979	231.417
245.864	192.316
250.747	177.401
255.626	183.662
260.503	222.084
265.376	146.657
270.247	198.37
275.114	174.227
279.979	219.04
284.84	260.619
289.699	360.416
294.554	436.898
299.407	532.592
304.257	920.233
309.103	1434.68
313.947	2016.97
318.788	2107.57
323.626	2612.45
328.461	3721.56
333.292	5732.47
338.121	10072.2
342.947	15913.9
347.771	16731.6
352.591	10241.4
357.408	5105.35
362.222	3580.34
367.034	3470.39
371.842	3257.48
376.648	2378.61
381.45	1273.76
386.25	707.95
391.047	340.181
395.841	217.464
400.632	138.862
405.42	55.4117
410.205	53.181
414.988	3.18994
419.767	24.6405
424.544	6.18799
429.318	17.2064
434.089	17.8581
438.857	3.12231
443.622	18.6589
448.384	14.2327
453.143	36.7255
457.9	73.174
462.654	193.571
467.405	358.916
472.153	658.199
476.898	1058.42
481.64	1056.62
486.38	826.732
491.116	1434.73
495.85	2974.62
500.581	3962.41
505.309	2374.11
510.035	1132.72
514.757	643.272
519.477	571.655
524.194	580.533
528.908	574.383
533.62	679.609
538.328	963.004
543.034	1554.62
547.737	2860.74
552.437	4872.65
557.134	5681.34
561.829	3599.81
566.521	1768.31
571.21	1063.59
575.896	902.316
580.58	1064.39
585.261	1057.75
589.939	713.726
594.614	562.64
599.286	513.283
603.956	336.643
608.623	299.473
613.287	272.56
617.949	348.173
622.608	478.356
627.264	893.362
631.917	1242.9
636.568	1061.51
641.215	548.581
645.861	331.205
650.503	252.047
655.143	156.36
659.78	147.244
664.414	139.797
669.046	61.0633
673.674	29.005
678.301	0.585693
682.924	2.35388
687.545	1.11426
692.163	35.1392
696.778	11.173
701.391	34.7782
706.001	45.001
710.609	23.2894
715.213	23.6295
719.815	36.1537
724.415	36.8646
729.011	41.4453
733.606	46.8577
738.197	28.1079
742.786	27.2075
747.372	50.1331
751.955	33.9232
756.536	3.4021
761.114	1.84265
765.69	7.61572
770.262	11.0118
774.833	3.72534
779.4	26.4644
783.965	41.5267
788.528	28.6492
793.087	17.1357
797.645	43.8329
802.199	135.48
806.751	219.553
811.3	244.234
815.847	239.245
820.391	259.886
824.933	231.289
829.471	228.29
834.008	215.395
838.541	307.685
843.073	518.502
847.601	728.477
852.127	1296.62
856.65	2052.98
861.171	2883.46
865.69	3015.25
870.205	2379.69
874.718	2079.45
879.229	2376.62
883.737	2933.95
888.242	4037.82
892.745	5887.64
897.246	8518.9
901.743	12621.4
906.239	22145
910.731	41934.8
915.221	61565.4
919.709	54461.5
924.194	29825.4
928.677	14934.9
933.157	8127.1
937.634	4957.65
942.109	3022.46
946.582	1978.57
951.052	1511.99
955.519	1106.81
959.984	933.065
964.447	871.902
968.906	734.303
973.364	752.852
977.819	723.421
982.271	652.337
986.721	603.503
991.169	541.939
995.614	550.784
1000.06	508.445
1004.5	553.045
1008.93	614.843
1013.37	747.211
1017.8	860.376
1022.23	1164.31
1026.66	1580.6
1031.09	2147.76
1035.51	2969.97
1039.93	3471.24
1044.35	3134.55
1048.76	2249.95
1053.17	1295.42
1057.58	786.984
1061.99	482.615
1066.4	357.293
1070.8	229.038
1075.2	156.791
1079.6	139.555
1084	104.302
1088.39	42.9951
1092.78	54.8572
1097.17	31.4875
1101.56	12.0269
1105.94	49.7647
1110.32	70.7852
1114.7	1.34448
1119.08	11.8335
1123.45	50.5254
1127.82	67.5183
1132.19	45.1257
1136.56	5.30444
1140.92	9.02539
1145.29	24.0764
1149.65	84.4075
1154	46.5894
1158.36	135.53
1162.71	197.245
1167.06	179.727
1171.41	190.973
1175.76	242.525
1180.1	209.845
1184.44	224.723
1188.78	209.457
1193.11	229.394
1197.45	182.291
1201.78	245.936
1206.11	194.513
1210.43	158.512
1214.76	175.961
1219.08	118.296
1223.4	149.192
1227.72	155.431
1232.03	192.471
1236.35	185.086
1240.66	220.981
1244.96	191.448
1249.27	248.87
1253.57	260.609
1257.88	251.177
1262.17	193.012
1266.47	190.602
1270.76	211.267
1275.06	172.133
1279.35	139.827
1283.63	122.188
1287.92	123.477
1292.2	110.592
1296.48	73.5388
1300.76	48.3257
1305.04	21.9507
1309.31	108.415
1313.58	89.7451
1317.85	28.1409
1322.12	66.6519
1326.38	9.14648
1330.64	10.6101
1334.9	30.3586
1339.16	68.0615
1343.41	26.5764
1347.67	16.842
1351.92	45.0288
1356.17	48.0037
1360.41	57.9844
1364.66	67.9048
1368.9	93.8062
1373.14	1.84253
1377.38	78.7207
1381.61	72.8215
1385.84	87.1013
1390.08	92.5259
1394.3	156.119
1398.53	78.8374
1402.75	90.6653
1406.97	86.6006
1411.19	159.612
1415.41	181.7
1419.63	141.898
1423.84	194.251
1428.05	229.738
1432.26	249.988
1436.46	251.03
1440.67	272.171
1444.87	180.762
1449.07	262.695
1453.27	322.516
1457.46	292.777
1461.66	177.466
1465.85	358.854
1470.04	282.229
1474.22	263.973
1478.41	334.777
1482.59	331.595
1486.77	306.4
1490.95	317.164
1495.12	274.853
1499.3	236.421
1503.47	193.778
1507.63	244.66
1511.8	150.235
1515.97	197.856
1520.13	182.032
1524.29	146.674
1528.45	134.929
1532.61	120.066
1536.76	120.531
1540.91	157.626
1545.06	45.6919
1549.21	64.6269
1553.35	119.874
1557.5	37.2966
1561.64	68.4187
