Measurement: Raman, 514 nm, ccw, Raman Data Processed
Mineral: Almandine
Rruff sample: R040079
Ideal chemistry: Fe^2+^_3_Al_2_(SiO_4_)_3_
Locality: Ontario, Canada
Source: University of Arizona Mineral Museum
Description: Dark red dodecahedral crystal
Measured chemistry: (Fe^2+^_2.29_Mg_0.53_Ca_0.18_)_Î£=3_Al_2.00_(Si_1.00_O_4_)_3_
Pin_id: M00037
Orientation: Laser parallel to a* (1 0 0). Fiducial mark perpendicular to laser is parallel to b [0 1 0]
Raman shift (cm-1)	intensity
129.495	24.325
133.669	116.097
137.841	163.608
142.011	274.453
146.179	158.836
150.345	3.933
154.509	155.113
158.671	240.711
162.83	411.008
166.988	563.554
171.144	795.045
175.297	369.29
179.449	24.174
183.598	25.251
187.745	37.808
191.891	28.992
196.034	95.854
200.175	200.808
204.314	325.515
208.451	484.799
212.586	542.867
216.719	517.894
220.85	324.256
224.979	177.09
229.105	32.12
233.23	42.688
237.353	1.167
241.474	24.529
245.592	51.868
249.709	6.972
253.823	45.231
257.936	37.684
262.046	46.421
266.155	72.169
270.261	78.018
274.365	69.818
278.468	121.161
282.568	120.961
286.666	118.629
290.762	104.333
294.857	27.74
298.949	17.688
303.039	98.831
307.127	66.321
311.213	143.082
315.297	330.589
319.379	234.575
323.46	68.713
327.538	4.843
331.614	236.712
335.688	678.323
339.76	1586.12
343.83	3729.57
347.898	6911.55
351.964	6661.92
356.028	3032.52
360.09	1131.41
364.15	333.217
368.208	286.421
372.264	452.445
376.318	366.298
380.37	173.307
384.42	19.99
388.468	26.184
392.514	22.17
396.558	37.559
400.6	78.449
404.641	126.013
408.679	170.744
412.715	168.684
416.749	155.238
420.781	101.379
424.811	81.89
428.84	14.894
432.866	61.949
436.89	83.001
440.913	58.584
444.933	59.408
448.951	29.496
452.968	20.565
456.982	36.479
460.995	4.622
465.005	19.286
469.014	11.422
473.02	67.967
477.025	246.945
481.027	464.559
485.028	253.404
489.027	80.611
493.024	99.438
497.019	571.18
501.012	1658.78
505.002	1766.41
508.992	742.139
512.979	230.988
516.964	39.573
520.947	8.217
524.928	31.391
528.907	33.514
532.885	5.944
536.86	7.562
540.834	94.785
544.805	203.605
548.775	518.43
552.742	1169.26
556.708	2413.17
560.672	2485.57
564.634	1239.19
568.594	478.576
572.552	156.016
576.508	6.391
580.462	51.239
584.414	229.73
588.365	202.888
592.313	46.058
596.26	48.494
600.204	35.014
604.147	37.637
608.088	35.038
612.026	37.868
615.963	3.09
619.898	2.59
623.832	49.52
627.763	216.691
631.692	428.186
635.619	709.998
639.545	511.729
643.469	258.003
647.39	138.145
651.31	75.925
655.228	23.923
659.144	2.595
663.058	0.999
666.97	4.619
670.881	39.945
674.789	45.457
678.696	22.716
682.6	10.044
686.503	26.708
690.404	4.514
694.303	87.6
698.2	14.24
702.095	37.279
705.989	2.792
709.88	5.001
713.77	63.867
717.658	27.171
721.543	55.756
725.427	44.699
729.31	57.193
733.19	48.4
737.068	57.349
740.945	8.153
744.819	17.406
748.692	40.506
752.563	21.506
756.432	49.131
760.299	44.301
764.165	9.241
768.028	90.668
771.89	50.535
775.749	63.526
779.607	45.619
783.463	36.164
787.318	6.559
791.17	74.438
795.02	10.246
798.869	29.141
802.716	33.404
806.561	23.519
810.404	10.784
814.245	19.942
818.085	17.489
821.922	3.516
825.758	40.449
829.592	51.209
833.424	58.268
837.254	93.304
841.083	39.756
844.909	20.747
848.734	100.533
852.557	221.721
856.378	479.142
860.197	862.441
864.015	1421.21
867.83	1456.4
871.644	936.603
875.456	541.938
879.266	246.595
883.074	14.599
886.881	155.444
890.686	145.035
894.488	253.776
898.29	1039.12
902.089	1726.72
905.886	2973.84
909.682	6364.13
913.476	13691.7
917.268	25118.7
921.058	28220.7
924.846	17375.6
928.633	7919.31
932.418	3418.94
936.201	1337.66
939.982	418.164
943.761	16.896
947.539	83.126
951.315	86.275
955.089	86.038
958.861	221.654
962.631	320.379
966.4	440.541
970.167	438.421
973.932	372.558
977.695	381.487
981.456	350.698
985.216	249.587
988.974	261.691
992.73	174.318
996.484	116.969
1000.24	94.024
1003.99	12.01
1007.74	11.568
1011.48	55.496
1015.23	3.39
1018.97	80.111
1022.72	160.267
1026.45	261.068
1030.19	375.042
1033.93	539.008
1037.66	949.911
1041.4	1349.27
1045.13	1525.21
1048.86	1269.5
1052.59	807.637
1056.31	385.869
1060.04	100.288
1063.76	39.847
1067.48	7.66
1071.2	27.876
1074.92	27.114
1078.63	15.254
1082.35	51.711
1086.06	41.087
1089.77	53.942
1093.47	36.312
1097.18	45.487
1100.89	46.531
1104.59	24.781
1108.29	14.101
1111.99	6.723
1115.69	28.774
1119.38	35.163
1123.08	24.291
1126.77	55.781
1130.46	21.095
1134.15	47.062
1137.84	25.509
1141.53	38.473
1145.21	76.73
1148.89	25.749
1152.57	27.745
1156.25	20.137
1159.93	55.176
1163.61	56.895
1167.28	43.5
1170.95	25.777
1174.62	18.115
1178.29	44.768
1181.96	77.507
1185.62	32.638
1189.28	7.339
1192.95	44.533
1196.61	45.626
1200.26	5.197
1203.92	18.152
1207.58	55.35
1211.23	47.547
1214.88	59.927
1218.53	23.496
1222.18	2.519
1225.82	29.783
1229.47	50.849
1233.11	6.71
1236.75	11.789
1240.39	5.552
1244.03	34.369
1247.66	24.964
1251.3	45.786
1254.93	29.486
1258.56	26.652
1262.19	48.374
1265.82	81.711
1269.45	53.771
1273.07	40.057
1276.69	63.016
1280.31	85.921
1283.93	73.306
1287.55	19.673
1291.16	0.89
1294.78	17.678
1298.39	14.808
1302	56.686
1305.61	25.609
1309.22	17.031
1312.82	23.392
1316.43	27.543
1320.03	13.429
1323.63	16.409
1327.23	50.08
1330.83	72.753
1334.42	59.358
1338.02	15.207
1341.61	7.178
1345.2	24.072
1348.79	18.621
1352.38	37.933
1355.96	24.096
1359.55	61.352
1363.13	27.901
1366.71	25.206
1370.29	48.083
1373.86	26.502
1377.44	40.792
1381.01	27.316
1384.59	55.697
1388.16	20.867
1391.72	46.11
1395.29	59.12
1398.86	50.072
1402.42	6.68
1405.98	47.914
1409.55	53.885
1413.11	54.412
1416.66	24.422
1420.22	75.103
1423.77	58.991
1427.32	24.308
1430.88	42.461
1434.42	50.813
1437.97	28.621
1441.52	26.773
1445.06	62.813
1448.61	16.077
1452.15	69.759
1455.68	22.225
1459.22	72.881
1462.76	53.486
1466.29	71.615
1469.83	79.944
1473.36	58.056
1476.89	19.876
1480.41	1.645
1483.94	62.941
1487.47	56.705
1490.99	53.441
1494.51	28.734
1498.03	86.484
1501.55	107.601
1505.07	20.603
1508.58	65.023
1512.09	82.751
1515.61	51.195
1519.12	98.444
