Measurement: Raman, 514 nm, ccw, Raman Data Processed
Mineral: Almandine
Rruff sample: R040168
Ideal chemistry: Fe^2+^_3_Al_2_(SiO_4_)_3_
Locality: Pocos Dos Cavatos, Ceara, Brazil
Source: University of Arizona Mineral Museum
Description: Dark red etched single crystal
Measured chemistry: (Fe^2+^_1.48_Mn_1.47_Ca_0.05_)_Î£=3_Al_2.00_(Si_1.00_O_4_)_3_; trace amounts of Ti and Y
Pin_id: L00513
Orientation: Laser parallel to -a* (-1 0 0). Fiducial mark perpendicular to laser is parallel to -c [0 0 -1]
Raman shift (cm-1)	intensity
71.747	0
75.937	78.199
80.125	91.53
84.311	202.875
88.496	211.064
92.678	200.891
96.858	143.579
101.036	93.52
105.212	156.593
109.387	281.121
113.559	402.363
117.729	285.998
121.897	87.139
126.063	49.475
130.228	115.551
134.39	185.7
138.55	299.545
142.709	179.139
146.865	161.36
151.019	180.684
155.171	296.026
159.322	586.102
163.47	2365.92
167.617	2083.4
171.761	437.105
175.904	92.229
180.044	51.898
184.183	24.178
188.319	21.186
192.454	44.369
196.586	42.503
200.717	51.339
204.846	43.672
208.972	5.76
213.097	65.978
217.22	155.168
221.341	181.843
225.46	177.448
229.577	159.458
233.692	157.118
237.805	143.179
241.916	241.668
246.025	276.26
250.132	192.342
254.237	274.924
258.34	321.616
262.442	335.928
266.541	364.106
270.639	357.736
274.734	413.95
278.828	482.001
282.919	574.626
287.009	681.598
291.097	844.114
295.183	1039.1
299.266	1320.04
303.348	1346.68
307.428	1387.99
311.507	1744.31
315.583	2788.86
319.657	4753.02
323.729	5884.84
327.8	4545.9
331.868	3632.47
335.935	4493.66
339.999	7569.46
344.062	14091.3
348.123	15658
352.182	8919.64
356.239	5005.46
360.294	3924.72
364.347	4444.66
368.398	6925.9
372.448	9685.17
376.495	7373.07
380.54	3872.61
384.584	2102.73
388.626	1277.94
392.666	833.966
396.704	578.718
400.74	465.64
404.774	383.693
408.806	284.476
412.836	223.98
416.865	178.526
420.891	166.021
424.916	132.474
428.939	62.666
432.959	97.105
436.978	54.27
440.996	17.029
445.011	34.804
449.024	11.325
453.036	70.656
457.045	68.788
461.053	48.802
465.059	57.164
469.063	58.35
473.065	82.979
477.065	97.543
481.063	47.043
485.06	70.438
489.054	88.198
493.047	122.977
497.038	237.693
501.027	296.486
505.014	227.471
508.999	163.741
512.982	156.235
516.964	239.429
520.944	309.593
524.921	429.938
528.897	437.646
532.871	430.852
536.844	640.875
540.814	932.383
544.783	1539.15
548.749	2812.9
552.714	4388.62
556.677	3918.27
560.638	2207.42
564.597	1271.73
568.555	781.807
572.511	547.793
576.464	466.542
580.416	410.857
584.366	383.747
588.315	502.997
592.261	772.173
596.206	620.189
600.148	326.616
604.089	175.796
608.028	147.138
611.965	112.699
615.901	114.159
619.834	121.682
623.766	130.166
627.696	184.736
631.624	192.468
635.551	178.696
639.475	134.583
643.398	52.03
647.318	23.699
651.237	22.511
655.155	28.622
659.07	8.361
662.984	24.471
666.895	13.247
670.805	3.177
674.713	17.788
678.62	46.613
682.524	6.712
686.427	32.051
690.328	42.655
694.227	36.539
698.124	59.715
702.02	40.191
705.913	6.898
709.805	14.741
713.695	14.237
717.584	23.088
721.47	12.143
725.355	47.537
729.238	43.159
733.119	55.726
736.998	60.247
740.876	30.727
744.752	46.174
748.626	52.595
752.498	49.992
756.368	46.371
760.237	20.741
764.104	54.1
767.969	48.429
771.832	72.768
775.693	70.057
779.553	112.383
783.411	151.703
787.267	205.019
791.122	199.329
794.974	184.648
798.825	169.808
802.674	219.578
806.522	314.362
810.367	453.179
814.211	468.078
818.053	471.705
821.893	422.846
825.732	469.639
829.568	438.552
833.403	449.789
837.236	501.315
841.068	507.701
844.898	620.566
848.726	758.727
852.552	931.585
856.376	1062.86
860.199	1166.88
864.02	1057.49
867.839	1149.67
871.656	1315.29
875.472	1574.79
879.286	2018.36
883.098	2604.07
886.909	3409.86
890.717	4560.75
894.524	6328.73
898.33	10249.8
902.133	17748
905.935	31586.2
909.735	47204.6
913.533	44923.1
917.33	28601.7
921.124	16280.3
924.918	10109.1
928.709	6195.99
932.499	4088.98
936.286	2804.08
940.073	2029.29
943.857	1596.79
947.64	1326.28
951.421	1116.96
955.2	935.914
958.978	821.044
962.753	795.08
966.527	777.957
970.3	800.584
974.071	745.53
977.84	646.941
981.607	504.821
985.372	441.725
989.136	436.39
992.898	458.537
996.659	468.835
1000.42	435.326
1004.17	452.021
1007.93	489.908
1011.68	479.944
1015.43	520.12
1019.18	610.445
1022.93	702.896
1026.68	736.454
1030.42	819.112
1034.17	903.861
1037.91	748.705
1041.65	908.637
1045.39	363.67
1049.12	262.793
1052.86	187.995
1056.59	145.288
1060.33	67.66
1064.06	102.106
1067.78	58.621
1071.51	99.201
1075.23	51.844
1078.96	2.543
1082.68	35.325
1086.4	22.177
1090.12	6.086
1093.83	15.033
1097.55	9.991
1101.26	24.008
1104.97	24.088
1108.68	23.227
1112.39	40.425
1116.1	66.744
1119.8	10.233
1123.5	77.265
1127.2	6.783
1130.9	2.737
1134.6	2.365
1138.3	6.962
1141.99	23.288
1145.69	64.633
1149.38	109.924
1153.07	135.228
1156.76	181.743
1160.44	192.042
1164.13	214.115
1167.81	200.206
1171.49	154.334
1175.17	223.162
1178.85	262.346
1182.52	218.721
1186.2	191.318
1189.87	185.497
1193.54	181.034
1197.21	148.805
1200.88	165.269
1204.55	132.466
1208.21	133.396
1211.88	120.808
1215.54	98.048
1219.2	117.557
1222.86	87.386
1226.51	120.143
1230.17	131.332
1233.82	176.592
1237.47	169.94
1241.12	177.63
1244.77	194.023
1248.42	206.052
1252.06	212.88
1255.71	206.954
1259.35	201.101
1262.99	231.13
1266.63	193.587
1270.26	186.377
1273.9	253.042
1277.53	203.819
1281.16	190.075
1284.8	120.365
1288.42	112.326
1292.05	94.161
1295.68	73.964
1299.3	62.613
1302.92	50.095
1306.55	24.403
1310.16	4.531
1313.78	13.491
1317.4	27.27
1321.01	7.861
1324.62	15.295
1328.24	7.565
1331.85	52.669
1335.45	20.597
1339.06	16.357
1342.66	54.95
1346.27	11.385
1349.87	7.654
1353.47	25.77
1357.07	17.74
1360.66	15.571
1364.26	20.267
1367.85	30.837
1371.44	16.708
1375.04	7.626
1378.62	7.861
1382.21	1.138
1385.8	14.408
1389.38	0.088
1392.96	31.445
1396.54	14.845
1400.12	1.777
1403.7	31.464
1407.28	50.084
1410.85	50.6
1414.42	41.505
1417.99	52.535
1421.56	32.938
1425.13	31.612
1428.7	59.178
1432.26	55.421
1435.83	46.283
1439.39	32.73
1442.95	44.613
1446.51	78.167
1450.06	63.823
1453.62	68.86
1457.17	96.127
1460.73	66.388
1464.28	71.487
1467.83	54.512
1471.37	78.349
1474.92	69.124
1478.46	53.319
1482.01	67.001
1485.55	70.757
1489.09	59.675
1492.63	60.828
1496.16	38.168
1499.7	27.689
1503.23	35.496
1506.76	38.705
1510.29	44.445
1513.82	1.024
1517.35	0.159
1520.88	0.053
