Measurement: Raman, 514 nm, ccw, Raman Data Processed
Mineral: Almandine
Rruff sample: R040076
Ideal chemistry: Fe^2+^_3_Al_2_(SiO_4_)_3_
Locality: Barton Garnet mine, Gore Mountain, Warren County, New York, USA
Source: University of Arizona Mineral Museum
Description: Red coarsely crystalline
Measured chemistry: (Fe^2+^_1.38_Mg_1.26_Ca_0.33_Mn_0.03_)_Î£=3_Al_2.00_(Si_1.00_O_4_)_3_; trace amounts of Ti
Pin_id: M00102
Orientation: Laser parallel to -a* (-1 0 0). Fiducial mark perpendicular to laser is parallel to b [0 1 0]
Raman shift (cm-1)	intensity
199.99	0
204.116	12.637
208.239	67.941
212.361	62.162
216.48	0.33
220.598	29.059
224.714	27.522
228.828	46.207
232.939	136.925
237.049	162.781
241.157	143.396
245.263	197.467
249.367	201.827
253.469	235.394
257.569	232.138
261.667	208.663
265.763	233.813
269.857	282.318
273.95	307.522
278.04	341.386
282.128	347.947
286.215	312.287
290.299	368.458
294.382	479.511
298.462	443.501
302.541	493.465
306.618	587.414
310.692	656.35
314.765	801.267
318.836	955.44
322.905	1186.63
326.972	1596.67
331.037	2254.07
335.101	2977.52
339.162	4068.73
343.221	5083.51
347.279	6831.67
351.334	9646.76
355.388	12793.8
359.44	11870.7
363.489	8588.08
367.537	6357.62
371.583	5470.41
375.627	4854.31
379.669	3962.01
383.71	3029.29
387.748	2184.49
391.784	1494.05
395.819	1038.78
399.852	671.588
403.882	489.424
407.911	306.269
411.938	245.091
415.963	155.901
419.986	121.688
424.007	94.43
428.027	38.096
432.044	2.657
436.059	21.895
440.073	4.612
444.085	13.89
448.095	10.49
452.103	25.673
456.109	14.938
460.113	14.397
464.115	44.734
468.116	67.954
472.114	48.06
476.111	118.045
480.106	72.871
484.099	101.429
488.09	143.713
492.079	176.697
496.066	200.538
500.052	250.263
504.035	423.875
508.017	456.442
511.997	416.15
515.975	423.184
519.951	523.756
523.925	607.617
527.897	703.609
531.868	683.978
535.837	776.87
539.803	969.963
543.768	1266.91
547.731	1736.58
551.693	2753.61
555.652	4642.69
559.609	6350.83
563.565	4945.71
567.519	2633.1
571.471	1483.21
575.421	867.678
579.369	597.984
583.316	549.394
587.26	506.73
591.203	421.352
595.144	436.339
599.083	404.793
603.02	462.983
606.956	565.246
610.889	547.877
614.821	416.355
618.751	244.501
622.679	233.673
626.605	193.354
630.53	249.448
634.452	303.437
638.373	411.183
642.292	398.154
646.209	318.008
650.124	236.703
654.038	209.24
657.95	167.622
661.859	123.85
665.767	109.925
669.674	67.844
673.578	30.6
677.48	14.167
681.381	0.372
685.28	9.446
689.177	1.683
693.073	38.165
696.966	31.98
700.858	35.159
704.748	15.731
708.636	43.652
712.522	13.916
716.407	18.438
720.289	28.819
724.17	12.907
728.049	7.16
731.927	4.584
735.802	24.182
739.676	20.653
743.548	21.018
747.418	4.704
751.286	49.505
755.153	32.71
759.018	21.733
762.881	61.023
766.742	38.191
770.601	24.396
774.459	26.578
778.315	25.717
782.169	50.818
786.021	35.875
789.872	33.615
793.72	59.879
797.567	102.828
801.412	151.746
805.256	205.635
809.098	312.527
812.937	364.413
816.775	423.276
820.612	391.074
824.446	405.554
828.279	392.583
832.11	451.94
835.939	435.663
839.767	511.282
843.593	656.597
847.417	755.561
851.239	1029.94
855.059	1240.81
858.878	1639.29
862.695	1951.35
866.51	1919.9
870.324	1778.12
874.136	1679.19
877.945	1765.08
881.754	1955.76
885.56	2296.85
889.365	2919.67
893.168	3647.19
896.969	4737
900.769	6555.96
904.566	9585.29
908.362	15800.9
912.157	26746.4
915.949	43042.2
919.74	49248.1
923.529	35604.2
927.316	21280.3
931.102	12616.5
934.886	8112.88
938.668	5459.34
942.448	3917.91
946.227	2865.6
950.004	2188.4
953.779	1764.31
957.552	1558.39
961.324	1364.77
965.094	1183.1
968.862	1043.6
972.629	1003.19
976.394	889.463
980.157	878.092
983.919	891.599
987.678	831.802
991.436	734.128
995.193	620.218
998.947	499.358
1002.7	492.376
1006.45	566.344
1010.2	537.98
1013.95	666.359
1017.69	684.917
1021.44	783.632
1025.18	887.479
1028.92	840.435
1032.66	962.515
1036.4	955.729
1040.13	1023.05
1043.87	1022.46
1047.6	1106.96
1051.33	1013.6
1055.06	812.336
1058.79	552.161
1062.51	366.068
1066.24	219.061
1069.96	143.146
1073.68	165.316
1077.4	120.561
1081.12	151.868
1084.83	81.246
1088.55	119.689
1092.26	82.195
1095.97	52.77
1099.68	47.397
1103.38	0.934
1107.09	4.758
1110.79	24.557
1114.5	5.879
1118.2	20.22
1121.89	49.615
1125.59	36.101
1129.29	13.654
1132.98	44.253
1136.67	59.036
1140.36	22
1144.05	41.088
1147.74	35.292
1151.42	12.413
1155.11	23.912
1158.79	33.683
1162.47	28.286
1166.15	43.099
1169.83	117.786
1173.5	183.594
1177.17	136.547
1180.85	132.023
1184.52	130.029
1188.19	164.956
1191.85	143.767
1195.52	155.641
1199.18	158.547
1202.85	124.99
1206.51	171.266
1210.16	149.185
1213.82	127.968
1217.48	158.575
1221.13	139.981
1224.78	144.474
1228.43	173.797
1232.08	148.219
1235.73	127.845
1239.38	135.25
1243.02	127.081
1246.66	116.455
1250.3	122.921
1253.94	168.865
1257.58	111.839
1261.22	148.715
1264.85	190.818
1268.48	169.615
1272.11	201.906
1275.74	231.853
1279.37	190.862
1283	160.863
1286.62	171.17
1290.24	146.305
1293.87	140.887
1297.48	157.108
1301.1	119.806
1304.72	83.667
1308.33	52.519
1311.95	44.941
1315.56	33.784
1319.17	43.48
1322.78	8.008
1326.38	50.385
1329.99	18.611
1333.59	55.679
1337.19	31.601
1340.79	43.345
1344.39	28.883
1347.99	5.253
1351.59	17.466
1355.18	16.527
1358.77	22.555
1362.36	6.194
1365.95	17.188
1369.54	63.3
1373.12	27.687
1376.71	5.018
1380.29	1.212
1383.87	44.915
1387.45	5.663
1391.03	44.448
1394.61	5.579
1398.18	31.286
1401.75	80.159
1405.33	84.047
1408.89	53.176
1412.46	18.436
1416.03	75.705
1419.6	26.625
1423.16	86.951
1426.72	68.539
1430.28	43.904
1433.84	78.669
1437.4	8.527
1440.95	49.793
1444.51	90.027
1448.06	77.969
1451.61	80.036
1455.16	101.018
1458.71	93.919
1462.25	42.227
1465.8	72.541
1469.34	95.557
1472.88	74.64
1476.42	62.787
1479.96	88.78
1483.5	74.951
1487.03	102.933
1490.57	72.017
1494.1	103.899
1497.63	124.055
1501.16	90.333
1504.68	71.9
1508.21	103.146
1511.73	58.208
1515.26	49.237
1518.78	39.864
1522.3	0.902
1525.82	52.667
