Measurement: Raman, 514 nm, ccw, Raman Data Processed
Mineral: Almandine
Rruff sample: R040168
Ideal chemistry: Fe^2+^_3_Al_2_(SiO_4_)_3_
Locality: Pocos Dos Cavatos, Ceara, Brazil
Source: University of Arizona Mineral Museum
Description: Dark red etched single crystal
Measured chemistry: (Fe^2+^_1.48_Mn_1.47_Ca_0.05_)_Î£=3_Al_2.00_(Si_1.00_O_4_)_3_; trace amounts of Ti and Y
Pin_id: L00513
Orientation: Laser parallel to -a* (-1 0 0). Fiducial mark perpendicular to laser is parallel to -c [0 0 -1]
Raman shift (cm-1)	intensity
67.554	0
71.747	3.653
75.937	262.642
80.125	274.637
84.311	302.274
88.496	197.721
92.678	210.009
96.858	226.38
101.036	215.151
105.212	284.614
109.387	393.393
113.559	405.638
117.729	265.284
121.897	92.473
126.063	111.297
130.228	169.107
134.39	184.485
138.55	311.268
142.709	204.842
146.865	132.104
151.019	169.824
155.171	261.359
159.322	668.363
163.47	2380.84
167.617	2033.32
171.761	443.023
175.904	150.78
180.044	3.756
184.183	11.857
188.319	28.102
192.454	52.265
196.586	47.556
200.717	20.524
204.846	49.175
208.972	33.998
213.097	130.59
217.22	245.383
221.341	259.615
225.46	200.05
229.577	166.964
233.692	181.72
237.805	202.449
241.916	230.007
246.025	286.734
250.132	296.853
254.237	315.929
258.34	341.527
262.442	388.173
266.541	403.064
270.639	408.486
274.734	432.015
278.828	534.651
282.919	620.609
287.009	692.549
291.097	874.448
295.183	1086.74
299.266	1310.6
303.348	1410.7
307.428	1412.65
311.507	1814.9
315.583	2806.23
319.657	4749.4
323.729	5810.27
327.8	4483.06
331.868	3704.32
335.935	4546.33
339.999	7822.46
344.062	14163.8
348.123	15339.5
352.182	8788.48
356.239	4971.1
360.294	3915.12
364.347	4400.14
368.398	6857.05
372.448	9459.83
376.495	7071.11
380.54	3875.07
384.584	2052.16
388.626	1235.26
392.666	849.559
396.704	618.261
400.74	453.756
404.774	384.963
408.806	305.112
412.836	253.114
416.865	220.942
420.891	182.833
424.916	142.728
428.939	73.548
432.959	83.138
436.978	64.652
440.996	58.88
445.011	43.344
449.024	19.69
453.036	29.822
457.045	44.774
461.053	54.681
465.059	58.356
469.063	96.92
473.065	128.408
477.065	123.85
481.063	96.238
485.06	78.526
489.054	86.295
493.047	140.798
497.038	322.867
501.027	354.454
505.014	267.406
508.999	197.339
512.982	195.925
516.964	237.999
520.944	335.293
524.921	412.879
528.897	386.204
532.871	459.418
536.844	636.57
540.814	930.356
544.783	1519.2
548.749	2841.55
552.714	4470.6
556.677	3892.04
560.638	2234.25
564.597	1225.97
568.555	739.4
572.511	578.65
576.464	464.22
580.416	433.364
584.366	383.882
588.315	493.794
592.261	752.393
596.206	555.04
600.148	290.436
604.089	173.526
608.028	132.306
611.965	114.825
615.901	89.049
619.834	123.286
623.766	133.58
627.696	182.022
631.624	240.876
635.551	175.307
639.475	119.266
643.398	42.784
647.318	52.323
651.237	55.108
655.155	18.289
659.07	16.366
662.984	3.663
666.895	2.852
670.805	11.807
674.713	14.677
678.62	21.378
682.524	43.325
686.427	34.59
690.328	61.157
694.227	43.039
698.124	51.218
702.02	10.658
705.913	17.27
709.805	10.084
713.695	8.069
717.584	19.201
721.47	4.549
725.355	1.222
729.238	62.821
733.119	64.365
736.998	56.861
740.876	68.789
744.752	53.745
748.626	45.149
752.498	45.057
756.368	56.896
760.237	76.247
764.104	43.588
767.969	58.92
771.832	81.15
775.693	91.455
779.553	131.765
783.411	163.07
787.267	176.366
791.122	194.663
794.974	181.959
798.825	172.066
802.674	225.822
806.522	332.7
810.367	443.776
814.211	508.479
818.053	518.478
821.893	455.062
825.732	476.499
829.568	423.112
833.403	457.439
837.236	505.804
841.068	569.496
844.898	680.301
848.726	789.929
852.552	962.309
856.376	1148.53
860.199	1184.44
864.02	1127.42
867.839	1222.7
871.656	1334.49
875.472	1676.63
879.286	2109.09
883.098	2646.25
886.909	3481.93
890.717	4580.71
894.524	6468.57
898.33	10272.5
902.133	17880.6
905.935	31848.7
909.735	47477
913.533	45025.3
917.33	28473.8
921.124	16342.3
924.918	10131
928.709	6212.74
932.499	4060.6
936.286	2789.57
940.073	2022.72
943.857	1622.37
947.64	1355.14
951.421	1088.05
955.2	935.177
958.978	842.053
962.753	767.182
966.527	793.136
970.3	785.688
974.071	742.802
977.84	619.065
981.607	525.169
985.372	480.963
989.136	492.565
992.898	461.22
996.659	476.605
1000.42	465.901
1004.17	466.565
1007.93	493.305
1011.68	537.186
1015.43	544.224
1019.18	579.399
1022.93	623.708
1026.68	773.124
1030.42	928.642
1034.17	967.276
1037.91	760.025
1041.65	531.853
1045.39	364.78
1049.12	283.809
1052.86	218.929
1056.59	98.14
1060.33	113.428
1064.06	87.789
1067.78	88.215
1071.51	80.727
1075.23	56.305
1078.96	8.941
1082.68	15.635
1086.4	5.382
1090.12	30.208
1093.83	10.071
1097.55	14.044
1101.26	5.816
1104.97	2.669
1108.68	37.529
1112.39	47.838
1116.1	52.282
1119.8	15.864
1123.5	116.519
1127.2	18.919
1130.9	30.693
1134.6	7.609
1138.3	9.136
1141.99	3.062
1145.69	39.238
1149.38	96.404
1153.07	166.555
1156.76	171.83
1160.44	204.443
1164.13	202.978
1167.81	166.148
1171.49	198.08
1175.17	200.532
1178.85	240.823
1182.52	253.866
1186.2	223.586
1189.87	216.12
1193.54	139.323
1197.21	148.088
1200.88	166.071
1204.55	153.45
1208.21	129.664
1211.88	151.438
1215.54	145.157
1219.2	108.795
1222.86	99.553
1226.51	79.705
1230.17	114.465
1233.82	167.784
1237.47	182.76
1241.12	222.42
1244.77	218.562
1248.42	230.6
1252.06	250.727
1255.71	226.654
1259.35	230.286
1262.99	216.36
1266.63	261.155
1270.26	224.685
1273.9	244.004
1277.53	225.633
1281.16	177.609
1284.8	147.073
1288.42	99.761
1292.05	107.283
1295.68	83.713
1299.3	85.034
1302.92	65.124
1306.55	23.087
1310.16	21.86
1313.78	16.427
1317.4	17.86
1321.01	6.851
1324.62	5.286
1328.24	10.248
1331.85	39.037
1335.45	8.662
1339.06	13.116
1342.66	2.401
1346.27	32.528
1349.87	7.511
1353.47	50.354
1357.07	7.069
1360.66	21.338
1364.26	21.118
1367.85	4.478
1371.44	15.754
1375.04	15.973
1378.62	32.171
1382.21	8.102
1385.8	23.319
1389.38	21.474
1392.96	58.713
1396.54	5.127
1400.12	43.467
1403.7	82.81
1407.28	73.156
1410.85	30.422
1414.42	31.061
1417.99	67.204
1421.56	48.803
1425.13	37.46
1428.7	63.718
1432.26	44.349
1435.83	29.536
1439.39	25.385
1442.95	82.978
1446.51	64.375
1450.06	90.681
1453.62	62.559
1457.17	65.319
1460.73	63.317
1464.28	68.899
1467.83	70.593
1471.37	59.78
1474.92	48.176
1478.46	67.836
1482.01	45.011
1485.55	88.539
1489.09	81.451
1492.63	79.705
1496.16	42.967
1499.7	53.736
1503.23	19.79
1506.76	53.707
1510.29	39.501
1513.82	26.76
1517.35	1.483
1520.88	0.346
