Measurement: Raman, 514 nm, ccw, Raman Data Processed
Mineral: Almandine
Rruff sample: R070129
Ideal chemistry: Fe^2+^_3_Al_2_(SiO_4_)_3_
Locality: Wrangell, Wrangell Island, Wrangell-Petersburg Borough, Alaska, USA
Source: Michael Scott
Description: Dark red well-formed dodecahedral crystals in schist
Measured chemistry: (Fe^2+^_2.15_Mg_0.60_Mn_0.11_Fe^3+^_0.06_Ca_0.08_)_Σ=3_Al_2.00_((Si_0.98_Al_0.02_)_Σ=1_O_4_)_3_
Pin_id: L01134
Orientation: Laser parallel to b* (0 1 0). Fiducial mark perpendicular to laser is parallel to a [1 0 0]
Raman shift (cm-1)	intensity
137.683	0
142.633	3.00501
147.579	121.242
152.522	203.637
157.462	486.548
162.4	1077.94
167.334	1655.59
172.265	1045.66
177.193	350.788
182.117	36.6313
187.039	13.9689
191.958	4.51843
196.874	66.964
201.787	141.283
206.696	233.34
211.603	289.073
216.506	313.162
221.407	295.221
226.304	339.144
231.199	337.318
236.091	445.662
240.979	474.143
245.864	385.863
250.747	459.844
255.626	462.083
260.503	555.572
265.376	435.302
270.247	499.267
275.114	555.471
279.979	654.936
284.84	679.714
289.699	779.617
294.554	912.295
299.407	1036.75
304.257	1181.21
309.103	1581.53
313.947	2204.68
318.788	3115.42
323.626	4492.02
328.461	6311.65
333.292	7826.76
338.121	11857.2
342.947	17184.2
347.771	17525.7
352.591	11040.4
357.408	6673.33
362.222	6157.39
367.034	7479.6
371.842	7970.93
376.648	5728.38
381.45	3020.94
386.25	1630.62
391.047	948.398
395.841	514.315
400.632	326.399
405.42	262.728
410.205	176.449
414.988	98.422
419.767	55.6836
424.544	30.2342
429.318	2.03381
434.089	8.97827
438.857	40.9658
443.622	53.0237
448.384	2.63074
453.143	28.1505
457.9	46.6376
462.654	29.172
467.405	74.7297
472.153	178.296
476.898	276.887
481.64	230.262
486.38	251.049
491.116	441.646
495.85	789.178
500.581	973.671
505.309	661.116
510.035	418.524
514.757	398.883
519.477	396.172
524.194	509.401
528.908	559.834
533.62	620.645
538.328	899.996
543.034	1507.15
547.737	2871.41
552.437	4896.32
557.134	5412.34
561.829	3345.56
566.521	1654.78
571.21	937.409
575.896	673.801
580.58	674.601
585.261	644.086
589.939	600.726
594.614	733.905
599.286	886.438
603.956	588.982
608.623	297.035
613.287	190.822
617.949	162.455
622.608	209.767
627.264	366.84
631.917	465.687
636.568	479.277
641.215	244.76
645.861	231.969
650.503	135.476
655.143	137.119
659.78	120.574
664.414	73.7131
669.046	76.6061
673.674	57.2444
678.301	3.54627
682.924	24.5531
687.545	22.3226
692.163	1.89709
696.778	26.0448
701.391	64.8838
706.001	28.5537
710.609	37.4988
715.213	26.1055
719.815	4.45923
724.415	46.7017
729.011	25.9375
733.606	21.1024
738.197	58.1355
742.786	9.99499
747.372	66.3278
751.955	22.3688
756.536	89.904
761.114	83.3489
765.69	40.7151
770.262	31.0109
774.833	3.75476
779.4	20.4213
783.965	33.4514
788.528	1.41064
793.087	10.5896
797.645	24.5742
802.199	79.4486
806.751	238.144
811.3	270.268
815.847	263.34
820.391	252.406
824.933	182.215
829.471	160.466
834.008	132.785
838.541	215.999
843.073	361.785
847.601	503.248
852.127	647.611
856.65	1101.68
861.171	1558.23
865.69	1648.56
870.205	1568.15
874.718	1480.82
879.229	1867.9
883.737	2379.57
888.242	3324.48
892.745	4813.53
897.246	7236.89
901.743	11484.5
906.239	21633.3
910.731	41362.3
915.221	61577.6
919.709	53351.3
924.194	28983.1
928.677	14527.2
933.157	8168.42
937.634	4823.97
942.109	3010.78
946.582	2011.86
951.052	1427.26
955.519	1094.01
959.984	922.274
964.447	829.051
968.906	758.032
973.364	736.438
977.819	787.743
982.271	744.034
986.721	612.564
991.169	484.632
995.614	443.344
1000.06	504.143
1004.5	476.427
1008.93	568.863
1013.37	593.154
1017.8	686.75
1022.23	844.129
1026.66	958.348
1031.09	1233.66
1035.51	1406.05
1039.93	1676.52
1044.35	1450.06
1048.76	1066.68
1053.17	624.092
1057.58	326.114
1061.99	289.929
1066.4	140.054
1070.8	193.807
1075.2	90.8201
1079.6	76.8447
1084	46.8718
1088.39	7.89087
1092.78	11.9043
1097.17	11.0986
1101.56	50.2139
1105.94	6.5293
1110.32	36.1243
1114.7	26.9954
1119.08	41.1611
1123.45	45.845
1127.82	29.1001
1132.19	7.88623
1136.56	3.15063
1140.92	30.228
1145.29	30.4002
1149.65	75.3367
1154	123.092
1158.36	142.674
1162.71	229.081
1167.06	298.308
1171.41	283.416
1175.76	284.287
1180.1	250.044
1184.44	256.837
1188.78	293.713
1193.11	323.144
1197.45	239.83
1201.78	226.846
1206.11	241.743
1210.43	170.17
1214.76	207.487
1219.08	163.327
1223.4	150.181
1227.72	211.233
1232.03	154.33
1236.35	135.436
1240.66	192.013
1244.96	159.222
1249.27	179.46
1253.57	202.356
1257.88	256.522
1262.17	228.786
1266.47	230.606
1270.76	184.323
1275.06	143.887
1279.35	162.298
1283.63	181.715
1287.92	116.239
1292.2	127.616
1296.48	94.8486
1300.76	116.942
1305.04	78.8762
1309.31	82.6697
1313.58	77.3391
1317.85	5.13867
1322.12	34.8818
1326.38	24.1191
1330.64	25.0518
1334.9	66.0618
1339.16	15.0378
1343.41	32.0149
1347.67	21.4277
1351.92	10.584
1356.17	4.74414
1360.41	2.03149
1364.66	40.7756
1368.9	0.51123
1373.14	6.24487
1377.38	6.98584
1381.61	79.8877
1385.84	67.9028
1390.08	82.0693
1394.3	13.3313
1398.53	106.631
1402.75	95.9324
1406.97	59.2417
1411.19	59.5525
1415.41	83.8738
1419.63	95.2273
1423.84	96.6706
1428.05	138.111
1432.26	121.747
1436.46	116.658
1440.67	153.188
1444.87	181.564
1449.07	159.791
1453.27	150.595
1457.46	120.318
1461.66	144.222
1465.85	177.449
1470.04	214.847
1474.22	191.561
1478.41	158.22
1482.59	213.041
1486.77	232.839
1490.95	145.557
1495.12	222.173
1499.3	145.689
1503.47	167.034
1507.63	170.69
1511.8	130.634
1515.97	147.153
1520.13	105.997
1524.29	137.227
1528.45	47.761
1532.61	94.3552
1536.76	99.436
1540.91	21.0244
1545.06	92.6758
1549.21	25.8315
1553.35	45.2456
1557.5	60.7466
1561.64	17.5281
