Measurement: Raman, 514 nm, ccw, Raman Data Processed
Mineral: Almandine
Rruff sample: R050029
Ideal chemistry: Fe^2+^_3_Al_2_(SiO_4_)_3_
Locality: Barton Garnet mine, Gore Mountain, Warren County, New York, USA
Source: University of Arizona Mineral Museum
Description: Reddish brown fragments
Measured chemistry: (Fe^2+^_1.34_Mg_1.26_Ca_0.37_Mn_0.03_)_Î£=3_Al_2.00_(Si_1.00_O_4_)_3_
Pin_id: L00523
Orientation: Laser parallel to a* (1 0 0). Fiducial mark perpendicular to laser is parallel to b [0 1 0]
Raman shift (cm-1)	intensity
87.858	0
92.046	70.24
96.233	86.682
100.418	65.019
104.6	51.965
108.781	117.571
112.959	340.291
117.136	231.063
121.31	92.594
125.482	89.617
129.653	139.645
133.821	153.512
137.987	307.186
142.152	344.016
146.314	308.514
150.474	269.794
154.633	214.739
158.789	184.009
162.943	87.672
167.095	17.185
171.246	60.04
175.394	42.141
179.54	87.978
183.684	0.375
187.826	5.886
191.967	89.471
196.105	169.422
200.241	305.136
204.375	471.566
208.507	528.678
212.638	579.163
216.766	484.695
220.892	366.702
225.016	256.694
229.139	207.657
233.259	191.901
237.377	161.018
241.493	172.014
245.608	119.872
249.72	175.156
253.83	122.572
257.939	137.326
262.045	118.617
266.15	133.39
270.252	138.227
274.353	134.445
278.451	177.619
282.548	219.909
286.642	250.236
290.735	241.279
294.826	237.775
298.914	320.708
303.001	374.335
307.086	459.002
311.168	659.13
315.249	837.056
319.328	932.468
323.405	897.359
327.48	1027.92
331.553	1380.54
335.624	1766.17
339.693	2510
343.76	3611.46
347.826	5696.1
351.889	8381.59
355.95	9657.9
360.01	7737.59
364.067	5180.54
368.123	3577.71
372.176	2629.83
376.228	2102.91
380.277	1585.96
384.325	1100.01
388.371	751.054
392.415	540.766
396.457	372.035
400.497	278.114
404.535	164.069
408.571	123.685
412.605	87.429
416.638	50.611
420.668	24.021
424.697	9.217
428.723	15.831
432.748	10.454
436.77	35.094
440.791	8.172
444.81	24.104
448.827	27.906
452.842	46.027
456.855	24.928
460.867	56.745
464.876	114.396
468.883	172.895
472.889	247.255
476.892	409.478
480.894	641.567
484.894	749.526
488.892	593.367
492.888	512.125
496.882	772.897
500.874	1420.71
504.865	2164.47
508.853	1630.27
512.84	1004.36
516.824	714.524
520.807	613.774
524.788	608.092
528.767	593.328
532.744	638.488
536.719	750.665
540.693	951.705
544.664	1336.15
548.634	1968.35
552.601	3227.49
556.567	4888.68
560.531	4901.83
564.493	3008.34
568.453	1647.51
572.412	1005.53
576.368	675.899
580.323	541.96
584.275	564.819
588.226	581.94
592.175	464.375
596.122	359.188
600.068	307.419
604.011	289.677
607.952	324.399
611.892	285.397
615.83	217.614
619.766	191.949
623.7	244.706
627.632	366.921
631.563	595.154
635.491	944.247
639.418	1199.2
643.343	864.017
647.266	569.698
651.187	408.243
655.106	282.653
659.024	196.928
662.939	154.068
666.853	137.073
670.765	94.939
674.675	50.659
678.583	45.229
682.49	6.649
686.394	0.118
690.297	3.822
694.198	18.51
698.097	18.121
701.995	15.054
705.89	30.272
709.784	24.762
713.675	10.492
717.565	8.448
721.453	8.585
725.34	10.894
729.224	40.36
733.107	13.993
736.988	7.762
740.867	17.184
744.744	14.596
748.62	7.596
752.493	1.366
756.365	2.3
760.235	26.221
764.103	42.127
767.969	26.989
771.834	30.818
775.697	33.617
779.558	17.383
783.417	52.112
787.274	53.803
791.13	50.46
794.983	66.086
798.835	115.683
802.686	173.257
806.534	271.811
810.38	289.375
814.225	357.948
818.068	398.531
821.909	419.03
825.749	398.105
829.586	460.961
833.422	491.836
837.256	575.109
841.088	716.552
844.919	993.619
848.748	1461.32
852.575	2067.8
856.4	2966.36
860.223	3608.96
864.045	3402.83
867.864	2804.11
871.682	2350.55
875.499	2114.36
879.313	2196.82
883.126	2350.26
886.937	2882.21
890.746	3731.77
894.553	4680.51
898.359	5829.34
902.163	7599.69
905.965	11789.6
909.765	19965.4
913.564	32781.7
917.361	41057.2
921.156	34513.7
924.949	21040.3
928.74	12527.1
932.53	7987.93
936.318	5314.89
940.104	3720.96
943.889	2609.14
947.672	2020.43
951.453	1597.82
955.232	1308.33
959.01	1182.92
962.785	1001.68
966.559	909.875
970.332	870.139
974.102	786.614
977.871	717.787
981.638	752.388
985.404	733.085
989.167	617.175
992.929	534.081
996.689	465.577
1000.45	487.609
1004.2	443.337
1007.96	522.238
1011.71	541.436
1015.46	658.177
1019.21	717.07
1022.96	806.1
1026.71	911.255
1030.45	1079.54
1034.19	1262.95
1037.94	1514.48
1041.68	1873.13
1045.41	2030.92
1049.15	2040.82
1052.88	1782.82
1056.62	1301.96
1060.35	818.24
1064.08	556.599
1067.8	345.032
1071.53	266.536
1075.25	172.115
1078.97	149.761
1082.7	137.482
1086.41	97.281
1090.13	77.163
1093.85	40.099
1097.56	12.097
1101.27	22.114
1104.98	0.166
1108.69	11.234
1112.4	17.718
1116.1	16.703
1119.81	26.752
1123.51	78.143
1127.21	33.046
1130.91	47.08
1134.61	19.33
1138.3	11.7
1141.99	5.173
1145.68	9.262
1149.38	39.38
1153.06	37.182
1156.75	32.856
1160.43	26.828
1164.12	28.756
1167.8	94.775
1171.48	104.778
1175.16	152.109
1178.83	110.42
1182.51	135.476
1186.18	106.85
1189.85	132.483
1193.52	141.037
1197.19	125.781
1200.86	164.374
1204.52	176.895
1208.19	147.177
1211.85	118.986
1215.51	72.636
1219.17	141.282
1222.82	125.045
1226.48	127.204
1230.13	133.127
1233.78	127.647
1237.43	157.337
1241.08	90.606
1244.73	116.575
1248.37	100.423
1252.01	133.321
1255.66	166.806
1259.3	161.393
1262.93	182.176
1266.57	192.326
1270.21	190.532
1273.84	163.555
1277.47	156.353
1281.1	146.536
1284.73	154.317
1288.36	182.006
1291.98	164.315
1295.6	156.389
1299.23	103.681
1302.85	146.498
1306.46	105.616
1310.08	121.74
1313.7	82.632
1317.31	49.405
1320.92	71.043
1324.53	71.424
1328.14	73.619
1331.75	27.61
1335.35	14.583
1338.96	56.96
1342.56	21.286
1346.16	10.59
1349.76	7.281
1353.36	33.927
1356.95	36.393
1360.55	31.788
1364.14	43.977
1367.73	70.959
1371.32	5.207
1374.91	15.393
1378.49	8.669
1382.08	15.807
1385.66	58.09
1389.24	56.244
1392.82	88.359
1396.4	68.357
1399.97	63.366
1403.55	65.094
1407.12	67.633
1410.69	44.991
1414.26	66.21
1417.83	48.874
1421.4	67.465
1424.96	37.765
1428.53	25.727
1432.09	66.595
1435.65	88.197
1439.21	89.042
1442.76	34.079
1446.32	50.913
1449.87	47.816
1453.43	33.63
1456.98	22.331
1460.53	16.089
1464.07	45.247
1467.62	60.765
1471.16	99.862
1474.71	119.552
1478.25	83.227
1481.79	89.881
1485.32	51.106
1488.86	64.714
1492.39	30.573
1495.93	54.733
1499.46	3.756
1502.99	18.695
1506.52	13.185
1510.05	32.124
1513.57	59.919
