Measurement: Raman, 514 nm, ccw, Raman Data Processed
Mineral: Almandine
Rruff sample: R040076
Ideal chemistry: Fe^2+^_3_Al_2_(SiO_4_)_3_
Locality: Barton Garnet mine, Gore Mountain, Warren County, New York, USA
Source: University of Arizona Mineral Museum
Description: Red coarsely crystalline
Measured chemistry: (Fe^2+^_1.38_Mg_1.26_Ca_0.33_Mn_0.03_)_Î£=3_Al_2.00_(Si_1.00_O_4_)_3_; trace amounts of Ti
Pin_id: M00102
Orientation: Laser parallel to -a* (-1 0 0). Fiducial mark perpendicular to laser is parallel to b [0 1 0]
Raman shift (cm-1)	intensity
199.99	0
204.116	128.28
208.239	396.339
212.361	440.835
216.48	337.316
220.598	228.049
224.714	119.034
228.828	1.921
232.939	27.198
237.049	0.061
241.157	51.317
245.263	0.645
249.367	7.486
253.469	10.716
257.569	50.49
261.667	21.249
265.763	58.949
269.857	4.016
273.95	36.257
278.04	18.846
282.128	23.866
286.215	45.797
290.299	62.794
294.382	81.771
298.462	131.648
302.541	157.318
306.618	300.289
310.692	511.174
314.765	845.33
318.836	946.341
322.905	940.151
326.972	1014.36
331.037	1256.55
335.101	1611.95
339.162	2391.55
343.221	3332.98
347.279	5067.27
351.334	7937.4
355.388	11126.4
359.44	10275.2
363.489	7093.86
367.537	4688.95
371.583	3487.95
375.627	2715.58
379.669	2109.78
383.71	1564.39
387.748	1086.54
391.784	774.367
395.819	522.306
399.852	364.083
403.882	193.103
407.911	180.589
411.938	139.127
415.963	87.952
419.986	7.855
424.007	35.883
428.027	9.624
432.044	17.825
436.059	7.511
440.073	7.248
444.085	3.74
448.095	24.251
452.103	5.592
456.109	32.498
460.113	62.185
464.115	109.787
468.116	179.208
472.114	234.421
476.111	356.338
480.106	571.915
484.099	922.164
488.09	892.079
492.079	599.735
496.066	688.214
500.052	1125.55
504.035	2313.74
508.017	2525.78
511.997	1509.94
515.975	959.494
519.951	776.362
523.925	737.57
527.897	777.59
531.868	719.119
535.837	788.436
539.803	971.087
543.768	1281.9
547.731	1751.04
551.693	2643.35
555.652	4518.5
559.609	6137.08
563.565	4870.49
567.519	2713.57
571.471	1450.73
575.421	960.432
579.369	723.635
583.316	690.711
587.26	698.199
591.203	577.624
595.144	488.674
599.083	358.269
603.02	338.289
606.956	322.455
610.889	321.916
614.821	289.33
618.751	254.286
622.679	236.653
626.605	332.411
630.53	505.208
634.452	879.865
638.373	1371.33
642.292	1341.61
646.209	850.712
650.124	538.632
654.038	396.376
657.95	294.946
661.859	198.344
665.767	136.572
669.674	80.627
673.578	52.503
677.48	10.19
681.381	26.65
685.28	2.118
689.177	24.15
693.073	40.499
696.966	2.827
700.858	17.118
704.748	29.454
708.636	0.163
712.522	48.135
716.407	41.624
720.289	18.061
724.17	11.886
728.049	9.862
731.927	11.979
735.802	7.755
739.676	2.607
743.548	11.923
747.418	6.427
751.286	36.896
755.153	22.353
759.018	67.786
762.881	4.779
766.742	36.659
770.601	1.083
774.459	25.475
778.315	56.828
782.169	9.136
786.021	17.404
789.872	78.636
793.72	82.835
797.567	69.006
801.412	139.154
805.256	212.283
809.098	257.402
812.937	595.513
816.775	425.619
820.612	434.7
824.446	441.823
828.279	472.787
832.11	509.558
835.939	594.789
839.767	742.032
843.593	946.819
847.417	1292.09
851.239	1866.67
855.059	2617.01
858.878	3880.4
862.695	4437.1
866.51	3883.98
870.324	3069.71
874.136	2627.56
877.945	2429.52
881.754	2619.67
885.56	2880.28
889.365	3641.66
893.168	4608.4
896.969	5695.85
900.769	7428.28
904.566	9837.3
908.362	15692.4
912.157	26327.6
915.949	42252.9
919.74	48738.6
923.529	35654.3
927.316	21400.2
931.102	12486
934.886	7932.2
938.668	5440.52
942.448	3895.96
946.227	2842.53
950.004	2106.24
953.779	1689.07
957.552	1452.03
961.324	1280.55
965.094	1120.77
968.862	996.204
972.629	902.865
976.394	834.739
980.157	834.491
983.919	830.609
987.678	801.795
991.436	690.857
995.193	618.074
998.947	559.215
1002.7	536.715
1006.45	565.387
1010.2	609.151
1013.95	680.688
1017.69	768.25
1021.44	913.016
1025.18	1035.95
1028.92	1165.01
1032.66	1363.19
1036.4	1622.48
1040.13	1965.91
1043.87	2402.46
1047.6	2552.15
1051.33	2554.97
1055.06	2114.87
1058.79	1280.86
1062.51	874.965
1066.24	566.173
1069.96	392.458
1073.68	308.831
1077.4	209.295
1081.12	176.828
1084.83	180.421
1088.55	102.084
1092.26	52.821
1095.97	48.655
1099.68	35.479
1103.38	37.335
1107.09	13.782
1110.79	31.113
1114.5	1.973
1118.2	43.047
1121.89	16.77
1125.59	12.485
1129.29	57.835
1132.98	62.272
1136.67	46.902
1140.36	49.693
1144.05	62.673
1147.74	11.882
1151.42	10.733
1155.11	7.804
1158.79	36.503
1162.47	33.119
1166.15	69.394
1169.83	113.021
1173.5	123.981
1177.17	120.629
1180.85	159.621
1184.52	138.099
1188.19	171.811
1191.85	105.869
1195.52	152.747
1199.18	161.135
1202.85	134.58
1206.51	200.429
1210.16	177.936
1213.82	176.908
1217.48	168.851
1221.13	136.652
1224.78	101.456
1228.43	163.135
1232.08	133.167
1235.73	127.757
1239.38	111.917
1243.02	135.406
1246.66	140.302
1250.3	150.875
1253.94	153.872
1257.58	190.521
1261.22	146.723
1264.85	182.416
1268.48	229.2
1272.11	212.571
1275.74	236.662
1279.37	188.865
1283	180.889
1286.62	205.026
1290.24	163.071
1293.87	140.638
1297.48	155.479
1301.1	93.637
1304.72	123.288
1308.33	170.971
1311.95	116.488
1315.56	92.827
1319.17	74.99
1322.78	46.98
1326.38	37.799
1329.99	1.553
1333.59	44.891
1337.19	22.871
1340.79	51.072
1344.39	59.816
1347.99	37.386
1351.59	66.772
1355.18	21.959
1358.77	4.026
1362.36	23.171
1365.95	37.521
1369.54	3.909
1373.12	77.566
1376.71	41.997
1380.29	74.432
1383.87	109.016
1387.45	75.667
1391.03	32.129
1394.61	35.354
1398.18	2.444
1401.75	41.504
1405.33	53.636
1408.89	71.956
1412.46	96.519
1416.03	103.256
1419.6	92.344
1423.16	124.315
1426.72	73.164
1430.28	118.878
1433.84	15.563
1437.4	54.107
1440.95	102.511
1444.51	117.191
1448.06	142.451
1451.61	115.11
1455.16	142.375
1458.71	171.709
1462.25	156.994
1465.8	119.767
1469.34	89.896
1472.88	93.852
1476.42	107.731
1479.96	32.334
1483.5	83.585
1487.03	136.576
1490.57	156.085
1494.1	173.917
1497.63	168.779
1501.16	175.877
1504.68	127.229
1508.21	66.868
1511.73	65.873
1515.26	49.265
1518.78	40.406
1522.3	1.17
