Measurement: Raman, 514 nm, ccw, Raman Data Processed
Mineral: Almandine
Rruff sample: R040079
Ideal chemistry: Fe^2+^_3_Al_2_(SiO_4_)_3_
Locality: Ontario, Canada
Source: University of Arizona Mineral Museum
Description: Dark red dodecahedral crystal
Measured chemistry: (Fe^2+^_2.29_Mg_0.53_Ca_0.18_)_Î£=3_Al_2.00_(Si_1.00_O_4_)_3_
Pin_id: M00037
Orientation: Laser parallel to a* (1 0 0). Fiducial mark perpendicular to laser is parallel to b [0 1 0]
Raman shift (cm-1)	intensity
129.495	0
133.669	0.13
137.841	31.924
142.011	177.569
146.179	3.687
150.345	12.341
154.509	60.635
158.671	251.726
162.83	400.357
166.988	581.625
171.144	808.991
175.297	352.745
179.449	109.882
183.598	24.428
187.745	27.098
191.891	34.373
196.034	45.594
200.175	177.466
204.314	281.569
208.451	497.104
212.586	534.523
216.719	529.614
220.85	307.336
224.979	147.004
229.105	96.912
233.23	10.445
237.353	11.297
241.474	14.644
245.592	50.601
249.709	45.922
253.823	2.727
257.936	0.24
262.046	30.452
266.155	150.415
270.261	14.416
274.365	24.495
278.468	54.031
282.568	87.711
286.666	126.419
290.762	121.013
294.857	61.027
298.949	25.74
303.039	6.487
307.127	22.799
311.213	87.767
315.297	266.538
319.379	148.359
323.46	62.342
327.538	13.327
331.614	286.69
335.688	694.571
339.76	1581.8
343.83	3647.57
347.898	6949.54
351.964	6752.57
356.028	2994.41
360.09	982.626
364.15	292.222
368.208	311.118
372.264	568.295
376.318	515
380.37	249.618
384.42	63.26
388.468	27.053
392.514	38.977
396.558	3.856
400.6	58.044
404.641	119.007
408.679	203.866
412.715	197.955
416.749	146.666
420.781	116.329
424.811	119.565
428.84	101.578
432.866	79.09
436.89	66.652
440.913	64.106
444.933	66.94
448.951	78.367
452.968	46.627
456.982	41.118
460.995	21.868
465.005	12.48
469.014	45.381
473.02	54.305
477.025	193.207
481.027	344.139
485.028	198.081
489.027	4.003
493.024	100.327
497.019	506.263
501.012	1475.94
505.002	2249.18
508.992	633.983
512.979	199.492
516.964	79.242
520.947	57.696
524.928	9.583
528.907	38.286
532.885	17.979
536.86	50.492
540.834	111.462
544.805	266.479
548.775	577.079
552.742	1251.52
556.708	2467.62
560.672	2588.43
564.634	1268.63
568.594	521.241
572.552	170.488
576.508	5.251
580.462	49.066
584.414	159.099
588.365	126.081
592.313	53.156
596.26	2.814
600.204	77.875
604.147	47.928
608.088	4.515
612.026	48.272
615.963	36.875
619.898	36.196
623.832	88.098
627.763	206.222
631.692	400.508
635.619	627.069
639.545	447.892
643.469	241.748
647.39	134.788
651.31	115.756
655.228	76.569
659.144	14.206
663.058	25.865
666.97	65.508
670.881	59.304
674.789	1.98
678.696	6.4
682.6	29.052
686.503	42.666
690.404	42.308
694.303	30.877
698.2	67.299
702.095	16.9
705.989	43.647
709.88	54.703
713.77	43.538
717.658	6.567
721.543	19.456
725.427	50.878
729.31	2.954
733.19	25.207
737.068	2.351
740.945	40.857
744.819	58.921
748.692	7.286
752.563	66.159
756.432	74.581
760.299	4.948
764.165	66.26
768.028	71.663
771.89	32.975
775.749	7.303
779.607	2.576
783.463	34.031
787.318	42.205
791.17	1.101
795.02	4.78
798.869	8.534
802.716	20.477
806.561	12.991
810.404	17.309
814.245	18.565
818.085	42.667
821.922	11.186
825.758	58.968
829.592	62.284
833.424	75.193
837.254	48.677
841.083	40.266
844.909	48.77
848.734	141.759
852.557	242.186
856.378	463.789
860.197	856.088
864.015	1376.98
867.83	1315.91
871.644	953.115
875.456	485.677
879.266	189.375
883.074	17.837
886.881	117.052
890.686	114.669
894.488	243.896
898.29	921.333
902.089	1639.73
905.886	2887.87
909.682	6570.96
913.476	13953.4
917.268	25564.5
921.058	28686.1
924.846	17844.9
928.633	8132.89
932.418	3483.75
936.201	1418.28
939.982	365.905
943.761	11.29
947.539	84.92
951.315	4.91
955.089	35.359
958.861	232.684
962.631	398.163
966.4	488.288
970.167	421.345
973.932	423.557
977.695	376.06
981.456	346.7
985.216	231.183
988.974	184.475
992.73	175.385
996.484	68.347
1000.24	44.858
1003.99	39.965
1007.74	12.651
1011.48	8.845
1015.23	11.499
1018.97	103.614
1022.72	125.665
1026.45	244.782
1030.19	382.98
1033.93	569.579
1037.66	846.246
1041.4	1287.62
1045.13	1376.48
1048.86	1205.81
1052.59	798.243
1056.31	446.505
1060.04	179.25
1063.76	64.157
1067.48	14.283
1071.2	16.611
1074.92	4.825
1078.63	19.324
1082.35	28.003
1086.06	64.696
1089.77	66.449
1093.47	46.103
1097.18	73.916
1100.89	30.2
1104.59	74.486
1108.29	73.078
1111.99	44.338
1115.69	25.74
1119.38	71.22
1123.08	65.469
1126.77	36.024
1130.46	26.169
1134.15	53.003
1137.84	49.032
1141.53	39.152
1145.21	77.313
1148.89	3.434
1152.57	25.806
1156.25	73.062
1159.93	24.777
1163.61	49.413
1167.28	11.113
1170.95	40.032
1174.62	62.031
1178.29	24.242
1181.96	44.495
1185.62	66.654
1189.28	15.075
1192.95	89.112
1196.61	69.596
1200.26	3.442
1203.92	37.44
1207.58	10.99
1211.23	52.883
1214.88	28.255
1218.53	57.68
1222.18	24.127
1225.82	68.115
1229.47	26.309
1233.11	38.748
1236.75	33.161
1240.39	36.087
1244.03	10.71
1247.66	39.008
1251.3	55.674
1254.93	2.511
1258.56	22.428
1262.19	32.72
1265.82	33.045
1269.45	42.568
1273.07	26.276
1276.69	11.271
1280.31	48.61
1283.93	39.554
1287.55	28.998
1291.16	19.187
1294.78	14.196
1298.39	71.311
1302	55.823
1305.61	22.412
1309.22	36.633
1312.82	23.568
1316.43	2.05
1320.03	2.782
1323.63	36.353
1327.23	30.257
1330.83	22.794
1334.42	0.477
1338.02	57.142
1341.61	5.985
1345.2	7.891
1348.79	30.825
1352.38	46.178
1355.96	17.256
1359.55	27.075
1363.13	45.738
1366.71	6.379
1370.29	70.079
1373.86	35.632
1377.44	43.478
1381.01	2.48
1384.59	9.832
1388.16	23.706
1391.72	52.431
1395.29	44.056
1398.86	50.604
1402.42	39.158
1405.98	32.144
1409.55	81.345
1413.11	28.009
1416.66	40.95
1420.22	35.537
1423.77	31.51
1427.32	77.256
1430.88	27.656
1434.42	30.696
1437.97	77.866
1441.52	41.587
1445.06	45.77
1448.61	63.124
1452.15	28.78
1455.68	1.91
1459.22	88.601
1462.76	6.871
1466.29	53.286
1469.83	46.987
1473.36	58.052
1476.89	11.491
1480.41	39.943
1483.94	5.144
1487.47	10.554
1490.99	48.347
1494.51	31.735
1498.03	67.81
1501.55	78.824
1505.07	57.887
1508.58	50.376
1512.09	43.336
1515.61	27.806
1519.12	65.082
