Measurement: Raman, 514 nm, ccw, Raman Data Processed
Mineral: Almandine
Rruff sample: R060450
Ideal chemistry: Fe^2+^_3_Al_2_(SiO_4_)_3_
Locality: Canada
Source: Gemological Institute of America
Description: Reddish-brown translucent fragment
Measured chemistry: (Fe^2+^_1.92_Mg_1.03_Ca_0.04_Mn_0.01_)_Î£=3_Al_2.00_(Si_1.00_O_4_)_3_
Pin_id: L00665
Orientation: Laser parallel to c* (0 0 1). Fiducial mark perpendicular to laser is parallel to a [1 0 0]
Raman shift (cm-1)	intensity
91.012	0
95.948	42.8494
100.883	66.0129
105.815	262.948
110.744	481.365
115.671	458.488
120.596	237.511
125.519	166.325
130.439	319.503
135.356	678.673
140.271	803.972
145.184	913.115
150.094	724.939
155.002	739.112
159.908	757.311
164.811	974.255
169.711	1113.73
174.61	1103.52
179.505	665.013
184.399	384.452
189.29	592.23
194.178	673.854
199.064	882.975
203.948	1075.43
208.829	1055.59
213.708	1067.31
218.585	680.585
223.459	406.395
228.33	209.713
233.199	240.515
238.066	185.533
242.93	231.154
247.792	220.679
252.651	241.936
257.508	248.863
262.363	238.994
267.215	187.144
272.064	328.502
276.912	355.215
281.756	391.909
286.598	330.57
291.438	342.91
296.276	423.173
301.111	551.986
305.943	679.678
310.773	1057.48
315.601	1532.05
320.426	1679.28
325.248	1892.85
330.068	2682.76
334.886	3944.98
339.701	5867.47
344.514	9065.22
349.324	12519.2
354.132	10137.3
358.938	5604.7
363.741	3754.23
368.541	3397.94
373.339	3338.8
378.135	2416.81
382.928	1245.97
387.718	633.456
392.506	523.289
397.292	254.435
402.075	87.8965
406.856	125.798
411.634	53.0356
416.41	40.6035
421.183	17.6611
425.954	67.8091
430.722	62.9927
435.488	28.4048
440.251	30.0488
445.012	25.8276
449.77	46.2256
454.526	35.9136
459.28	116.837
464.03	88.6499
468.779	185.481
473.525	320.34
478.268	748.224
483.009	893.081
487.747	626.899
492.483	929.034
497.217	1585.44
501.948	2446.18
506.676	1871.89
511.402	939.531
516.125	674.119
520.846	573.684
525.565	623.782
530.281	658.905
534.994	633.746
539.705	860.496
544.413	1276.48
549.119	2300.83
553.822	3830.35
558.523	5031.12
563.222	3505.74
567.917	1684.22
572.611	1041.44
577.302	738.431
581.99	777.589
586.676	746.974
591.359	636.675
596.04	515.218
600.718	512.453
605.394	431.339
610.067	391.715
614.737	246.189
619.406	282.344
624.071	409.232
628.734	725.184
633.395	946.705
638.053	1168.1
642.708	869.002
647.361	294.49
652.012	289.555
656.66	169.496
661.305	160.342
665.948	127.764
670.588	110.014
675.226	100.661
679.861	66.9629
684.494	55.7334
689.124	3.19531
693.752	29.8706
698.377	47.2554
702.999	74.1089
707.619	90.0557
712.237	48.7246
716.852	41.1777
721.464	27.4907
726.074	78.5669
730.681	35.4639
735.286	50.1699
739.888	99.6455
744.488	63.8452
749.085	4.15869
753.68	35.5772
758.272	63.1006
762.861	159.475
767.448	61.7036
772.033	33.7647
776.614	44.3477
781.194	38.3062
785.77	2.80664
790.345	32.832
794.916	66.3389
799.485	48.3296
804.052	15.3877
808.616	155.69
813.177	127.88
817.736	174.79
822.292	127.361
826.846	169.459
831.397	152.932
835.945	126.909
840.491	298.524
845.035	385.269
849.576	626.622
854.114	1042.69
858.65	1728.31
863.183	2540.64
867.713	2975.01
872.241	2246.18
876.767	1783.74
881.29	1715.66
885.81	1976.59
890.328	2642.79
894.843	3783.64
899.356	5410.66
903.866	7631.54
908.373	12601.8
912.878	23722.9
917.38	40601.5
921.88	45930.8
926.377	28008.3
930.872	13654.7
935.364	7091.28
939.853	4122.95
944.34	2638.21
948.824	1774.77
953.306	1094.61
957.785	875.88
962.261	855.605
966.735	687.599
971.207	606.407
975.675	566.196
980.141	570.028
984.605	573.105
989.066	569.054
993.524	507.267
997.98	457.768
1002.43	423.967
1006.88	425.456
1011.33	460.79
1015.78	496.811
1020.22	639.786
1024.66	856.99
1029.1	1071.02
1033.53	1189.19
1037.97	1625.5
1042.4	2179.95
1046.82	2373.57
1051.25	2239.35
1055.67	1595.06
1060.09	940.45
1064.51	532.837
1068.92	352.462
1073.33	240.197
1077.74	82.0644
1082.15	137.191
1086.55	74.355
1090.95	97.542
1095.35	38.791
1099.75	28.8633
1104.14	10.1226
1108.53	73.9429
1112.92	19.5225
1117.31	108.815
1121.69	166.234
1126.07	236.545
1130.45	34.2705
1134.82	21.3936
1139.19	67.1533
1143.57	5.31055
1147.93	38.8721
1152.3	65.6494
1156.66	101.145
1161.02	124.814
1165.38	70.4614
1169.73	160.917
1174.08	115.566
1178.43	122.824
1182.78	73.1821
1187.12	198.628
1191.46	137.281
1195.8	108.977
1200.14	226.848
1204.47	199.561
1208.8	207.377
1213.13	115.332
1217.46	161.808
1221.78	168.557
1226.1	188.767
1230.42	178.125
1234.73	235.477
1239.04	85.96
1243.35	167.916
1247.66	171.723
1251.97	136.853
1256.27	179.269
1260.57	168.628
1264.86	231.012
1269.16	168.367
1273.45	217.647
1277.74	212.27
1282.03	127.845
1286.31	143.677
1290.59	188.042
1294.87	217.265
1299.14	111.35
1303.42	114.292
1307.69	161.099
1311.95	114.773
1316.22	0.754883
1320.48	120.541
1324.74	100.561
1329	13.9492
1333.26	44.7471
1337.51	94.3301
1341.76	5.90625
1346	121.744
1350.25	103.457
1354.49	55.6055
1358.73	66.7363
1362.96	123.035
1367.2	109.232
1371.43	28.4092
1375.66	8.81738
1379.88	72.835
1384.11	3.52148
1388.33	160.812
1392.54	40.8799
1396.76	155.016
1400.97	6.26856
1405.18	153.599
1409.39	26.7744
1413.59	75.9434
1417.8	99.6943
1421.99	148.461
1426.19	225.279
1430.38	155.965
1434.58	224.099
1438.77	122.591
1442.95	190.316
1447.13	59.3398
1451.32	170.567
1455.49	180.24
1459.67	112.297
1463.84	309.958
1468.01	95.8877
1472.18	207.902
1476.35	183.21
1480.51	192.176
1484.67	205.703
1488.83	185.764
1492.98	54.0078
1497.13	231.157
1501.28	362.198
1505.43	179.088
1509.57	201.874
1513.71	179.637
1517.85	217.035
1521.99	133.244
1526.12	235.867
1530.25	120.672
1534.38	193.248
1538.5	182.668
1542.62	126.103
1546.74	157.352
1550.86	189.261
1554.98	261.74
1559.09	138.949
1563.2	91.0918
1567.31	128.45
