Measurement: Raman, 514 nm, ccw, Raman Data Processed
Mineral: Almandine
Rruff sample: R060099
Ideal chemistry: Fe^2+^_3_Al_2_(SiO_4_)_3_
Locality: Alaska, USA
Source: Roland Boehne
Description: Red cube shaped single crystal
Measured chemistry: (Fe^2+^_1.63_Mg_0.57_Mn_0.56_Ca_0.24_)_Σ=3_(Al_1.98_Fe^3+^_0.02_)_Σ=2_(Si_1.00_O_4_)_3_
Pin_id: M00497
Orientation: Laser parallel to -a* (-1 0 0). Fiducial mark perpendicular to laser is parallel to c [0 0 1]
Raman shift (cm-1)	intensity
93.48	0
98.416	6.86279
103.349	12.7644
108.28	216.174
113.208	105.381
118.134	217.435
123.058	38.04
127.979	72.459
132.898	39.1397
137.814	115.519
142.728	105.239
147.639	202.264
152.549	336.531
157.455	664.847
162.359	1039.06
167.261	1318.04
172.161	848.268
177.058	352.654
181.952	152.325
186.845	124.425
191.734	312.332
196.622	432.348
201.507	740.168
206.389	864.314
211.269	1017.68
216.147	691.255
221.022	483.046
225.895	312.042
230.765	329.231
235.633	264.605
240.498	216.033
245.361	169.237
250.222	168.728
255.08	182.353
259.936	274.471
264.789	121.09
269.64	201.159
274.488	233.914
279.334	305.393
284.178	250.63
289.019	312.413
293.857	385.7
298.693	494.767
303.527	761.652
308.358	1079.11
313.187	1529.95
318.013	1764.58
322.837	2415.37
327.659	3271.31
332.478	4618.39
337.294	8097.59
342.108	13084.9
346.92	13525.3
351.729	8053.8
356.535	4371.35
361.34	3278.97
366.141	3463.65
370.94	3462.39
375.737	2281.18
380.531	1236.01
385.323	628.894
390.113	332.884
394.9	167.017
399.684	186.333
404.466	41.8535
409.245	69.6287
414.022	54.584
418.797	44.2695
423.569	22.3953
428.338	75.6016
433.105	3.6084
437.87	22.3645
442.632	35.4902
447.391	10.8337
452.149	26.7034
456.903	52.2266
461.655	127.707
466.405	311.137
471.152	583.109
475.897	868.81
480.639	744.038
485.378	553.184
490.116	1031.25
494.85	2119.23
499.582	2625.12
504.312	1577.97
509.039	789.779
513.764	525.489
518.486	539.095
523.206	518.904
527.923	661.372
532.638	718.131
537.35	943.341
542.059	1567.43
546.766	2607.54
551.471	4395.23
556.173	4462.89
560.873	2702.74
565.57	1357.01
570.264	905.049
574.957	778.624
579.646	819.398
584.333	735.279
589.018	525.77
593.7	554.879
598.379	462.666
603.056	395.621
607.73	265.228
612.402	278.576
617.072	407.664
621.739	483.489
626.403	925.052
631.065	1116.17
635.724	745.209
640.381	512.533
645.035	399.147
649.687	278.947
654.336	268.232
658.983	252.938
663.627	85.3699
668.268	124.148
672.907	57.4133
677.544	37.9526
682.178	67.0325
686.809	35.5615
691.438	10.488
696.065	39.053
700.688	31.1931
705.31	20.9419
709.929	23.157
714.545	18.688
719.158	56.521
723.77	8.56494
728.378	61.4429
732.984	8.87842
737.588	102.575
742.189	95.875
746.787	46.0349
751.383	43.0681
755.976	58.9856
760.567	69.7959
765.155	93.509
769.741	39.1091
774.324	8.37817
778.904	31.9788
783.482	10.8001
788.058	56.2241
792.631	43.1655
797.201	83.0493
801.769	111.478
806.334	171.306
810.897	173.336
815.457	264.767
820.014	207.858
824.569	166.072
829.122	204.184
833.671	294.444
838.219	338.779
842.763	507.58
847.306	914.305
851.845	1298.88
856.382	2210.62
860.917	2619.68
865.448	2462.42
869.978	1884.36
874.505	1795.56
879.029	2111.24
883.55	2672.39
888.069	3642.85
892.586	5323.57
897.1	7525.52
901.611	11420.7
906.12	20957.3
910.626	38833.8
915.129	51183.5
919.63	38109.3
924.129	19947.3
928.625	10368.7
933.118	5843.72
937.609	3514.99
942.097	2237.49
946.582	1466.38
951.065	1064.72
955.546	927.134
960.023	737.294
964.499	611.783
968.971	653.926
973.441	645.445
977.909	589.93
982.374	549.022
986.836	388.457
991.295	419.436
995.753	384.695
1000.21	355.236
1004.66	585.958
1009.11	426.59
1013.55	570.832
1018	728.418
1022.44	944.563
1026.88	1305.35
1031.32	1824.29
1035.75	2346.37
1040.18	2599.61
1044.61	2234.99
1049.04	1479.54
1053.46	894.286
1057.88	496.19
1062.3	266.221
1066.71	149.362
1071.13	94.6506
1075.54	132.273
1079.94	58.6985
1084.35	148.257
1088.75	5.88599
1093.15	31.0435
1097.55	20.9614
1101.94	18.9695
1106.34	29.3035
1110.73	16.0474
1115.11	28.7044
1119.5	45.4143
1123.88	42.4922
1128.26	83.1323
1132.63	10.499
1137.01	68.7004
1141.38	82.5027
1145.75	6.04175
1150.12	26.7183
1154.48	67.2068
1158.84	42.0122
1163.2	201.708
1167.55	212.289
1171.91	120.75
1176.26	193.086
1180.61	93.291
1184.95	140.357
1189.29	207.28
1193.63	172.055
1197.97	131.089
1202.31	208.222
1206.64	189.58
1210.97	131.675
1215.29	122.936
1219.62	187.759
1223.94	148.275
1228.26	181.78
1232.57	84.7036
1236.89	130.477
1241.2	179.729
1245.51	136.814
1249.81	193.159
1254.12	224.385
1258.42	142.711
1262.72	270.993
1267.01	262.354
1271.3	228.343
1275.59	199.1
1279.88	212.855
1284.17	204.065
1288.45	181.796
1292.73	216.399
1297.01	160.921
1301.28	229.337
1305.55	167.493
1309.82	104.511
1314.09	128.401
1318.35	140.168
1322.61	32.8115
1326.87	48.3227
1331.13	77.6182
1335.38	39.3481
1339.63	4.55469
1343.88	10.4399
1348.12	20.5117
1352.37	2.6875
1356.61	89.6509
1360.85	18.3726
1365.08	23.0405
1369.31	26.5083
1373.54	106.962
1377.77	101.329
1381.99	144.584
1386.22	119.723
1390.43	34.7432
1394.65	13.7622
1398.87	106.966
1403.08	77.3579
1407.29	92.7808
1411.49	57.248
1415.69	103.679
1419.89	27.0903
1424.09	71.5029
1428.29	102.939
1432.48	86.1094
1436.67	158.088
1440.86	365.331
1445.04	337.173
1449.23	326.943
1453.4	403.837
1457.58	408.474
1461.76	375.044
1465.93	267.944
1470.1	221.945
1474.26	224.626
1478.43	274.964
1482.59	239.597
1486.75	226.772
1490.9	135.3
1495.06	215.676
1499.21	158.58
1503.35	75.6123
1507.5	136.364
1511.64	105.762
1515.78	58.1645
1519.92	224.509
1524.05	69.7324
1528.18	87.2896
1532.31	75.2402
1536.44	98.5205
1540.56	56.3662
1544.69	57.1694
1548.8	101.088
1552.92	91.2969
1557.03	106.4
1561.14	77.2988
1565.25	136.447
1569.36	0.223145
