Measurement: Raman, 514 nm, ccw, Raman Data Processed
Mineral: Amblygonite
Rruff sample: R040006
Ideal chemistry: LiAlPO_4_F
Locality: Pala, San Diego County, California, USA
Source: University of Arizona Mineral Museum
Description: Light gray coarsely crystalline massive
Measured chemistry: LiAl_1.00_(P_1.00_O_4_)(F_0.73_(OH)_0.27_)_Î£=1_; Li assumed by stoichiometry; OH estimated by charge balance
Pin_id: l00112
Orientation: Laser parallel to (1 1 0). Fiducial mark perpendicular to laser is parallel to c [0 0 1]
Raman shift (cm-1)	intensity
114.78	0
118.956	249.677
123.129	845.165
127.3	1714.59
131.469	2089.48
135.636	1226.89
139.801	590.993
143.964	266.495
148.125	230.689
152.284	142.031
156.441	119.37
160.596	177.18
164.749	243.206
168.9	222.241
173.049	94.225
177.195	138.86
181.34	156.473
185.483	316.479
189.624	128.683
193.762	22.958
197.899	119.078
202.034	105.529
206.166	57.658
210.297	209.85
214.425	348.209
218.552	377.493
222.676	467.735
226.799	478.935
230.919	321.084
235.038	394.162
239.154	349.025
243.269	300.805
247.381	310.091
251.492	337.763
255.6	266.854
259.707	487.477
263.811	794.967
267.914	1221.28
272.014	1704.07
276.113	1827.39
280.209	1396.11
284.304	1580.15
288.396	2180.07
292.487	4092.54
296.575	8896.96
300.662	15693
304.746	15220.3
308.829	8768.77
312.909	5258.27
316.988	3558.67
321.065	2019.89
325.139	1161.81
329.212	744.395
333.283	517.631
337.351	461.472
341.418	245.882
345.483	150.821
349.546	66.251
353.606	52.145
357.665	98.467
361.722	14.811
365.777	138.535
369.83	128.215
373.881	79.496
377.93	98.021
381.977	75.826
386.023	222.824
390.066	344.326
394.107	282.078
398.146	456.621
402.184	499.654
406.219	533.604
410.252	1054.46
414.284	1946.93
418.313	4829.48
422.341	14401.1
426.367	22633.6
430.39	10695.6
434.412	3877.85
438.432	1890.21
442.45	1072.68
446.466	505.525
450.48	658.715
454.492	572.201
458.502	286.039
462.51	460.092
466.517	964.389
470.521	1408.87
474.523	2183.55
478.524	3238.33
482.523	4213.19
486.519	4358.11
490.514	4153.07
494.507	3768.07
498.498	3033.08
502.487	2268.1
506.474	1593.11
510.459	1038.1
514.442	653.057
518.424	467.975
522.403	252.176
526.381	261.564
530.356	36.285
534.33	101.922
538.302	202.24
542.272	43.982
546.24	159.279
550.206	212.41
554.17	108.428
558.132	216.441
562.093	17.129
566.051	123.418
570.008	197.51
573.963	444.668
577.915	466.961
581.866	125.703
585.815	292.672
589.763	320.979
593.708	526.67
597.651	827.043
601.593	1215.94
605.532	1233.35
609.47	1302.94
613.406	1266.06
617.34	1358.98
621.272	1756.61
625.202	2215.97
629.131	3250.46
633.057	4937.16
636.982	8844.02
640.905	20450.9
644.825	39526.7
648.744	32972.1
652.662	14587.3
656.577	6992.08
660.49	3806.58
664.402	2730.75
668.312	1774.61
672.219	1148.14
676.125	931.35
680.03	744.246
683.932	606.867
687.832	498.32
691.731	558.393
695.628	234.314
699.522	223.598
703.415	191.965
707.307	290.387
711.196	242.451
715.083	212.277
718.969	79.273
722.853	339.293
726.735	337.602
730.615	244.07
734.493	219.643
738.37	6.463
742.244	52.963
746.117	280.176
749.988	205.85
753.857	161.24
757.724	53.367
761.59	51.416
765.453	355.949
769.315	141.871
773.175	105.58
777.033	140.922
780.889	272.111
784.744	414.922
788.596	287.463
792.447	279.861
796.296	152.119
800.143	294.256
803.989	166.289
807.832	418.229
811.674	450.086
815.514	501.865
819.352	493.58
823.189	165.238
827.023	396.85
830.856	308.42
834.687	179.965
838.516	151.488
842.343	253.012
846.169	204.734
849.992	336.053
853.814	337.752
857.634	159.43
861.453	181.777
865.269	107.414
869.084	287.602
872.897	550.238
876.708	18.822
880.517	39.145
884.325	126.342
888.13	59.568
891.934	299.406
895.737	288.947
899.537	96.727
903.336	55.066
907.132	21.309
910.928	276.543
914.721	349.041
918.512	254.561
922.302	175.289
926.09	436.18
929.876	60.756
933.66	286.773
937.443	396.096
941.224	633.297
945.003	330.326
948.78	457.322
952.556	145.426
956.33	683.842
960.102	782.578
963.872	1221.64
967.64	881.035
971.407	590.799
975.172	1160.96
978.935	1421.47
982.697	1972.34
986.456	3113.56
990.214	4225.15
993.971	6277.1
997.725	9179.19
1001.48	13636.7
1005.23	20078.1
1008.98	25183.5
1012.73	24927.4
1016.47	19690.1
1020.22	14097
1023.96	10255.8
1027.7	9093.31
1031.44	9569.6
1035.17	12136.5
1038.91	14383.7
1042.64	17291.6
1046.37	17729.9
1050.1	16807.5
1053.83	16166.9
1057.56	16476.4
1061.28	17036.6
1065.01	14227.3
1068.73	8848.46
1072.45	5928.41
1076.16	3930.7
1079.88	3393.47
1083.6	2776.75
1087.31	2331.45
1091.02	1625.39
1094.73	1449.26
1098.44	743.352
1102.14	767.855
1105.85	772.781
1109.55	1118.11
1113.25	1103.87
1116.95	890.027
1120.65	952.77
1124.34	739.332
1128.04	296.078
1131.73	663.254
1135.42	710.863
1139.11	938.773
1142.79	476.551
1146.48	74.723
1150.16	46.703
1153.84	76.016
1157.52	162.434
1161.2	10.676
1164.88	599.348
1168.56	478.129
1172.23	437.457
1175.9	7.434
1179.57	1.922
1183.24	49.359
1186.9	301.273
1190.57	473.859
1194.23	647.051
1197.89	510.504
1201.55	504.492
1205.21	559.098
1208.87	294.324
1212.52	110.082
1216.18	166.301
1219.83	363.176
1223.48	770.723
1227.13	627.145
1230.77	492.113
1234.42	653.738
1238.06	60.918
1241.7	59.273
1245.34	136.621
1248.98	534.344
1252.62	342.363
1256.25	510.57
1259.88	538.789
1263.51	626.789
1267.14	354.508
1270.77	284.363
1274.4	84.969
1278.02	595.574
1281.65	575.914
1285.27	334.867
1288.89	383.105
1292.51	497.004
1296.12	100.996
1299.74	71.91
