Measurement: Raman, 514 nm, ccw, Raman Data Processed
Mineral: Amblygonite
Rruff sample: R040006
Ideal chemistry: LiAlPO_4_F
Locality: Pala, San Diego County, California, USA
Source: University of Arizona Mineral Museum
Description: Light gray coarsely crystalline massive
Measured chemistry: LiAl_1.00_(P_1.00_O_4_)(F_0.73_(OH)_0.27_)_Î£=1_; Li assumed by stoichiometry; OH estimated by charge balance
Pin_id: l00204
Orientation: Laser parallel to b* (0 1 0). Fiducial mark perpendicular to laser is parallel to c [0 0 1]
Raman shift (cm-1)	intensity
110.603	0
114.78	210.393
118.956	476.063
123.129	882.776
127.3	1484.87
131.469	1427.05
135.636	796.042
139.801	382.655
143.964	102.576
148.125	19.767
152.284	16.714
156.441	19.032
160.596	19.905
164.749	22.793
168.9	107.833
173.049	228.071
177.195	316.503
181.34	315.982
185.483	375.513
189.624	400.062
193.762	302.515
197.899	133.314
202.034	43.588
206.166	80.986
210.297	125.903
214.425	167.172
218.552	268.705
222.676	256.583
226.799	219.92
230.919	252.71
235.038	237.941
239.154	188.167
243.269	121.203
247.381	150.934
251.492	98.559
255.6	107.045
259.707	280.179
263.811	484.624
267.914	794.359
272.014	1164.34
276.113	1075.7
280.209	1024.68
284.304	1238.19
288.396	1779.48
292.487	3266.26
296.575	7083.33
300.662	14564.5
304.746	17076
308.829	10917.9
312.909	6560.34
316.988	4587.62
321.065	2711.11
325.139	1336.51
329.212	878.272
333.283	597.371
337.351	513.745
341.418	356.378
345.483	228.253
349.546	115.355
353.606	99.669
357.665	26.182
361.722	35.511
365.777	27.754
369.83	68.799
373.881	10.778
377.93	83.036
381.977	121.438
386.023	168.246
390.066	224.43
394.107	244.915
398.146	328.229
402.184	413.45
406.219	665.21
410.252	1187.17
414.284	2071.42
418.313	5100.28
422.341	15038.2
426.367	26616.4
430.39	13514.6
434.412	4733.05
438.432	2079.55
442.45	1161.22
446.466	735.036
450.48	567.969
454.492	539.059
458.502	873.287
462.51	1326.63
466.517	1209.08
470.521	1452.58
474.523	2254.11
478.524	3448.68
482.523	4523.28
486.519	4862.91
490.514	4502.54
494.507	4076.16
498.498	3376.75
502.487	2479.31
506.474	1720.83
510.459	1165.3
514.442	715.715
518.424	455.071
522.403	247.509
526.381	42.351
530.356	15.49
534.33	58.524
538.302	8.352
542.272	23.135
546.24	27.564
550.206	22.062
554.17	21.905
558.132	70.856
562.093	56.512
566.051	34.783
570.008	90.537
573.963	91.023
577.915	156.491
581.866	246.647
585.815	223.649
589.763	376.121
593.708	455.348
597.651	585.834
601.593	1017.62
605.532	1189.94
609.47	965.92
613.406	960.103
617.34	1169.07
621.272	1418.05
625.202	1838.35
629.131	2633.2
633.057	4094.65
636.982	7177.86
640.905	15950.8
644.825	34323.6
648.744	32496
652.662	14738.3
656.577	6790.26
660.49	3624.99
664.402	2295.48
668.312	1436.72
672.219	1018.71
676.125	720.196
680.03	598.929
683.932	492.175
687.832	324.031
691.731	308.459
695.628	214.575
699.522	245.969
703.415	49.024
707.307	4.92
711.196	112.491
715.083	6.307
718.969	10.877
722.853	85.661
726.735	43.922
730.615	3.797
734.493	54.325
738.37	42.249
742.244	0.434
746.117	11.673
749.988	16.504
753.857	41.042
757.724	28.71
761.59	26.219
765.453	46.123
769.315	6.12
773.175	42.932
777.033	31.312
780.889	93.04
784.744	133.229
788.596	60.265
792.447	85.157
796.296	146.909
800.143	200.527
803.989	359.016
807.832	339.383
811.674	386.634
815.514	424.774
819.352	364.81
823.189	270.745
827.023	191.588
830.856	200.345
834.687	97.02
838.516	42.622
842.343	69.159
846.169	57.647
849.992	68.178
853.814	92.787
857.634	33.245
861.453	48.636
865.269	1.786
869.084	34.959
872.897	96.922
876.708	9.663
880.517	5.62
884.325	68.72
888.13	98.533
891.934	115.476
895.737	107.383
899.537	137.662
903.336	126.665
907.132	154.72
910.928	176.462
914.721	139.77
918.512	127.401
922.302	188.999
926.09	197.406
929.876	78.49
933.66	178.324
937.443	241.855
941.224	288.934
945.003	164.543
948.78	332.303
952.556	381.219
956.33	571.361
960.102	542.668
963.872	792.142
967.64	784.787
971.407	945.608
975.172	1284.61
978.935	1658.81
982.697	2113.2
986.456	3007.85
990.214	4292.75
993.971	6577.92
997.725	10023.1
1001.48	14849.7
1005.23	21677.3
1008.98	27044
1012.73	26888.4
1016.47	21239.6
1020.22	15308.1
1023.96	10855.8
1027.7	8794
1031.44	8321.98
1035.17	9790.24
1038.91	11578.8
1042.64	13847.8
1046.37	14527
1050.1	14376.7
1053.83	13916.7
1057.56	14407
1061.28	16127.6
1065.01	14998.4
1068.73	9869.45
1072.45	6270.81
1076.16	4102.41
1079.88	3054.27
1083.6	2246.35
1087.31	1758.89
1091.02	1331.33
1094.73	1223.95
1098.44	812.733
1102.14	616.769
1105.85	574.871
1109.55	475.131
1113.25	399.559
1116.95	469.166
1120.65	422.882
1124.34	382.759
1128.04	155.024
1131.73	297.115
1135.42	216.46
1139.11	229.244
1142.79	115.233
1146.48	38.85
1150.16	56.704
1153.84	107.776
1157.52	69.303
1161.2	50.057
1164.88	182.491
1168.56	56.362
1172.23	70.675
1175.9	36.638
1179.57	42.759
1183.24	111.687
1186.9	55.866
1190.57	213.965
1194.23	336.647
1197.89	302.774
1201.55	368.913
1205.21	290.168
1208.87	264.542
1212.52	146.432
1216.18	172.461
1219.83	351.389
1223.48	189.365
1227.13	111.007
1230.77	100.7
1234.42	116.435
1238.06	360.089
1241.7	23.696
1245.34	70.236
1248.98	44.529
1252.62	40.758
1256.25	112.017
1259.88	109.349
1263.51	132.055
1267.14	135.614
1270.77	10.061
1274.4	67.729
1278.02	91.211
1281.65	10.988
1285.27	74.422
1288.89	52.113
1292.51	32.208
1296.12	91.768
1299.74	21.13
1303.35	18.651
1306.96	17.183
1310.57	98.347
1314.18	67.886
1317.79	117.643
1321.39	176.83
1324.99	156.418
1328.59	185.694
1332.19	25.379
1335.79	36.723
1339.39	8.327
1342.98	9.831
1346.58	87.743
1350.17	75.47
1353.76	173.007
1357.35	180.384
1360.93	187.883
1364.52	85.025
1368.1	212.085
1371.68	9.1
1375.26	98.615
1378.84	190.561
1382.42	136.658
1385.99	114.454
1389.57	188.156
1393.14	202.442
1396.71	218.712
1400.28	216.62
1403.85	48.178
1407.41	193.58
1410.98	17.802
1414.54	3.441
1418.1	137.146
1421.66	146.211
1425.21	211.88
1428.77	205.442
1432.33	279.496
1435.88	212.282
1439.43	174.202
1442.98	207.965
1446.53	211.049
1450.07	130.121
1453.62	142.432
1457.16	193.937
1460.7	385.105
1464.24	352.722
1467.78	276.585
1471.32	289.474
1474.85	297.911
1478.38	207.384
1481.91	228.089
1485.44	189.48
1488.97	170.786
1492.5	131.969
1496.03	83.568
1499.55	7.371
1503.07	172.794
1506.59	359.797
1510.11	289.418
1513.63	279.478
1517.14	347.078
1520.66	344.119
