Measurement: Raman, 514 nm, ccw, Raman Data Processed
Mineral: Amblygonite
Rruff sample: R040006
Ideal chemistry: LiAlPO_4_F
Locality: Pala, San Diego County, California, USA
Source: University of Arizona Mineral Museum
Description: Light gray coarsely crystalline massive
Measured chemistry: LiAl_1.00_(P_1.00_O_4_)(F_0.73_(OH)_0.27_)_Î£=1_; Li assumed by stoichiometry; OH estimated by charge balance
Pin_id: l00485
Orientation: Laser parallel to -a* (-1 0 0). Fiducial mark perpendicular to laser is parallel to -b [0 -1 0]
Raman shift (cm-1)	intensity
110.603	0
114.78	380.776
118.956	994.9
123.129	1489.55
127.3	2286.03
131.469	2306.85
135.636	1211.17
139.801	399.819
143.964	139.694
148.125	12.088
152.284	36.242
156.441	96.903
160.596	177.239
164.749	230.861
168.9	160.984
173.049	85.413
177.195	47.939
181.34	40.391
185.483	15.219
189.624	44.112
193.762	10.7
197.899	86.947
202.034	46.497
206.166	34.357
210.297	122.395
214.425	259.655
218.552	339.309
222.676	399.328
226.799	336.715
230.919	353.437
235.038	376.394
239.154	299.242
243.269	238.836
247.381	270.838
251.492	404.616
255.6	409.291
259.707	598.66
263.811	1014.46
267.914	1677.58
272.014	2146.03
276.113	1929.74
280.209	1818.91
284.304	1943.15
288.396	2482.24
292.487	4080.74
296.575	8749.35
300.662	16958
304.746	19976.6
308.829	12935.3
312.909	7543.63
316.988	5020.55
321.065	2938.68
325.139	1714.19
329.212	1242.98
333.283	913.074
337.351	708.459
341.418	524.082
345.483	389.704
349.546	304.979
353.606	136.554
357.665	118.596
361.722	200.488
365.777	49.258
369.83	69.821
373.881	150.976
377.93	151.607
381.977	139.326
386.023	164.858
390.066	242.095
394.107	371.441
398.146	448.842
402.184	519.54
406.219	643.447
410.252	1203.38
414.284	2065.8
418.313	4678.46
422.341	13501.2
426.367	24654.3
430.39	13797.5
434.412	4691.02
438.432	1914.65
442.45	1106.44
446.466	729.362
450.48	448.407
454.492	455.599
458.502	382.922
462.51	776.328
466.517	1073.89
470.521	1648.64
474.523	2783.45
478.524	4528.35
482.523	5863.3
486.519	5948.28
490.514	5583.3
494.507	4948.34
498.498	4133.4
502.487	2888.47
506.474	2043.55
510.459	1368.64
514.442	863.759
518.424	597.887
522.403	233.047
526.381	100.442
530.356	18.937
534.33	120.483
538.302	2.949
542.272	77.606
546.24	8.679
550.206	32.654
554.17	123.936
558.132	62.348
562.093	42.745
566.051	11.466
570.008	41.58
573.963	235.634
577.915	222.684
581.866	188.237
585.815	430.74
589.763	462.339
593.708	601.771
597.651	958.751
601.593	1433.65
605.532	1561.49
609.47	1309.12
613.406	1377.88
617.34	1584.23
621.272	2058.11
625.202	2817.35
629.131	4099.95
633.057	6243.52
636.982	10534.8
640.905	22595.2
644.825	47485.3
648.744	46675.2
652.662	21654.8
656.577	10054.1
660.49	5333.25
664.402	3432.78
668.312	2141.36
672.219	1379.73
676.125	1067.78
680.03	845.569
683.932	656.48
687.832	547.223
691.731	422.711
695.628	322.319
699.522	336.88
703.415	177.281
707.307	42.093
711.196	169.909
715.083	0.912
718.969	69.874
722.853	183.161
726.735	65.999
730.615	39.5
734.493	97.482
738.37	43.663
742.244	38.342
746.117	99.819
749.988	9.134
753.857	41.519
757.724	1.893
761.59	41.919
765.453	71.603
769.315	20.875
773.175	79.786
777.033	121.561
780.889	26.534
784.744	74.261
788.596	21.755
792.447	49.001
796.296	26.069
800.143	92.975
803.989	99.725
807.832	196.324
811.674	232.782
815.514	189.106
819.352	185.287
823.189	1.343
827.023	117.281
830.856	153.118
834.687	81.14
838.516	25.579
842.343	69.855
846.169	195.185
849.992	140.431
853.814	75.537
857.634	50.568
861.453	92.495
865.269	35.338
869.084	95.765
872.897	189.965
876.708	116.532
880.517	46.019
884.325	65.572
888.13	188.827
891.934	113.877
895.737	240.212
899.537	148.925
903.336	265.079
907.132	109.691
910.928	272.057
914.721	294.981
918.512	186.7
922.302	65.775
926.09	109.178
929.876	114.645
933.66	233.191
937.443	239.541
941.224	394.563
945.003	272.022
948.78	400.309
952.556	378.838
956.33	627.615
960.102	776.648
963.872	1015.94
967.64	815.505
971.407	1004.71
975.172	1404.94
978.935	1755.52
982.697	2436.38
986.456	3514.15
990.214	4704.98
993.971	7244.13
997.725	10996.2
1001.48	16565.9
1005.23	24375.1
1008.98	30588.6
1012.73	30492.4
1016.47	24596.9
1020.22	17991.5
1023.96	13507.3
1027.7	11719.8
1031.44	12026.4
1035.17	14723.2
1038.91	17762.8
1042.64	20929.5
1046.37	21638.9
1050.1	21297.9
1053.83	20197.5
1057.56	20117.5
1061.28	21317.8
1065.01	19308.6
1068.73	12959.8
1072.45	8311.39
1076.16	5603.42
1079.88	4325.81
1083.6	3298.76
1087.31	3652.95
1091.02	2036.76
1094.73	1750.9
1098.44	1165.32
1102.14	960.042
1105.85	975.035
1109.55	1020.33
1113.25	995.856
1116.95	1051.65
1120.65	1160.48
1124.34	1076.94
1128.04	724.214
1131.73	851.391
1135.42	843.829
1139.11	828.777
1142.79	566.571
1146.48	261.657
1150.16	0.819
1153.84	89.789
1157.52	159.327
1161.2	18.261
1164.88	459.773
1168.56	184.202
1172.23	248.57
1175.9	98.642
1179.57	58.541
1183.24	89.21
1186.9	158.177
1190.57	165.516
1194.23	303.493
1197.89	281.725
1201.55	322.501
1205.21	326.824
1208.87	108.997
1212.52	7.722
1216.18	37.277
1219.83	200.753
1223.48	380.039
1227.13	158.408
1230.77	346.409
1234.42	302.383
1238.06	55.852
1241.7	24.037
1245.34	143.374
1248.98	291.422
1252.62	179.583
1256.25	207.669
1259.88	405.333
1263.51	383.766
1267.14	280.794
1270.77	34.427
1274.4	51.511
1278.02	297.517
1281.65	276.43
1285.27	311.229
1288.89	255.988
1292.51	309.786
1296.12	3.562
1299.74	78.84
1303.35	101.223
1306.96	33.019
1310.57	236.403
1314.18	153.864
1317.79	303.693
1321.39	396.071
1324.99	464.823
1328.59	360.902
1332.19	128.778
1335.79	63.932
1339.39	78.202
1342.98	47.892
1346.58	723.535
1350.17	318.763
1353.76	273.578
1357.35	228.138
1360.93	372.432
1364.52	186.592
1368.1	270.926
1371.68	84.031
1375.26	30.068
1378.84	5.84
1382.42	248.076
1385.99	231.637
1389.57	614.887
1393.14	471.791
1396.71	593.293
1400.28	368.586
1403.85	169.504
1407.41	272.639
1410.98	32.947
1414.54	108.01
1418.1	240.324
1421.66	439.311
1425.21	313.92
1428.77	526.986
1432.33	489.785
1435.88	544.83
1439.43	274.066
1442.98	412.373
1446.53	252.549
1450.07	306.822
1453.62	76.615
1457.16	265.943
1460.7	432.217
1464.24	538.686
1467.78	554
1471.32	629.766
1474.85	544.949
1478.38	330.375
1481.91	336.992
1485.44	243.133
1488.97	199.621
1492.5	69.525
1496.03	7.023
1499.55	151.727
1503.07	208.232
1506.59	426.887
1510.11	494.514
