Measurement: Raman, 514 nm, ccw, Raman Data Processed
Mineral: Amblygonite
Rruff sample: R040006
Ideal chemistry: LiAlPO_4_F
Locality: Pala, San Diego County, California, USA
Source: University of Arizona Mineral Museum
Description: Light gray coarsely crystalline massive
Measured chemistry: LiAl_1.00_(P_1.00_O_4_)(F_0.73_(OH)_0.27_)_Î£=1_; Li assumed by stoichiometry; OH estimated by charge balance
Pin_id: l00204
Orientation: Laser parallel to b* (0 1 0). Fiducial mark perpendicular to laser is parallel to c [0 0 1]
Raman shift (cm-1)	intensity
109.21	0
113.388	42.341
117.564	49.545
121.738	148.431
125.91	260.24
130.08	390.842
134.248	497.672
138.413	537.468
142.577	744.053
146.739	1331.45
150.898	2607.48
155.056	4788.34
159.212	8261.78
163.365	11871.4
167.517	12421.4
171.666	10038.9
175.813	7238.02
179.959	5202.55
184.102	3993.69
188.244	2966.66
192.383	2288.42
196.52	1464.67
200.656	780.526
204.789	349.064
208.92	218.257
213.049	110.041
217.176	20.353
221.302	97.859
225.425	97.692
229.546	47.244
233.665	78.525
237.782	75.538
241.898	28.288
246.011	60.594
250.122	232.914
254.231	510.729
258.338	1117.68
262.443	2022.13
266.546	3205.16
270.647	4107.59
274.747	4123.58
278.844	3403.25
282.939	3197.07
287.032	3789.99
291.123	5552.61
295.212	10045.7
299.3	19478
303.385	26260.6
307.468	19573.2
311.549	11945.8
315.629	7648.32
319.706	4565.93
323.781	2847.59
327.855	2120.3
331.926	1678.81
335.995	1426.61
340.063	1138.81
344.128	998.135
348.192	893.297
352.253	899.795
356.313	908.445
360.37	955.239
364.426	981.168
368.479	1085.22
372.531	998.386
376.581	787.098
380.629	643.724
384.674	508.763
388.718	336.845
392.76	261.91
396.8	216.753
400.838	283.976
404.874	240.673
408.908	297.476
412.94	368.77
416.97	741.282
420.999	1782.5
425.025	3598.11
429.049	2873.36
433.072	1288.79
437.092	631.629
441.111	502.323
445.127	463.041
449.142	581.79
453.155	711.511
457.166	861.822
461.175	1045.83
465.181	1357.41
469.186	2014.93
473.19	3029.39
477.191	4488.78
481.19	5925.11
485.187	6448.36
489.183	6021.53
493.176	5474.63
497.168	4695.65
501.157	3874.6
505.145	3044.48
509.131	2080.28
513.115	1380.01
517.097	1019.65
521.077	630.202
525.055	410.655
529.031	228.007
533.006	167.252
536.978	41.768
540.949	68.467
544.917	27.736
548.884	81.62
552.849	18.375
556.812	8.682
560.773	15.444
564.732	3.5
568.689	43.527
572.644	20.312
576.598	14.734
580.55	53.665
584.499	21.437
588.447	81.413
592.393	195.926
596.337	235.854
600.279	540.88
604.219	620.772
608.158	444.141
612.094	355.303
616.029	228.288
619.962	275.989
623.892	362.539
627.821	587.971
631.749	785.025
635.674	1179.86
639.597	2325.47
643.519	5242.85
647.438	7189.02
651.356	4111.95
655.272	1871.66
659.186	1072.14
663.098	661.392
667.009	514.413
670.917	391.206
674.824	347.767
678.728	191.098
682.631	214.199
686.532	237.068
690.432	207.708
694.329	134.541
698.224	82.504
702.118	125.221
706.01	110.421
709.9	47.567
713.788	108.525
717.674	90.988
721.558	36.729
725.441	70.042
729.322	33.662
733.201	51.811
737.078	77.143
740.953	55.716
744.826	70.69
748.698	63.181
752.567	134.904
756.435	26.604
760.301	42.812
764.165	81.946
768.028	90.833
771.888	85.579
775.747	75.16
779.604	47.063
783.459	126.31
787.312	292.404
791.164	372.347
795.013	533.145
798.861	764.802
802.707	892.326
806.551	1043.72
810.394	1141.99
814.234	1115.14
818.073	1072.18
821.91	902.404
825.745	736.937
829.578	552.668
833.41	395.309
837.24	299.866
841.068	133.345
844.894	78.754
848.718	47.563
852.54	63.729
856.361	108.508
860.18	11.599
863.997	109.823
867.812	60.034
871.626	17.079
875.438	38.523
879.248	48.764
883.056	4.858
886.862	9.984
890.667	32.645
894.469	42.029
898.27	4.958
902.07	33.647
905.867	89.35
909.663	30.393
913.457	11.959
917.249	5.48
921.039	14.201
924.827	2.909
928.614	4.213
932.399	11.54
936.182	72.618
939.964	113.177
943.744	151.139
947.521	98.601
951.298	131.216
955.072	149.006
958.845	290.958
962.615	375.06
966.384	388.32
970.152	575.741
973.917	601.363
977.681	700.156
981.443	931.135
985.203	1216.36
988.962	1882.86
992.719	2786.57
996.474	4201.49
1000.23	6140.7
1003.98	9120.14
1007.73	12239.9
1011.48	13646.9
1015.22	12180.8
1018.97	9167.34
1022.71	6708.28
1026.45	5357.56
1030.19	5102.9
1033.93	5634.15
1037.66	6965.9
1041.4	8476.09
1045.13	10406.2
1048.86	12748
1052.59	17000.7
1056.32	24604.3
1060.04	37117.4
1063.77	44707.3
1067.49	35275.4
1071.21	18914
1074.93	9859.01
1078.64	5724.18
1082.36	3799.24
1086.07	2725.03
1089.78	2163.13
1093.49	1677.5
1097.2	1355.75
1100.91	1115.75
1104.61	1203.14
1108.32	1397.44
1112.02	1415.97
1115.72	1689.55
1119.41	1962.13
1123.11	2017.31
1126.8	1822.71
1130.5	1553.53
1134.19	1309.03
1137.88	1006.47
1141.56	853.044
1145.25	679.651
1148.93	409.931
1152.62	298.955
1156.3	105.719
1159.98	188.056
1163.65	15.732
1167.33	245.333
1171	251.036
1174.68	312.137
1178.35	425.36
1182.02	426.761
1185.68	532.271
1189.35	826.208
1193.01	926.608
1196.67	1102.18
1200.33	1333.16
1203.99	1349.42
1207.65	1344.43
1211.31	1172.79
1214.96	964.514
1218.61	828.688
1222.26	542.493
1225.91	375.712
1229.56	408.523
1233.2	312.181
1236.85	207.812
1240.49	43.516
1244.13	47.526
1247.77	73.181
1251.4	51.083
1255.04	39.615
1258.67	77.873
1262.3	87.913
1265.93	201.883
1269.56	85.236
1273.19	45.602
1276.82	90.579
1280.44	100.301
1284.06	3.718
1287.68	19.03
1291.3	3.602
1294.92	307.474
1298.53	172.257
1302.14	16.789
1305.76	36.083
1309.37	42.994
1312.98	29.525
1316.58	1.358
1320.19	63.581
1323.79	148.269
1327.39	138.618
1330.99	202.701
1334.59	231.515
1338.19	16.03
1341.79	34.269
1345.38	12.753
1348.97	39.053
1352.56	29.36
1356.15	120.577
1359.74	75.62
1363.32	106.471
1366.91	183.042
1370.49	192.069
1374.07	12.711
1377.65	9.632
1381.23	8.545
1384.8	12.795
1388.38	61.776
1391.95	147.655
1395.52	124.604
1399.09	313.92
1402.66	271.761
1406.22	211.099
1409.79	193.482
1413.35	93.084
1416.91	173.147
1420.47	52.686
1424.03	51.906
1427.59	115.375
1431.14	125.127
1434.69	220.566
1438.24	368.468
1441.8	358.005
1445.34	247.726
1448.89	254.442
1452.43	176.883
1455.98	147.824
1459.52	233.683
1463.06	97.209
1466.6	159.583
1470.14	207.679
1473.67	307.509
1477.2	325.646
1480.74	308.808
1484.27	296.055
1487.8	273.13
1491.32	131.711
1494.85	40.256
1498.37	28.924
1501.9	24.279
1505.42	58.855
1508.94	11.988
1512.45	73.775
1515.97	158.794
1519.49	170.115
1523	0
