Measurement: Raman, 514 nm, ccw, Raman Data Processed
Mineral: Amblygonite
Rruff sample: R040006
Ideal chemistry: LiAlPO_4_F
Locality: Pala, San Diego County, California, USA
Source: University of Arizona Mineral Museum
Description: Light gray coarsely crystalline massive
Measured chemistry: LiAl_1.00_(P_1.00_O_4_)(F_0.73_(OH)_0.27_)_Î£=1_; Li assumed by stoichiometry; OH estimated by charge balance
Pin_id: l00314
Orientation: Laser parallel to -c* (0 0 -1). Fiducial mark perpendicular to laser is parallel to -a [-1 0 0]
Raman shift (cm-1)	intensity
110.603	0
114.78	2.753
118.956	442.622
123.129	1380.42
127.3	2833.46
131.469	3448.49
135.636	2371.37
139.801	1391.68
143.964	962.547
148.125	988.777
152.284	1276.55
156.441	1840.21
160.596	2690.08
164.749	3133.35
168.9	2822.74
173.049	1983.23
177.195	1504.85
181.34	1073.92
185.483	710.719
189.624	533.958
193.762	230.594
197.899	21.046
202.034	16.699
206.166	21.485
210.297	46.539
214.425	148.204
218.552	121.105
222.676	61.363
226.799	33.802
230.919	57.708
235.038	69.176
239.154	76.822
243.269	89.167
247.381	9.484
251.492	152.763
255.6	323.299
259.707	683.315
263.811	1271.88
267.914	2051.61
272.014	2733.54
276.113	2598.04
280.209	2176.77
284.304	2267.29
288.396	2758.36
292.487	4389.52
296.575	7880.54
300.662	13781.3
304.746	15861.6
308.829	11681.4
312.909	8260.76
316.988	5369.7
321.065	3297.97
325.139	2404.95
329.212	1981.69
333.283	1570.34
337.351	1278.4
341.418	1016.31
345.483	858.661
349.546	877.105
353.606	772.679
357.665	894.373
361.722	996.549
365.777	1126.62
369.83	1159.82
373.881	1026.88
377.93	903.986
381.977	740.953
386.023	610.68
390.066	559.088
394.107	430.232
398.146	430.549
402.184	322.405
406.219	333.006
410.252	296.881
414.284	400.842
418.313	788.328
422.341	2248.01
426.367	4334.85
430.39	2501.87
434.412	1099.09
438.432	696.452
442.45	601.821
446.466	562.159
450.48	648.466
454.492	575.73
458.502	752.942
462.51	980.108
466.517	1527.2
470.521	2124.22
474.523	3231.14
478.524	4577.98
482.523	5514.73
486.519	5291.4
490.514	4718.02
494.507	4174.55
498.498	3511.02
502.487	2617.42
506.474	1983.77
510.459	1320.06
514.442	886.281
518.424	682.433
522.403	198.53
526.381	254.811
530.356	201.061
534.33	11.647
538.302	25.47
542.272	22.493
546.24	101.346
550.206	7.9
554.17	57.33
558.132	59.01
562.093	19.031
566.051	53.732
570.008	215.927
573.963	255.024
577.915	352.869
581.866	366.582
585.815	541.957
589.763	809.125
593.708	1305.1
597.651	2942.29
601.593	6118.37
605.532	6955.46
609.47	4042.61
613.406	2758.08
617.34	2275.54
621.272	2569.47
625.202	3233.04
629.131	4805.17
633.057	6616.97
636.982	7178.48
640.905	10099.7
644.825	18820.6
648.744	19441.2
652.662	9411.49
656.577	4391.48
660.49	2341.15
664.402	1530.52
668.312	919.566
672.219	648.294
676.125	646.701
680.03	414.785
683.932	382.541
687.832	229.965
691.731	316.377
695.628	62.637
699.522	156.433
703.415	189.275
707.307	54.372
711.196	117.842
715.083	0.697
718.969	7.151
722.853	178.623
726.735	80.89
730.615	6.055
734.493	21.256
738.37	22.636
742.244	28.124
746.117	64.995
749.988	66.721
753.857	109.26
757.724	100.898
761.59	138.531
765.453	175.736
769.315	134.514
773.175	100.907
777.033	66.898
780.889	262.54
784.744	407.88
788.596	622.922
792.447	727.677
796.296	992.151
800.143	1296.35
803.989	1620.28
807.832	1883.95
811.674	1967.37
815.514	1840.55
819.352	1733.49
823.189	1446.2
827.023	1148.69
830.856	1000.97
834.687	653.038
838.516	434.784
842.343	416.365
846.169	206.973
849.992	205.811
853.814	202.167
857.634	11.283
861.453	154.369
865.269	63.509
869.084	27.519
872.897	127.619
876.708	12.578
880.517	24.88
884.325	161.423
888.13	96.474
891.934	55.925
895.737	52.596
899.537	34.279
903.336	117.739
907.132	110.234
910.928	86.973
914.721	163.67
918.512	20.16
922.302	37.171
926.09	152.343
929.876	30.352
933.66	150.528
937.443	20.828
941.224	201.354
945.003	102.07
948.78	222.985
952.556	194.151
956.33	405.556
960.102	377.189
963.872	769.071
967.64	841.197
971.407	813.578
975.172	1276.22
978.935	1729.13
982.697	2142.32
986.456	3005.81
990.214	4029.62
993.971	6003.89
997.725	8708.55
1001.48	13033.4
1005.23	18828.2
1008.98	24042.4
1012.73	24599.2
1016.47	19850.1
1020.22	14033.3
1023.96	9659.43
1027.7	7565.55
1031.44	6784.21
1035.17	7385.21
1038.91	8058.9
1042.64	9454.92
1046.37	10365.1
1050.1	11644.7
1053.83	13821.6
1057.56	18142.1
1061.28	25226.7
1065.01	27031.8
1068.73	18007
1072.45	9991.38
1076.16	5637.89
1079.88	3674.83
1083.6	2642.23
1087.31	2080.13
1091.02	2013.53
1094.73	1877.15
1098.44	1746.26
1102.14	2150.05
1105.85	2829.92
1109.55	3490.79
1113.25	4301.39
1116.95	4862.35
1120.65	5433.68
1124.34	5445.41
1128.04	4717.45
1131.73	4729.97
1135.42	4084.4
1139.11	3489.46
1142.79	2445.91
1146.48	1516.5
1150.16	1096.19
1153.84	955.074
1157.52	806.797
1161.2	555.076
1164.88	877.748
1168.56	791.461
1172.23	875.145
1175.9	897.086
1179.57	832.449
1183.24	809.477
1186.9	1075.2
1190.57	1204.67
1194.23	1494.04
1197.89	1572.14
1201.55	1831.11
1205.21	1468.92
1208.87	1398.23
1212.52	1095.19
1216.18	810.777
1219.83	779.033
1223.48	636.949
1227.13	455.285
1230.77	390.436
1234.42	433.307
1238.06	50.793
1241.7	100.883
1245.34	101.596
1248.98	6.094
1252.62	3.48
1256.25	180.213
1259.88	197.137
1263.51	285.205
1267.14	141.732
1270.77	59.447
1274.4	36.793
1278.02	71.506
1281.65	4.016
1285.27	39.746
1288.89	62.961
1292.51	135.117
1296.12	12.707
1299.74	68.861
1303.35	79.527
1306.96	80.615
1310.57	231.336
1314.18	82.566
1317.79	55.477
1321.39	222.916
1324.99	329.705
1328.59	395.818
1332.19	211.311
1335.79	133.803
1339.39	100.408
1342.98	44.168
1346.58	127.502
1350.17	120.398
1353.76	262.912
1357.35	286.502
1360.93	538.633
1364.52	180.33
1368.1	312.07
1371.68	53.656
1375.26	23.156
1378.84	203.182
1382.42	56.326
1385.99	282.201
1389.57	270.016
1393.14	327.984
1396.71	389.32
1400.28	498.049
1403.85	199.777
1407.41	430.199
1410.98	66.16
1414.54	57.053
1418.1	250.836
1421.66	221.111
1425.21	242.045
1428.77	481.551
1432.33	463.76
1435.88	575.258
1439.43	505.861
1442.98	406.197
1446.53	310.461
1450.07	317.727
1453.62	157.529
1457.16	269.441
1460.7	371.244
1464.24	466.66
1467.78	485.551
1471.32	635.434
1474.85	806.018
1478.38	378.086
1481.91	528.943
1485.44	463.307
1488.97	397.492
1492.5	324.037
1496.03	36.037
1499.55	86.973
1503.07	134.309
1506.59	368.373
1510.11	401.58
1513.63	473.754
1517.14	0
