Measurement: Raman, 514 nm, ccw, Raman Data Processed
Mineral: Amblygonite
Rruff sample: R040006
Ideal chemistry: LiAlPO_4_F
Locality: Pala, San Diego County, California, USA
Source: University of Arizona Mineral Museum
Description: Light gray coarsely crystalline massive
Measured chemistry: LiAl_1.00_(P_1.00_O_4_)(F_0.73_(OH)_0.27_)_Î£=1_; Li assumed by stoichiometry; OH estimated by charge balance
Pin_id: l00058
Orientation: Laser parallel to (0 1 1). Fiducial mark perpendicular to laser is parallel to a [1 0 0]
Raman shift (cm-1)	intensity
116.172	0
120.347	70.689
124.519	392.738
128.69	604.339
132.858	598.795
137.025	734.817
141.189	921.175
145.352	1471.81
149.512	2210.26
153.67	3560.76
157.827	5364.31
161.981	7276.04
166.133	7197.02
170.283	5451.84
174.431	3685.88
178.577	2453.95
182.721	1713.29
186.863	1191.06
191.003	769.039
195.141	593.108
199.277	304.154
203.411	202.693
207.543	116.938
211.673	21.296
215.801	49.841
219.927	49.398
224.051	113.401
228.173	76.632
232.292	73.437
236.41	27.942
240.526	34.974
244.64	122.279
248.752	72.906
252.861	470.279
256.969	807.729
261.075	1542.58
265.179	2474.81
269.281	3297.38
273.38	3320.23
277.478	2763.32
281.574	2274.5
285.668	2362.7
289.76	3284.33
293.85	5587.51
297.937	11041.6
302.023	16166.4
306.107	13001.5
310.189	8016.94
314.269	5202.4
318.347	3007.88
322.423	1773.41
326.497	1229.02
330.569	1014.72
334.639	680.375
338.707	485.089
342.773	489.297
346.837	323.277
350.899	307.463
354.96	331.863
359.018	336.46
363.074	321.237
367.128	316.186
371.181	371.302
375.231	388.258
379.28	275.402
383.326	193.755
387.37	167.312
391.413	237.435
395.454	240.079
399.492	350.096
403.529	244.449
407.564	519.433
411.596	604.916
415.627	1214.57
419.656	3031.27
423.683	7038.17
427.708	6255.17
431.731	2692.08
435.752	1349.01
439.772	1056.01
443.789	953.092
447.804	970.316
451.817	1030.53
455.829	1225.02
459.838	1542.45
463.846	1998.58
467.852	2747.22
471.855	4054.52
475.857	5941.77
479.857	7958.95
483.855	8366.07
487.851	7463.18
491.845	6640.06
495.837	5516.94
499.828	4303.73
503.816	3230.46
507.802	2287.12
511.787	1563.69
515.77	950.186
519.75	726.589
523.729	462.895
527.706	369.53
531.681	96.065
535.654	113.717
539.625	79.773
543.595	3.897
547.562	64.041
551.527	1.967
555.491	70.89
559.453	111.635
563.412	13.997
567.37	54.817
571.326	32.789
575.28	98.199
579.233	103.413
583.183	233.917
587.131	199.324
591.078	303.807
595.022	620.505
598.965	1258.28
602.906	2055.15
606.845	1493.61
610.782	956.414
614.718	677.694
618.651	630.66
622.582	892.08
626.512	1143.13
630.44	1723.81
634.366	2524.22
638.29	4154.37
642.212	9374.24
646.132	13763.9
650.05	8563.18
653.967	3872.24
657.882	2011.02
661.794	1129.52
665.705	737.734
669.614	595.672
673.522	453.327
677.427	350.699
681.331	267.784
685.232	244.58
689.132	131.078
693.03	187.144
696.926	186.083
700.82	66.721
704.713	157.663
708.603	94.977
712.492	71.003
716.379	84.121
720.264	118.258
724.147	7.247
728.028	44.97
731.908	13.331
735.785	177.783
739.661	70.024
743.535	61.227
747.407	143.323
751.278	164.045
755.146	77.091
759.013	20.299
762.878	100.674
766.741	80.098
770.602	41.003
774.461	109.469
778.319	197.637
782.174	175.572
786.028	303.467
789.88	570.954
793.73	728.368
797.579	855.43
801.425	1032.29
805.27	1378.94
809.113	1345.41
812.954	1321.68
816.794	1207.78
820.631	1323.7
824.467	899.445
828.301	735.027
832.133	490.455
835.963	375.731
839.792	230.432
843.618	74.55
847.443	128.03
851.266	2.133
855.088	95.326
858.907	26.314
862.725	79.578
866.541	221.621
870.355	171.836
874.167	104.713
877.978	250.508
881.787	202.068
885.594	56.965
889.399	1.961
893.202	24.111
897.004	34.303
900.803	38.898
904.601	29.031
908.398	97.309
912.192	35.059
915.985	54.57
919.776	80.334
923.565	181.123
927.352	94.758
931.138	258.881
934.922	53.031
938.704	57.393
942.484	241.863
946.262	106.453
950.039	221.162
953.814	266
957.587	330.975
961.359	256.092
965.128	251.357
968.896	496.781
972.662	782.361
976.427	708.109
980.189	1164.03
983.95	1560.16
987.709	1836.61
991.467	2873.41
995.222	4470.45
998.976	6867.8
1002.73	9972.42
1006.48	13407.6
1010.23	15350.3
1013.97	13709.1
1017.72	10702.2
1021.46	7849.33
1025.2	5913.86
1028.94	4820.8
1032.68	5085.23
1036.42	5865.92
1040.15	7167.48
1043.89	8359.15
1047.62	9990.58
1051.35	12023.3
1055.07	15746.5
1058.8	22957.2
1062.52	29156.7
1066.25	24340.8
1069.97	13942.6
1073.69	7597.2
1077.4	4541.97
1081.12	2836.99
1084.83	1902.31
1088.55	1334.2
1092.26	1083.63
1095.96	969.57
1099.67	1075.86
1103.38	912.316
1107.08	1119.18
1110.78	956.107
1114.48	1173.61
1118.18	1131
1121.88	1438.33
1125.57	1207.01
1129.27	1195.03
1132.96	740.213
1136.65	764.703
1140.34	428.387
1144.02	88.75
1147.71	406.227
1151.39	226.318
1155.07	299.615
1158.75	308.982
1162.43	313.203
1166.11	109.406
1169.78	270.469
1173.45	247.514
1177.12	529.787
1180.79	780.521
1184.46	1040.27
1188.13	1357.88
1191.79	1698.79
1195.45	1769.08
1199.11	2011.52
1202.77	1790.7
1206.43	1719.95
1210.09	1618.56
1213.74	1490.74
1217.39	1306.04
1221.05	1056.59
1224.69	713.895
1228.34	559.629
1231.99	150.098
1235.63	158.887
1239.27	617.037
1242.91	274.248
1246.55	392.041
1250.19	229.326
1253.83	146.74
1257.46	173.432
1261.09	131.52
1264.72	264.615
1268.35	64.494
1271.98	399.955
1275.61	404.596
1279.23	2.064
1282.85	90.732
1286.47	32.361
1290.09	86.148
1293.71	194.254
1297.33	55.152
1300.94	124.344
1304.55	343.188
1308.16	81.182
1311.77	338.285
1315.38	164.809
1318.99	250.551
1322.59	85.676
1326.19	99.809
1329.79	75.973
1333.39	107.27
1336.99	359.99
1340.59	232.152
1344.18	313.744
1347.77	334.867
1351.37	165.596
1354.95	65.986
1358.54	256.09
1362.13	56.135
1365.71	335.904
1369.3	306.209
1372.88	116.197
1376.46	130.145
1380.04	161.062
1383.61	501.723
1387.19	281.902
1390.76	181.432
1394.33	359.955
1397.9	527.15
1401.47	266.807
1405.04	255.158
1408.6	247.922
1412.16	520.533
1415.72	520.08
1419.29	352.934
1422.84	255.604
1426.4	475.16
1429.96	377.855
1433.51	291.686
1437.06	113.688
1440.61	194.588
1444.16	423.123
1447.71	506.293
1451.25	525.773
1454.8	558.812
1458.34	331.115
1461.88	647.857
1465.42	332.354
1468.96	213.746
1472.49	364.129
1476.03	536.207
1479.56	479.922
1483.09	292.053
1486.62	357.219
1490.15	573.475
1493.67	642.939
1497.2	536.613
1500.72	564.285
1504.24	247.904
1507.76	260.219
1511.28	313.234
1514.8	486.361
1518.31	3.154
