Measurement: Raman, 514 nm, ccw, Raman Data Processed
Mineral: Amblygonite
Rruff sample: R040006
Ideal chemistry: LiAlPO_4_F
Locality: Pala, San Diego County, California, USA
Source: University of Arizona Mineral Museum
Description: Light gray coarsely crystalline massive
Measured chemistry: LiAl_1.00_(P_1.00_O_4_)(F_0.73_(OH)_0.27_)_Î£=1_; Li assumed by stoichiometry; OH estimated by charge balance
Pin_id: l00058
Orientation: Laser parallel to (0 1 1). Fiducial mark perpendicular to laser is parallel to a [1 0 0]
Raman shift (cm-1)	intensity
116.172	0
120.347	31.691
124.519	473.571
128.69	820.761
132.858	985.126
137.025	919.099
141.189	697.477
145.352	631.787
149.512	578.172
153.67	629.17
157.827	564.147
161.981	349.63
166.133	616.986
170.283	935.732
174.431	1263.06
178.577	1540.01
182.721	1680.29
186.863	1880.35
191.003	1831.08
195.141	1515.91
199.277	950.775
203.411	429.262
207.543	88.932
211.673	22.186
215.801	47.24
219.927	95.455
224.051	9.538
228.173	9.586
232.292	56.302
236.41	107.91
240.526	16.84
244.64	46.633
248.752	43.652
252.861	14.675
256.969	66.595
261.075	94.781
265.179	109.902
269.281	157.766
273.38	159.426
277.478	296.08
281.574	620.912
285.668	1108.88
289.76	2197.26
293.85	4953.01
297.937	10688.7
302.023	17372
306.107	15324.4
310.189	11486.3
314.269	9047.65
318.347	6348.65
322.423	3499.31
326.497	2169.69
330.569	1735.59
334.639	1464.75
338.707	1297.04
342.773	1118.46
346.837	1144.5
350.899	1166.83
354.96	1255.44
359.018	1276.38
363.074	1505.83
367.128	1539.1
371.181	1379.79
375.231	1297.52
379.28	1103.07
383.326	900.007
387.37	786.307
391.413	618.638
395.454	522.507
399.492	456.841
403.529	422.474
407.564	458.857
411.596	443.155
415.627	767.905
419.656	1717.62
423.683	3723.57
427.708	3340.08
431.731	1216.69
435.752	406.274
439.772	173.838
443.789	32.386
447.804	80.129
451.817	84.842
455.829	17.185
459.838	0.17
463.846	90.917
467.852	125.567
471.855	466.058
475.857	608.388
479.857	1018.56
483.855	1213.56
487.851	1448.41
491.845	1183.1
495.837	977.634
499.828	712.023
503.816	436.271
507.802	306.379
511.787	223.346
515.77	90.167
519.75	55.811
523.729	139.261
527.706	212.497
531.681	15.677
535.654	39.327
539.625	20.964
543.595	74.705
547.562	7.236
551.527	24.359
555.491	124.369
559.453	98.153
563.412	242.133
567.37	160.305
571.326	350.273
575.28	321.286
579.233	376.004
583.183	520.19
587.131	623.312
591.078	825.396
595.022	1387.68
598.965	2184.3
602.906	2899.24
606.845	2175.43
610.782	1795.21
614.718	1771.27
618.651	2089.48
622.582	2819.9
626.512	4179.49
630.44	6748.85
634.366	7817.46
638.29	8195.82
642.212	13643.9
646.132	19171.8
650.05	12309.4
653.967	5686.75
657.882	2853.85
661.794	1770.71
665.705	1057.31
669.614	903.629
673.522	718.953
677.427	372.786
681.331	327.334
685.232	202.26
689.132	223.917
693.03	177.201
696.926	110.406
700.82	129.896
704.713	185.878
708.603	9.375
712.492	72.843
716.379	97.483
720.264	110.152
724.147	53.774
728.028	30.199
731.908	51.408
735.785	28.8
739.661	53.084
743.535	94.312
747.407	133.124
751.278	7.261
755.146	11.985
759.013	0.871
762.878	64.327
766.741	32.586
770.602	74.877
774.461	112.373
778.319	199.322
782.174	76.048
786.028	172.569
789.88	218.901
793.73	365.055
797.579	341.035
801.425	508.268
805.27	539.768
809.113	567.993
812.954	553.336
816.794	468.534
820.631	513.591
824.467	318.517
828.301	233.32
832.133	238.024
835.963	102.633
839.792	177.107
843.618	51.425
847.443	135.494
851.266	91.224
855.088	58.063
858.907	5.207
862.725	46.153
866.541	138.412
870.355	10.929
874.167	56.937
877.978	64.638
881.787	231.859
885.594	20.539
889.399	2.641
893.202	12.54
897.004	74.898
900.803	157.942
904.601	187.562
908.398	196.79
912.192	94.459
915.985	112.453
919.776	58.36
923.565	261.673
927.352	310.52
931.138	353.444
934.922	197.082
938.704	271.375
942.484	396.107
946.262	540.998
950.039	616.091
953.814	741.34
957.587	766.752
961.359	882.323
965.128	948.059
968.896	1343.96
972.662	1640.05
976.427	1926.32
980.189	2622.77
983.95	3459.42
987.709	4616.29
991.467	7270.65
995.222	11808
998.976	18335
1002.73	26595.3
1006.48	35289.7
1010.23	40097.8
1013.97	35287.1
1017.72	26377.3
1021.46	17665.5
1025.2	11555.2
1028.94	7828.13
1032.68	6047.45
1036.42	4878.64
1040.15	4930.17
1043.89	5172.15
1047.62	5764.49
1051.35	7127.05
1055.07	9719.93
1058.8	14463.1
1062.52	18746.5
1066.25	15660.3
1069.97	9054.47
1073.69	4868.9
1077.4	3103.63
1081.12	1968.59
1084.83	1254.38
1088.55	1000.01
1092.26	787.188
1095.96	747.244
1099.67	904.182
1103.38	691.211
1107.08	548.143
1110.78	565.146
1114.48	692.191
1118.18	649.225
1121.88	778.055
1125.57	885.904
1129.27	813.729
1132.96	412.52
1136.65	377.307
1140.34	197.818
1144.02	88.641
1147.71	345.156
1151.39	301.906
1155.07	229.502
1158.75	153.625
1162.43	201.6
1166.11	10.637
1169.78	51.434
1173.45	101.52
1177.12	97.355
1180.79	136.441
1184.46	169.172
1188.13	108.266
1191.79	187.217
1195.45	196.475
1199.11	249.875
1202.77	87.785
1206.43	185.631
1210.09	233.096
1213.74	372.232
1217.39	197.963
1221.05	245.281
1224.69	262.055
1228.34	222.037
1231.99	236.924
1235.63	268.084
1239.27	524.402
1242.91	328.928
1246.55	333.65
1250.19	98.479
1253.83	153.33
1257.46	208.949
1261.09	204.42
1264.72	17.854
1268.35	400.51
1271.98	473.004
1275.61	375.307
1279.23	186.148
1282.85	137.236
1286.47	36.793
1290.09	61.152
1293.71	128.004
1297.33	38.738
1300.94	246.162
1304.55	452.332
1308.16	397.049
1311.77	400.697
1315.38	193.699
1318.99	173.758
1322.59	66.127
1326.19	18.33
1329.79	189.93
1333.39	230.879
1336.99	311.096
1340.59	580.576
1344.18	339.438
1347.77	247.691
1351.37	155.385
1354.95	72.551
1358.54	391.672
1362.13	267.918
1365.71	363.822
1369.3	489.566
1372.88	213.439
1376.46	406.219
1380.04	268.43
1383.61	393.883
1387.19	329.746
1390.76	245.332
1394.33	237.904
1397.9	280.363
1401.47	391.865
1405.04	359.865
1408.6	424.17
1412.16	682.258
1415.72	617.139
1419.29	349.256
1422.84	345.391
1426.4	349.686
1429.96	9.732
1433.51	188.828
1437.06	64.211
1440.61	303.557
1444.16	633.305
1447.71	488.703
1451.25	440.633
1454.8	611.242
1458.34	665.02
1461.88	487.141
1465.42	315.139
1468.96	198.744
1472.49	272.48
1476.03	345.283
1479.56	387.457
1483.09	440.404
1486.62	502.23
1490.15	673.734
1493.67	678.15
1497.2	684.58
1500.72	494.678
1504.24	268.973
1507.76	194.713
1511.28	237.965
1514.8	0
