Measurement: Raman, 514 nm, ccw, Raman Data Processed
Mineral: Amblygonite
Rruff sample: R040006
Ideal chemistry: LiAlPO_4_F
Locality: Pala, San Diego County, California, USA
Source: University of Arizona Mineral Museum
Description: Light gray coarsely crystalline massive
Measured chemistry: LiAl_1.00_(P_1.00_O_4_)(F_0.73_(OH)_0.27_)_Î£=1_; Li assumed by stoichiometry; OH estimated by charge balance
Pin_id: l00112
Orientation: Laser parallel to (1 1 0). Fiducial mark perpendicular to laser is parallel to c [0 0 1]
Raman shift (cm-1)	intensity
120.347	0
124.519	351.706
128.69	1128.63
132.858	1201.61
137.025	732.885
141.189	486.322
145.352	578.318
149.512	697.037
153.67	977.048
157.827	834.113
161.981	1004.17
166.133	949.293
170.283	739.285
174.431	725.483
178.577	936.722
182.721	1128.36
186.863	1307.56
191.003	1560.43
195.141	1501.82
199.277	1173.89
203.411	576.534
207.543	299.714
211.673	63.797
215.801	33.655
219.927	85.434
224.051	109.014
228.173	7.923
232.292	4.773
236.41	57.274
240.526	29.688
244.64	41.876
248.752	43.362
252.861	4.371
256.969	5.689
261.075	222.771
265.179	291.041
269.281	568.82
273.38	796.688
277.478	864.626
281.574	822.61
285.668	949.414
289.76	1788.51
293.85	3540.58
297.937	7384.16
302.023	12398.1
306.107	10952.2
310.189	7196.32
314.269	5200.25
318.347	3773.79
322.423	2476.91
326.497	1759.69
330.569	1352.22
334.639	954.442
338.707	795.541
342.773	675.896
346.837	575.352
350.899	553.883
354.96	502.325
359.018	490.839
363.074	560.585
367.128	515.543
371.181	600.907
375.231	582.891
379.28	479.321
383.326	413.73
387.37	239.135
391.413	180.456
395.454	324.139
399.492	276.279
403.529	368.319
407.564	540.778
411.596	498.82
415.627	1318.68
419.656	3176.97
423.683	9027.38
427.708	11906
431.731	4894.53
435.752	1673
439.772	781.354
443.789	549.624
447.804	387.902
451.817	176.131
455.829	264.271
459.838	302.285
463.846	470.113
467.852	457.764
471.855	965.193
475.857	1232.4
479.857	1889.37
483.855	2116.11
487.851	2422.63
491.845	2058.92
495.837	1634.98
499.828	1220.83
503.816	916.455
507.802	661.877
511.787	407.104
515.77	202.133
519.75	116.961
523.729	331.561
527.706	115.785
531.681	59.496
535.654	102.988
539.625	53.188
543.595	42.033
547.562	66.664
551.527	102.617
555.491	28.639
559.453	49.682
563.412	23.107
567.37	62.939
571.326	211.729
575.28	112.127
579.233	52.328
583.183	427.414
587.131	454.238
591.078	624.209
595.022	1173.44
598.965	2492.72
602.906	4211.41
606.845	2991.9
610.782	1644.58
614.718	1179.63
618.651	1310.42
622.582	1571.55
626.512	2118.54
630.44	3045.36
634.366	4051.57
638.29	5967.45
642.212	12913
646.132	21728.3
650.05	14813.3
653.967	6617.91
657.882	3102.25
661.794	1976.27
665.705	1249.99
669.614	1003.41
673.522	546.492
677.427	338.906
681.331	430.598
685.232	307.734
689.132	362.42
693.03	241.109
696.926	139.287
700.82	125.66
704.713	123.152
708.603	21.914
712.492	231.254
716.379	227.646
720.264	149.529
724.147	27.605
728.028	99.131
731.908	0.914
735.785	326.717
739.661	283.566
743.535	70.033
747.407	195.859
751.278	204.871
755.146	80.578
759.013	235.932
762.878	39.08
766.741	74.434
770.602	23.818
774.461	10.162
778.319	233.896
782.174	47.406
786.028	420.746
789.88	243.928
793.73	467.488
797.579	470.381
801.425	483.145
805.27	955.781
809.113	628.305
812.954	610.715
816.794	553.025
820.631	865.24
824.467	507.369
828.301	349.414
832.133	361.389
835.963	36.691
839.792	235.283
843.618	117.305
847.443	259.15
851.266	169.951
855.088	29.219
858.907	58.988
862.725	265.213
866.541	205.93
870.355	248.07
874.167	41.33
877.978	357.629
881.787	317.809
885.594	107.189
889.399	62.928
893.202	100.643
897.004	93.941
900.803	108.822
904.601	181.793
908.398	224.324
912.192	347.717
915.985	144.391
919.776	188.797
923.565	270.518
927.352	102.951
931.138	314.166
934.922	67.979
938.704	212.178
942.484	226.754
946.262	161.65
950.039	286.787
953.814	462.189
957.587	487.84
961.359	483.742
965.128	269.85
968.896	666.15
972.662	952.656
976.427	929.367
980.189	1266.31
983.95	1753.47
987.709	2139.14
991.467	3186.8
995.222	5354.62
998.976	8524.22
1002.73	12904.6
1006.48	17350.1
1010.23	20869.8
1013.97	19549.4
1017.72	15379.5
1021.46	10986.2
1025.2	8195.39
1028.94	6588.02
1032.68	6367.93
1036.42	7199.83
1040.15	8792.16
1043.89	10175
1047.62	10905.7
1051.35	11679.5
1055.07	13193.6
1058.8	17738.2
1062.52	21553.3
1066.25	17638.9
1069.97	10388.6
1073.69	6005.14
1077.4	3932.28
1081.12	2700.01
1084.83	1778.32
1088.55	1378.91
1092.26	1055.26
1095.96	1085.13
1099.67	716.693
1103.38	907.088
1107.08	1367.19
1110.78	1085.24
1114.48	1271.06
1118.18	1187.38
1121.88	1314.23
1125.57	1571.68
1129.27	1499.69
1132.96	858.523
1136.65	958.016
1140.34	408.184
1144.02	159.016
1147.71	660.514
1151.39	222.627
1155.07	375.443
1158.75	388.881
1162.43	562.924
1166.11	27.777
1169.78	33.266
1173.45	70.77
1177.12	315.387
1180.79	591.875
1184.46	768.902
1188.13	726.961
1191.79	1076.19
1195.45	856.645
1199.11	918.355
1202.77	447.516
1206.43	597.367
1210.09	468.449
1213.74	704.781
1217.39	526.527
1221.05	305.75
1224.69	197.039
1228.34	240.52
1231.99	12.621
1235.63	78.656
1239.27	665.73
1242.91	619.457
1246.55	454.203
1250.19	143.395
1253.83	21.699
