Measurement: Raman, 514 nm, ccw, Raman Data Processed
Mineral: Amblygonite
Rruff sample: R040006
Ideal chemistry: LiAlPO_4_F
Locality: Pala, San Diego County, California, USA
Source: University of Arizona Mineral Museum
Description: Light gray coarsely crystalline massive
Measured chemistry: LiAl_1.00_(P_1.00_O_4_)(F_0.73_(OH)_0.27_)_Î£=1_; Li assumed by stoichiometry; OH estimated by charge balance
Pin_id: l00204
Orientation: Laser parallel to b* (0 1 0). Fiducial mark perpendicular to laser is parallel to c [0 0 1]
Raman shift (cm-1)	intensity
110.603	0
114.78	33.82
118.956	268.8
123.129	970.457
127.3	2011.76
131.469	2300.56
135.636	1502.5
139.801	840.429
143.964	672.313
148.125	967.741
152.284	1529.66
156.441	2730.53
160.596	4542.17
164.749	5661.07
168.9	5501.85
173.049	4244.08
177.195	3292.81
181.34	2561.75
185.483	2146.24
189.624	1844.4
193.762	1390.14
197.899	1077.5
202.034	653.821
206.166	302.112
210.297	144.272
214.425	73.153
218.552	1.62
222.676	17.435
226.799	90.183
230.919	78.803
235.038	94.315
239.154	126.376
243.269	73.989
247.381	8.144
251.492	120.686
255.6	315.27
259.707	727.206
263.811	1387.04
267.914	2120.16
272.014	2596.52
276.113	2324.48
280.209	1973.76
284.304	1961.97
288.396	2488.45
292.487	4156.56
296.575	8322.9
300.662	15148.3
304.746	16663.6
308.829	10938.6
312.909	6833.22
316.988	4393.44
321.065	2624.4
325.139	1672.14
329.212	1298.67
333.283	1020.39
337.351	806.974
341.418	695.09
345.483	622.692
349.546	578.402
353.606	603.229
357.665	572.165
361.722	596.198
365.777	648.315
369.83	648.503
373.881	619.938
377.93	575.984
381.977	378.028
386.023	418.396
390.066	368.052
394.107	328.725
398.146	377.037
402.184	373.777
406.219	523.282
410.252	864.066
414.284	1568.23
418.313	3957.8
422.341	11323.3
426.367	17425.2
430.39	8826.49
434.412	3381.58
438.432	1823.73
442.45	1309.91
446.466	1101.06
450.48	940.136
454.492	960.14
458.502	1101.04
462.51	1293.84
466.517	1769.52
470.521	2372.07
474.523	3563.49
478.524	4924.79
482.523	5736.97
486.519	5407.03
490.514	4980.96
494.507	4339.77
498.498	3518.48
502.487	2704.1
506.474	1993.63
510.459	1458.08
514.442	896.435
518.424	576.697
522.403	345.859
526.381	244.918
530.356	119.868
534.33	72.817
538.302	13.76
542.272	44.922
546.24	45.938
550.206	4.257
554.17	16.544
558.132	19.906
562.093	1.521
566.051	25.444
570.008	3.113
573.963	12.044
577.915	59.367
581.866	63.752
585.815	106.974
589.763	200.525
593.708	236.03
597.651	403.882
601.593	702.164
605.532	703.11
609.47	538.898
613.406	505.083
617.34	652.628
621.272	803.244
625.202	1083.36
629.131	1707.21
633.057	2493.84
636.982	3787.27
640.905	7574.47
644.825	14958.5
648.744	13712.2
652.662	6175.77
656.577	3016.11
660.49	1662.22
664.402	1069.11
668.312	713.785
672.219	474.235
676.125	437.464
680.03	313.472
683.932	263.258
687.832	234.823
691.731	164.874
695.628	108.823
699.522	58.745
703.415	65.83
707.307	70.19
711.196	84.832
715.083	32.457
718.969	31.97
722.853	27.669
726.735	38.314
730.615	20.715
734.493	7.666
738.37	1.358
742.244	19.625
746.117	71.053
749.988	38.563
753.857	79.79
757.724	21.15
761.59	43.765
765.453	21.321
769.315	84.037
773.175	69.709
777.033	66.91
780.889	166.934
784.744	317.548
788.596	379.004
792.447	581.306
796.296	877.459
800.143	1130.47
803.989	1284.34
807.832	1418.07
811.674	1517.68
815.514	1448.33
819.352	1362.53
823.189	1121.78
827.023	954.923
830.856	600.964
834.687	480.91
838.516	311.767
842.343	244.54
846.169	145.086
849.992	34.024
853.814	66.611
857.634	6.021
861.453	88.24
865.269	1.56
869.084	35.915
872.897	83.225
876.708	20.93
880.517	42.424
884.325	4.282
888.13	46.383
891.934	33.376
895.737	36.661
899.537	30.998
903.336	21.264
907.132	3.714
910.928	45.035
914.721	2.783
918.512	16.944
922.302	24.417
926.09	13.479
929.876	6.323
933.66	95.559
937.443	94.903
941.224	114.365
945.003	123.953
948.78	233.671
952.556	123.542
956.33	220.562
960.102	373.728
963.872	444.042
967.64	468.512
971.407	471.144
975.172	756.97
978.935	985.993
982.697	1255.19
986.456	1858.63
990.214	2479.31
993.971	3855.2
997.725	5851.36
1001.48	8627.85
1005.23	12544.5
1008.98	15821.4
1012.73	15618.7
1016.47	12676.1
1020.22	9273.98
1023.96	6819.58
1027.7	5711.6
1031.44	5648.55
1035.17	6697.51
1038.91	8004.23
1042.64	9761.05
1046.37	11108
1050.1	12845.7
1053.83	15605.8
1057.56	21466.8
1061.28	29887
1065.01	30556.8
1068.73	19527.4
1072.45	10839
1076.16	6141.13
1079.88	3943.72
1083.6	2756.36
1087.31	1929.51
1091.02	1518.9
1094.73	1101.5
1098.44	1024.32
1102.14	878.253
1105.85	953.467
1109.55	978.831
1113.25	1140.55
1116.95	1162.36
1120.65	1236.86
1124.34	1224.99
1128.04	993.395
1131.73	996.595
1135.42	784.687
1139.11	612.205
1142.79	394.449
1146.48	261.928
1150.16	55.78
1153.84	226.372
1157.52	155.816
1161.2	185.734
1164.88	293.617
1168.56	287.464
1172.23	374.514
1175.9	403.567
1179.57	525.156
1183.24	713.048
1186.9	937.118
1190.57	1110.01
1194.23	1393.12
1197.89	1429.52
1201.55	1531.51
1205.21	1449.8
1208.87	1341.52
1212.52	1174.69
1216.18	1096.01
1219.83	772.307
1223.48	598.677
1227.13	341.489
1230.77	256.262
1234.42	252.312
1238.06	141.253
1241.7	62.747
1245.34	46.182
1248.98	96.679
1252.62	65.268
1256.25	13.086
1259.88	137.245
1263.51	126.785
1267.14	20.782
1270.77	68.204
1274.4	6.934
1278.02	64.755
1281.65	95.828
1285.27	79.838
1288.89	49.444
1292.51	6.962
1296.12	6.194
1299.74	24.126
1303.35	17.733
1306.96	14.041
1310.57	164.05
1314.18	17.468
1317.79	176.746
1321.39	113.772
1324.99	164.51
1328.59	124.921
1332.19	40.975
1335.79	52.22
1339.39	45.279
1342.98	43.523
1346.58	89.505
1350.17	123.205
1353.76	77.647
1357.35	68.867
1360.93	193.884
1364.52	49.825
1368.1	12.666
1371.68	50.85
1375.26	22.465
1378.84	48.811
1382.42	38.999
1385.99	150.541
1389.57	181.814
1393.14	176.812
1396.71	220.736
1400.28	72.985
1403.85	43.671
1407.41	116.023
1410.98	2.69
1414.54	17.02
1418.1	92.247
1421.66	232.181
1425.21	131.755
1428.77	136.332
1432.33	205.412
1435.88	262.366
1439.43	93.396
1442.98	175.608
1446.53	116.462
1450.07	216.9
1453.62	118.289
1457.16	171.925
1460.7	217.819
1464.24	344.857
1467.78	309.812
1471.32	278.746
1474.85	168.456
1478.38	148.072
1481.91	166.867
1485.44	85.878
1488.97	175.707
1492.5	65.616
1496.03	45.636
1499.55	47.646
1503.07	90.747
1506.59	215.323
1510.11	152.088
1513.63	162.19
1517.14	179.973
1520.66	189.2
