Measurement: Raman, 514 nm, ccw, Raman Data Processed
Mineral: Amblygonite
Rruff sample: R040006
Ideal chemistry: LiAlPO_4_F
Locality: Pala, San Diego County, California, USA
Source: University of Arizona Mineral Museum
Description: Light gray coarsely crystalline massive
Measured chemistry: LiAl_1.00_(P_1.00_O_4_)(F_0.73_(OH)_0.27_)_Î£=1_; Li assumed by stoichiometry; OH estimated by charge balance
Pin_id: l00314
Orientation: Laser parallel to -c* (0 0 -1). Fiducial mark perpendicular to laser is parallel to -a [-1 0 0]
Raman shift (cm-1)	intensity
116.172	0
120.347	56.776
124.519	432.506
128.69	537.918
132.858	513.977
137.025	218.97
141.189	138.126
145.352	18.698
149.512	19.26
153.67	320.023
157.827	1258.5
161.981	3105.53
166.133	4718.82
170.283	5052.59
174.431	4336.84
178.577	3181.57
182.721	2354.5
186.863	1707.24
191.003	928.839
195.141	365.273
199.277	89.549
203.411	181.24
207.543	494.538
211.673	766.212
215.801	664.044
219.927	757.042
224.051	618.406
228.173	392.121
232.292	333.177
236.41	122.547
240.526	79.188
244.64	32.064
248.752	112.84
252.861	76.742
256.969	396.324
261.075	1169.62
265.179	2535.99
269.281	4099.34
273.38	4932.89
277.478	4846.63
281.574	4640.25
285.668	4893.93
289.76	6327.63
293.85	10041.1
297.937	17843.8
302.023	27586.2
306.107	25508.9
310.189	17409.6
314.269	12175.5
318.347	7388.85
322.423	4102.33
326.497	2725.75
330.569	2059.39
334.639	1541.23
338.707	1087.27
342.773	1059.49
346.837	953.6
350.899	1099.71
354.96	1194
359.018	1498.47
363.074	1767.69
367.128	2101.43
371.181	2256.72
375.231	2143.44
379.28	1678.86
383.326	1351.01
387.37	1070.31
391.413	848.508
395.454	755.122
399.492	491.78
403.529	375.368
407.564	386.548
411.596	264.338
415.627	216.269
419.656	712.226
423.683	2185.31
427.708	2882.51
431.731	1399.88
435.752	546.369
439.772	250.954
443.789	285.579
447.804	270.223
451.817	348.884
455.829	476.536
459.838	609.167
463.846	795.773
467.852	1128.35
471.855	1725.88
475.857	2483.47
479.857	3351.01
483.855	3738.49
487.851	3456.55
491.845	3073.21
495.837	2550.44
499.828	1887.58
503.816	1334.61
507.802	1021.53
511.787	592.335
515.77	485.017
519.75	340.567
523.729	332.001
527.706	253.353
531.681	18.578
535.654	6.433
539.625	124.322
543.595	130.768
547.562	29.763
551.527	50.948
555.491	17.923
559.453	19.26
563.412	158.825
567.37	156.15
571.326	414.171
575.28	333.238
579.233	611.379
583.183	944.59
587.131	1135.99
591.078	1609.73
595.022	2878.11
598.965	6766.97
602.906	13129.6
606.845	10804.2
610.782	6425.09
614.718	4756.42
618.651	4716.07
622.582	5635.1
626.512	7953.77
630.44	12692.1
634.366	15410
638.29	13837.5
642.212	17594.7
646.132	27671.4
650.05	20737.8
653.967	9883.78
657.882	4939.37
661.794	2904.56
665.705	1919.35
669.614	1493.75
673.522	987.743
677.427	721.336
681.331	684.528
685.232	327.023
689.132	408.404
693.03	208.212
696.926	242.132
700.82	301.927
704.713	179.05
708.603	7.697
712.492	12.161
716.379	13.775
720.264	175.417
724.147	97.267
728.028	61.466
731.908	60.734
735.785	16.985
739.661	84.7
743.535	17.394
747.407	110.413
751.278	37.636
755.146	122.73
759.013	175.151
762.878	116.812
766.741	78.074
770.602	138.964
774.461	299.521
778.319	509.765
782.174	649.702
786.028	1009.34
789.88	1478.69
793.73	2157.76
797.579	3116.57
801.425	3975.11
805.27	4803.4
809.113	5101.44
812.954	5019.26
816.794	4836.85
820.631	4584.24
824.467	3711.43
828.301	2868.43
832.133	2045.26
835.963	1301.93
839.792	988.443
843.618	704.791
847.443	420.619
851.266	215.682
855.088	111.819
858.907	117.297
862.725	187.781
866.541	130.878
870.355	37.619
874.167	158.92
877.978	32.588
881.787	82.133
885.594	146.247
889.399	19.381
893.202	83.929
897.004	130.979
900.803	114.597
904.601	38.888
908.398	8.481
912.192	75.717
915.985	86.597
919.776	111.892
923.565	126.438
927.352	72.597
931.138	172.914
934.922	165.581
938.704	292.429
942.484	319.532
946.262	236.952
950.039	334.655
953.814	662.643
957.587	760.965
961.359	849.671
965.128	1058.77
968.896	1278.18
972.662	1858.03
976.427	2248.36
980.189	3099.09
983.95	4010.19
987.709	5171.73
991.467	7423.77
995.222	11726.2
998.976	17909.3
1002.73	25802.8
1006.48	33916.9
1010.23	39071.5
1013.97	34926.6
1017.72	26322.3
1021.46	18234.3
1025.2	13060.5
1028.94	10465.6
1032.68	10465.4
1036.42	11892
1040.15	14295.3
1043.89	16042.6
1047.62	17383.6
1051.35	17777.1
1055.07	18628.6
1058.8	21129.9
1062.52	23773.3
1066.25	20297.4
1069.97	12672
1073.69	7537.06
1077.4	5102.64
1081.12	3698.72
1084.83	2915.39
1088.55	2562.56
1092.26	2434.01
1095.96	2732.61
1099.67	3271.2
1103.38	4352.72
1107.08	5635.05
1110.78	7093.26
1114.48	8403.5
1118.18	9254.15
1121.88	9976.99
1125.57	9898.8
1129.27	9731.54
1132.96	8425.31
1136.65	7178.66
1140.34	5216.42
1144.02	3556.66
1147.71	2543.48
1151.39	1778.96
1155.07	1386.37
1158.75	1319.09
1162.43	1148.4
1166.11	953.211
1169.78	765.363
1173.45	652.088
1177.12	599.97
1180.79	469.324
1184.46	558.122
1188.13	497.403
1191.79	722.021
1195.45	893.201
1199.11	933.017
1202.77	802.971
1206.43	900.989
1210.09	949.208
1213.74	1157.84
1217.39	916.367
1221.05	694.416
1224.69	617.306
1228.34	287.367
1231.99	49.807
1235.63	50.291
1239.27	114.307
1242.91	251.244
1246.55	148.629
1250.19	66.641
1253.83	222.945
1257.46	79.197
1261.09	5.6
1264.72	195.99
1268.35	168.732
1271.98	137.494
1275.61	81.906
1279.23	34.295
1282.85	79.451
1286.47	71.977
1290.09	44.965
1293.71	17.016
1297.33	181.684
1300.94	80.264
1304.55	59.717
1308.16	429.057
1311.77	257.744
1315.38	225.885
1318.99	313.453
1322.59	110.33
1326.19	16.559
1329.79	117.736
1333.39	62.668
1336.99	8.209
1340.59	45.672
1344.18	229.055
1347.77	312.223
1351.37	284.674
1354.95	416.867
1358.54	218.51
1362.13	209.885
1365.71	19.137
1369.3	61.586
1372.88	114.062
1376.46	192.646
1380.04	311.889
1383.61	423.947
1387.19	560.207
1390.76	212.447
1394.33	497.881
1397.9	326.342
1401.47	210.248
1405.04	38.059
1408.6	243.801
1412.16	187.166
1415.72	471.598
1419.29	378.746
1422.84	342.801
1426.4	530.74
1429.96	238.316
1433.51	328.725
1437.06	231.436
1440.61	90.947
1444.16	249.016
1447.71	257.525
1451.25	375.254
1454.8	428.838
1458.34	331.678
1461.88	596.32
1465.42	471.369
1468.96	459.084
1472.49	528.938
1476.03	547.771
1479.56	333.824
1483.09	213.92
1486.62	76.338
1490.15	249.18
1493.67	423.898
1497.2	460.527
1500.72	460.334
1504.24	411.465
1507.76	497.65
1511.28	461.254
1514.8	388.586
