Measurement: Raman, 514 nm, ccw, Raman Data Processed
Mineral: Amblygonite
Rruff sample: R040006
Ideal chemistry: LiAlPO_4_F
Locality: Pala, San Diego County, California, USA
Source: University of Arizona Mineral Museum
Description: Light gray coarsely crystalline massive
Measured chemistry: LiAl_1.00_(P_1.00_O_4_)(F_0.73_(OH)_0.27_)_Î£=1_; Li assumed by stoichiometry; OH estimated by charge balance
Pin_id: l00112
Orientation: Laser parallel to (1 1 0). Fiducial mark perpendicular to laser is parallel to c [0 0 1]
Raman shift (cm-1)	intensity
114.78	0
118.956	473.2
123.129	702.337
127.3	1682.45
131.469	2434.14
135.636	1515.64
139.801	748.005
143.964	631.178
148.125	504.934
152.284	520.895
156.441	786.918
160.596	1253.11
164.749	1479.75
168.9	1229.29
173.049	1000.73
177.195	763.347
181.34	522.923
185.483	421.169
189.624	519.818
193.762	515.82
197.899	432.768
202.034	480.676
206.166	319.493
210.297	59.109
214.425	29.25
218.552	69.898
222.676	71.028
226.799	77.395
230.919	55.376
235.038	157.075
239.154	49.891
243.269	46.891
247.381	76.807
251.492	100.996
255.6	95.252
259.707	50.375
263.811	184.127
267.914	279.18
272.014	354.007
276.113	239.049
280.209	668.424
284.304	953.927
288.396	1563.82
292.487	3486.88
296.575	7880.19
300.662	14665.1
304.746	15780.5
308.829	11446.4
312.909	8512.52
316.988	5708.81
321.065	3215.27
325.139	2321.89
329.212	2198.67
333.283	1725.66
337.351	1392.04
341.418	1288.27
345.483	1428.12
349.546	1025.85
353.606	843.967
357.665	1150.37
361.722	1236.89
365.777	967.676
369.83	988.064
373.881	817.922
377.93	905.191
381.977	759.518
386.023	647.742
390.066	684.109
394.107	694.809
398.146	523.73
402.184	247.975
406.219	275.727
410.252	440.568
414.284	177.748
418.313	176.592
422.341	1003.88
426.367	1962.82
430.39	961.74
434.412	270.689
438.432	219.574
442.45	318.35
446.466	87.037
450.48	85.449
454.492	56.229
458.502	191.887
462.51	239.832
466.517	337.734
470.521	365.645
474.523	663.555
478.524	1001.34
482.523	928.996
486.519	306.516
490.514	463.91
494.507	361.188
498.498	288.311
502.487	24.721
506.474	171.992
510.459	238.533
514.442	334.867
518.424	270.994
522.403	26.947
526.381	222.783
530.356	381.471
534.33	88.164
538.302	53.332
542.272	8.912
546.24	221.795
550.206	534.742
554.17	57.826
558.132	185.586
562.093	155.262
566.051	400.576
570.008	373.736
573.963	325.535
577.915	320.49
581.866	683.615
585.815	1095.07
589.763	1295.34
593.708	1676.16
597.651	4096.73
601.593	8347.15
605.532	7618.94
609.47	3631.72
613.406	2148.44
617.34	1812.46
621.272	2284.87
625.202	2867.03
629.131	2697.71
633.057	2675.34
636.982	3752.65
640.905	6859.63
644.825	13746.3
648.744	12496
652.662	5991.82
656.577	3657.51
660.49	2089.06
664.402	1444.13
668.312	677.303
672.219	449.902
676.125	824.043
680.03	476.559
683.932	317.275
687.832	116.818
691.731	226.541
695.628	82.129
699.522	380.016
703.415	9.432
707.307	200.178
711.196	134.162
715.083	23.609
718.969	91.195
722.853	138.557
726.735	104.682
730.615	2.062
734.493	81.387
738.37	334.725
742.244	290.584
746.117	216.1
749.988	101.365
753.857	436.469
757.724	421.412
761.59	286.203
765.453	160.959
769.315	175.588
773.175	132.934
777.033	97.707
780.889	461.914
784.744	285.736
788.596	79.363
792.447	192.924
796.296	407.223
800.143	640.678
803.989	444.027
807.832	317.318
811.674	250.596
815.514	633.885
819.352	1099.08
823.189	742.434
827.023	395.838
830.856	199.281
834.687	422.771
838.516	586.223
842.343	1145.59
846.169	1088.92
849.992	787.746
853.814	705.859
857.634	1127.48
861.453	1950.69
865.269	1460.81
869.084	741.848
872.897	653.371
876.708	277.295
880.517	383.271
884.325	766.979
888.13	815.955
891.934	579.607
895.737	167.033
899.537	125.625
903.336	603.652
907.132	811.926
910.928	833.895
914.721	672.908
918.512	0.496
922.302	111.617
926.09	348.363
929.876	374.867
933.66	691.658
937.443	320.02
941.224	101.492
945.003	66.639
948.78	415.631
952.556	588.314
956.33	1008.07
960.102	561.564
963.872	525.471
967.64	120.193
971.407	154.443
975.172	809.479
978.935	1264.93
982.697	1440.8
986.456	2267.11
990.214	2773.86
993.971	4551.1
997.725	7548.81
1001.48	12853.2
1005.23	18610.4
1008.98	22134.9
1012.73	22357.2
1016.47	17618.5
1020.22	13092.8
1023.96	9598.67
1027.7	7221.64
1031.44	5270.89
1035.17	4575.35
1038.91	3900.17
1042.64	4545.61
1046.37	5831.6
1050.1	8648.24
1053.83	13225.4
1057.56	20623.2
1061.28	30261.3
1065.01	29989.7
1068.73	17878.4
1072.45	9984.9
1076.16	5823.03
1079.88	4071.66
1083.6	3081.7
1087.31	1935.77
1091.02	1256.09
1094.73	1199.29
1098.44	771.332
1102.14	1362.84
1105.85	1684.23
1109.55	1955.82
1113.25	1667.78
1116.95	1494.88
1120.65	1796.2
1124.34	1958.36
1128.04	1501.38
1131.73	1915.26
1135.42	1579.71
1139.11	1414.56
1142.79	459.863
1146.48	164.445
1150.16	198.246
1153.84	518.633
1157.52	656.18
1161.2	574.363
1164.88	553.184
1168.56	212.676
1172.23	272.992
1175.9	106.039
1179.57	145.543
1183.24	347.781
1186.9	920.801
1190.57	954.684
1194.23	729.867
1197.89	226.203
1201.55	243.676
1205.21	287.004
1208.87	393.984
1212.52	274.613
1216.18	632.008
1219.83	714.605
1223.48	563.879
1227.13	72.512
1230.77	41.121
1234.42	271.781
1238.06	15.273
1241.7	554.266
1245.34	771.938
1248.98	1095.31
1252.62	815.91
1256.25	192.758
1259.88	1.691
