Measurement: Raman, 514 nm, ccw, Raman Data Processed
Mineral: Amblygonite
Rruff sample: R040006
Ideal chemistry: LiAlPO_4_F
Locality: Pala, San Diego County, California, USA
Source: University of Arizona Mineral Museum
Description: Light gray coarsely crystalline massive
Measured chemistry: LiAl_1.00_(P_1.00_O_4_)(F_0.73_(OH)_0.27_)_Î£=1_; Li assumed by stoichiometry; OH estimated by charge balance
Pin_id: l00499
Orientation: Laser parallel to (1 0 1). Fiducial mark perpendicular to laser is parallel to -b [0 -1 0]
Raman shift (cm-1)	intensity
109.21	0
113.388	210.181
117.564	280.244
121.738	658.964
125.91	1178.17
130.08	2115.02
134.248	2069.26
138.413	1236.37
142.577	654.159
146.739	247.467
150.898	135.956
155.056	76.113
159.212	51.103
163.365	160.662
167.517	418.02
171.666	567.914
175.813	593.859
179.959	642.545
184.102	593.798
188.244	464.766
192.383	436.532
196.52	279.724
200.656	30.815
204.789	17.332
208.92	24.079
213.049	99.865
217.176	108.878
221.302	10.032
225.425	52.027
229.546	63.948
233.665	36.358
237.782	8.893
241.898	3.105
246.011	44.26
250.122	40.712
254.231	59.666
258.338	24.573
262.443	107.568
266.546	203.868
270.647	379.649
274.747	565.31
278.844	777.12
282.939	982.035
287.032	1596.37
291.123	2682.8
295.212	5332.3
299.3	10124.2
303.385	13955.5
307.468	11185.9
311.549	8495.64
315.629	6134.71
319.706	4024.18
323.781	2733.67
327.855	2094.36
331.926	1712.99
335.995	1425.88
340.063	1238.56
344.128	1041.35
348.192	1077.19
352.253	1026.52
356.313	1129.9
360.37	1196.45
364.426	1242.97
368.479	1529.26
372.531	1512.94
376.581	1365.5
380.629	1213.7
384.674	1049.88
388.718	827.75
392.76	644.004
396.8	520.945
400.838	442.556
404.874	446.545
408.908	344.579
412.94	309.174
416.97	256.253
420.999	372.854
425.025	631.104
429.049	654.482
433.072	337.333
437.092	130.274
441.111	102.138
445.127	64.833
449.142	49.351
453.155	152.723
457.166	117.91
461.175	180.894
465.181	161.691
469.186	224.308
473.19	394.742
477.191	488.999
481.19	648.083
485.187	707.004
489.183	745.772
493.176	783.393
497.168	668.872
501.157	564.22
505.145	449.443
509.131	335.553
513.115	206.556
517.097	147.452
521.077	123.236
525.055	3.086
529.031	7.469
533.006	21.174
536.978	59.042
540.949	81.397
544.917	7.061
548.884	76.478
552.849	17.432
556.812	38.301
560.773	128.17
564.732	19.147
568.689	55.608
572.644	37.739
576.598	97.345
580.55	121.89
584.499	164.995
588.447	301.376
592.393	292.215
596.337	513.878
600.279	1048.32
604.219	1467.21
608.158	1252.43
612.094	1009.57
616.029	1128.19
619.962	1391.23
623.892	2220.83
627.821	3687.06
631.749	5742.41
635.674	5727.62
639.597	5702.69
643.519	9727.61
647.438	13732.4
651.356	8067.05
655.272	3521.56
659.186	1789.94
663.098	1059.18
667.009	737.286
670.917	487.258
674.824	420.977
678.728	273.257
682.631	158.689
686.532	179.638
690.432	92.711
694.329	127.932
698.224	71.58
702.118	87.199
706.01	134.987
709.9	198.401
713.788	295.006
717.674	146.625
721.558	40.657
725.441	89.493
729.322	56.722
733.201	74.191
737.078	19.594
740.953	20.264
744.826	33.34
748.698	4.214
752.567	46.937
756.435	64.04
760.301	6.913
764.165	48.482
768.028	78.852
771.888	99.065
775.747	87.149
779.604	8.117
783.459	97.961
787.312	201.713
791.164	201.375
795.013	503.952
798.861	516.639
802.707	556.362
806.551	703.213
810.394	748.489
814.234	692.698
818.073	622.849
821.91	404.941
825.745	415.98
829.578	266.973
833.41	217.923
837.24	194.841
841.068	12.743
844.894	3.425
848.718	74.862
852.54	15.426
856.361	49.853
860.18	3.729
863.997	79.058
867.812	110.465
871.626	32.98
875.438	98.931
879.248	8.163
883.056	6.688
886.862	65.289
890.667	28.522
894.469	36.802
898.27	17.096
902.07	145.62
905.867	153.602
909.663	5.054
913.457	52.769
917.249	96.793
921.039	136.025
924.827	114.071
928.614	163.058
932.399	101.625
936.182	91.196
939.964	186.89
943.744	270.727
947.521	306.729
951.298	381.862
955.072	369.146
958.845	346.583
962.615	441.173
966.384	649.907
970.152	799.821
973.917	819.926
977.681	1210.19
981.443	1450.6
985.203	1971.18
988.962	3011.92
992.719	4632.87
996.474	7434.03
1000.23	10871.5
1003.98	15906.3
1007.73	21276.4
1011.48	24255.5
1015.22	21223.8
1018.97	14519.5
1022.71	9362.46
1026.45	6096.08
1030.19	4539.54
1033.93	3812.97
1037.66	4006.89
1041.4	4481.1
1045.13	5175.19
1048.86	5748.25
1052.59	6813.41
1056.32	8731.4
1060.04	12057.1
1063.77	14513
1067.49	10579.3
1071.21	5795.83
1074.93	3212.57
1078.64	1919.59
1082.36	1336.75
1086.07	974.174
1089.78	768.083
1093.49	703.938
1097.2	701.9
1100.91	640.033
1104.61	799.987
1108.32	1109.42
1112.02	1248.09
1115.72	1359.13
1119.41	1571.1
1123.11	1830.26
1126.8	1529.51
1130.5	1128.88
1134.19	928.507
1137.88	708.122
1141.56	675.406
1145.25	539.815
1148.93	345.501
1152.62	270.502
1156.3	145.28
1159.98	188.48
1163.65	47.227
1167.33	105.055
1171	16.073
1174.68	235.649
1178.35	192.405
1182.02	225.242
1185.68	6.755
1189.35	109.67
1193.01	36.023
1196.67	55.213
1200.33	18.395
1203.99	209.206
1207.65	206.664
1211.31	107.37
1214.96	228.385
1218.61	155.684
1222.26	3.221
1225.91	69.289
1229.56	106.166
1233.2	198.725
1236.85	139.516
1240.49	110.802
1244.13	72.465
1247.77	26.884
1251.4	73.637
1255.04	23.961
1258.67	164.482
1262.3	165.321
1265.93	165.425
1269.56	109.591
1273.19	138.771
1276.82	67.572
1280.44	86.235
1284.06	75.154
1287.68	103.524
1291.3	81.744
1294.92	89.409
1298.53	177.026
1302.14	123.975
1305.76	40.534
1309.37	126.773
1312.98	62.766
1316.58	101.622
1320.19	46.946
1323.79	27.798
1327.39	42.266
1330.99	436.432
1334.59	240.313
1338.19	133.093
1341.79	16.398
1345.38	579.433
1348.97	29.704
1352.56	152.27
1356.15	114.654
1359.74	52.822
1363.32	179.319
1366.91	131.313
1370.49	120.172
1374.07	158.691
1377.65	202.273
1381.23	88.406
1384.8	44.947
1388.38	146.15
1391.95	143.021
1395.52	249.62
1399.09	196.433
1402.66	134.962
1406.22	261.244
1409.79	310.23
1413.35	160.423
1416.91	192.356
1420.47	132.023
1424.03	134.803
1427.59	71.665
1431.14	90.604
1434.69	149.069
1438.24	195.839
1441.8	307.151
1445.34	168.046
1448.89	199.317
1452.43	242.286
1455.98	263.32
1459.52	222.383
1463.06	100.095
1466.6	221.882
1470.14	200.236
1473.67	279.94
1477.2	239.305
1480.74	310.463
1484.27	190.959
1487.8	324.189
1491.32	198.498
1494.85	194.945
1498.37	234.516
1501.9	148.826
1505.42	0.628
