Measurement: Raman, 514 nm, ccw, Raman Data Processed
Mineral: Amblygonite
Rruff sample: R040006
Ideal chemistry: LiAlPO_4_F
Locality: Pala, San Diego County, California, USA
Source: University of Arizona Mineral Museum
Description: Light gray coarsely crystalline massive
Measured chemistry: LiAl_1.00_(P_1.00_O_4_)(F_0.73_(OH)_0.27_)_Î£=1_; Li assumed by stoichiometry; OH estimated by charge balance
Pin_id: l00499
Orientation: Laser parallel to (1 0 1). Fiducial mark perpendicular to laser is parallel to -b [0 -1 0]
Raman shift (cm-1)	intensity
109.21	0
113.388	187.957
117.564	331.373
121.738	944.817
125.91	2152.97
130.08	3514.32
134.248	3352.22
138.413	1795.66
142.577	767.344
146.739	386.647
150.898	268.986
155.056	118.482
159.212	347.945
163.365	352.983
167.517	570.64
171.666	775.426
175.813	707.591
179.959	777.315
184.102	908.63
188.244	768.065
192.383	499.729
196.52	241.669
200.656	24.473
204.789	78.069
208.92	88.606
213.049	72.541
217.176	116.055
221.302	177.548
225.425	121.837
229.546	154.765
233.665	18.801
237.782	13.018
241.898	1.981
246.011	59.268
250.122	46.634
254.231	82.349
258.338	8.455
262.443	115.178
266.546	470.414
270.647	770.438
274.747	985.887
278.844	1230.02
282.939	1556.25
287.032	2122.28
291.123	3528.34
295.212	6551.8
299.3	13013.8
303.385	17354
307.468	14022.7
311.549	10620
315.629	7815.84
319.706	5290.19
323.781	3741.58
327.855	2890.72
331.926	2258.88
335.995	1826.14
340.063	1552.13
344.128	1266.76
348.192	1289.8
352.253	1265.07
356.313	1293.92
360.37	1324.2
364.426	1602.3
368.479	1725.76
372.531	1724.34
376.581	1554.01
380.629	1316.7
384.674	1104.57
388.718	843.593
392.76	693.464
396.8	467.812
400.838	514.549
404.874	441.729
408.908	345.122
412.94	328.154
416.97	240.868
420.999	561.681
425.025	1388.6
429.049	1285.23
433.072	574.498
437.092	353.769
441.111	142.76
445.127	201.36
449.142	129.624
453.155	237.532
457.166	235.154
461.175	412.478
465.181	439.421
469.186	736.011
473.19	1122.25
477.191	1558.16
481.19	2233.74
485.187	2429.04
489.183	2364.07
493.176	2178.86
497.168	2013.4
501.157	1677.72
505.145	1331.83
509.131	835.74
513.115	529.467
517.097	323.01
521.077	226.379
525.055	240.779
529.031	43.419
533.006	77.162
536.978	30.929
540.949	71.671
544.917	7.854
548.884	49.414
552.849	63.152
556.812	135.603
560.773	117.954
564.732	80.24
568.689	23.854
572.644	47.473
576.598	158.376
580.55	299.6
584.499	190.662
588.447	408.604
592.393	540.491
596.337	1087.45
600.279	2132.48
604.219	2818.23
608.158	2408.58
612.094	1781.7
616.029	1880.62
619.962	2411.5
623.892	3532.88
627.821	5973.26
631.749	9163.45
635.674	9223.25
639.597	9072.81
643.519	14922.1
647.438	20411.2
651.356	11850.1
655.272	5078.71
659.186	2757.1
663.098	1525.26
667.009	1093.19
670.917	760.896
674.824	548.367
678.728	355.515
682.631	242.53
686.532	167.684
690.432	281.797
694.329	202.041
698.224	136.324
702.118	229.712
706.01	416.146
709.9	473.476
713.788	538.916
717.674	282.219
721.558	125.666
725.441	118.277
729.322	57.734
733.201	135.698
737.078	70.593
740.953	14.586
744.826	15.458
748.698	9.948
752.567	1.206
756.435	42.422
760.301	37.002
764.165	23.277
768.028	129.136
771.888	158.353
775.747	167.255
779.604	105.908
783.459	84.344
787.312	262.582
791.164	360.636
795.013	598.508
798.861	956.204
802.707	1053.73
806.551	1071.1
810.394	1108.3
814.234	1045.36
818.073	1032.27
821.91	877.849
825.745	595.692
829.578	422.215
833.41	388.62
837.24	304.916
841.068	150.548
844.894	116.688
848.718	67.511
852.54	92.143
856.361	153.65
860.18	99.38
863.997	14.922
867.812	40.329
871.626	105.692
875.438	90.51
879.248	34.405
883.056	52.201
886.862	144.417
890.667	69.718
894.469	33.325
898.27	35.407
902.07	239.75
905.867	189.586
909.663	42.763
913.457	68.794
917.249	237.601
921.039	141.451
924.827	1.284
928.614	195.218
932.399	132.247
936.182	334.772
939.964	150.869
943.744	247.141
947.521	463.595
951.298	680.239
955.072	407.078
958.845	494.123
962.615	531.388
966.384	698.867
970.152	986.567
973.917	1214.67
977.681	1463.01
981.443	1991.6
985.203	2480.45
988.962	3889.56
992.719	6238.94
996.474	9588.62
1000.23	14184.6
1003.98	21221.5
1007.73	28082.4
1011.48	31566.7
1015.22	27233.4
1018.97	18911.1
1022.71	12573.6
1026.45	8544.77
1030.19	6508.17
1033.93	5929.92
1037.66	6294.28
1041.4	7194.5
1045.13	8339.85
1048.86	9137.15
1052.59	10311.6
1056.32	12838.5
1060.04	17265.4
1063.77	20563.1
1067.49	15081.1
1071.21	8403.53
1074.93	4632.52
1078.64	2851.88
1082.36	1991.57
1086.07	1461.91
1089.78	1182.32
1093.49	1123.31
1097.2	1124.43
1100.91	1305.84
1104.61	1447.55
1108.32	2030.6
1112.02	2412.85
1115.72	2735.47
1119.41	2982.24
1123.11	3555.5
1126.8	2938.8
1130.5	2285.06
1134.19	2118.99
1137.88	1473.07
1141.56	1310.09
1145.25	977.92
1148.93	691.355
1152.62	535.195
1156.3	376.795
1159.98	226.07
1163.65	16.139
1167.33	230.219
1171	244.912
1174.68	537.533
1178.35	331.338
1182.02	289.34
1185.68	253
1189.35	290.438
1193.01	204.982
1196.67	424.518
1200.33	395.756
1203.99	583.6
1207.65	495.545
1211.31	396.436
1214.96	303.023
1218.61	360.176
1222.26	146.514
1225.91	162.799
1229.56	193.018
1233.2	298.445
1236.85	224.715
1240.49	120.951
1244.13	107.184
1247.77	64.713
1251.4	131.477
1255.04	37.418
1258.67	173.209
1262.3	308.83
1265.93	294.109
1269.56	221.494
1273.19	108.049
1276.82	71.844
1280.44	74.965
1284.06	11.416
1287.68	9.094
1291.3	77.088
1294.92	25.834
1298.53	195.012
1302.14	134.883
1305.76	44.273
1309.37	103.213
1312.98	8.443
1316.58	60.684
1320.19	233.545
1323.79	82.803
1327.39	18.635
1330.99	113.865
1334.59	218.605
1338.19	47.949
1341.79	13.359
1345.38	129.959
1348.97	152.914
1352.56	14.486
1356.15	267.791
1359.74	119.922
1363.32	222.062
1366.91	304.676
1370.49	54.533
1374.07	0.037
1377.65	259.57
1381.23	361.65
1384.8	302.186
1388.38	77.133
1391.95	127.352
1395.52	383.871
1399.09	529.77
1402.66	402.732
1406.22	436.389
1409.79	561.33
1413.35	147.648
1416.91	84.854
1420.47	206.812
1424.03	162.244
1427.59	168.42
1431.14	44.672
1434.69	193.273
1438.24	418.057
1441.8	284.316
1445.34	246.256
1448.89	355.033
1452.43	536.461
1455.98	470.451
1459.52	462.48
1463.06	457.818
1466.6	291.713
1470.14	281.246
1473.67	443.305
1477.2	336.537
1480.74	301.648
1484.27	341.346
1487.8	253.801
1491.32	284.885
1494.85	409.482
1498.37	239.586
1501.9	118.734
1505.42	5.607
1508.94	0
