Measurement: Raman, 514 nm, ccw, Raman Data Processed
Mineral: Amblygonite
Rruff sample: R040006
Ideal chemistry: LiAlPO_4_F
Locality: Pala, San Diego County, California, USA
Source: University of Arizona Mineral Museum
Description: Light gray coarsely crystalline massive
Measured chemistry: LiAl_1.00_(P_1.00_O_4_)(F_0.73_(OH)_0.27_)_Î£=1_; Li assumed by stoichiometry; OH estimated by charge balance
Pin_id: l00499
Orientation: Laser parallel to (1 0 1). Fiducial mark perpendicular to laser is parallel to -b [0 -1 0]
Raman shift (cm-1)	intensity
96.663	0
100.848	82.126
105.03	187.244
109.21	486.601
113.388	648
117.564	887.496
121.738	1134.46
125.91	1474.75
130.08	1744
134.248	1619.56
138.413	1231.97
142.577	1113.21
146.739	1066.72
150.898	1247.52
155.056	1367.87
159.212	1546.69
163.365	1650.98
167.517	1325.09
171.666	889.074
175.813	477.59
179.959	322.176
184.102	182.125
188.244	207.676
192.383	189.822
196.52	137.493
200.656	113.601
204.789	103.05
208.92	64.767
213.049	86.692
217.176	92.708
221.302	15.715
225.425	0.291
229.546	50.939
233.665	130.64
237.782	85.607
241.898	58.633
246.011	57.774
250.122	4.365
254.231	55.981
258.338	310.486
262.443	488.726
266.546	1108.26
270.647	1716.53
274.747	1969.47
278.844	1645.73
282.939	1322.1
287.032	1352.44
291.123	1889.69
295.212	3153.81
299.3	6716.66
303.385	9736.16
307.468	6845.39
311.549	3810.39
315.629	2365.21
319.706	1611.86
323.781	1175.26
327.855	834.029
331.926	670.797
335.995	489.686
340.063	412.363
344.128	199.074
348.192	205.823
352.253	150.604
356.313	88.101
360.37	89.22
364.426	63.039
368.479	113.854
372.531	114.871
376.581	149.44
380.629	143.371
384.674	161.864
388.718	163.128
392.76	178.586
396.8	163.978
400.838	191.179
404.874	185.8
408.908	182.271
412.94	170.283
416.97	257.696
420.999	458.822
425.025	1118.87
429.049	977.193
433.072	580.335
437.092	409.462
441.111	387.529
445.127	342.523
449.142	323.464
453.155	514.372
457.166	571.288
461.175	869.218
465.181	1161.1
469.186	1899.93
473.19	2836.69
477.191	4204.36
481.19	5695.96
485.187	6071.48
489.183	5316.92
493.176	4220.29
497.168	3311.61
501.157	2612.88
505.145	1787.09
509.131	1182.24
513.115	685.34
517.097	444.292
521.077	255.048
525.055	195.786
529.031	77.509
533.006	77.282
536.978	27.062
540.949	66.536
544.917	42.873
548.884	29.312
552.849	5.162
556.812	1.888
560.773	39.575
564.732	49.954
568.689	26.845
572.644	26.472
576.598	67.094
580.55	140.098
584.499	64.735
588.447	178.736
592.393	210.575
596.337	443.108
600.279	796.582
604.219	1132.82
608.158	1005.42
612.094	1024.77
616.029	1166.96
619.962	1289.1
623.892	1720.71
627.821	2661.05
631.749	4114.75
635.674	5729.27
639.597	9751.62
643.519	21713.8
647.438	33205.9
651.356	19377.7
655.272	8159.44
659.186	3891.99
663.098	2228.38
667.009	1479.6
670.917	992.659
674.824	712.549
678.728	499.275
682.631	422.836
686.532	387.233
690.432	280.698
694.329	277.581
698.224	169.207
702.118	127.723
706.01	178.576
709.9	168.057
713.788	193.021
717.674	81.773
721.558	58.311
725.441	91.216
729.322	33.939
733.201	91.78
737.078	14.685
740.953	38.287
744.826	35.452
748.698	12.103
752.567	92.354
756.435	76.602
760.301	14.81
764.165	53.488
768.028	67.678
771.888	91.669
775.747	134.34
779.604	13.857
783.459	84.11
787.312	139.219
791.164	246.186
795.013	387.017
798.861	431.714
802.707	504.283
806.551	564.729
810.394	702.055
814.234	642.265
818.073	614.363
821.91	598.867
825.745	356.243
829.578	283.035
833.41	232.735
837.24	215.347
841.068	23.121
844.894	56.279
848.718	5.392
852.54	27.155
856.361	42.809
860.18	0.146
863.997	73.185
867.812	49.47
871.626	2.977
875.438	33.815
879.248	61.783
883.056	38.362
886.862	50.151
890.667	9.078
894.469	105.846
898.27	5.628
902.07	167.645
905.867	137.623
909.663	16.333
913.457	13.604
917.249	8.511
921.039	53.681
924.827	4.865
928.614	53.953
932.399	25.051
936.182	3.196
939.964	144.534
943.744	133.002
947.521	238.597
951.298	275.326
955.072	193.184
958.845	318.18
962.615	339.322
966.384	373.607
970.152	535.049
973.917	656.687
977.681	731.482
981.443	972.456
985.203	1290.64
988.962	2083.12
992.719	3216.05
996.474	4980.29
1000.23	7164.85
1003.98	10684.6
1007.73	14448.3
1011.48	17082.1
1015.22	15453.6
1018.97	11317.5
1022.71	7973.85
1026.45	6079.61
1030.19	5536.7
1033.93	6702.78
1037.66	8610.61
1041.4	10798.7
1045.13	11917.1
1048.86	11901.2
1052.59	11480.5
1056.32	11460.1
1060.04	13298.5
1063.77	14698.4
1067.49	11068
1071.21	6377.8
1074.93	3848.82
1078.64	2400.11
1082.36	1701.62
1086.07	1393.45
1089.78	1166.54
1093.49	965.214
1097.2	893.669
1100.91	824.442
1104.61	791.43
1108.32	1044.47
1112.02	1196.86
1115.72	1448.95
1119.41	1606.02
1123.11	1786.6
1126.8	1644.3
1130.5	1342.48
1134.19	1146.64
1137.88	981.692
1141.56	884.709
1145.25	768.021
1148.93	579.237
1152.62	431.699
1156.3	333.596
1159.98	382.764
1163.65	327.565
1167.33	457.53
1171	612.895
1174.68	707.041
1178.35	865.944
1182.02	910.008
1185.68	999.072
1189.35	1314.2
1193.01	1314.8
1196.67	1405.15
1200.33	1427.15
1203.99	1455.01
1207.65	1252.56
1211.31	979.812
1214.96	675.731
1218.61	521.112
1222.26	304.42
1225.91	233.466
1229.56	164.921
1233.2	205.178
1236.85	142.016
1240.49	115.309
1244.13	69.307
1247.77	131.09
1251.4	18.38
1255.04	22.537
1258.67	98.779
1262.3	86.129
1265.93	129.743
1269.56	9.128
1273.19	23.184
1276.82	20.729
1280.44	78.789
1284.06	40.395
1287.68	10.455
1291.3	5.84
1294.92	6.806
1298.53	41.397
1302.14	29.708
1305.76	22.694
1309.37	73.339
1312.98	40.668
1316.58	50.263
1320.19	6.522
1323.79	44.94
1327.39	12.98
1330.99	129.787
1334.59	216.196
1338.19	126.279
1341.79	51.066
1345.38	76.555
1348.97	44.772
1352.56	124.856
1356.15	41.716
1359.74	68.282
1363.32	223.682
1366.91	142.928
1370.49	145.008
1374.07	50.688
1377.65	39.829
1381.23	183.056
1384.8	79.346
1388.38	91.529
1391.95	115.157
1395.52	259.605
1399.09	191.445
1402.66	253.516
1406.22	168.783
1409.79	250.558
1413.35	156.933
1416.91	120.334
1420.47	102.081
1424.03	155.745
1427.59	62.118
1431.14	3.353
1434.69	141.88
1438.24	347.212
1441.8	283.021
1445.34	230.768
1448.89	191.653
1452.43	272.848
1455.98	233.124
1459.52	213.382
1463.06	212.904
1466.6	124.69
1470.14	213.492
1473.67	220.765
1477.2	314.352
1480.74	311.834
1484.27	280.126
1487.8	378.305
1491.32	256.64
1494.85	226.599
1498.37	228.031
1501.9	41.048
1505.42	75.237
1508.94	7.771
1512.45	46.01
1515.97	0
