Measurement: Raman, 514 nm, ccw, Raman Data Processed
Mineral: Amblygonite
Rruff sample: R040006
Ideal chemistry: LiAlPO_4_F
Locality: Pala, San Diego County, California, USA
Source: University of Arizona Mineral Museum
Description: Light gray coarsely crystalline massive
Measured chemistry: LiAl_1.00_(P_1.00_O_4_)(F_0.73_(OH)_0.27_)_Î£=1_; Li assumed by stoichiometry; OH estimated by charge balance
Pin_id: l00314
Orientation: Laser parallel to -c* (0 0 -1). Fiducial mark perpendicular to laser is parallel to -a [-1 0 0]
Raman shift (cm-1)	intensity
116.172	0
120.347	235.156
124.519	1319.12
128.69	2470.14
132.858	2570.4
137.025	1386.3
141.189	849.5
145.352	649.801
149.512	739.355
153.67	1206.59
157.827	1901.86
161.981	2869.53
166.133	3001.13
170.283	2435.87
174.431	1632.89
178.577	1083.65
182.721	761.63
186.863	564.459
191.003	312.045
195.141	84.917
199.277	53.898
203.411	82.583
207.543	16.755
211.673	82.338
215.801	69.384
219.927	70.106
224.051	38.186
228.173	55.352
232.292	63.388
236.41	49.276
240.526	0.498
244.64	32.095
248.752	13.76
252.861	186.68
256.969	392.523
261.075	790.863
265.179	1321.77
269.281	1948.66
273.38	2198.75
277.478	2054.04
281.574	1924.74
285.668	2078.98
289.76	2986.28
293.85	5086.7
297.937	9411.66
302.023	15065.9
306.107	14649.2
310.189	10391.4
314.269	7262.51
318.347	4552.73
322.423	3010.76
326.497	2500.27
330.569	2000.76
334.639	1573.77
338.707	1208.85
342.773	1178.72
346.837	979.826
350.899	893.823
354.96	953.776
359.018	1138.51
363.074	1023.73
367.128	1098.31
371.181	1221.07
375.231	1024.86
379.28	869.554
383.326	730.231
387.37	554.781
391.413	577.642
395.454	495.297
399.492	345.605
403.529	347.697
407.564	381.979
411.596	358.753
415.627	534.388
419.656	1173.95
423.683	3478.68
427.708	4292.57
431.731	2012.6
435.752	890.728
439.772	599.006
443.789	543.447
447.804	481.879
451.817	509.257
455.829	690.535
459.838	877.673
463.846	1125.65
467.852	1428.48
471.855	2188.16
475.857	3281.7
479.857	4535.09
483.855	5038.36
487.851	4764.57
491.845	4354.62
495.837	3737.62
499.828	2940.55
503.816	2173.42
507.802	1701.23
511.787	1161.99
515.77	697.688
519.75	416.352
523.729	384.081
527.706	356.069
531.681	61.537
535.654	68.019
539.625	21.996
543.595	38.392
547.562	37.22
551.527	12.076
555.491	6.52
559.453	56.704
563.412	69.596
567.37	29.524
571.326	126.661
575.28	234.529
579.233	336.114
583.183	409.425
587.131	569.568
591.078	882.659
595.022	1591.67
598.965	3848.31
602.906	7417.41
606.845	6004.45
610.782	3282.38
614.718	2286.52
618.651	2099.1
622.582	2310.85
626.512	3140.95
630.44	4630.8
634.366	6010.39
638.29	6829.73
642.212	11658.8
646.132	20027.6
650.05	15076.2
653.967	7034.45
657.882	3352.46
661.794	1970.21
665.705	1197.68
669.614	944.874
673.522	661.792
677.427	431.432
681.331	422.789
685.232	312.859
689.132	150.492
693.03	162.366
696.926	158.954
700.82	159.98
704.713	80.117
708.603	53.164
712.492	101.93
716.379	55.224
720.264	66.541
724.147	39.522
728.028	0.866
731.908	17.342
735.785	177.377
739.661	158.494
743.535	58.01
747.407	66.892
751.278	3.803
755.146	55.631
759.013	66.196
762.878	13.96
766.741	20.274
770.602	37.522
774.461	124.323
778.319	191.292
782.174	166.274
786.028	301.148
789.88	475.612
793.73	699.823
797.579	863.791
801.425	1147.52
805.27	1371.02
809.113	1434.29
812.954	1437.34
816.794	1370.18
820.631	1402.82
824.467	1175.26
828.301	897.514
832.133	619.587
835.963	391.488
839.792	343.228
843.618	124.184
847.443	175.371
851.266	35.825
855.088	65.477
858.907	83.876
862.725	103.131
866.541	90.919
870.355	158.263
874.167	100.755
877.978	48.505
881.787	97.382
885.594	28.853
889.399	23.059
893.202	5.04
897.004	31.346
900.803	12.605
904.601	14.481
908.398	82.517
912.192	55.369
915.985	87.741
919.776	58.375
923.565	49.567
927.352	20.303
931.138	119.039
934.922	89.806
938.704	110.738
942.484	191.847
946.262	133.143
950.039	194.632
953.814	276.321
957.587	298.221
961.359	550.337
965.128	432.677
968.896	735.261
972.662	1008.19
976.427	1261.43
980.189	1774.94
983.95	2158.73
987.709	2772.9
991.467	3907.52
995.222	6252.59
998.976	9718.05
1002.73	14333.9
1006.48	19589
1010.23	23395.6
1013.97	22012.7
1017.72	17305.6
1021.46	12296.2
1025.2	8875.66
1028.94	6858.7
1032.68	6392.63
1036.42	6740.47
1040.15	7697.83
1043.89	8727.94
1047.62	9889.94
1051.35	11892.4
1055.07	14984.5
1058.8	21156.4
1062.52	28187.1
1066.25	25930.5
1069.97	15574.1
1073.69	8619.35
1077.4	5183.5
1081.12	3428.15
1084.83	2414.65
1088.55	1891.43
1092.26	1619.2
1095.96	1546.85
1099.67	1864.84
1103.38	2133.18
1107.08	2821.86
1110.78	3520.86
1114.48	4220.19
1118.18	4470.93
1121.88	4741.65
1125.57	4864.28
1129.27	4509.13
1132.96	4040.57
1136.65	3501.55
1140.34	2713.73
1144.02	1738.89
1147.71	1489.97
1151.39	1008.96
1155.07	912.221
1158.75	857.924
1162.43	947.366
1166.11	679.32
1169.78	678.899
1173.45	539.578
1177.12	801.05
1180.79	775.629
1184.46	952.504
1188.13	1174.16
1191.79	1376.81
1195.45	1512.07
1199.11	1481.8
1202.77	1258.13
1206.43	1204.31
1210.09	1080.1
1213.74	1065.3
1217.39	931.716
1221.05	606.992
1224.69	443.313
1228.34	282.752
1231.99	96.743
1235.63	26.752
1239.27	130.333
1242.91	115.018
1246.55	140.227
1250.19	96.303
1253.83	160.898
1257.46	35.589
1261.09	29.968
1264.72	183.576
1268.35	37.245
1271.98	146.658
1275.61	100.358
1279.23	22.666
1282.85	105.116
1286.47	16.483
1290.09	38.504
1293.71	50.757
1297.33	90.573
1300.94	30.228
1304.55	49.701
1308.16	8.586
1311.77	297.277
1315.38	265.146
1318.99	162.576
1322.59	109.504
1326.19	335.733
1329.79	58.6
1333.39	43.421
1336.99	111.249
1340.59	75.477
1344.18	279.24
1347.77	262.568
1351.37	215.459
1354.95	238.032
1358.54	270.164
1362.13	131.947
1365.71	193.429
1369.3	96.21
1372.88	2.771
1376.46	167.478
1380.04	230.641
1383.61	372.246
1387.19	413.535
1390.76	204.512
1394.33	311.875
1397.9	318.955
1401.47	227.158
1405.04	43.846
1408.6	167.33
1412.16	238.508
1415.72	408.75
1419.29	445.195
1422.84	421.705
1426.4	508.311
1429.96	115.199
1433.51	365.693
1437.06	187.949
1440.61	41.514
1444.16	284.689
1447.71	209.266
1451.25	303.533
1454.8	299.922
1458.34	506.844
1461.88	604.439
1465.42	555.959
1468.96	397.111
1472.49	547.182
1476.03	383.193
1479.56	318.092
1483.09	248.201
1486.62	102.068
1490.15	373.891
1493.67	446.959
1497.2	383.895
1500.72	421.85
1504.24	412
1507.76	375.715
1511.28	392.936
1514.8	357.242
1518.31	0.506
