Measurement: Raman, 514 nm, ccw, Raman Data Processed
Mineral: Amblygonite
Rruff sample: R040006
Ideal chemistry: LiAlPO_4_F
Locality: Pala, San Diego County, California, USA
Source: University of Arizona Mineral Museum
Description: Light gray coarsely crystalline massive
Measured chemistry: LiAl_1.00_(P_1.00_O_4_)(F_0.73_(OH)_0.27_)_Î£=1_; Li assumed by stoichiometry; OH estimated by charge balance
Pin_id: l00485
Orientation: Laser parallel to -a* (-1 0 0). Fiducial mark perpendicular to laser is parallel to -b [0 -1 0]
Raman shift (cm-1)	intensity
100.848	0
105.03	104.985
109.21	650.629
113.388	1398.82
117.564	1990.68
121.738	3085.5
125.91	4523.59
130.08	5120.13
134.248	3759.31
138.413	2352.36
142.577	1462.47
146.739	1223.1
150.898	1076.42
155.056	1154.47
159.212	995.954
163.365	835.514
167.517	729.587
171.666	694.046
175.813	630.735
179.959	756.638
184.102	885.532
188.244	826.974
192.383	762.325
196.52	628.714
200.656	301.088
204.789	83.671
208.92	186.675
213.049	38.044
217.176	13.039
221.302	26.509
225.425	30.733
229.546	13.645
233.665	26.747
237.782	5.713
241.898	44.615
246.011	61.894
250.122	97.843
254.231	40.73
258.338	155.478
262.443	332.379
266.546	578.717
270.647	830.628
274.747	943.761
278.844	1077.9
282.939	1105.2
287.032	1677.15
291.123	2717.51
295.212	5049.06
299.3	9930.55
303.385	14231.9
307.468	11533.2
311.549	7944.47
315.629	5735.71
319.706	4586.52
323.781	3336.05
327.855	2235.18
331.926	1744.06
335.995	1294.95
340.063	1011.69
344.128	702.471
348.192	598.427
352.253	571.549
356.313	567.828
360.37	387.245
364.426	409.784
368.479	454.475
372.531	423.798
376.581	428.406
380.629	308.796
384.674	273.75
388.718	225.718
392.76	128.746
396.8	185.95
400.838	247.028
404.874	350.387
408.908	410.137
412.94	624.406
416.97	1638.54
420.999	4629.37
425.025	10510.7
429.049	8901.74
433.072	3392.92
437.092	1254.15
441.111	537.392
445.127	300.628
449.142	185.92
453.155	254.198
457.166	172.402
461.175	293.541
465.181	481.639
469.186	843.702
473.19	1394.77
477.191	2135.77
481.19	3016.69
485.187	3557.52
489.183	3608.27
493.176	3308.95
497.168	2659.53
501.157	2380.04
505.145	1650.46
509.131	1100.79
513.115	561.022
517.097	281.149
521.077	261.163
525.055	131.062
529.031	5.196
533.006	40.876
536.978	89.25
540.949	90.562
544.917	79.078
548.884	5.845
552.849	53.539
556.812	25.306
560.773	159.731
564.732	69.117
568.689	110.806
572.644	2.01
576.598	271.942
580.55	354.505
584.499	312.958
588.447	444.461
592.393	582.203
596.337	821.984
600.279	1141.44
604.219	1330.63
608.158	1458.09
612.094	1684.32
616.029	2010.54
619.962	2368.47
623.892	3767.76
627.821	5674.56
631.749	8598.21
635.674	9632.49
639.597	12226.4
643.519	23050
647.438	30293.3
651.356	17576.4
655.272	7559.19
659.186	3991.7
663.098	2183.93
667.009	1705.87
670.917	1197.54
674.824	688.918
678.728	630.017
682.631	440.832
686.532	326.964
690.432	448.407
694.329	365.916
698.224	90.74
702.118	149.166
706.01	111.195
709.9	65.969
713.788	306.103
717.674	164.55
721.558	98.547
725.441	227.071
729.322	210.141
733.201	206.888
737.078	52.766
740.953	67.779
744.826	185.16
748.698	159.784
752.567	54.082
756.435	108.033
760.301	118.171
764.165	124.899
768.028	108.832
771.888	261.394
775.747	133.666
779.604	15.61
783.459	102.761
787.312	188.415
791.164	249.379
795.013	350.143
798.861	340.712
802.707	501.096
806.551	671.298
810.394	631.327
814.234	661.19
818.073	610.891
821.91	350.438
825.745	399.841
829.578	279.104
833.41	368.234
837.24	227.242
841.068	33.826
844.894	105.385
848.718	6.822
852.54	20.493
856.361	218.685
860.18	65.895
863.997	50.596
867.812	84.134
871.626	57.774
875.438	304.748
879.248	179.08
883.056	3.609
886.862	19.209
890.667	0.486
894.469	167.647
898.27	202.107
902.07	249.042
905.867	312.779
909.663	11.338
913.457	23.227
917.249	270.522
921.039	268.208
924.827	166.005
928.614	171.682
932.399	124.105
936.182	213.506
939.964	232.299
943.744	431.304
947.521	430.614
951.298	560.099
955.072	389.816
958.845	579.734
962.615	589.832
966.384	1030.12
970.152	1100.6
973.917	1161.41
977.681	1282.44
981.443	1583.69
985.203	2615.14
988.962	3916.86
992.719	5566.35
996.474	8272.26
1000.23	12163.7
1003.98	17728.3
1007.73	23294.6
1011.48	26121.6
1015.22	23043.3
1018.97	16836.7
1022.71	11761.5
1026.45	8949.49
1030.19	8194.75
1033.93	9352.04
1037.66	11357.8
1041.4	13604.6
1045.13	14762
1048.86	14377.3
1052.59	14165.5
1056.32	14614.8
1060.04	17223.4
1063.77	19582.6
1067.49	15502.6
1071.21	9101.35
1074.93	5521.53
1078.64	3662.06
1082.36	2532.95
1086.07	2141.76
1089.78	1873.88
1093.49	1519.69
1097.2	1192.16
1100.91	976.227
1104.61	643.986
1108.32	1066.95
1112.02	880.129
1115.72	1083.54
1119.41	1468.24
1123.11	1662.48
1126.8	1306.79
1130.5	1071.3
1134.19	955.852
1137.88	706.037
1141.56	871.539
1145.25	745.125
1148.93	541.461
1152.62	353.207
1156.3	103.516
1159.98	0.48
1163.65	122.115
1167.33	181.955
1171	210.977
1174.68	411.828
1178.35	361.949
1182.02	369.379
1185.68	155.686
1189.35	286.465
1193.01	378.191
1196.67	247.43
1200.33	405.838
1203.99	602.746
1207.65	475.629
1211.31	372.723
1214.96	169.064
1218.61	121.205
1222.26	121.016
1225.91	147.26
1229.56	195.049
1233.2	471.115
1236.85	448.037
1240.49	253.977
1244.13	170.027
1247.77	73.139
1251.4	132.65
1255.04	128.162
1258.67	303.848
1262.3	479.936
1265.93	434.746
1269.56	435.699
1273.19	414.521
1276.82	218.908
1280.44	47.26
1284.06	124.678
1287.68	150.744
1291.3	122.807
1294.92	304.689
1298.53	585.631
1302.14	345.992
1305.76	225.65
1309.37	132.055
1312.98	30.902
1316.58	10.709
1320.19	16.434
1323.79	193.557
1327.39	360.129
1330.99	416.105
1334.59	481.453
1338.19	356.203
1341.79	150.465
1345.38	224.285
1348.97	33.104
1352.56	129.924
1356.15	382.615
1359.74	184.691
1363.32	527.014
1366.91	489.336
1370.49	502.883
1374.07	274.086
1377.65	122.107
1381.23	232.15
1384.8	198.215
1388.38	109.352
1391.95	296.762
1395.52	526.172
1399.09	608.801
1402.66	793.285
1406.22	491.502
1409.79	781.078
1413.35	360.496
1416.91	125.299
1420.47	118.006
1424.03	219.822
1427.59	73.195
1431.14	310.562
1434.69	388.502
1438.24	707.215
1441.8	768.635
1445.34	720.939
1448.89	602.26
1452.43	580.807
1455.98	389.811
1459.52	394.326
1463.06	172.896
1466.6	141.855
1470.14	445.203
1473.67	597.598
1477.2	708.732
1480.74	733.098
1484.27	757.373
1487.8	840.525
1491.32	458.053
1494.85	238.871
1498.37	173.928
1501.9	64.979
1505.42	45.068
1508.94	7.422
1512.45	0
