Measurement: Raman, 514 nm, ccw, Raman Data Processed
Mineral: Amblygonite
Rruff sample: R040006
Ideal chemistry: LiAlPO_4_F
Locality: Pala, San Diego County, California, USA
Source: University of Arizona Mineral Museum
Description: Light gray coarsely crystalline massive
Measured chemistry: LiAl_1.00_(P_1.00_O_4_)(F_0.73_(OH)_0.27_)_Î£=1_; Li assumed by stoichiometry; OH estimated by charge balance
Pin_id: l00058
Orientation: Laser parallel to (0 1 1). Fiducial mark perpendicular to laser is parallel to a [1 0 0]
Raman shift (cm-1)	intensity
114.78	0
118.956	213.306
123.129	393.51
127.3	929.944
131.469	1062.61
135.636	882.749
139.801	914.345
143.964	1013.14
148.125	1266.55
152.284	1805.87
156.441	2873.11
160.596	4029.2
164.749	4674.64
168.9	3999.83
173.049	2652.2
177.195	2006.67
181.34	1384.19
185.483	1107.02
189.624	936.039
193.762	742.627
197.899	547.458
202.034	419.12
206.166	241.405
210.297	244.459
214.425	188.29
218.552	152.851
222.676	88.081
226.799	66.071
230.919	30.301
235.038	47.085
239.154	125.742
243.269	148.191
247.381	50.189
251.492	128.874
255.6	268.783
259.707	649.042
263.811	1339.08
267.914	1989.18
272.014	2379.56
276.113	2190.2
280.209	1728.14
284.304	1542.73
288.396	1990.53
292.487	3300.01
296.575	6690.6
300.662	11411.9
304.746	11473.8
308.829	7816.1
312.909	5328.65
316.988	3441.3
321.065	1924.07
325.139	1046.96
329.212	829.988
333.283	613.154
337.351	456.304
341.418	319.01
345.483	390.941
349.546	232.759
353.606	214.791
357.665	237.02
361.722	239.43
365.777	342.009
369.83	369.438
373.881	229.18
377.93	124.741
381.977	56.664
386.023	87.187
390.066	71.318
394.107	22.07
398.146	97.107
402.184	109.796
406.219	184.664
410.252	303.471
414.284	467.136
418.313	1121.93
422.341	3416.54
426.367	5091.31
430.39	2456.18
434.412	951.121
438.432	696.07
442.45	671.034
446.466	546.08
450.48	721.19
454.492	546.355
458.502	851.522
462.51	1086.66
466.517	1461.76
470.521	2176.8
474.523	3261.76
478.524	4696.64
482.523	5501.41
486.519	4996.09
490.514	4660.66
494.507	3815.12
498.498	3029.45
502.487	2213.67
506.474	1677.76
510.459	1111.74
514.442	645.597
518.424	419.325
522.403	282.909
526.381	57.043
530.356	1.364
534.33	6.07
538.302	9.559
542.272	86.134
546.24	71.48
550.206	113.857
554.17	44.566
558.132	37.695
562.093	27.977
566.051	12.606
570.008	86.64
573.963	228.402
577.915	270.529
581.866	236.668
585.815	475.871
589.763	623.594
593.708	975.093
597.651	2276.03
601.593	4475.73
605.532	3824.82
609.47	2208.9
613.406	1588.47
617.34	1398.06
621.272	1716.44
625.202	2194.48
629.131	3161.2
633.057	4007.18
636.982	4382.81
640.905	6868.08
644.825	12393
648.744	10357.5
652.662	4781.72
656.577	2425.54
660.49	1368.99
664.402	1032.06
668.312	774.77
672.219	327.102
676.125	529.059
680.03	390.639
683.932	241.744
687.832	243.664
691.731	300.82
695.628	188.312
699.522	190.842
703.415	182.162
707.307	26.965
711.196	110.93
715.083	24.645
718.969	64.816
722.853	39.285
726.735	63.816
730.615	92.664
734.493	127.16
738.37	43.121
742.244	120.283
746.117	127.242
749.988	161.629
753.857	256.352
757.724	195.602
761.59	92.152
765.453	134.275
769.315	66.609
773.175	98.053
777.033	117.648
780.889	287.371
784.744	446.279
788.596	394.873
792.447	593.166
796.296	901.16
800.143	1198.87
803.989	1376.29
807.832	1613.44
811.674	1730.31
815.514	1646.93
819.352	1523.28
823.189	1119.39
827.023	915.266
830.856	710.898
834.687	356.314
838.516	330.512
842.343	344.484
846.169	257.922
849.992	241.506
853.814	304.352
857.634	73.07
861.453	243.895
865.269	40.18
869.084	130.99
872.897	56.318
876.708	51.441
880.517	182.721
884.325	30.475
888.13	89.143
891.934	21.4
895.737	91.672
899.537	56.396
903.336	27.15
907.132	148.361
910.928	109.779
914.721	140.885
918.512	88.102
922.302	27.766
926.09	119.182
929.876	140.91
933.66	262.996
937.443	75.596
941.224	168.68
945.003	141.871
948.78	155.188
952.556	258.633
956.33	452.213
960.102	405.934
963.872	599.801
967.64	483.816
971.407	378.021
975.172	732.459
978.935	1117.08
982.697	1461.9
986.456	2357.02
990.214	2862.6
993.971	4508.16
997.725	6984.39
1001.48	10341
1005.23	14952.8
1008.98	18387.6
1012.73	17835.1
1016.47	13733.3
1020.22	9792.22
1023.96	7000.14
1027.7	5724.71
1031.44	5174.62
1035.17	5889.74
1038.91	6406.42
1042.64	7687.96
1046.37	8440
1050.1	10058.4
1053.83	12499.4
1057.56	17290
1061.28	23796
1065.01	23454.4
1068.73	14477.2
1072.45	8009.54
1076.16	4542.64
1079.88	3157.46
1083.6	2062.16
1087.31	1477.61
1091.02	1135.51
1094.73	1110.25
1098.44	817.029
1102.14	923.973
1105.85	1440.8
1109.55	1647.94
1113.25	1674.84
1116.95	1802.75
1120.65	2096.39
1124.34	1826.06
1128.04	1414.88
1131.73	1653.4
1135.42	1440.61
1139.11	1322.86
1142.79	675.029
1146.48	67.301
1150.16	127.209
1153.84	367.115
1157.52	405.67
1161.2	190.367
1164.88	529
1168.56	342.883
1172.23	549.863
1175.9	450.879
1179.57	450.186
1183.24	747.094
1186.9	1141.59
1190.57	1413.09
1194.23	1670.44
1197.89	1463.67
1201.55	1414.07
1205.21	1461.68
1208.87	1318.64
1212.52	1005.79
1216.18	1194.42
1219.83	1001.52
1223.48	858.42
1227.13	403.783
1230.77	316.352
1234.42	385.674
1238.06	161.266
1241.7	385.957
1245.34	420.041
1248.98	365.643
1252.62	329.404
1256.25	372.432
1259.88	224.949
1263.51	393.514
1267.14	104.209
1270.77	163.9
1274.4	205.5
1278.02	535.723
1281.65	763.465
1285.27	219.783
1288.89	164.969
1292.51	59.275
1296.12	148.877
1299.74	145.699
1303.35	3.963
1306.96	226.797
1310.57	163.229
1314.18	205.607
1317.79	483.58
1321.39	350.52
1324.99	356.33
1328.59	341.188
1332.19	85.164
1335.79	211.668
1339.39	150.455
1342.98	141.701
1346.58	411.951
1350.17	541.441
1353.76	360.246
1357.35	108.666
1360.93	516.645
1364.52	183.639
1368.1	130.336
1371.68	16.146
1375.26	157.928
1378.84	431.828
1382.42	424.191
1385.99	655.344
1389.57	786.301
1393.14	727.902
1396.71	474.457
1400.28	424.477
1403.85	5.477
1407.41	448.809
1410.98	33.727
1414.54	324.93
1418.1	564.531
1421.66	622.75
1425.21	529.973
1428.77	465.602
1432.33	483.262
1435.88	528.023
1439.43	188.293
1442.98	528.094
1446.53	455.195
1450.07	756.473
1453.62	616.746
1457.16	567.828
1460.7	821.109
1464.24	1097.56
1467.78	715.297
1471.32	945.945
1474.85	505.426
1478.38	199.676
1481.91	436.488
1485.44	252.914
1488.97	428.77
1492.5	199.086
1496.03	202.266
1499.55	497.793
1503.07	487.535
1506.59	873.223
1510.11	478.512
1513.63	481.238
