Measurement: Raman, 514 nm, ccw, Raman Data Processed
Mineral: Amblygonite
Rruff sample: R040006
Ideal chemistry: LiAlPO_4_F
Locality: Pala, San Diego County, California, USA
Source: University of Arizona Mineral Museum
Description: Light gray coarsely crystalline massive
Measured chemistry: LiAl_1.00_(P_1.00_O_4_)(F_0.73_(OH)_0.27_)_Î£=1_; Li assumed by stoichiometry; OH estimated by charge balance
Pin_id: l00485
Orientation: Laser parallel to -a* (-1 0 0). Fiducial mark perpendicular to laser is parallel to -b [0 -1 0]
Raman shift (cm-1)	intensity
110.603	0
114.78	364.143
118.956	1240.16
123.129	2715.44
127.3	4834.15
131.469	5443.81
135.636	3648.69
139.801	1957.81
143.964	923.402
148.125	614.7
152.284	334.23
156.441	264.56
160.596	321.654
164.749	520.909
168.9	544.025
173.049	593.24
177.195	541.067
181.34	452.888
185.483	295.383
189.624	306.634
193.762	195.764
197.899	188.418
202.034	83.056
206.166	17.79
210.297	14.452
214.425	4.808
218.552	11.409
222.676	36.385
226.799	55.911
230.919	109.125
235.038	78.056
239.154	93.702
243.269	50.191
247.381	21.522
251.492	48.396
255.6	38.881
259.707	103.223
263.811	142.701
267.914	343.609
272.014	591.842
276.113	937.472
280.209	1332.57
284.304	2222.34
288.396	3654.23
292.487	6367.28
296.575	11880.9
300.662	19875
304.746	22459.1
308.829	18353.2
312.909	14097
316.988	9540.65
321.065	6204.21
325.139	4957.53
329.212	4280.49
333.283	3582.82
337.351	3114.21
341.418	2504.79
345.483	2365.08
349.546	2275.51
353.606	2266.13
357.665	2436.94
361.722	2517.92
365.777	2659.06
369.83	2757.77
373.881	2536.26
377.93	2080.91
381.977	1781.68
386.023	1365.18
390.066	1095.03
394.107	772.732
398.146	682.962
402.184	540.412
406.219	339.374
410.252	439.89
414.284	346.561
418.313	370.968
422.341	794.42
426.367	1467.81
430.39	871.124
434.412	574.514
438.432	437.96
442.45	246.469
446.466	205.335
450.48	164.677
454.492	212.978
458.502	66.867
462.51	210.876
466.517	264.885
470.521	198.91
474.523	272.879
478.524	316.791
482.523	420.645
486.519	344.438
490.514	578.18
494.507	631.87
498.498	875.52
502.487	729.135
506.474	642.726
510.459	536.286
514.442	319.812
518.424	343.298
522.403	76.739
526.381	150.131
530.356	93.498
534.33	66.838
538.302	20.106
542.272	36.056
546.24	3.053
550.206	129.918
554.17	145.683
558.132	90.118
562.093	127.285
566.051	18.568
570.008	35.594
573.963	175.882
577.915	205.989
581.866	88.325
585.815	123.028
589.763	268.714
593.708	410.589
597.651	562.687
601.593	984.166
605.532	1068.89
609.47	825.55
613.406	811.117
617.34	943.127
621.272	1353.63
625.202	1979.64
629.131	2980.06
633.057	4240.3
636.982	5950.35
640.905	10830.2
644.825	21239.9
648.744	20419.4
652.662	9648.75
656.577	4627.89
660.49	2586.85
664.402	1775.63
668.312	1214.22
672.219	792.638
676.125	730.87
680.03	698.917
683.932	446.787
687.832	244.477
691.731	211.206
695.628	102.483
699.522	247.936
703.415	199.442
707.307	210.002
711.196	48.362
715.083	96.644
718.969	49.984
722.853	244.409
726.735	208.139
730.615	50.874
734.493	117.919
738.37	56.749
742.244	20.622
746.117	110.72
749.988	114.168
753.857	2.197
757.724	19.181
761.59	83.513
765.453	285.996
769.315	128.522
773.175	89.567
777.033	41.91
780.889	173.22
784.744	344.344
788.596	315.387
792.447	196.354
796.296	337.25
800.143	538.082
803.989	638.855
807.832	929.58
811.674	830.258
815.514	770.893
819.352	801.496
823.189	672.074
827.023	612.631
830.856	573.172
834.687	313.709
838.516	94.242
842.343	244.779
846.169	145.354
849.992	245.551
853.814	306.051
857.634	6.904
861.453	117.895
865.269	124.871
869.084	96.471
872.897	271.855
876.708	56.504
880.517	55.904
884.325	92.652
888.13	23.02
891.934	204.859
895.737	193.711
899.537	263.682
903.336	23.723
907.132	16.301
910.928	248.402
914.721	371.494
918.512	329.424
922.302	188.484
926.09	284.027
929.876	215.322
933.66	374.053
937.443	458.418
941.224	503.027
945.003	407.891
948.78	583.01
952.556	644.572
956.33	683.986
960.102	869.85
963.872	1055.97
967.64	1022.35
971.407	949.016
975.172	1405.97
978.935	1823.2
982.697	2510.71
986.456	3928.51
990.214	5246.6
993.971	8115.1
997.725	12206.2
1001.48	18504.2
1005.23	27087.1
1008.98	33866.8
1012.73	33572.7
1016.47	26623
1020.22	18734.3
1023.96	12598.4
1027.7	9191.42
1031.44	6874.95
1035.17	6477.94
1038.91	6421.37
1042.64	7403.04
1046.37	8288.43
1050.1	10416.4
1053.83	13770.9
1057.56	19776.6
1061.28	28212.1
1065.01	29387.9
1068.73	19017.5
1072.45	10653.6
1076.16	5790.46
1079.88	3947.6
1083.6	2775.09
1087.31	2043.57
1091.02	1311.71
1094.73	1182.34
1098.44	721.141
1102.14	509.951
1105.85	548.855
1109.55	858.324
1113.25	737.551
1116.95	537.453
1120.65	680.562
1124.34	600.578
1128.04	310.477
1131.73	422.584
1135.42	464.902
1139.11	675.207
1142.79	465.943
1146.48	37.207
1150.16	181.809
1153.84	167.01
1157.52	109.324
1161.2	34.135
1164.88	188.371
1168.56	375.178
1172.23	275.559
1175.9	125.115
1179.57	25.373
1183.24	90.908
1186.9	225.377
1190.57	366.945
1194.23	342.588
1197.89	384.799
1201.55	362.949
1205.21	308.109
1208.87	107.385
1212.52	43.592
1216.18	105.879
1219.83	296.418
1223.48	415.496
1227.13	284.404
1230.77	504.129
1234.42	474.738
1238.06	3.947
1241.7	92.68
1245.34	161.918
1248.98	240.914
1252.62	278.17
1256.25	405.221
1259.88	352.297
1263.51	418.805
1267.14	344.965
1270.77	225.818
1274.4	61.781
1278.02	253.049
1281.65	348.064
1285.27	224.662
1288.89	349.969
1292.51	390.158
1296.12	255.572
1299.74	108.344
1303.35	159.072
1306.96	23.502
1310.57	289.068
1314.18	199.688
1317.79	365.494
1321.39	492.18
1324.99	566.758
1328.59	362.857
1332.19	228.293
1335.79	26.84
1339.39	96.217
1342.98	60
1346.58	153.182
1350.17	295.42
1353.76	337.762
1357.35	286.426
1360.93	528.42
1364.52	291.332
1368.1	363.357
1371.68	103.41
1375.26	124.074
1378.84	127.479
1382.42	138.865
1385.99	529.449
1389.57	665.244
1393.14	672.891
1396.71	478.752
1400.28	353.994
1403.85	329.994
1407.41	352.787
1410.98	24.066
1414.54	76.244
1418.1	405.039
1421.66	351.002
1425.21	428.156
1428.77	670.486
1432.33	660.717
1435.88	718.492
1439.43	451.971
1442.98	457.521
1446.53	355.352
1450.07	272.623
1453.62	227.809
1457.16	534.164
1460.7	594.668
1464.24	827.855
1467.78	607.807
1471.32	781.732
1474.85	632.574
1478.38	499.549
1481.91	460.934
1485.44	347.498
1488.97	618.666
1492.5	132.99
1496.03	77.166
1499.55	139.566
1503.07	286.156
1506.59	690.178
