Measurement: Raman, 514 nm, ccw, Raman Data Processed
Mineral: Amesite
Rruff sample: R070132
Ideal chemistry: Mg_2_Al(AlSiO_5_)(OH)_4_
Locality: Saranovskii mine, Saranovskaya Village, Gornozavodskii area, Permskaya Oblast', Middle Urals, Russia
Source: Michael Scott
Description: Purple transparent hexagonal prisms, polytype 2H2
Measured chemistry: (Mg_1.87_[box]_0.05_Cr_0.05_Fe^2+^_0.03_)_Σ=2_(Al_0.98_Cr_0.02_)_Σ=1_(Si_1.05_Al_0.95_)O_5_(OH)_4_ ; OH estimated by difference
Pin_id: M00194
Raman shift (cm-1)	intensity
116.656	0
121.596	38.9092
126.533	1091.74
131.467	3438.66
136.399	3640.32
141.328	1203.96
146.254	322.862
151.178	136.146
156.098	68.1191
161.017	275.456
165.932	102.106
170.845	274.069
175.755	797.185
180.662	1881.2
185.567	5220.65
190.469	11708.8
195.368	21076.2
200.264	27199.1
205.158	27035.5
210.049	16365.4
214.937	6286.5
219.823	1988.96
224.706	576.167
229.586	1147.47
234.464	5858.05
239.339	15391.9
244.211	31334
249.081	16173
253.947	6774.03
258.812	9161.86
263.673	12430.3
268.532	21304.8
273.388	31535.2
278.241	29758.3
283.092	25504.4
287.94	16818.8
292.785	6509.88
297.628	883.414
302.468	556.07
307.305	443.31
312.14	1349.17
316.972	3394.91
321.801	3778.34
326.628	8225.56
331.451	6477.43
336.273	5322.69
341.091	7853.94
345.907	7911.33
350.72	5191.41
355.531	1258.57
360.339	736.449
365.144	1892.66
369.947	5454.39
374.746	11553.5
379.544	15653
384.338	11906.6
389.13	10811.3
393.919	12220
398.706	17161.6
403.49	34006.9
408.271	47973.9
413.05	39939.8
417.826	20495.5
422.599	7297.1
427.37	2788.6
432.138	1916.05
436.903	2459.44
441.666	3309.78
446.426	3615.02
451.183	4231.37
455.938	4453.39
460.69	4479.85
465.44	5762.1
470.187	10973.5
474.931	19316.6
479.672	19933.9
484.411	14390.1
489.148	11932.4
493.881	10411.3
498.612	5757.23
503.341	3189.43
508.066	2685.15
512.789	3400.41
517.51	5445.44
522.228	9925.16
526.943	15949.5
531.656	18415.3
536.365	14525.6
541.073	9604.17
545.778	6973.04
550.48	5591.11
555.179	4782.28
559.876	3877.49
564.57	2941.64
569.262	2651.66
573.951	1696.46
578.637	724.952
583.321	399.063
588.002	100.85
592.68	24.3232
597.356	241.279
602.03	298.621
606.7	319.198
611.368	325.144
616.034	266.526
620.697	175.9
625.357	54.831
630.014	36.7773
634.67	50.9277
639.322	245.74
643.972	439.19
648.619	469.639
653.264	807.879
657.906	1159.26
662.545	1693.59
667.182	2416.01
671.816	4216.12
676.448	7817.89
681.077	12601.3
685.703	13985.4
690.327	10886.1
694.948	11688.4
699.567	17200.3
704.183	26500.8
708.797	28578.9
713.407	18366.7
718.016	10031
722.621	5819.91
727.225	3734.46
731.825	2576.52
736.423	1894.96
741.019	1342.3
745.611	1088.35
750.202	806.312
754.789	605.609
759.374	413.682
763.957	527.219
768.537	662.847
773.114	911.487
777.689	1493.38
782.261	2028.94
786.831	2333.57
791.398	2221.95
795.963	2174.88
800.524	2446.38
805.084	3411.48
809.641	4839.22
814.195	7379.62
818.747	10758.7
823.296	14161.5
827.842	13220.1
832.386	8638.49
836.928	5038.68
841.467	3102.73
846.003	2049.26
850.537	1187.52
855.068	758.316
859.597	446.098
864.123	324.927
868.646	98.9981
873.167	406.149
877.686	352.81
882.202	292.49
886.715	331.122
891.226	57.9307
895.734	10.5254
900.24	33.6143
904.743	87.6797
909.244	15.8164
913.742	54.2275
918.238	50.3672
922.731	12.4258
927.221	20.6318
931.709	321.203
936.195	716.115
940.678	1146.38
945.158	2305
949.636	4730.96
954.111	7512.11
958.584	8199.03
963.054	9500.15
967.522	10418.6
971.987	10282.5
976.45	10966.8
980.91	11679.4
985.368	8412.3
989.823	4633.59
994.275	2824.23
998.725	2690.29
1003.17	3515.62
1007.62	5264.44
1012.06	5827.12
1016.5	4292.73
1020.94	2474.03
1025.37	1524.73
1029.81	974.225
1034.23	1091.38
1038.66	1042.53
1043.09	1082.16
1047.51	918.467
1051.93	637.538
1056.35	534.465
1060.76	634.993
1065.17	613.92
1069.58	649.467
1073.99	663.899
1078.4	742.38
1082.8	535.695
1087.2	339.469
1091.6	231.879
1095.99	215.123
1100.38	67.9453
1104.77	77.0312
1109.16	77.4531
1113.55	30.5195
1117.93	204.099
1122.31	180.599
1126.68	6.69922
1131.06	159.756
1135.43	22.8828
1139.8	101.432
1144.17	58.8184
1148.54	16.8867
1152.9	87.6426
1157.26	36.3809
1161.62	3.12793
1165.97	62.4062
1170.32	19.2236
1174.67	9.48926
1179.02	62.1855
1183.37	103.522
1187.71	35.9766
1192.05	29.0312
1196.39	33.9785
1200.72	55.5176
1205.05	59.4473
1209.38	82.6641
1213.71	140.185
1218.04	25.8057
1222.36	84.1885
1226.68	63.5664
1231	117.819
1235.31	237.186
1239.63	95.6914
1243.94	159.595
1248.25	263.787
1252.55	84.957
1256.86	119.978
1261.15	171.748
1265.45	294.463
1269.75	171.894
1274.04	282.157
1278.33	209.831
1282.62	82.7158
1286.91	153.653
1291.19	154.312
1295.47	204.371
1299.75	173.584
1304.03	231.246
1308.3	181.531
1312.57	148.211
1316.84	111.644
1321.11	117.622
1325.37	141.739
1329.63	157.553
1333.89	69.54
1338.15	172.542
1342.4	134.184
1346.65	144.055
1350.9	195.69
1355.15	45.9658
1359.4	102.091
1363.64	27.3779
1367.88	50.3711
1372.12	113.284
1376.35	86.2012
1380.58	128.474
1384.81	129.888
1389.04	202.811
1393.26	55.3584
1397.49	142.619
1401.71	62.416
1405.92	135.887
1410.14	115.161
1414.35	72.7207
1418.56	53.0137
1422.77	134.219
1426.98	110.58
1431.18	14.4102
1435.38	15.2383
1439.58	100.517
1443.78	109.651
1447.97	34.2705
1452.16	9.40918
1456.35	120.25
1460.54	150.356
1464.72	184.444
1468.9	90.8486
1473.08	133.115
1477.26	109.269
1481.43	112.269
1485.6	175.308
1489.77	6.10352
1493.94	52.0635
1498.1	219.702
1502.27	65.8955
1506.43	110.049
1510.58	84.8975
1514.74	209.453
1518.89	144.493
1523.04	101.325
1527.19	110.112
1531.34	61.6445
1535.48	108.04
1539.62	14.9199
1543.76	74.918
1547.89	84.7773
1552.03	211.512
1556.16	201.329
1560.29	216.966
1564.41	0
