Measurement: Raman, 514 nm, ccw, Raman Data Processed
Mineral: Amesite
Rruff sample: R070132
Ideal chemistry: Mg_2_Al(AlSiO_5_)(OH)_4_
Locality: Saranovskii mine, Saranovskaya Village, Gornozavodskii area, Permskaya Oblast', Middle Urals, Russia
Source: Michael Scott
Description: Purple transparent hexagonal prisms, polytype 2H2
Measured chemistry: (Mg_1.87_[box]_0.05_Cr_0.05_Fe^2+^_0.03_)_Σ=2_(Al_0.98_Cr_0.02_)_Σ=1_(Si_1.05_Al_0.95_)O_5_(OH)_4_ ; OH estimated by difference
Pin_id: M00364
Raman shift (cm-1)	intensity
147.485	0
152.408	85.7022
157.328	78.7022
162.246	69.3691
167.16	52.2412
172.073	54.6641
176.982	331.81
181.888	849.015
186.792	2050.57
191.694	4553.49
196.592	8044.27
201.488	13773.4
206.381	23263
211.271	40485.4
216.159	42305.3
221.044	18571
225.926	6395.51
230.806	3073.49
235.683	1894.58
240.557	2119.31
245.429	2296.66
250.298	2142.45
255.164	3357.56
260.027	3167.85
264.888	1439.02
269.746	1279.89
274.601	1523.44
279.454	1591.66
284.304	1930.52
289.151	2383.97
293.996	1213.4
298.838	209.783
303.677	488.81
308.514	258.378
313.348	217.595
318.179	435.35
323.008	1011.76
327.834	1833.75
332.657	2222.3
337.478	4811.75
342.295	2883
347.111	2235.1
351.923	1255.08
356.733	760.965
361.54	716.742
366.345	843.4
371.147	568.144
375.946	1371.73
380.743	2886.99
385.537	2757.32
390.328	3333.67
395.116	3621.01
399.902	3491.28
404.686	7391.47
409.466	11989.5
414.244	14980.4
419.019	24848.1
423.792	17231.5
428.562	6813.7
433.329	4665.6
438.094	5336.19
442.856	4296.34
447.616	3472.06
452.372	3617.15
457.126	3210.33
461.878	2514.02
466.627	2798.35
471.373	5345.01
476.116	9751.89
480.857	12781.3
485.596	15236.1
490.331	16629.5
495.064	14092.3
499.795	6328.48
504.522	2937.94
509.247	1895.65
513.97	1997.61
518.69	2700.82
523.407	4301.31
528.121	7449.03
532.833	10698
537.543	11494.1
542.249	8991.36
546.953	6561.79
551.655	4523.34
556.354	2987.97
561.05	1898.68
565.743	1081.43
570.434	555.217
575.123	303.012
579.808	134.794
584.491	62.458
589.172	2.86914
593.85	120.907
598.525	101.283
603.197	290.656
607.868	83.6914
612.535	173.825
617.2	1033.33
621.862	2504.74
626.522	1702.2
631.178	661.783
635.833	317.552
640.485	226.435
645.134	462.168
649.78	512.852
654.424	577.394
659.066	645.682
663.704	820.7
668.341	1219.44
672.974	2590.91
677.605	4623.09
682.234	7186.98
686.859	7132.57
691.483	5359.88
696.103	6370.89
700.721	12195.6
705.337	16391
709.949	13319.1
714.56	6890.95
719.167	3496.48
723.772	1958.31
728.375	1282.1
732.975	810.106
737.572	519.212
742.167	224.06
746.759	58.6611
751.349	44.375
755.936	39.3174
760.52	15.6543
765.102	4.25293
769.681	148.069
774.258	18.7031
778.832	266.657
783.404	535.68
787.973	964.975
792.539	1054.22
797.103	926.994
801.665	967.795
806.223	1509.63
810.779	1835.5
815.333	2002.43
819.884	2357.41
824.433	2074.46
828.979	1825.86
833.522	1417.83
838.063	1046.19
842.601	710.713
847.137	341.37
851.67	323.394
856.2	228.226
860.729	176.533
865.254	317.391
869.777	40.9531
874.297	189.784
878.815	506.048
883.33	1034.76
887.843	934.385
892.353	598.245
896.861	287.266
901.366	61.5156
905.869	117.752
910.369	106.7
914.866	83.5713
919.361	32.8477
923.854	51.7705
928.344	234.347
932.831	703.689
937.316	1425.26
941.798	1311.04
946.278	1222.02
950.755	1848.21
955.23	2398.61
959.702	2375.2
964.171	3122.07
968.638	5522.02
973.103	6414.87
977.565	6838.76
982.025	7332.73
986.482	5050.24
990.936	2827.75
995.388	1808.7
999.837	1748.71
1004.28	2482.76
1008.73	3692.34
1013.17	5712.64
1017.61	4844.77
1022.05	2606.34
1026.48	1265.81
1030.91	626.653
1035.34	591.564
1039.77	261.175
1044.19	385.771
1048.62	282.904
1053.03	209.761
1057.45	125.338
1061.87	275.733
1066.28	198.834
1070.69	236.28
1075.09	94.9189
1079.5	327.243
1083.9	236.99
1088.3	198.181
1092.69	117.603
1097.09	68.3643
1101.48	59.9355
1105.87	40.4805
1110.26	35.4922
1114.64	5.20508
1119.02	43.3916
1123.4	194.648
1127.78	79.5869
1132.15	167.683
1136.53	67.6269
1140.89	47.9434
1145.26	114.677
1149.63	12.9873
1153.99	46.706
1158.35	51.8935
1162.7	149.665
1167.06	186.131
1171.41	55.2549
1175.76	112.067
1180.11	82.5586
1184.45	172.912
1188.79	197.102
1193.13	110.061
1197.47	154.685
1201.81	151.008
1206.14	171.065
1210.47	43.8496
1214.79	181.318
1219.12	156.523
1223.44	180.48
1227.76	153.112
1232.08	321.549
1236.39	255.469
1240.7	178.783
1245.02	257.386
1249.32	318.025
1253.63	282.82
1257.93	248.653
1262.23	257.264
1266.53	433.216
1270.82	511.653
1275.12	303.966
1279.41	315.037
1283.69	320.792
1287.98	295.785
1292.26	289.195
1296.54	292.04
1300.82	345.745
1305.1	258.304
1309.37	590.806
1313.64	347.022
1317.91	484.84
1322.17	423.795
1326.44	357.951
1330.7	357.696
1334.96	288.972
1339.21	201.931
1343.47	193.19
1347.72	248.372
1351.97	177.138
1356.21	46.9453
1360.46	146.567
1364.7	16.7363
1368.94	241.441
1373.17	198.857
1377.41	189.222
1381.64	125.529
1385.87	216.144
1390.1	216.621
1394.32	156.662
1398.54	78.1728
1402.76	299.358
1406.98	88.4814
1411.19	26.6592
1415.41	107.283
1419.62	95.1338
1423.82	104.379
1428.03	131.158
1432.23	138.316
1436.43	191.068
1440.63	378.464
1444.82	497.317
1449.02	488.391
1453.21	548.625
1457.4	623.086
1461.58	675.685
1465.77	465.91
1469.95	203.754
1474.12	198.54
1478.3	266.291
1482.47	266.804
1486.64	82.0938
1490.81	63.3184
1494.98	45.042
1499.14	111.286
1503.31	27.3076
1507.47	160.027
1511.62	16.1895
1515.78	0.748047
1519.93	22.3809
1524.08	148.06
1528.23	227.005
1532.37	111.603
1536.51	209.41
1540.65	311.214
1544.79	78.1397
1548.93	49.208
1553.06	351.322
1557.19	175.5
1561.32	225.448
