Measurement: Raman, 514 nm, ccw, Raman Data Processed
Mineral: Amesite
Rruff sample: R070132
Ideal chemistry: Mg_2_Al(AlSiO_5_)(OH)_4_
Locality: Saranovskii mine, Saranovskaya Village, Gornozavodskii area, Permskaya Oblast', Middle Urals, Russia
Source: Michael Scott
Description: Purple transparent hexagonal prisms, polytype 2H2
Measured chemistry: (Mg_1.87_[box]_0.05_Cr_0.05_Fe^2+^_0.03_)_Σ=2_(Al_0.98_Cr_0.02_)_Σ=1_(Si_1.05_Al_0.95_)O_5_(OH)_4_ ; OH estimated by difference
Pin_id: M00194
Raman shift (cm-1)	intensity
111.713	0
116.656	579.735
121.596	147.457
126.533	150.892
131.467	609.247
136.399	845.861
141.328	377.674
146.254	364.465
151.178	391.828
156.098	243.063
161.017	64.1758
165.932	56.5042
170.845	19.3323
175.755	97.2986
180.662	165.069
185.567	180.774
190.469	184.083
195.368	663.749
200.264	692.563
205.158	800.95
210.049	465.582
214.937	87.7617
219.823	171.118
224.706	242.074
229.586	979.524
234.464	3570.96
239.339	12718.4
244.211	41715.8
249.081	18562.2
253.947	7587.37
258.812	8946.09
263.673	13945
268.532	30454.7
273.388	53571.3
278.241	45413.7
283.092	35891.8
287.94	21223.8
292.785	7881.98
297.628	2041.08
302.468	317.117
307.305	3.81152
312.14	1029.92
316.972	1792.3
321.801	3275.67
326.628	7737.25
331.451	6212.71
336.273	2796.89
341.091	4750.61
345.907	4858.49
350.72	2799.31
355.531	553.841
360.339	576.989
365.144	1126.55
369.947	4228.43
374.746	13561.6
379.544	20566.9
384.338	13696.4
389.13	11706
393.919	11946.5
398.706	12815
403.49	28191.4
408.271	44412.7
413.05	42536.9
417.826	19761
422.599	6555.94
427.37	2438.81
432.138	1232.59
436.903	1298.28
441.666	2208.9
446.426	3123.43
451.183	3352.22
455.938	2964.71
460.69	3283.81
465.44	2945.43
470.187	5102.07
474.931	11588.5
479.672	12507.6
484.411	8307.71
489.148	6217.33
493.881	4902.69
498.612	2080.21
503.341	752.383
508.066	617.65
512.789	804.085
517.51	1469.11
522.228	3400.66
526.943	6983.68
531.656	8920.12
536.365	7010.91
541.073	5075.02
545.778	3948.37
550.48	3738.93
555.179	3061.63
559.876	1729.42
564.57	1430.24
569.262	1863.05
573.951	1442.79
578.637	658.396
583.321	429.823
588.002	145.013
592.68	5.09692
597.356	162.087
602.03	216.055
606.7	152.082
611.368	213.41
616.034	167.276
620.697	34.4607
625.357	65.2549
630.014	3.02075
634.67	70.6553
639.322	84.9746
643.972	223.077
648.619	303.303
653.264	401.723
657.906	570.334
662.545	879.117
667.182	1267.06
671.816	1993.13
676.448	3680.34
681.077	7112.66
685.703	9017.08
690.327	6386.6
694.948	6668.2
699.567	9771.89
704.183	16621.6
708.797	18910.5
713.407	11658.4
718.016	6441.33
722.621	3604.36
727.225	2189.46
731.825	1379.49
736.423	1007.62
741.019	700.715
745.611	475.784
750.202	288.24
754.789	219.996
759.374	86.3962
763.957	114.194
768.537	176.767
773.114	349.38
777.689	640.133
782.261	855.77
786.831	953.263
791.398	786.85
795.963	760.114
800.524	867.072
805.084	982.744
809.641	1492.15
814.195	2181.31
818.747	2866.24
823.296	3139.96
827.842	2824.49
832.386	2056.86
836.928	1697.08
841.467	1298.19
846.003	948.231
850.537	651.183
855.068	375.072
859.597	198.921
864.123	139.749
868.646	147.656
873.167	255.101
877.686	353.457
882.202	252.112
886.715	155.094
891.226	92.281
895.734	52.0181
900.24	52.9939
904.743	18.5569
909.244	28.3545
913.742	38.342
918.238	52.3145
922.731	59.1848
927.221	168.27
931.709	398.575
936.195	604.084
940.678	1158.81
945.158	2399.75
949.636	5536.9
954.111	9158.81
958.584	6894.82
963.054	4028.61
967.522	2837.62
971.987	2672.96
976.45	2511.78
980.91	2801.45
985.368	2260.34
989.823	1449.45
994.275	919.779
998.725	1028.26
1003.17	1511.98
1007.62	2718.36
1012.06	3469.78
1016.5	2612.52
1020.94	1638.64
1025.37	925.193
1029.81	712.96
1034.23	653.065
1038.66	789.168
1043.09	771.328
1047.51	673.61
1051.93	475.642
1056.35	319.271
1060.76	306.935
1065.17	310.088
1069.58	423.682
1073.99	462.62
1078.4	496.96
1082.8	362.144
1087.2	173.362
1091.6	104.71
1095.99	54.5276
1100.38	38.4785
1104.77	28.2373
1109.16	22.8489
1113.55	75.4517
1117.93	72.8013
1122.31	108.059
1126.68	100.486
1131.06	37.6157
1135.43	15.3899
1139.8	27.0005
1144.17	5.32886
1148.54	4.12134
1152.9	37.697
1157.26	32.7734
1161.62	32.3486
1165.97	71.875
1170.32	23.0288
1174.67	47.0564
1179.02	0.008789
1183.37	76.7661
1187.71	89.1689
1192.05	3.60742
1196.39	15.7585
1200.72	7.50708
1205.05	38.0515
1209.38	49.657
1213.71	48.845
1218.04	75.0591
1222.36	88.1736
1226.68	68.3057
1231	83.0222
1235.31	94.6726
1239.63	105.468
1243.94	86.4819
1248.25	144.788
1252.55	124.883
1256.86	129.17
1261.15	70.978
1265.45	85.2798
1269.75	75.9456
1274.04	179.284
1278.33	117.774
1282.62	74.5903
1286.91	122.844
1291.19	48.6216
1295.47	144.45
1299.75	129.237
1304.03	115.04
1308.3	101.935
1312.57	161.863
1316.84	87.468
1321.11	95.0811
1325.37	131.287
1329.63	105.263
1333.89	50.0918
1338.15	77.3242
1342.4	103.496
1346.65	69.1521
1350.9	25.1636
1355.15	45.3809
1359.4	18.0862
1363.64	64.7083
1367.88	89.3384
1372.12	81.4756
1376.35	84.7803
1380.58	55.8049
1384.81	67.4683
1389.04	23.1804
1393.26	108.026
1397.49	65.9561
1401.71	100.52
1405.92	75.7986
1410.14	40.0686
1414.35	49.3669
1418.56	41.8464
1422.77	69.8303
1426.98	10.8501
1431.18	11.6284
1435.38	36.7515
1439.58	1.06494
1443.78	40.1111
1447.97	70.6006
1452.16	13.9014
1456.35	20.199
1460.54	15.3689
1464.72	37.675
1468.9	49.1428
1473.08	5.65942
1477.26	43.1826
1481.43	65.2263
1485.6	32.4424
1489.77	42.334
1493.94	110.697
1498.1	69.6963
1502.27	55.4963
1506.43	29.9273
1510.58	60.9199
1514.74	107.487
1518.89	2.09522
1523.04	84.3914
1527.19	39.3403
1531.34	47.0054
1535.48	87.3794
1539.62	45.7861
1543.76	92.6604
1547.89	97.1646
1552.03	127.021
1556.16	138.668
1560.29	52.125
1564.41	0
