Measurement: Raman, 514 nm, ccw, Raman Data Processed
Mineral: Amesite
Rruff sample: R070132
Ideal chemistry: Mg_2_Al(AlSiO_5_)(OH)_4_
Locality: Saranovskii mine, Saranovskaya Village, Gornozavodskii area, Permskaya Oblast', Middle Urals, Russia
Source: Michael Scott
Description: Purple transparent hexagonal prisms, polytype 2H2
Measured chemistry: (Mg_1.87_[box]_0.05_Cr_0.05_Fe^2+^_0.03_)_Σ=2_(Al_0.98_Cr_0.02_)_Σ=1_(Si_1.05_Al_0.95_)O_5_(OH)_4_ ; OH estimated by difference
Pin_id: M00194
Raman shift (cm-1)	intensity
116.656	0
121.596	110.009
126.533	955.818
131.467	3548
136.399	3002.17
141.328	952.24
146.254	93.8721
151.178	12.4248
156.098	46.2022
161.017	80.7324
165.932	170.734
170.845	512.472
175.755	1068.46
180.662	3114.96
185.567	7489.81
190.469	15996.6
195.368	28388.1
200.264	39917.6
205.158	43276.1
210.049	28982.3
214.937	12386.6
219.823	4846.67
224.706	1881.81
229.586	1751.24
234.464	4847.12
239.339	11078.4
244.211	26497
249.081	15740.6
253.947	4913.41
258.812	4158.77
263.673	5228.08
268.532	8476.01
273.388	13917.4
278.241	14626.9
283.092	14194.9
287.94	10363.7
292.785	3916.83
297.628	641.97
302.468	587.125
307.305	503.985
312.14	119.574
316.972	1596.8
321.801	2642.68
326.628	5161.31
331.451	5108.41
336.273	5449.37
341.091	8006.09
345.907	6073.01
350.72	2961.8
355.531	494.906
360.339	420.794
365.144	1532.74
369.947	4344.22
374.746	8238.12
379.544	12636.4
384.338	9892.91
389.13	9103.65
393.919	10324.5
398.706	14720.5
403.49	29384.4
408.271	45236.3
413.05	39853.3
417.826	22651.4
422.599	9033.64
427.37	4400.97
432.138	2751.38
436.903	2811.85
441.666	3385.42
446.426	3894.33
451.183	4240.19
455.938	4919.91
460.69	5312.34
465.44	6973.86
470.187	12495.4
474.931	21725
479.672	23686.5
484.411	17724.1
489.148	14723.5
493.881	12122.8
498.612	7343.3
503.341	4132.71
508.066	3678.72
512.789	4140.19
517.51	6452.52
522.228	11176.9
526.943	18389.8
531.656	21605.2
536.365	17125
541.073	11409.3
545.778	7768.85
550.48	5546.69
555.179	4493.75
559.876	3664.97
564.57	3399.44
569.262	2640.67
573.951	1502.02
578.637	776.307
583.321	563.463
588.002	93.6641
592.68	29.1162
597.356	109.82
602.03	216.074
606.7	168.108
611.368	156.657
616.034	261.531
620.697	98.2012
625.357	33.5029
630.014	62.5068
634.67	79.8135
639.322	166.995
643.972	146.922
648.619	311.217
653.264	510.981
657.906	864.061
662.545	1184.44
667.182	1977.92
671.816	3455.65
676.448	6646.56
681.077	11254.6
685.703	14333.9
690.327	10919.3
694.948	10233.8
699.567	14122.4
704.183	21408.2
708.797	24512.1
713.407	16459.1
718.016	9264.24
722.621	5445.48
727.225	3308.27
731.825	2334.8
736.423	1631.71
741.019	1121.01
745.611	957.75
750.202	637.126
754.789	703.896
759.374	486.431
763.957	345.222
768.537	423.151
773.114	622.026
777.689	1166.23
782.261	1605.88
786.831	1773.37
791.398	1619.55
795.963	1362.46
800.524	1233.2
805.084	1643.67
809.641	2436.92
814.195	3569.97
818.747	4611.82
823.296	5937.88
827.842	5820.04
832.386	3820.45
836.928	2248.76
841.467	1279.98
846.003	772.142
850.537	505.26
855.068	219.358
859.597	68.5478
864.123	118.579
868.646	198.765
873.167	40.4385
877.686	332.979
882.202	317.951
886.715	387.067
891.226	264.665
895.734	43.0772
900.24	99.3242
904.743	20.4932
909.244	15.5977
913.742	56.6562
918.238	122.124
922.731	10.1377
927.221	9.74219
931.709	222.54
936.195	500.117
940.678	689.947
945.158	1076.22
949.636	1880.78
954.111	3770.59
958.584	6256.67
963.054	10207.1
967.522	11754.8
971.987	10876.7
976.45	11331
980.91	12106.4
985.368	8844.2
989.823	4769.22
994.275	3030.51
998.725	2859.07
1003.17	3824.24
1007.62	5467.27
1012.06	5908.69
1016.5	4274.06
1020.94	2500.41
1025.37	1464.94
1029.81	1075.1
1034.23	686.96
1038.66	873.282
1043.09	912.868
1047.51	724.494
1051.93	598.252
1056.35	550.456
1060.76	497.309
1065.17	542.958
1069.58	560.293
1073.99	600.405
1078.4	505.307
1082.8	416.132
1087.2	382.279
1091.6	201.698
1095.99	219.09
1100.38	272.915
1104.77	240.417
1109.16	247.681
1113.55	97.9766
1117.93	173.269
1122.31	139.648
1126.68	255.789
1131.06	149.821
1135.43	69.9727
1139.8	63.4551
1144.17	12.875
1148.54	56.5283
1152.9	9.87598
1157.26	137.578
1161.62	104.831
1165.97	78.2627
1170.32	4.61133
1174.67	103.476
1179.02	79.6211
1183.37	56.8828
1187.71	139.181
1192.05	98.5889
1196.39	6.45019
1200.72	131.149
1205.05	0.980469
1209.38	83.4238
1213.71	161.363
1218.04	167.83
1222.36	29.1885
1226.68	105.821
1231	119.659
1235.31	182.055
1239.63	192.121
1243.94	313.391
1248.25	98.0625
1252.55	96.8223
1256.86	158.899
1261.15	92.5498
1265.45	208.974
1269.75	211.991
1274.04	190.115
1278.33	84.207
1282.62	20.6436
1286.91	237.09
1291.19	123.417
1295.47	188.731
1299.75	86.25
1304.03	134.132
1308.3	218.352
1312.57	143.211
1316.84	104.871
1321.11	160.977
1325.37	163.735
1329.63	141.684
1333.89	201.71
1338.15	102.406
1342.4	179.846
1346.65	148.658
1350.9	223.376
1355.15	173.93
1359.4	19.1357
1363.64	109.078
1367.88	66.0625
1372.12	61.6572
1376.35	7.79492
1380.58	59.2051
1384.81	51.1602
1389.04	183.176
1393.26	122.362
1397.49	197.493
1401.71	40.1123
1405.92	109.472
1410.14	96.7451
1414.35	85.9736
1418.56	158.924
1422.77	52.5342
1426.98	14.9385
1431.18	35.4853
1435.38	124.509
1439.58	33.1572
1443.78	72.3154
1447.97	127.288
1452.16	167.947
1456.35	163.1
1460.54	198.413
1464.72	61.8232
1468.9	211.02
1473.08	58.0928
1477.26	195.712
1481.43	159.136
1485.6	20.8564
1489.77	92.5918
1493.94	77.1719
1498.1	75.0117
1502.27	156.055
1506.43	81.9482
1510.58	196.065
1514.74	157.878
1518.89	131.517
1523.04	152.333
1527.19	3.78223
1531.34	182.852
1535.48	94.918
1539.62	55.8252
1543.76	147.614
1547.89	194.581
1552.03	408.721
1556.16	516.243
1560.29	189.941
1564.41	0
