Measurement: Raman, 514 nm, ccw, Raman Data Processed
Mineral: Amesite
Rruff sample: R070132
Ideal chemistry: Mg_2_Al(AlSiO_5_)(OH)_4_
Locality: Saranovskii mine, Saranovskaya Village, Gornozavodskii area, Permskaya Oblast', Middle Urals, Russia
Source: Michael Scott
Description: Purple transparent hexagonal prisms, polytype 2H2
Measured chemistry: (Mg_1.87_[box]_0.05_Cr_0.05_Fe^2+^_0.03_)_Σ=2_(Al_0.98_Cr_0.02_)_Σ=1_(Si_1.05_Al_0.95_)O_5_(OH)_4_ ; OH estimated by difference
Pin_id: M00364
Raman shift (cm-1)	intensity
147.485	0
152.408	359.58
157.328	75.4258
162.246	64.3916
167.16	18.4785
172.073	156.855
176.982	459.489
181.888	966.961
186.792	2162.74
191.694	4694.71
196.592	7927.44
201.488	13343.5
206.381	22192.7
211.271	37623.1
216.159	40002.6
221.044	16951.7
225.926	6073.57
230.806	2989.85
235.683	2066.15
240.557	1913.28
245.429	2522.2
250.298	2394.73
255.164	3150.7
260.027	3103
264.888	1741.25
269.746	1627.27
274.601	1722.05
279.454	1594.59
284.304	1758.87
289.151	2108.85
293.996	872.781
298.838	204.94
303.677	469.59
308.514	290.777
313.348	581.21
318.179	1093.9
323.008	2018.75
327.834	3249.15
332.657	3177.4
337.478	5877.53
342.295	2823.41
347.111	1309.13
351.923	583.75
356.733	688.299
361.54	741.81
366.345	972.275
371.147	979.519
375.946	1554.11
380.743	3245.56
385.537	3858.86
390.328	5180.96
395.116	5283.82
399.902	3967.73
404.686	6948.66
409.466	10228.5
414.244	9318.39
419.019	13840.1
423.792	10457.8
428.562	4333.24
433.329	3688.53
438.094	5158.62
442.856	3992.19
447.616	2996.6
452.372	3650
457.126	3701.62
461.878	2589.83
466.627	2049.12
471.373	3372.5
476.116	6279.77
480.857	8788.67
485.596	11820.2
490.331	13696.4
495.064	10956.5
499.795	4717.97
504.522	2379.11
509.247	1801.38
513.97	2246.98
518.69	3464.97
523.407	6125.34
528.121	10540.1
532.833	14588.1
537.543	15548.4
542.249	12284
546.953	9130.89
551.655	6701.96
556.354	4713.21
561.05	2779.63
565.743	1536.19
570.434	965.876
575.123	483.653
579.808	333.501
584.491	93.458
589.172	26.2412
593.85	87.0606
598.525	220.3
603.197	299.813
607.868	142.919
612.535	160.942
617.2	937.593
621.862	2024.85
626.522	1267.51
631.178	494.603
635.833	328.414
640.485	147.662
645.134	412.737
649.78	331.685
654.424	668.469
659.066	472.997
663.704	995.256
668.341	1466.23
672.974	2445.93
677.605	4392.32
682.234	6686.41
686.859	6814.19
691.483	5097.66
696.103	6362.81
700.721	11818.6
705.337	18497.1
709.949	15347.3
714.56	8188.14
719.167	3985.65
723.772	2472.83
728.375	1362.24
732.975	962.076
737.572	588.019
742.167	374.868
746.759	104.013
751.349	14.9463
755.936	21.9102
760.52	62.5049
765.102	10.9121
769.681	139.811
774.258	142.341
778.832	342.257
783.404	510.405
787.973	853.411
792.539	898.938
797.103	1078.8
801.665	1289.53
806.223	1393.21
810.779	1573.86
815.333	1833.49
819.884	2060.11
824.433	2298.72
828.979	2244.35
833.522	2093.99
838.063	1763.67
842.601	1399.54
847.137	865.481
851.67	373.535
856.2	250.786
860.729	292.856
865.254	303.22
869.777	13.8633
874.297	192.093
878.815	436.381
883.33	840.163
887.843	767.489
892.353	379.134
896.861	222.124
901.366	102.178
905.869	120.819
910.369	76.1426
914.866	132.788
919.361	14.4697
923.854	34.9053
928.344	391.078
932.831	996.684
937.316	1740.51
941.798	1439.57
946.278	1225.89
950.755	1911.48
955.23	2456.33
959.702	2707.45
964.171	4156.78
968.638	6599.33
973.103	7324.24
977.565	6488.17
982.025	5959.66
986.482	4039.14
990.936	2177.6
995.388	1632.85
999.837	1467.94
1004.28	2006.42
1008.73	3194.14
1013.17	5029.44
1017.61	4533.78
1022.05	2466.93
1026.48	1050.66
1030.91	664.082
1035.34	369.667
1039.77	254.459
1044.19	256.125
1048.62	150.262
1053.03	299.481
1057.45	70.1455
1061.87	148.977
1066.28	126.576
1070.69	149.934
1075.09	223.079
1079.5	373.829
1083.9	287.572
1088.3	247.564
1092.69	272.007
1097.09	248.832
1101.48	122.582
1105.87	68.8769
1110.26	58.5088
1114.64	19.4971
1119.02	198.395
1123.4	38.9893
1127.78	120.01
1132.15	36.3418
1136.53	28.8154
1140.89	111.645
1145.26	95.1748
1149.63	69.1152
1153.99	8.37793
1158.35	127.161
1162.7	153.739
1167.06	24.1201
1171.41	70.3115
1175.76	46.2725
1180.11	140.923
1184.45	157.484
1188.79	63.956
1193.13	31.7549
1197.47	24.7412
1201.81	120.182
1206.14	143.279
1210.47	35.0049
1214.79	79.3144
1219.12	118.23
1223.44	94.8428
1227.76	60.206
1232.08	309.198
1236.39	192.149
1240.7	205.716
1245.02	319.433
1249.32	265.188
1253.63	128.694
1257.93	227.782
1262.23	293.424
1266.53	354.629
1270.82	399.377
1275.12	211.347
1279.41	386.356
1283.69	266.161
1287.98	194.298
1292.26	200.476
1296.54	120.446
1300.82	321.577
1305.1	236.309
1309.37	582.565
1313.64	299.18
1317.91	247.321
1322.17	320.672
1326.44	426.219
1330.7	129.643
1334.96	270.494
1339.21	113.564
1343.47	158.936
1347.72	82.3506
1351.97	145.801
1356.21	86.6689
1360.46	208.859
1364.7	95.8477
1368.94	105.201
1373.17	286.472
1377.41	0.705078
1381.64	169.855
1385.87	198.079
1390.1	152.92
1394.32	184.496
1398.54	123.92
1402.76	36.4805
1406.98	124.715
1411.19	2.11133
1415.41	98.4766
1419.62	133.5
1423.82	45.2129
1428.03	12.8135
1432.23	278.804
1436.43	101.436
1440.63	299.087
1444.82	567.395
1449.02	633.764
1453.21	512.267
1457.4	723.962
1461.58	542.727
1465.77	362.228
1469.95	360.655
1474.12	243.815
1478.3	262.349
1482.47	260.489
1486.64	136.647
1490.81	62.6875
1494.98	19.4883
1499.14	54.3603
1503.31	119.135
1507.47	12.7422
1511.62	36.1475
1515.78	110.247
1519.93	33.2012
1524.08	104.676
1528.23	114.728
1532.37	85.8926
1536.51	186.188
1540.65	259.695
1544.79	146.148
1548.93	137.049
1553.06	194.847
1557.19	166.631
1561.32	62.1455
