Measurement: Raman, 514 nm, ccw, Raman Data Processed
Mineral: Amesite
Rruff sample: R070132
Ideal chemistry: Mg_2_Al(AlSiO_5_)(OH)_4_
Locality: Saranovskii mine, Saranovskaya Village, Gornozavodskii area, Permskaya Oblast', Middle Urals, Russia
Source: Michael Scott
Description: Purple transparent hexagonal prisms, polytype 2H2
Measured chemistry: (Mg_1.87_[box]_0.05_Cr_0.05_Fe^2+^_0.03_)_Σ=2_(Al_0.98_Cr_0.02_)_Σ=1_(Si_1.05_Al_0.95_)O_5_(OH)_4_ ; OH estimated by difference
Pin_id: M00364
Raman shift (cm-1)	intensity
147.485	0
152.408	243.395
157.328	37.8765
162.246	12.5601
167.16	151.281
172.073	225.698
176.982	277.283
181.888	1020.45
186.792	2273.17
191.694	4780.42
196.592	8507.72
201.488	14487.2
206.381	25489.3
211.271	44024.5
216.159	46451.3
221.044	19658
225.926	6906.77
230.806	3318.1
235.683	2162.86
240.557	1985.95
245.429	2485.3
250.298	2177.42
255.164	2592.7
260.027	2380.28
264.888	1250.73
269.746	1122.86
274.601	1373.68
279.454	1340.15
284.304	1731.23
289.151	2457.9
293.996	1163.42
298.838	146.531
303.677	357.482
308.514	279.972
313.348	495.647
318.179	991.159
323.008	1606.31
327.834	3113.05
332.657	3190.54
337.478	6472.96
342.295	2847.2
347.111	837.315
351.923	166.315
356.733	173.19
361.54	385.472
366.345	656.519
371.147	656.252
375.946	1349.92
380.743	2898.38
385.537	2956.89
390.328	3355.43
395.116	3772.94
399.902	3781.32
404.686	8087.58
409.466	11846.7
414.244	11493.7
419.019	16449.5
423.792	11126
428.562	4277.34
433.329	3633.38
438.094	5027.11
442.856	4107.35
447.616	3139.21
452.372	3313.05
457.126	3846.77
461.878	2784.55
466.627	2322.27
471.373	3711.61
476.116	6781.93
480.857	9367.72
485.596	12808
490.331	15892.9
495.064	12747.3
499.795	4920.33
504.522	2391.43
509.247	1746.83
513.97	2166.52
518.69	3403.51
523.407	6203.82
528.121	10360.4
532.833	15366.3
537.543	16383.4
542.249	13009.7
546.953	9612.17
551.655	6873.84
556.354	4464.65
561.05	2561.59
565.743	1509.64
570.434	867.779
575.123	432.978
579.808	360.227
584.491	58.5225
589.172	26.8008
593.85	176.711
598.525	128.775
603.197	237.703
607.868	211.822
612.535	206.89
617.2	1162.56
621.862	2440.74
626.522	1393.85
631.178	569.644
635.833	262.901
640.485	245.665
645.134	387.328
649.78	452.908
654.424	449.287
659.066	711.443
663.704	841.372
668.341	1447.06
672.974	2660.51
677.605	4835.7
682.234	7577.64
686.859	7273.32
691.483	5235.73
696.103	6288.86
700.721	11831.7
705.337	18605.3
709.949	15710.6
714.56	8313.63
719.167	4110.36
723.772	2359.68
728.375	1439.69
732.975	964.694
737.572	681.752
742.167	446.001
746.759	178.584
751.349	81.7578
755.936	58.7695
760.52	67.3828
765.102	80.0996
769.681	43.501
774.258	121.144
778.832	288.278
783.404	458.069
787.973	748.179
792.539	815.422
797.103	824.769
801.665	954.07
806.223	1054.33
810.779	827.557
815.333	1016.76
819.884	1027.52
824.433	1306.1
828.979	1226.26
833.522	1264.43
838.063	1104.61
842.601	685.844
847.137	337.134
851.67	140.457
856.2	196.82
860.729	48.2529
865.254	54.9941
869.777	7.25879
874.297	106.395
878.815	233.533
883.33	630.931
887.843	484.5
892.353	29.8467
896.861	105.42
901.366	97.8047
905.869	125.093
910.369	14.1006
914.866	35.7773
919.361	30.4355
923.854	66.2773
928.344	316.163
932.831	1098.27
937.316	1902.49
941.798	1544.83
946.278	1332.32
950.755	1824.99
955.23	2336.8
959.702	2388.7
964.171	3618.92
968.638	5986.35
973.103	6313.21
977.565	5474.23
982.025	5093.89
986.482	3708.74
990.936	2023.61
995.388	1519.1
999.837	1415.94
1004.28	2226.47
1008.73	3302.31
1013.17	5245.33
1017.61	4548.36
1022.05	2470.93
1026.48	1107.93
1030.91	621.098
1035.34	306.736
1039.77	202.641
1044.19	222.106
1048.62	172.353
1053.03	261.894
1057.45	268.503
1061.87	192.617
1066.28	201.806
1070.69	128.981
1075.09	157.378
1079.5	330.55
1083.9	264.014
1088.3	244.066
1092.69	50.9453
1097.09	35.2315
1101.48	82.0478
1105.87	44.8076
1110.26	77.6602
1114.64	115.359
1119.02	54.8066
1123.4	72.0547
1127.78	129.014
1132.15	36.6807
1136.53	157.061
1140.89	39.2803
1145.26	3.74902
1149.63	55.2744
1153.99	22.4023
1158.35	156.993
1162.7	92.2168
1167.06	58.7539
1171.41	55.0147
1175.76	62.6162
1180.11	167.798
1184.45	87.9883
1188.79	114.964
1193.13	89.543
1197.47	49.7207
1201.81	202.648
1206.14	132.343
1210.47	7.64844
1214.79	62.5986
1219.12	170.287
1223.44	176.715
1227.76	147.378
1232.08	38.1895
1236.39	157.2
1240.7	243.302
1245.02	300.524
1249.32	247.23
1253.63	247.047
1257.93	241.21
1262.23	367.601
1266.53	334.861
1270.82	303.491
1275.12	363.654
1279.41	339.735
1283.69	163.998
1287.98	199.111
1292.26	265.799
1296.54	288.033
1300.82	139.393
1305.1	274.962
1309.37	408.685
1313.64	372.546
1317.91	327.908
1322.17	327.95
1326.44	257.654
1330.7	176.627
1334.96	162.969
1339.21	78.1191
1343.47	164.834
1347.72	162.145
1351.97	33.1621
1356.21	201.537
1360.46	140.712
1364.7	61.748
1368.94	114.788
1373.17	188.101
1377.41	97.5244
1381.64	112.924
1385.87	78.3135
1390.1	80.7627
1394.32	74.8018
1398.54	65.9541
1402.76	49.458
1406.98	85.7969
1411.19	87.8916
1415.41	3.44922
1419.62	32.9863
1423.82	167.167
1428.03	153.584
1432.23	128.772
1436.43	163.393
1440.63	357.232
1444.82	379.904
1449.02	507.81
1453.21	526.885
1457.4	656.243
1461.58	534.846
1465.77	339.415
1469.95	281.75
1474.12	338.255
1478.3	194.585
1482.47	217.01
1486.64	261.136
1490.81	2.55273
1494.98	3.44238
1499.14	34.2002
1503.31	1.6875
1507.47	59.4648
1511.62	5.7041
1515.78	217.184
1519.93	189.081
1524.08	79.1094
1528.23	209.189
1532.37	143.082
1536.51	195.748
1540.65	49.832
1544.79	119.784
1548.93	239.659
1553.06	196.565
1557.19	93.7266
1561.32	65.0566
