Measurement: Raman, 514 nm, ccw, Raman Data Processed
Mineral: Analcime
Rruff sample: R050094
Ideal chemistry: NaAlSi_2_O_6_H_2_O
Locality: Springfield, Oregon, USA
Source: Rock Currier
Description: Clear colorless single crystals associated with gmelinite
Measured chemistry: (Na_0.99_[box]_0.01_)_Σ=1_(Si_2.01_Al_0.99_)O_6_·H_2_O
Pin_id: M00434
Orientation: Laser parallel to c* (0 0 1). Fiducial mark perpendicular to laser is parallel to [1 1 0]
Raman shift (cm-1)	intensity
169.765	0
174.7	5.56006
179.631	102.322
184.56	288.633
189.484	424.854
194.406	633.953
199.325	819.289
204.24	807.169
209.153	578.422
214.062	706.408
218.968	784.821
223.87	823.885
228.77	700.998
233.666	634.673
238.56	445.498
243.45	212.808
248.337	106.985
253.221	50.2895
258.102	35.73
262.979	166.529
267.854	73.1797
272.726	0.913086
277.594	57.0703
282.459	312.438
287.321	978.307
292.18	2430.99
297.036	4181.42
301.889	3582.14
306.739	1858.44
311.586	990.56
316.43	773.215
321.271	720.662
326.108	806.553
330.943	987.495
335.774	1104.17
340.603	1398.46
345.428	1632.07
350.251	1865.48
355.07	2095.63
359.887	2456.11
364.7	2995.14
369.511	3564.42
374.318	4317.95
379.123	5223.48
383.924	6031.16
388.723	6402.53
393.518	5929.38
398.311	4622.43
403.1	3161.74
407.887	2204.05
412.671	1631.46
417.451	1214.93
422.229	953.457
427.004	1021.75
431.776	1014.37
436.545	1221.12
441.311	1562.12
446.074	1976.4
450.834	2887.33
455.591	4115.83
460.346	6532.95
465.097	10757.4
469.846	18491.1
474.591	31157
479.334	45891.1
484.074	50956.3
488.811	40093.7
493.545	25368.3
498.276	15171
503.005	9467.03
507.73	6138.31
512.453	4290.93
517.173	3116.91
521.89	2156.25
526.604	1741.97
531.315	1344.11
536.024	955.756
540.729	622.964
545.432	376.053
550.132	239.895
554.83	53.8208
559.524	7.90283
564.216	34.5244
568.904	153.622
573.59	74.5693
578.274	45.0352
582.954	53.8101
587.632	105.279
592.307	153.485
596.979	141.008
601.648	165.07
606.315	312.786
610.979	313.125
615.64	413.147
620.298	416.754
624.954	443.321
629.607	369.773
634.257	458.065
638.904	388.496
643.549	430.018
648.191	429.538
652.83	511.685
657.467	577.677
662.101	644.474
666.732	864.064
671.36	844.01
675.986	872.544
680.609	689.464
685.23	446.422
689.847	141.493
694.462	142.351
699.075	150.705
703.685	144.496
708.292	10.5449
712.896	84.5913
717.498	50.6602
722.097	0.92627
726.694	30.8975
731.287	27.6118
735.879	16.7378
740.467	30.895
745.053	9.87354
749.637	34.0308
754.217	24.9722
758.795	15.1318
763.371	41.4023
767.944	90.5962
772.514	212.649
777.082	218.221
781.647	172.597
786.21	319.235
790.77	245.457
795.327	299.757
799.882	270.528
804.434	184.761
808.984	220.951
813.531	156.578
818.076	101.171
822.618	215.191
827.158	156.593
831.695	134.24
836.229	187.996
840.761	224.716
845.291	245.058
849.817	233.227
854.342	176.85
858.864	210.142
863.383	213.304
867.9	154.204
872.414	92.1333
876.926	94.3652
881.436	111.365
885.942	13.4307
890.447	21.7881
894.949	4.396
899.448	5.74023
903.945	56.3584
908.44	40.5317
912.932	38.271
917.421	9.03418
921.909	16.8428
926.393	47.4375
930.876	43.8442
935.355	118.073
939.833	10.999
944.308	17.3921
948.78	55.8462
953.25	106.345
957.718	165.166
962.183	220.782
966.646	211.475
971.107	180.527
975.565	225.06
980.02	428.619
984.474	497.623
988.925	565.638
993.373	686.552
997.819	787.859
1002.26	1003.27
1006.7	903.687
1011.14	978.196
1015.58	943.784
1020.01	921.203
1024.45	971.293
1028.88	1022.17
1033.3	1102.13
1037.73	1181.61
1042.15	1267.43
1046.57	1277.69
1050.99	1446.6
1055.4	1429.98
1059.82	1725.6
1064.23	1919.75
1068.64	2220.68
1073.04	2567.79
1077.45	2995.08
1081.85	3365.3
1086.25	3808.49
1090.64	4135.09
1095.04	4280.08
1099.43	4458.99
1103.82	4348.55
1108.21	4215.07
1112.6	4115.67
1116.98	3975.33
1121.36	3610.79
1125.74	3362.35
1130.12	2764.28
1134.49	2460.05
1138.86	2069.17
1143.23	1630.9
1147.6	1450.56
1151.96	1171.98
1156.33	1126.3
1160.69	877.847
1165.05	774.537
1169.4	550.448
1173.76	326.566
1178.11	354.774
1182.46	281.085
1186.81	6.52979
1191.15	10.0952
1195.49	84.3735
1199.84	13.1099
1204.17	118.619
1208.51	13.6401
1212.84	16.9248
1217.18	23.2207
1221.51	54.4976
1225.83	47.374
1230.16	33.4199
1234.48	1.23535
1238.8	69.7344
1243.12	34.7676
1247.44	71.5913
1251.76	62.9795
1256.07	11.5093
1260.38	73.0137
1264.69	88.585
1268.99	152.182
1273.3	33.501
1277.6	4.93311
1281.9	88.082
1286.2	64.6938
1290.49	52.2539
1294.79	213.803
1299.08	164.375
1303.37	173.984
1307.65	241.441
1311.94	265.858
1316.22	223.032
1320.5	225.022
1324.78	325.994
1329.06	218.06
1333.33	172.741
1337.6	164.996
1341.87	139.344
1346.14	166.879
1350.41	129.869
1354.67	130.3
1358.93	34.3882
1363.19	76.1064
1367.45	88.3574
1371.71	138.403
1375.96	37.3315
1380.21	100.211
1384.46	182.084
1388.71	79.6172
1392.96	166.542
1397.2	85.1977
1401.44	76.6934
1405.68	113.767
1409.92	167.907
1414.16	109.322
1418.39	103.266
1422.62	65.7905
1426.85	19.7534
1431.08	121.382
1435.3	179.312
1439.53	340.278
1443.75	437.873
1447.97	497.004
1452.19	455.333
1456.4	598.848
1460.62	506.628
1464.83	476.734
1469.04	298.463
1473.24	241.463
1477.45	205.218
1481.65	238.861
1485.86	184.482
1490.06	220.623
1494.26	1.88428
1498.45	41.9868
1502.64	60.4878
1506.84	131.488
1511.03	179.861
1515.22	153.617
1519.4	54.7041
1523.59	76.1216
1527.77	151.016
1531.95	110.001
1536.13	114.568
1540.31	184.984
1544.48	118.868
1548.65	244.196
1552.82	39.2407
1556.99	169.81
1561.16	61.1938
1565.33	0
