Measurement: Raman, 514 nm, ccw, Raman Data Processed
Mineral: Analcime
Rruff sample: R060023
Ideal chemistry: NaAlSi_2_O_6_H_2_O
Locality: Dallas, Oregon, USA
Source: Bob Downs
Description: White trapezohedral crystal associated with levyne-Na, R060021
Measured chemistry: (Na_0.98_[box]_0.02_)_Σ=1_(Si_2.02_Al_0.98_)O_6_·H_2_O
Pin_id: M00322
Orientation: Laser parallel to a* (1 0 0). Fiducial mark perpendicular to laser is parallel to c [0 0 1]
Raman shift (cm-1)	intensity
168.104	0
173.013	6.1626
177.92	112.457
182.823	169.093
187.725	482.291
192.623	582.79
197.52	825.155
202.413	979.939
207.305	990.63
212.193	1215.95
217.079	1491.51
221.963	1678.21
226.844	1495.91
231.723	1236.54
236.599	883.354
241.472	720.531
246.343	336.168
251.211	137.643
256.077	83.0979
260.94	34.2188
265.801	51.4619
270.66	126.805
275.515	44.3689
280.368	157.925
285.219	642.646
290.067	1709.57
294.913	3680.42
299.756	3616.32
304.596	1874.26
309.434	1083.11
314.27	795.149
319.102	751.742
323.933	751.794
328.76	840.949
333.586	931.442
338.408	1131.69
343.229	1190.72
348.046	1505.76
352.861	1594.37
357.674	1908.19
362.484	2375.86
367.291	2891.2
372.096	3593.83
376.898	4344.79
381.698	5175.16
386.495	5477.95
391.29	5160.66
396.082	4165.77
400.872	3061.61
405.659	2216.28
410.443	1727.21
415.225	1225.87
420.005	980.804
424.782	941.171
429.556	787.398
434.328	868.743
439.097	1078.5
443.864	1401.31
448.628	1912.22
453.389	2693.89
458.148	4288.07
462.905	6738.39
467.659	11746.9
472.41	20872.5
477.159	33389.3
481.905	40947.3
486.649	33683.5
491.39	21444.8
496.129	12848.4
500.865	7727.11
505.598	4910.09
510.329	3361.37
515.057	2361.01
519.783	1855.01
524.506	1343.36
529.227	963.047
533.945	763.082
538.661	498.537
543.374	377.524
548.084	188.172
552.792	139.846
557.498	47.0249
562.2	95.8164
566.901	63.6665
571.598	118.707
576.293	0.281738
580.986	42.9526
585.676	56.7842
590.363	47.7456
595.048	102.898
599.731	203.195
604.41	190.527
609.088	369.686
613.762	384.748
618.434	409.721
623.104	339.279
627.771	390.882
632.435	322.49
637.097	274.129
641.756	274.826
646.413	272.555
651.067	329.258
655.719	257.925
660.368	383.524
665.014	439.029
669.658	499.438
674.299	497.722
678.938	411.867
683.574	213.958
688.208	75.4741
692.839	94.5625
697.468	69.4658
702.094	71.8198
706.717	57.1963
711.338	47.6614
715.956	13.8284
720.572	15.7363
725.185	61.0747
729.795	80.8987
734.403	27.3899
739.009	24.5344
743.611	16.0386
748.212	34.8572
752.809	24.2925
757.405	7.65088
761.997	15.8877
766.587	178.195
771.174	245.744
775.759	223.449
780.342	300.41
784.921	405.353
789.498	505.967
794.073	435.483
798.645	353.614
803.215	387.954
807.781	313.218
812.346	293.048
816.907	157.442
821.467	148.4
826.023	114.834
830.577	170.868
835.129	154.824
839.678	119.548
844.224	183.39
848.768	88.9475
853.309	148.12
857.847	85.8284
862.383	72.3625
866.917	57.4145
871.448	20.3545
875.976	14.0574
880.502	103.407
885.025	28.3557
889.545	24.3972
894.063	4.57886
898.579	15.1128
903.092	119.793
907.602	28.4785
912.11	71.7573
916.615	12.313
921.118	14.6924
925.618	36.2959
930.115	34.854
934.61	52.8345
939.102	52.6528
943.592	134.309
948.079	143.833
952.564	114.153
957.046	150.327
961.525	86.7383
966.002	109.67
970.476	227.212
974.948	193.01
979.417	261.178
983.883	253.275
988.347	388.584
992.809	406.526
997.268	422.512
1001.72	407.201
1006.18	483.741
1010.63	531.432
1015.08	454.556
1019.52	568.26
1023.97	452.266
1028.41	666.501
1032.85	656.227
1037.28	683.605
1041.71	772.1
1046.14	796.333
1050.57	960.323
1055	966.519
1059.42	1057.61
1063.84	1120.41
1068.26	1247.51
1072.67	1417.11
1077.09	1709.59
1081.5	1900.2
1085.9	2152.84
1090.31	2558.33
1094.71	2570.51
1099.11	2873.43
1103.51	2820.32
1107.9	2790.1
1112.29	2605.87
1116.68	2359.37
1121.07	2188.06
1125.45	1973.5
1129.84	1817.15
1134.21	1479.88
1138.59	1391.24
1142.96	1128.69
1147.34	940.664
1151.7	808.633
1156.07	721.693
1160.43	501.737
1164.79	509.882
1169.15	419.587
1173.51	359.828
1177.86	239.257
1182.21	213.79
1186.56	110.572
1190.91	183.508
1195.25	152.223
1199.59	76.1196
1203.93	108.741
1208.26	58.6191
1212.6	39.4326
1216.92	106.294
1221.25	23.9648
1225.58	121.762
1229.9	49.5884
1234.22	81.1333
1238.54	67.9458
1242.85	143.558
1247.16	44.957
1251.47	4.69824
1255.78	44.1094
1260.08	30.9976
1264.38	14.8047
1268.68	8.79053
1272.98	85.6977
1277.28	122.068
1281.57	11.3574
1285.86	73.2866
1290.14	47.2588
1294.42	6.00195
1298.71	58.4688
1302.98	85.2256
1307.26	111.617
1311.53	37.8062
1315.8	83.9922
1320.07	73.9565
1324.34	58.1475
1328.6	128.81
1332.86	139.344
1337.12	127.566
1341.38	96.853
1345.63	97.022
1349.88	94.4189
1354.13	85.4473
1358.37	101.671
1362.61	44.5068
1366.85	174.927
1371.09	52.5527
1375.33	105.122
1379.56	22.5713
1383.79	70.6055
1388.01	184.765
1392.24	96.895
1396.46	19.2549
1400.68	54.2461
1404.9	54.2808
1409.11	101.144
1413.32	41.3486
1417.53	124.236
1421.74	80.4551
1425.94	48.1465
1430.14	164.793
1434.34	94.3374
1438.54	122.345
1442.73	111.609
1446.92	137.858
1451.11	141.073
1455.3	72.9614
1459.48	149.735
1463.66	120.383
1467.84	127.355
1472.01	108.323
1476.19	67.9463
1480.36	52.2153
1484.53	102.679
1488.69	4.05664
1492.85	32.4116
1497.01	189.786
1501.17	16.8428
1505.33	115.791
1509.48	99.4448
1513.63	86.1182
1517.78	48.7632
1521.92	108.387
1526.06	112.995
1530.2	138.433
1534.34	22.3491
1538.47	79.6816
1542.6	14.9766
1546.73	56.1157
1550.86	147.675
1554.98	149.385
1559.11	53.9243
1563.22	8.45166
