Measurement: Raman, 514 nm, ccw, Raman Data Processed
Mineral: Analcime
Rruff sample: R060023
Ideal chemistry: NaAlSi_2_O_6_H_2_O
Locality: Dallas, Oregon, USA
Source: Bob Downs
Description: White trapezohedral crystal associated with levyne-Na, R060021
Measured chemistry: (Na_0.98_[box]_0.02_)_Σ=1_(Si_2.02_Al_0.98_)O_6_·H_2_O
Pin_id: M00414
Orientation: Laser parallel to c* (0 0 1). Fiducial mark perpendicular to laser is parallel to a [1 0 0]
Raman shift (cm-1)	intensity
181.598	0
186.5	138.472
191.399	352.676
196.296	398.149
201.19	445.036
206.082	439.213
210.971	294.57
215.858	470.827
220.742	486.307
225.624	715.274
230.503	659.096
235.38	582.293
240.254	473.927
245.125	352.005
249.994	133.38
254.861	99.2329
259.725	11.1533
264.586	21.7983
269.445	25.2598
274.302	0.292969
279.155	110.814
284.007	240.887
288.855	693.24
293.702	1285.73
298.545	1606.28
303.386	1006.74
308.225	683.122
313.061	458.263
317.894	423.053
322.725	428.348
327.554	521.981
332.38	674.829
337.203	585.876
342.024	788.191
346.842	871.513
351.658	982.545
356.471	1328.22
361.281	1426.92
366.09	1960.28
370.895	2251.18
375.698	2806.76
380.498	3268.23
385.296	3704.18
390.092	3816
394.884	3532.4
399.675	3135.38
404.462	2518.13
409.248	1773.06
414.03	1162.11
418.81	867.193
423.588	692.876
428.363	630.219
433.135	741.432
437.905	877.428
442.672	1144.97
447.437	1432.96
452.199	2072.87
456.959	3173.2
461.716	5102.89
466.47	8950.99
471.222	14941.4
475.972	22361.8
480.719	27358
485.463	24093.2
490.205	15762.4
494.944	9326.5
499.681	5580.59
504.415	3635.71
509.146	2346.89
513.875	1679.17
518.602	1334.63
523.326	973.279
528.047	701.136
532.766	502.213
537.482	328.547
542.196	272.222
546.907	128.36
551.616	43.4009
556.322	19.959
561.025	25.5386
565.726	89.3335
570.424	7.33838
575.12	35.2583
579.813	6.63525
584.504	57.894
589.192	78.8174
593.877	243.265
598.56	174.286
603.241	253.526
607.919	264.367
612.594	298.601
617.267	197.586
621.937	197.544
626.604	200.352
631.269	291.491
635.932	228.308
640.592	307.793
645.249	370.348
649.904	165.53
654.556	233.279
659.206	314.572
663.853	141.758
668.497	279.808
673.139	266.115
677.779	204.329
682.416	102.064
687.05	79.4199
691.682	12.4414
696.311	124.443
700.937	80.2114
705.561	78.0376
710.183	76.957
714.802	110.28
719.418	2.78613
724.032	90.6367
728.643	37.5762
733.251	76.2388
737.857	20.1387
742.461	8.29248
747.062	127.872
751.66	14.0523
756.256	15.8447
760.849	152.794
765.44	126.54
770.028	141.815
774.613	186.319
779.196	271.381
783.777	324.779
788.354	315.688
792.93	248.539
797.502	243.743
802.072	291.109
806.64	141.468
811.205	288.511
815.767	235.093
820.327	248.215
824.884	206.075
829.439	169.492
833.991	153.84
838.541	119.967
843.087	117.503
847.632	168.963
852.174	198.805
856.713	162.607
861.25	166.236
865.784	134.795
870.315	104.472
874.844	103.356
879.371	4.92578
883.894	4.23047
888.416	58.5967
892.934	139.869
897.45	35.5654
901.964	17.5693
906.475	93.7812
910.983	138.248
915.489	35.4062
919.992	105.435
924.493	4.94629
928.991	82.083
933.486	43.874
937.979	100.046
942.47	160.916
946.957	105.592
951.443	66.9316
955.925	14.5185
960.405	158.217
964.883	241.861
969.358	137.549
973.83	225.982
978.3	210.031
982.767	375.139
987.232	366.168
991.694	249.444
996.153	385.531
1000.61	438.418
1005.06	503.923
1009.52	377.799
1013.97	336.354
1018.41	421.185
1022.86	493.465
1027.3	569.52
1031.74	596.91
1036.17	624.947
1040.61	719.312
1045.04	784.508
1049.47	923.423
1053.89	996.625
1058.32	1039.23
1062.74	1070.55
1067.15	1099.73
1071.57	1188.49
1075.98	1501.99
1080.39	1813.97
1084.8	2140.73
1089.21	2494.55
1093.61	2619.53
1098.01	2749.62
1102.41	2719.28
1106.8	2494.78
1111.19	2443.22
1115.59	2158.8
1119.97	1825.58
1124.36	1656.65
1128.74	1470.59
1133.12	1155.61
1137.5	999.727
1141.87	834.934
1146.24	693.229
1150.61	591.74
1154.98	482.588
1159.34	454.329
1163.7	338.175
1168.06	250.568
1172.42	373.128
1176.77	292.468
1181.12	155.28
1185.47	101.984
1189.82	128.78
1194.16	48.5127
1198.5	43.2197
1202.84	113.149
1207.18	13.8838
1211.51	252.899
1215.84	56.2978
1220.17	168.455
1224.5	15.8418
1228.82	44.9805
1233.14	109.481
1237.46	27.7305
1241.77	17.127
1246.09	87.9346
1250.39	16.0156
1254.7	59.8418
1259.01	67.8242
1263.31	56.7344
1267.61	140.49
1271.91	7.65723
1276.2	16.0234
1280.49	55.5303
1284.78	27.8984
1289.07	56.1465
1293.35	20.3809
1297.64	9.48828
1301.91	122.619
1306.19	88.1133
1310.46	40.0752
1314.74	74.7598
1319.01	35.419
1323.27	204.948
1327.54	45.4365
1331.8	134.822
1336.06	67.7793
1340.31	85.9375
1344.57	68.0527
1348.82	85.0674
1353.06	160.375
1357.31	188.685
1361.55	246.067
1365.79	107.018
1370.03	94.9609
1374.27	136.78
1378.5	135.215
1382.73	54.667
1386.96	97.4609
1391.18	109.224
1395.4	153.756
1399.62	192.495
1403.84	48.79
1408.06	164.706
1412.27	81.3857
1416.48	134.665
1420.69	185.745
1424.89	191.816
1429.09	7.40625
1433.29	174.22
1437.49	66.1143
1441.68	366.766
1445.87	272.045
1450.06	56.1855
1454.25	247.105
1458.43	49.2041
1462.62	214.135
1466.79	144.382
1470.97	195.787
1475.14	117.237
1479.31	115.408
1483.48	173.796
1487.65	208.417
1491.81	49.4482
1495.97	151.468
1500.13	246.375
1504.29	234.707
1508.44	169.071
1512.59	90.9609
1516.74	107.978
1520.88	87.668
1525.03	192.641
1529.17	143.734
1533.3	203.468
1537.44	85.3047
1541.57	89.2432
1545.7	145.148
1549.83	69.207
1553.95	192.293
1558.08	132.507
1562.19	133.185
