Measurement: Raman, 514 nm, ccw, Raman Data Processed
Mineral: Analcime
Rruff sample: R050094
Ideal chemistry: NaAlSi_2_O_6_H_2_O
Locality: Springfield, Oregon, USA
Source: Rock Currier
Description: Clear colorless single crystals associated with gmelinite
Measured chemistry: (Na_0.99_[box]_0.01_)_Σ=1_(Si_2.01_Al_0.99_)O_6_·H_2_O
Pin_id: M00434
Orientation: Laser parallel to c* (0 0 1). Fiducial mark perpendicular to laser is parallel to [1 1 0]
Raman shift (cm-1)	intensity
169.765	0
174.7	3.30225
179.631	107.736
184.56	238.157
189.484	448.319
194.406	518.943
199.325	745.582
204.24	705.22
209.153	622.391
214.062	550.902
218.968	572.245
223.87	691.65
228.77	539.159
233.666	444.613
238.56	327.247
243.45	247.366
248.337	85.3227
253.221	18.6064
258.102	67.4224
262.979	50.9663
267.854	61.9268
272.726	137.968
277.594	9.40723
282.459	279.58
287.321	1018.03
292.18	2704.79
297.036	4294.5
301.889	3725.25
306.739	1828.51
311.586	870.583
316.43	622.94
321.271	721.014
326.108	702.679
330.943	958.245
335.774	1057.52
340.603	1361.38
345.428	1554.61
350.251	1772.45
355.07	2130.12
359.887	2384.2
364.7	2884.19
369.511	3434.57
374.318	4190.43
379.123	5276.12
383.924	5790.71
388.723	6255.06
393.518	5679.02
398.311	4466.03
403.1	3075.63
407.887	2053.24
412.671	1608.95
417.451	1195.79
422.229	918.134
427.004	886.368
431.776	1014.73
436.545	1246.37
441.311	1499.88
446.074	2091.06
450.834	2878.86
455.591	4212.26
460.346	6837.2
465.097	11479.5
469.846	19681
474.591	33263.8
479.334	48103.9
484.074	52336.3
488.811	40901.8
493.545	25407.5
498.276	15306.5
503.005	9643.76
507.73	6214.31
512.453	4280.23
517.173	3091.55
521.89	2308.29
526.604	1741.45
531.315	1205.05
536.024	958.169
540.729	652.971
545.432	499.485
550.132	335.652
554.83	105.027
559.524	30.7539
564.216	78.4458
568.904	119.579
573.59	133.21
578.274	6.15771
582.954	77.9009
587.632	172.477
592.307	118.694
596.979	120.274
601.648	207.319
606.315	271.92
610.979	326.936
615.64	466.425
620.298	500.668
624.954	482.435
629.607	416.881
634.257	445.018
638.904	423.415
643.549	411.434
648.191	427.35
652.83	423.743
657.467	647.938
662.101	798.051
666.732	778.799
671.36	909.66
675.986	838.447
680.609	586.985
685.23	342.16
689.847	240.928
694.462	87.583
699.075	180.509
703.685	48.48
708.292	57.124
712.896	33.821
717.498	22.8467
722.097	20.7605
726.694	30.5479
731.287	28.8899
735.879	40.3655
740.467	2.28003
745.053	11.457
749.637	24.6836
754.217	31.7173
758.795	29.1519
763.371	96.3655
767.944	155.91
772.514	144.082
777.082	179.311
781.647	174.583
786.21	332.195
790.77	273.868
795.327	198.129
799.882	333.618
804.434	298.873
808.984	161.247
813.531	206.05
818.076	170.291
822.618	180.972
827.158	224.097
831.695	227.011
836.229	126.528
840.761	235.337
845.291	282.183
849.817	263.737
854.342	204.878
858.864	267.481
863.383	270.524
867.9	237.524
872.414	163.64
876.926	123.262
881.436	5.98242
885.942	14.6934
890.447	10.3132
894.949	45.3877
899.448	60.3962
903.945	28.0964
908.44	6.4353
912.932	18.333
917.421	79.0403
921.909	16.6406
926.393	47.167
930.876	81.3879
935.355	73.5779
939.833	43.658
944.308	133.038
948.78	52.7119
953.25	117.963
957.718	50.4126
962.183	209.014
966.646	146.268
971.107	220.578
975.565	184.726
980.02	332.054
984.474	410.427
988.925	591.887
993.373	631.675
997.819	802.623
1002.26	998.742
1006.7	885.994
1011.14	859.276
1015.58	929.721
1020.01	1005.03
1024.45	957.951
1028.88	1011.38
1033.3	975.068
1037.73	1127.9
1042.15	1202.7
1046.57	1338.12
1050.99	1429.1
1055.4	1516.14
1059.82	1611.82
1064.23	1936.44
1068.64	2262.58
1073.04	2626.57
1077.45	3094.65
1081.85	3513.86
1086.25	3968.48
1090.64	4233.66
1095.04	4370.76
1099.43	4500.22
1103.82	4512.04
1108.21	4365.43
1112.6	4254.94
1116.98	3967.59
1121.36	3748.45
1125.74	3268.33
1130.12	2962.34
1134.49	2486.46
1138.86	2053.7
1143.23	1744.05
1147.6	1521.54
1151.96	1146.17
1156.33	1049.99
1160.69	821.455
1165.05	643.213
1169.4	512.568
1173.76	534.028
1178.11	279.595
1182.46	163.274
1186.81	94.1304
1191.15	101.067
1195.49	62.0732
1199.84	40.8618
1204.17	13.8565
1208.51	28.9756
1212.84	39.7017
1217.18	31.3208
1221.51	22.1191
1225.83	68.6587
1230.16	62.4458
1234.48	50.4477
1238.8	62.3701
1243.12	63.3398
1247.44	12.6372
1251.76	96.4434
1256.07	56.6074
1260.38	125.894
1264.69	150.247
1268.99	211.646
1273.3	259.085
1277.6	202.556
1281.9	102.053
1286.2	118.566
1290.49	87.085
1294.79	228.592
1299.08	241.082
1303.37	266.552
1307.65	275.982
1311.94	308.362
1316.22	274.685
1320.5	386.99
1324.78	263.282
1329.06	221.283
1333.33	111.79
1337.6	102.413
1341.87	187.424
1346.14	38.6406
1350.41	152.149
1354.67	101.292
1358.93	25.4673
1363.19	88.1538
1367.45	25.4145
1371.71	95.9053
1375.96	111.027
1380.21	150.678
1384.46	238.85
1388.71	89.5674
1392.96	137.4
1397.2	105.452
1401.44	135.466
1405.68	198.441
1409.92	157.197
1414.16	80.4678
1418.39	250.052
1422.62	109.275
1426.85	117.662
1431.08	124.868
1435.3	273.638
1439.53	396.835
1443.75	596.787
1447.97	771.003
1452.19	795.423
1456.4	810.28
1460.62	803.426
1464.83	565.361
1469.04	373.31
1473.24	326.228
1477.45	334.888
1481.65	261.328
1485.86	177.707
1490.06	16.0781
1494.26	138.541
1498.45	92.2134
1502.64	24.269
1506.84	36.813
1511.03	113.627
1515.22	31.6709
1519.4	27.27
1523.59	108.088
1527.77	188.273
1531.95	205.86
1536.13	158.018
1540.31	66.4424
1544.48	165.942
1548.65	44.8438
1552.82	141.527
1556.99	166.883
1561.16	58.3042
1565.33	0
