Measurement: Raman, 514 nm, ccw, Raman Data Processed
Mineral: Analcime
Rruff sample: R050094
Ideal chemistry: NaAlSi_2_O_6_H_2_O
Locality: Springfield, Oregon, USA
Source: Rock Currier
Description: Clear colorless single crystals associated with gmelinite
Measured chemistry: (Na_0.99_[box]_0.01_)_Σ=1_(Si_2.01_Al_0.99_)O_6_·H_2_O
Pin_id: M00117
Orientation: Laser parallel to a* (1 0 0). Fiducial mark perpendicular to laser is parallel to -c [0 0 -1]
Raman shift (cm-1)	intensity
169.765	0
174.7	64.0098
179.631	140.426
184.56	299.776
189.484	656.806
194.406	930.094
199.325	1351.25
204.24	1634.43
209.153	1565.33
214.062	1782.6
218.968	1780.74
223.87	2088.23
228.77	1765.85
233.666	1361.35
238.56	986.666
243.45	770.45
248.337	448.862
253.221	230.479
258.102	37.915
262.979	8.40527
267.854	167.812
272.726	145.165
277.594	3.89209
282.459	285.044
287.321	1210.97
292.18	3100.36
297.036	5123.86
301.889	4433.31
306.739	2250.1
311.586	1293.91
316.43	965.312
321.271	913.848
326.108	998.816
330.943	1177.77
335.774	1344.1
340.603	1574.38
345.428	1860.47
350.251	2055.55
355.07	2353.34
359.887	2764.26
364.7	3291.71
369.511	4131.29
374.318	5080.68
379.123	6142.55
383.924	7215.98
388.723	7713.33
393.518	7173.13
398.311	5439.4
403.1	3753.41
407.887	2731.6
412.671	2045.48
417.451	1455.13
422.229	1164.71
427.004	1024.26
431.776	1076.84
436.545	1403.82
441.311	1579.91
446.074	2113.85
450.834	3139.54
455.591	4634.98
460.346	7172.08
465.097	11914.5
469.846	19819
474.591	32702.7
479.334	47733.5
484.074	53578.4
488.811	43734.4
493.545	28282.6
498.276	17351.8
503.005	10834.3
507.73	7065.06
512.453	4923.13
517.173	3511.63
521.89	2547.54
526.604	1859.85
531.315	1415.56
536.024	908.712
540.729	788.369
545.432	487.738
550.132	173.021
554.83	140.439
559.524	13.2432
564.216	56.564
568.904	106.176
573.59	56.4797
578.274	7.95508
582.954	53.061
587.632	113.821
592.307	152.105
596.979	83.6489
601.648	212.181
606.315	311.344
610.979	469.87
615.64	702.366
620.298	879.464
624.954	959.54
629.607	662.19
634.257	491.956
638.904	626.358
643.549	734.336
648.191	810.192
652.83	798.07
657.467	664.819
662.101	671.34
666.732	730.603
671.36	816.606
675.986	805.31
680.609	586.691
685.23	365.725
689.847	69.3828
694.462	74.5913
699.075	43.4778
703.685	14.5762
708.292	25.8816
712.896	8.04663
717.498	33.8066
722.097	3.97217
726.694	33.5269
731.287	13.7893
735.879	4.03076
740.467	30.7859
745.053	30.4927
749.637	26.0666
754.217	36.74
758.795	70.5564
763.371	99.6716
767.944	160.315
772.514	254.097
777.082	371.581
781.647	388.235
786.21	513.063
790.77	597.547
795.327	582.78
799.882	522.147
804.434	454.504
808.984	412.369
813.531	387.822
818.076	401.555
822.618	318.695
827.158	357.545
831.695	327.46
836.229	355.348
840.761	476.912
845.291	498.209
849.817	534.891
854.342	696.395
858.864	770.141
863.383	615.308
867.9	418.77
872.414	318.715
876.926	235.49
881.436	231.039
885.942	168.583
890.447	112.947
894.949	107.865
899.448	115.776
903.945	120.764
908.44	63.3953
912.932	5.64136
917.421	3.13721
921.909	61.3298
926.393	33.1392
930.876	34.3555
935.355	7.50977
939.833	20.8281
944.308	4.14844
948.78	68.5557
953.25	66.1738
957.718	46.7114
962.183	103.235
966.646	115.873
971.107	112.573
975.565	154.347
980.02	292.334
984.474	462.621
988.925	541.143
993.373	583.028
997.819	947.222
1002.26	1214.59
1006.7	697.166
1011.14	663.99
1015.58	807.141
1020.01	927.598
1024.45	976.267
1028.88	954.112
1033.3	1068.09
1037.73	1083.96
1042.15	1153.14
1046.57	1295.9
1050.99	1337.14
1055.4	1474.43
1059.82	1560.81
1064.23	1909
1068.64	2097.6
1073.04	2388.41
1077.45	2762.19
1081.85	3169.59
1086.25	3196.96
1090.64	3373.18
1095.04	3403.95
1099.43	3437.47
1103.82	3497.37
1108.21	3422.81
1112.6	3183.95
1116.98	3030.2
1121.36	2818.55
1125.74	2460.02
1130.12	2130.59
1134.49	1863.26
1138.86	1555.04
1143.23	1212.91
1147.6	1098.87
1151.96	938.927
1156.33	751.068
1160.69	604.293
1165.05	445.599
1169.4	353.988
1173.76	248.648
1178.11	232.007
1182.46	150.67
1186.81	110.568
1191.15	16.2808
1195.49	41.0493
1199.84	15.8784
1204.17	73.7744
1208.51	21.0452
1212.84	16.4399
1217.18	18.1907
1221.51	18.8464
1225.83	30.5867
1230.16	4.73438
1234.48	132.027
1238.8	55.3628
1243.12	112.762
1247.44	157.247
1251.76	192.898
1256.07	156.704
1260.38	115.638
1264.69	242.683
1268.99	218.815
1273.3	285.018
1277.6	282.28
1281.9	272.538
1286.2	237.974
1290.49	281.388
1294.79	378.832
1299.08	362.294
1303.37	422.765
1307.65	457.234
1311.94	514.696
1316.22	541.142
1320.5	499.777
1324.78	359.781
1329.06	306.623
1333.33	209.46
1337.6	253.425
1341.87	152.193
1346.14	138.006
1350.41	190.2
1354.67	124.28
1358.93	179.35
1363.19	103.466
1367.45	96.2336
1371.71	179.181
1375.96	210.165
1380.21	244.196
1384.46	248.133
1388.71	283.117
1392.96	204.876
1397.2	157.761
1401.44	192.97
1405.68	256.111
1409.92	252.169
1414.16	167.542
1418.39	89.4888
1422.62	91.7905
1426.85	216.628
1431.08	208.825
1435.3	368.57
1439.53	531.986
1443.75	830.291
1447.97	861.892
1452.19	935.031
1456.4	994.75
1460.62	813.739
1464.83	582.383
1469.04	462.266
1473.24	409.104
1477.45	316.584
1481.65	282.875
1485.86	183.16
1490.06	127.511
1494.26	91.4312
1498.45	12.8982
1502.64	42.6956
1506.84	2.35132
1511.03	60.8064
1515.22	13.5825
1519.4	81.5925
1523.59	95.8965
1527.77	184.663
1531.95	193.374
1536.13	112.129
1540.31	69.4788
1544.48	64.9434
1548.65	94.4387
1552.82	133.63
1556.99	124.866
1561.16	1.02686
1565.33	0
