Measurement: Raman, 514 nm, ccw, Raman Data Processed
Mineral: Analcime
Rruff sample: R040128
Ideal chemistry: NaAlSi_2_O_6_H_2_O
Locality: Mont Saint-Hilaire, Rouville County, Quebec, Canada
Source: Bob Downs
Description: White trapezohedra associated with black arfvedsonite, R040127
Measured chemistry: Na_0.93_(Si_2.04_Al_0.99_)O_6_Â·H_2_O
Pin_id: L00542
Orientation: Laser parallel to -a [-1 0 0]. Fiducial mark perpendicular to laser is parallel to -b* (0 -1 0)
Raman shift (cm-1)	intensity
107.387	0
111.566	1199.03
115.744	1008.66
119.919	665.723
124.092	985.791
128.263	1322.84
132.432	1535.41
136.599	2019.33
140.764	2183.33
144.927	2056.61
149.088	1692
153.247	1353.91
157.404	1005.63
161.559	718.261
165.711	434.096
169.862	344.702
174.011	381.148
178.158	403.473
182.303	634.78
186.446	1120.38
190.587	1378.5
194.726	1543.43
198.862	1567.53
202.997	1285.5
207.13	936.527
211.261	689.006
215.39	682.69
219.517	587.334
223.642	542.741
227.765	548.753
231.886	565.116
236.005	341.565
240.122	197.908
244.237	134.139
248.35	9.262
252.461	108.707
256.57	145.696
260.677	83.104
264.782	81.905
268.885	30.092
272.986	124.353
277.085	93.031
281.182	242.761
285.278	277.767
289.371	150.414
293.462	997.516
297.552	1755.12
301.639	1392.85
305.724	850.497
309.808	587.953
313.889	494.94
317.969	461.212
322.046	526.654
326.122	691.38
330.196	745.484
334.267	969.042
338.337	1182.11
342.405	1404.64
346.471	1515.92
350.535	1975.12
354.597	2262.92
358.657	2479.1
362.715	2673
366.771	3066.51
370.825	3800
374.877	4293.46
378.928	4756.88
382.976	5300.26
387.023	5893.61
391.067	5986.9
395.11	5840.62
399.15	5514.29
403.189	5122.48
407.226	4495.86
411.261	3504.77
415.294	2759.18
419.325	2226.31
423.354	1968.11
427.381	1606.53
431.406	1512.73
435.43	1620.37
439.451	1867.6
443.471	1861.49
447.488	2102.55
451.504	2544.79
455.518	3217.31
459.53	4359.58
463.54	6281.57
467.548	9503.27
471.554	15254.7
475.558	24015.8
479.561	34586.7
483.561	37207.2
487.559	30097.6
491.556	20217.6
495.551	13057.4
499.544	8506.91
503.535	6096.19
507.524	4325.23
511.511	3084.06
515.496	2382.7
519.48	1851.15
523.461	1569.45
527.441	1197.62
531.418	986.214
535.394	744.984
539.368	654.009
543.34	495.267
547.311	465.942
551.279	57.117
555.245	166.692
559.21	8.804
563.173	120.143
567.133	30.754
571.092	5.064
575.049	0.954
579.005	24.685
582.958	111.587
586.909	83.392
590.859	77.362
594.807	433.413
598.753	464.692
602.697	283.194
606.639	491.229
610.579	469.56
614.518	586.642
618.454	653.306
622.389	509.407
626.322	494.868
630.253	400.064
634.182	524.976
638.109	519.596
642.035	463.924
645.958	337.958
649.88	291.698
653.8	465.739
657.718	399.104
661.634	402.574
665.549	505.17
669.461	489.662
673.372	682.027
677.281	394.246
681.188	346.858
685.093	239.148
688.997	260.745
692.898	261.441
696.798	162.525
700.696	12.604
704.592	52.438
708.486	91.249
712.378	49.809
716.269	6.936
720.158	82.097
724.045	11.442
727.93	63.497
731.813	56.623
735.694	41.928
739.574	110.984
743.452	26.462
747.328	6.744
751.202	172.779
755.075	66.647
758.945	80.973
762.814	51.025
766.681	174.543
770.546	202.086
774.409	284.783
778.271	274.784
782.131	295.745
785.989	346.448
789.845	475.465
793.699	484.161
797.552	442.541
801.402	270.608
805.251	148.366
809.098	205.812
812.944	242.947
816.787	339.775
820.629	56.306
824.469	152.502
828.307	218.396
832.144	84.004
835.978	39.309
839.811	164.164
843.642	148.389
847.472	21.931
851.299	114.369
855.125	82.421
858.949	70.514
862.771	133.998
866.591	44.049
870.41	70.296
874.227	10.732
878.042	87.389
881.855	92.337
885.667	0.737
889.476	2.911
893.284	40.114
897.09	60.784
900.895	146.26
904.698	49.537
908.499	104.951
912.298	6.597
916.095	66.716
919.891	43.408
923.685	143.885
927.477	104.439
931.267	175.068
935.056	54
938.843	56.857
942.628	107.698
946.411	238.538
950.193	109.377
953.973	230.224
957.751	90.847
961.527	91.388
965.302	92.094
969.075	232.437
972.846	312.728
976.615	352.09
980.383	302.914
984.149	583.168
987.913	713.019
991.675	903.688
995.436	914.294
999.195	1055.1
1002.95	1206.28
1006.71	1087.75
1010.46	1199.52
1014.21	1351.92
1017.96	1534.21
1021.71	1536.48
1025.46	1418.84
1029.2	1358.67
1032.95	1536.12
1036.69	1399.35
1040.43	1867.25
1044.17	2120.08
1047.9	2454.74
1051.64	2599.88
1055.37	2552.52
1059.1	2608.88
1062.83	2654.3
1066.56	2678.9
1070.29	3105.38
1074.01	3315.44
1077.73	3740.16
1081.46	4117.59
1085.17	4692.54
1088.89	5250.34
1092.61	5998.81
1096.32	6216.93
1100.04	6215.52
1103.75	6174.55
1107.46	5813.53
1111.16	5432.7
1114.87	4892.41
1118.57	4542.13
1122.28	4592.15
1125.98	3701.88
1129.67	3172.24
1133.37	2633.78
1137.07	2207.01
1140.76	1767.92
1144.45	1472.4
1148.14	1253.4
1151.83	1210.61
1155.52	980.199
1159.21	796.359
1162.89	679.963
1166.57	381.703
1170.25	435.963
1173.93	206.689
1177.61	424.318
1181.28	286.652
1184.96	398.016
1188.63	202.719
1192.3	172.488
1195.97	56.924
1199.64	38.098
1203.3	198.604
1206.97	148.73
1210.63	219.75
1214.29	230.918
1217.95	184.203
1221.6	208.043
1225.26	300.234
1228.91	147.895
1232.57	200.521
1236.21	247.48
1239.86	387.621
1243.51	365.082
1247.16	282.793
1250.8	81.824
1254.44	61.902
1258.08	0.25
1261.72	138.145
1265.36	215.408
1268.99	322.322
1272.63	288.623
1276.26	474.234
1279.89	391.361
1283.52	86.553
1287.15	29.158
1290.77	95.301
1294.4	71.527
1298.02	30.955
1301.64	353.031
1305.26	293.922
1308.88	34.041
1312.49	323.529
1316.11	162.564
1319.72	68.963
1323.33	58.914
1326.94	126.262
1330.55	143.014
1334.15	219.074
1337.76	314.656
1341.36	329.451
1344.96	223.68
1348.56	177.42
1352.16	121.268
1355.75	98.859
1359.35	4.928
1362.94	70.053
1366.53	331.418
1370.12	52.156
1373.71	331.748
1377.3	360.221
1380.88	398.004
1384.46	439.246
1388.05	348.984
1391.63	88.014
1395.2	47.281
1398.78	175.105
1402.36	270.252
1405.93	607.652
1409.5	593.789
1413.07	669.17
1416.64	674.072
1420.21	501.176
1423.78	271.27
1427.34	314.295
1430.9	124.08
1434.46	343.662
1438.02	301.617
1441.58	741.633
1445.13	837.896
1448.69	909.982
1452.24	856.283
1455.79	752.215
1459.34	819.82
1462.89	681.6
1466.44	481.594
1469.98	350.621
1473.53	224.061
1477.07	88.91
1480.61	407.23
1484.14	464.615
1487.68	426.031
1491.22	718.152
1494.75	520.543
1498.28	523.938
1501.81	358.738
1505.34	367.381
1508.87	149.203
1512.4	50.27
1515.92	52.459
1519.44	90.555
