Measurement: Raman, 514 nm, ccw, Raman Data Processed
Mineral: Analcime
Rruff sample: R060023
Ideal chemistry: NaAlSi_2_O_6_H_2_O
Locality: Dallas, Oregon, USA
Source: Bob Downs
Description: White trapezohedral crystal associated with levyne-Na, R060021
Measured chemistry: (Na_0.98_[box]_0.02_)_Σ=1_(Si_2.02_Al_0.98_)O_6_·H_2_O
Pin_id: M00322
Orientation: Laser parallel to a* (1 0 0). Fiducial mark perpendicular to laser is parallel to c [0 0 1]
Raman shift (cm-1)	intensity
171.786	0
176.693	50.6235
181.598	80.5615
186.5	223.266
191.399	346.153
196.296	409.196
201.19	369.046
206.082	334.372
210.971	273.651
215.858	415.283
220.742	364.037
225.624	432.327
230.503	417.542
235.38	265.088
240.254	166.788
245.125	89.7678
249.994	51.8543
254.861	6.74439
259.725	61.5852
264.586	36.4995
269.445	84.2966
274.302	44.1006
279.155	58.0176
284.007	122.927
288.855	476.123
293.702	778.551
298.545	749.914
303.386	444.492
308.225	274.615
313.061	116.054
317.894	136.35
322.725	129.032
327.554	244.564
332.38	268.464
337.203	314.558
342.024	436.729
346.842	537.832
351.658	533.075
356.471	645.449
361.281	797.408
366.09	1015.97
370.895	1280.07
375.698	1512.04
380.498	1828.18
385.296	2040.62
390.092	2018.83
394.884	1822.47
399.675	1398.29
404.462	1173.59
409.248	802.917
414.03	564.858
418.81	406.343
423.588	330.313
428.363	209.914
433.135	397.299
437.905	510.601
442.672	624.025
447.437	856.38
452.199	1255.26
456.959	1931.35
461.716	3066.7
466.47	5139.12
471.222	9134.55
475.972	13707
480.719	15426.4
485.463	12331.8
490.205	7841.34
494.944	4598.88
499.681	2790.49
504.415	1828.16
509.146	1227.02
513.875	911.916
518.602	641.938
523.326	486.085
528.047	363.363
532.766	275.79
537.482	220.404
542.196	112.337
546.907	80.4805
551.616	60.4473
556.322	4.27783
561.025	14.154
565.726	19.731
570.424	20.1104
575.12	64.5586
579.813	10.2507
584.504	120.307
589.192	59.5452
593.877	82.9768
598.56	105.146
603.241	222.068
607.919	180.587
612.594	145.335
617.267	180.549
621.937	196.328
626.604	163.387
631.269	218.557
635.932	174.668
640.592	132.253
645.249	86.7656
649.904	121.224
654.556	88.6167
659.206	158.94
663.853	164.242
668.497	157.534
673.139	206.664
677.779	191.024
682.416	92.9675
687.05	8.20581
691.682	24.5701
696.311	1.0791
700.937	24.8914
705.561	51.4014
710.183	54.8789
714.802	57.7693
719.418	70.1182
724.032	9.92871
728.643	40.8831
733.251	32.144
737.857	40.021
742.461	35.2966
747.062	13.7925
751.66	50.55
756.256	66.7598
760.849	37.6082
765.44	66.1343
770.028	25.9985
774.613	131.514
779.196	119.643
783.777	198.186
788.354	196.428
792.93	170.508
797.502	145.363
802.072	177.06
806.64	127.354
811.205	151.597
815.767	147.027
820.327	166.344
824.884	101.628
829.439	78.0571
833.991	95.0237
838.541	60.2153
843.087	80.5693
847.632	67.3079
852.174	95.2251
856.713	87.8904
861.25	115.452
865.784	50.6448
870.315	22.1733
874.844	54.5381
879.371	9.90161
883.894	18.5461
888.416	63.2173
892.934	25.1062
897.45	27.585
901.964	38.064
906.475	3.23047
910.983	40.1453
915.489	63.3708
919.992	4.49121
924.493	32.4998
928.991	53.405
933.486	42.1868
937.979	68.7981
942.47	33.2512
946.957	55.6917
951.443	6.72119
955.925	54.041
960.405	136.396
964.883	63.7017
969.358	75.7983
973.83	101.095
978.3	105.317
982.767	185.491
987.232	119.536
991.694	272.65
996.153	219.034
1000.61	306.503
1005.06	297.354
1009.52	268.99
1013.97	299.884
1018.41	325.634
1022.86	263.989
1027.3	309.468
1031.74	346.181
1036.17	453.076
1040.61	422.887
1045.04	452.847
1049.47	483.521
1053.89	641.414
1058.32	658.618
1062.74	617.797
1067.15	716.993
1071.57	785.59
1075.98	942.992
1080.39	962.272
1084.8	1335.57
1089.21	1405.72
1093.61	1495.38
1098.01	1512.55
1102.41	1581
1106.8	1555.32
1111.19	1428.24
1115.59	1308.21
1119.97	1289.94
1124.36	987.456
1128.74	934.237
1133.12	739.535
1137.5	626.454
1141.87	532.988
1146.24	464.995
1150.61	415.431
1154.98	343.123
1159.34	239.785
1163.7	201.66
1168.06	191.502
1172.42	171.325
1176.77	170.252
1181.12	98.2256
1185.47	79.23
1189.82	59.4673
1194.16	32.0786
1198.5	11.605
1202.84	38.4639
1207.18	67.5889
1211.51	15.706
1215.84	17.1763
1220.17	7.79443
1224.5	55.6177
1228.82	12.8852
1233.14	81.6313
1237.46	51.3565
1241.77	74.3013
1246.09	60.0049
1250.39	1.93164
1254.7	24.8662
1259.01	38.8101
1263.31	54.6006
1267.61	43.8452
1271.91	21.3125
1276.2	58.374
1280.49	50.0615
1284.78	28.3809
1289.07	10.6953
1293.35	34.832
1297.64	119.785
1301.91	56.8013
1306.19	100.768
1310.46	142.01
1314.74	91.9556
1319.01	165.443
1323.27	177.429
1327.54	116.779
1331.8	127.502
1336.06	160.193
1340.31	133.801
1344.57	77.0527
1348.82	34.2793
1353.06	136.723
1357.31	106.203
1361.55	64.459
1365.79	18.4844
1370.03	81.75
1374.27	48.0005
1378.5	10.8672
1382.73	13.3935
1386.96	68.1157
1391.18	47.978
1395.4	75.6426
1399.62	36.6494
1403.84	2.91357
1408.06	26.895
1412.27	47.0098
1416.48	149.774
1420.69	71.2031
1424.89	131.493
1429.09	152.685
1433.29	91.8223
1437.49	189.764
1441.68	174.696
1445.87	202.705
1450.06	121.012
1454.25	196.522
1458.43	114.451
1462.62	46.6211
1466.79	161.567
1470.97	1.59375
1475.14	209.861
1479.31	31.9258
1483.48	193.517
1487.65	7.58057
1491.81	109.144
1495.97	94.9912
1500.13	10.8188
1504.29	68.8403
1508.44	119.907
1512.59	81.9683
1516.74	70.1621
1520.88	87.5049
1525.03	90.8174
1529.17	92.8784
1533.3	149.792
1537.44	172.596
1541.57	42.9341
1545.7	74.104
1549.83	74.7598
1553.95	134.565
1558.08	86.6436
1562.19	92.7046
