Measurement: Raman, 514 nm, ccw, Raman Data Processed
Mineral: Analcime
Rruff sample: R050094
Ideal chemistry: NaAlSi_2_O_6_H_2_O
Locality: Springfield, Oregon, USA
Source: Rock Currier
Description: Clear colorless single crystals associated with gmelinite
Measured chemistry: (Na_0.99_[box]_0.01_)_Σ=1_(Si_2.01_Al_0.99_)O_6_·H_2_O
Pin_id: M00434
Orientation: Laser parallel to c* (0 0 1). Fiducial mark perpendicular to laser is parallel to [1 1 0]
Raman shift (cm-1)	intensity
169.765	0
174.7	167.504
179.631	185.818
184.56	324.891
189.484	529.935
194.406	904.273
199.325	1088.33
204.24	1434.57
209.153	1387.85
214.062	1563.4
218.968	1753.8
223.87	1997.16
228.77	1862.67
233.666	1454.65
238.56	1184.14
243.45	806.356
248.337	511.031
253.221	237.722
258.102	114.353
262.979	156.078
267.854	183.313
272.726	181.343
277.594	53.5779
282.459	306.084
287.321	1162.14
292.18	2901.75
297.036	4959.88
301.889	4258.23
306.739	2245.89
311.586	1257.67
316.43	880.683
321.271	830.41
326.108	1000.54
330.943	1032.07
335.774	1249.43
340.603	1452.56
345.428	1705.68
350.251	1973.11
355.07	2309.64
359.887	2687.9
364.7	3341.71
369.511	4067.05
374.318	5042.44
379.123	5951.38
383.924	6675.94
388.723	6960.91
393.518	6299.39
398.311	5164.9
403.1	3767.52
407.887	2690.36
412.671	2008.24
417.451	1442.37
422.229	1250.21
427.004	910.509
431.776	1093.72
436.545	1128.46
441.311	1432.65
446.074	1825.2
450.834	2662.55
455.591	4108.67
460.346	6368.49
465.097	10632.6
469.846	18347
474.591	30945.6
479.334	46494.3
484.074	52689.3
488.811	41771.4
493.545	26279.7
498.276	15710.2
503.005	9624.99
507.73	6290.03
512.453	4212.47
517.173	3081.35
521.89	2256.68
526.604	1679.44
531.315	1256.62
536.024	853.233
540.729	683.345
545.432	410.101
550.132	182.692
554.83	75.1977
559.524	50.9248
564.216	117.273
568.904	47.9314
573.59	31.7637
578.274	68.2158
582.954	54.2803
587.632	147.038
592.307	161.635
596.979	170.845
601.648	278.737
606.315	417.866
610.979	515.338
615.64	599.323
620.298	771.727
624.954	880.803
629.607	836.807
634.257	616.021
638.904	559.397
643.549	685.361
648.191	781.242
652.83	728.024
657.467	732.663
662.101	638.131
666.732	768.424
671.36	743.509
675.986	658.337
680.609	475.889
685.23	308.145
689.847	120.078
694.462	53.6299
699.075	40.1169
703.685	95.178
708.292	24.4358
712.896	12.1069
717.498	34.3645
722.097	27.771
726.694	26.7375
731.287	18.5869
735.879	62.1851
740.467	40.904
745.053	27.012
749.637	32.0332
754.217	18.2036
758.795	63.6016
763.371	103.332
767.944	157.655
772.514	161.284
777.082	271.248
781.647	363.515
786.21	497.287
790.77	548.129
795.327	588.648
799.882	564.509
804.434	455.881
808.984	360.72
813.531	359.893
818.076	393.776
822.618	312.652
827.158	260.221
831.695	324.601
836.229	284.76
840.761	320.613
845.291	387.741
849.817	329.578
854.342	444.637
858.864	526.57
863.383	510.585
867.9	316.955
872.414	163.254
876.926	204.52
881.436	203.916
885.942	151.949
890.447	113.424
894.949	51.2051
899.448	88.9062
903.945	55.2913
908.44	79.9343
912.932	38.3594
917.421	25.4363
921.909	13.4248
926.393	1.99609
930.876	41.3508
935.355	27.5156
939.833	8.41431
944.308	39.2532
948.78	89.1548
953.25	14.8582
957.718	103.075
962.183	77.9819
966.646	103.902
971.107	72.8596
975.565	199.191
980.02	199.393
984.474	331.07
988.925	375.947
993.373	509.06
997.819	556.434
1002.26	1029.01
1006.7	623.794
1011.14	536.83
1015.58	615.119
1020.01	740.654
1024.45	798.395
1028.88	839.185
1033.3	855.072
1037.73	904.08
1042.15	1053.19
1046.57	1171.41
1050.99	1264.56
1055.4	1313.53
1059.82	1371.59
1064.23	1619.53
1068.64	1827.51
1073.04	2145.53
1077.45	2475.82
1081.85	2798.14
1086.25	3121.88
1090.64	3288.2
1095.04	3443.13
1099.43	3513.17
1103.82	3521.92
1108.21	3475.91
1112.6	3179.68
1116.98	2903.87
1121.36	2723.15
1125.74	2445.61
1130.12	2121.07
1134.49	1773.61
1138.86	1460.23
1143.23	1193.92
1147.6	1058.69
1151.96	793.515
1156.33	710.408
1160.69	567.36
1165.05	508.412
1169.4	354.442
1173.76	340.567
1178.11	301.761
1182.46	83.0234
1186.81	104.418
1191.15	23.9158
1195.49	41.4727
1199.84	20.1165
1204.17	32.7393
1208.51	52.7478
1212.84	30.5586
1217.18	39.3171
1221.51	37.8196
1225.83	15.0457
1230.16	10.9968
1234.48	10.1509
1238.8	1.71118
1243.12	76.9898
1247.44	83.7729
1251.76	79.592
1256.07	42.419
1260.38	66.2449
1264.69	113.138
1268.99	178.105
1273.3	156.05
1277.6	129.017
1281.9	99.9907
1286.2	77.9622
1290.49	144.068
1294.79	127.053
1299.08	176.979
1303.37	215.878
1307.65	197.772
1311.94	205.552
1316.22	355.346
1320.5	257.107
1324.78	226.852
1329.06	115.564
1333.33	66.6221
1337.6	148.899
1341.87	32.3877
1346.14	59.3008
1350.41	72.575
1354.67	25.5317
1358.93	4.93896
1363.19	27.3379
1367.45	8.09668
1371.71	52.2532
1375.96	66.5654
1380.21	128.127
1384.46	119.968
1388.71	96.1318
1392.96	10.8469
1397.2	81.9944
1401.44	62.1499
1405.68	53.7087
1409.92	63.4321
1414.16	76.9817
1418.39	29.1399
1422.62	45.9485
1426.85	67.4485
1431.08	141.537
1435.3	221.504
1439.53	337.366
1443.75	496.81
1447.97	567.382
1452.19	630.108
1456.4	592.485
1460.62	596.23
1464.83	455.998
1469.04	313.154
1473.24	227.932
1477.45	212.708
1481.65	210.261
1485.86	131.794
1490.06	104.318
1494.26	100.62
1498.45	42.5972
1502.64	6.4917
1506.84	1.06323
1511.03	50.6065
1515.22	11.4636
1519.4	92.7217
1523.59	11.2014
1527.77	22.9934
1531.95	103.817
1536.13	120.838
1540.31	87.5244
1544.48	67.3831
1548.65	110.358
1552.82	45.7876
1556.99	98.772
1561.16	31.1396
1565.33	0
