Measurement: Raman, 514 nm, ccw, Raman Data Processed
Mineral: Analcime
Rruff sample: R060023
Ideal chemistry: NaAlSi_2_O_6_H_2_O
Locality: Dallas, Oregon, USA
Source: Bob Downs
Description: White trapezohedral crystal associated with levyne-Na, R060021
Measured chemistry: (Na_0.98_[box]_0.02_)_Σ=1_(Si_2.02_Al_0.98_)O_6_·H_2_O
Pin_id: M00414
Orientation: Laser parallel to c* (0 0 1). Fiducial mark perpendicular to laser is parallel to a [1 0 0]
Raman shift (cm-1)	intensity
181.598	0
186.5	118.419
191.399	128.57
196.296	240.811
201.19	292.815
206.082	296.523
210.971	283.836
215.858	424.703
220.742	507.134
225.624	602.199
230.503	576.576
235.38	473.541
240.254	269.872
245.125	166.193
249.994	21.6709
254.861	37.2891
259.725	151.298
264.586	79.4526
269.445	58.0772
274.302	14.0332
279.155	83.2383
284.007	289.465
288.855	695.514
293.702	1203.83
298.545	1325.01
303.386	850.453
308.225	381.306
313.061	333.002
317.894	279.388
322.725	470.125
327.554	470.312
332.38	592.33
337.203	623.868
342.024	807.368
346.842	901.657
351.658	921.507
356.471	1118
361.281	1419.28
366.09	1678.77
370.895	2069.13
375.698	2398.86
380.498	2788.34
385.296	2834.8
390.092	2718.43
394.884	2522.64
399.675	2231.11
404.462	1920.35
409.248	1444.52
414.03	1100.77
418.81	817.265
423.588	849.134
428.363	778.389
433.135	831.347
437.905	897.574
442.672	1034.67
447.437	1216.39
452.199	1650.08
456.959	2565.61
461.716	4012.31
466.47	6730.19
471.222	11586.3
475.972	17277.3
480.719	20416.3
485.463	17942.1
490.205	11813.9
494.944	7048.57
499.681	4387.23
504.415	2751.86
509.146	1837.47
513.875	1297.11
518.602	1013.79
523.326	677.523
528.047	535.307
532.766	463.159
537.482	358.117
542.196	170.296
546.907	173.924
551.616	49.6103
556.322	21.8672
561.025	7.22168
565.726	75.3257
570.424	1.83252
575.12	54.8081
579.813	13.7109
584.504	32.9551
589.192	45.6357
593.877	157.619
598.56	187.695
603.241	175.268
607.919	370.828
612.594	249.549
617.267	276.083
621.937	263.455
626.604	249.805
631.269	274.764
635.932	294.312
640.592	328.391
645.249	330.256
649.904	236.257
654.556	232.9
659.206	222.204
663.853	259.334
668.497	359.281
673.139	383.381
677.779	285.494
682.416	140.857
687.05	21.7422
691.682	48.668
696.311	94.5957
700.937	63.4668
705.561	30.9424
710.183	77.0586
714.802	120.241
719.418	28.5938
724.032	178.558
728.643	43.917
733.251	6.48242
737.857	11.8486
742.461	57.251
747.062	33.044
751.66	154.732
756.256	108.429
760.849	127.792
765.44	164.692
770.028	236.544
774.613	132.154
779.196	193.921
783.777	205.751
788.354	385.277
792.93	329.438
797.502	290.407
802.072	216.009
806.64	225.758
811.205	190.761
815.767	195.847
820.327	124.485
824.884	261.576
829.439	296.1
833.991	152.356
838.541	137.009
843.087	172.448
847.632	162.065
852.174	216.256
856.713	114.11
861.25	182.681
865.784	113.756
870.315	133.52
874.844	44.4541
879.371	64.1016
883.894	168.418
888.416	277.965
892.934	69.6523
897.45	87.0527
901.964	21.124
906.475	118.007
910.983	24.5645
915.489	102.486
919.992	94.0488
924.493	36.1094
928.991	85.1728
933.486	120.211
937.979	101.046
942.47	104.329
946.957	41.6533
951.443	149.297
955.925	116.113
960.405	170.533
964.883	245.295
969.358	258.738
973.83	310.349
978.3	229.15
982.767	399.944
987.232	491.514
991.694	255.302
996.153	581.027
1000.61	555.044
1005.06	451.019
1009.52	492.387
1013.97	466.339
1018.41	523.614
1022.86	539.816
1027.3	542.565
1031.74	509.614
1036.17	760.58
1040.61	821.718
1045.04	745.596
1049.47	818.504
1053.89	796.927
1058.32	878.775
1062.74	916.336
1067.15	1172.15
1071.57	1183.8
1075.98	1429.57
1080.39	1699.71
1084.8	2048.28
1089.21	2475.88
1093.61	2455.41
1098.01	2547.37
1102.41	2456.38
1106.8	2435.64
1111.19	2107.62
1115.59	2223.77
1119.97	1766.38
1124.36	1722.11
1128.74	1496.18
1133.12	1301.84
1137.5	1107.07
1141.87	1068.35
1146.24	635.508
1150.61	711.087
1154.98	501.315
1159.34	475.648
1163.7	400.535
1168.06	218.637
1172.42	201.191
1176.77	237.188
1181.12	225.404
1185.47	131.679
1189.82	30.6475
1194.16	73.6582
1198.5	25.7109
1202.84	110.812
1207.18	61.0107
1211.51	185.159
1215.84	116.47
1220.17	25.1953
1224.5	8.84863
1228.82	39.4893
1233.14	18.2021
1237.46	30.9785
1241.77	135.976
1246.09	13.1807
1250.39	122.325
1254.7	92.4346
1259.01	16.5498
1263.31	28.5107
1267.61	34.8535
1271.91	34.669
1276.2	116.653
1280.49	122.916
1284.78	5.21094
1289.07	45.706
1293.35	24.0654
1297.64	228.748
1301.91	100.301
1306.19	173.634
1310.46	53.6143
1314.74	194.353
1319.01	110.019
1323.27	216.214
1327.54	102.481
1331.8	204.685
1336.06	24.041
1340.31	189.001
1344.57	70.7852
1348.82	156.174
1353.06	110.644
1357.31	11.8926
1361.55	66.3945
1365.79	13.8066
1370.03	41.7363
1374.27	167.872
1378.5	94.5859
1382.73	280.21
1386.96	160.31
1391.18	233.317
1395.4	70.417
1399.62	269.804
1403.84	103.861
1408.06	14.8916
1412.27	52.831
1416.48	131.308
1420.69	217.332
1424.89	164.456
1429.09	84.3457
1433.29	217.761
1437.49	287.921
1441.68	82.5606
1445.87	66.2061
1450.06	59.7529
1454.25	375.988
1458.43	185.099
1462.62	195.305
1466.79	127.492
1470.97	178.834
1475.14	63.0801
1479.31	220.582
1483.48	183.836
1487.65	218.781
1491.81	58.9512
1495.97	62.625
1500.13	271.078
1504.29	112.287
1508.44	71.4766
1512.59	201.826
1516.74	56.459
1520.88	271.539
1525.03	244.748
1529.17	255.869
1533.3	150.106
1537.44	128.301
1541.57	143.1
1545.7	115.697
1549.83	193.584
1553.95	126.873
1558.08	150.119
1562.19	282.562
