Measurement: Raman, 514 nm, ccw, Raman Data Processed
Mineral: Analcime
Rruff sample: R060023
Ideal chemistry: NaAlSi_2_O_6_H_2_O
Locality: Dallas, Oregon, USA
Source: Bob Downs
Description: White trapezohedral crystal associated with levyne-Na, R060021
Measured chemistry: (Na_0.98_[box]_0.02_)_Σ=1_(Si_2.02_Al_0.98_)O_6_·H_2_O
Pin_id: M00322
Orientation: Laser parallel to a* (1 0 0). Fiducial mark perpendicular to laser is parallel to c [0 0 1]
Raman shift (cm-1)	intensity
176.693	0
181.598	47.8721
186.5	185.56
191.399	332.648
196.296	458.689
201.19	510.709
206.082	546.471
210.971	403.873
215.858	529.651
220.742	585.57
225.624	662.365
230.503	529.499
235.38	426.861
240.254	198.773
245.125	130.163
249.994	10.2122
254.861	7.25244
259.725	70.1807
264.586	91.9595
269.445	23.1768
274.302	37.2925
279.155	69.2175
284.007	476.599
288.855	1226.31
293.702	2588.25
298.545	2442.78
303.386	1313.42
308.225	655.069
313.061	473.559
317.894	499.657
322.725	553.627
327.554	585.762
332.38	782.454
337.203	930.832
342.024	997.644
346.842	1245.56
351.658	1342.81
356.471	1616.57
361.281	1926.74
366.09	2326.23
370.895	2922.89
375.698	3615.18
380.498	4297.82
385.296	4778.76
390.092	4825.77
394.884	4110.28
399.675	3284.98
404.462	2233.27
409.248	1633.06
414.03	1285.3
418.81	981.154
423.588	839.302
428.363	867.622
433.135	1024.05
437.905	1258.08
442.672	1513.21
447.437	1991.3
452.199	2935.47
456.959	4705.18
461.716	7665.35
466.47	12974
471.222	22316.8
475.972	34635.8
480.719	40688.9
485.463	32957
490.205	20678.3
494.944	12325.7
499.681	7594.2
504.415	4842.89
509.146	3401.8
513.875	2525.97
518.602	1691.43
523.326	1255.17
528.047	1012.2
532.766	750.545
537.482	453.277
542.196	357.531
546.907	279.428
551.616	72.0708
556.322	4.40479
561.025	49.8935
565.726	125.541
570.424	27.4834
575.12	103.682
579.813	4.52197
584.504	64.7368
589.192	39.5264
593.877	103.372
598.56	156.238
603.241	178.009
607.919	243.506
612.594	281.391
617.267	257.048
621.937	299.639
626.604	218.367
631.269	289.681
635.932	326.374
640.592	200.073
645.249	206.708
649.904	269.3
654.556	265.896
659.206	392.404
663.853	521.792
668.497	586.048
673.139	658.376
677.779	529.562
682.416	374.546
687.05	247.974
691.682	189.465
696.311	88.9351
700.937	31.3076
705.561	35.8535
710.183	48.0254
714.802	134.695
719.418	47.2644
724.032	38.7781
728.643	120.278
733.251	2.9043
737.857	49.946
742.461	18.4753
747.062	1.04712
751.66	6.25537
756.256	40.75
760.849	177.729
765.44	75.0718
770.028	163.134
774.613	130.732
779.196	265.038
783.777	309.312
788.354	321.322
792.93	382.489
797.502	282.5
802.072	283.099
806.64	234.285
811.205	171.056
815.767	141.405
820.327	126.335
824.884	145.834
829.439	147.915
833.991	197.278
838.541	116.537
843.087	115.06
847.632	106.594
852.174	79.2625
856.713	86.7288
861.25	74.4192
865.784	58.8293
870.315	73.5027
874.844	65.5344
879.371	30.3391
883.894	53.9224
888.416	20.3645
892.934	20.7756
897.45	28.1765
901.964	7.54981
906.475	12.2825
910.983	3.86768
915.489	37.8972
919.992	2.52368
924.493	58.1277
928.991	71.9893
933.486	107.615
937.979	111.228
942.47	94.6875
946.957	89.7803
951.443	20.6279
955.925	95.4644
960.405	81.7314
964.883	227.622
969.358	151.324
973.83	260.065
978.3	320.254
982.767	323.215
987.232	471.963
991.694	498.694
996.153	643.915
1000.61	689.054
1005.06	620.765
1009.52	708.37
1013.97	819.967
1018.41	843.323
1022.86	814.332
1027.3	839.742
1031.74	776.316
1036.17	929.504
1040.61	1042.09
1045.04	1050.74
1049.47	1178.61
1053.89	1279.01
1058.32	1328.77
1062.74	1454.33
1067.15	1664.36
1071.57	1812.51
1075.98	2199.99
1080.39	2513.38
1084.8	2921.05
1089.21	3323.27
1093.61	3580.93
1098.01	3759.27
1102.41	3678.91
1106.8	3672.57
1111.19	3394.21
1115.59	3298.07
1119.97	2935.75
1124.36	2679.35
1128.74	2295.17
1133.12	2096.12
1137.5	1831.45
1141.87	1541.86
1146.24	1273.83
1150.61	1066.41
1154.98	821.751
1159.34	762.785
1163.7	576.946
1168.06	427.946
1172.42	316.562
1176.77	293.563
1181.12	232.86
1185.47	245.453
1189.82	135.634
1194.16	160.671
1198.5	114.852
1202.84	10.7227
1207.18	73.3867
1211.51	16.1958
1215.84	46.8843
1220.17	60.2656
1224.5	20.3047
1228.82	4.98291
1233.14	0.597656
1237.46	21.1216
1241.77	18.4565
1246.09	76.6216
1250.39	21.6958
1254.7	35.7095
1259.01	27.6265
1263.31	77.7407
1267.61	47.6895
1271.91	67.1562
1276.2	17.3765
1280.49	53.2974
1284.78	20.2671
1289.07	49.1255
1293.35	67.5874
1297.64	48.8579
1301.91	61.8931
1306.19	21.8101
1310.46	85.6992
1314.74	62.3535
1319.01	131.832
1323.27	8.21289
1327.54	143.517
1331.8	143.426
1336.06	151.429
1340.31	110.282
1344.57	207.343
1348.82	189.474
1353.06	17.248
1357.31	78.5088
1361.55	26.2373
1365.79	102.212
1370.03	86.6577
1374.27	87.2612
1378.5	79.4771
1382.73	144.877
1386.96	117.034
1391.18	111.498
1395.4	71.064
1399.62	121.574
1403.84	115.477
1408.06	128.027
1412.27	112.731
1416.48	140.557
1420.69	141.327
1424.89	147.198
1429.09	129.381
1433.29	223.863
1437.49	117.69
1441.68	143.796
1445.87	120.307
1450.06	65.4517
1454.25	227.606
1458.43	127.554
1462.62	139.311
1466.79	135.691
1470.97	143.949
1475.14	81.166
1479.31	147.158
1483.48	95.6313
1487.65	139.155
1491.81	70.3184
1495.97	105.693
1500.13	82.4717
1504.29	101.007
1508.44	124.552
1512.59	9.00684
1516.74	80.1138
1520.88	86.917
1525.03	210.306
1529.17	89.2881
1533.3	39.4605
1537.44	90.0659
1541.57	134.933
1545.7	99.6294
1549.83	54.4419
1553.95	148.77
1558.08	169.383
1562.19	132.241
