Measurement: Raman, 514 nm, ccw, Raman Data Processed
Mineral: Analcime
Rruff sample: R060023
Ideal chemistry: NaAlSi_2_O_6_H_2_O
Locality: Dallas, Oregon, USA
Source: Bob Downs
Description: White trapezohedral crystal associated with levyne-Na, R060021
Measured chemistry: (Na_0.98_[box]_0.02_)_Σ=1_(Si_2.02_Al_0.98_)O_6_·H_2_O
Pin_id: M00414
Orientation: Laser parallel to c* (0 0 1). Fiducial mark perpendicular to laser is parallel to a [1 0 0]
Raman shift (cm-1)	intensity
181.598	0
186.5	27.8584
191.399	125.191
196.296	295.691
201.19	475.911
206.082	611.891
210.971	946.916
215.858	1038.42
220.742	1187.24
225.624	1453.2
230.503	1110.96
235.38	863.583
240.254	517.867
245.125	378.876
249.994	165.657
254.861	21.6455
259.725	42.832
264.586	83.4814
269.445	57.6582
274.302	31.3184
279.155	215.702
284.007	820.058
288.855	2292.31
293.702	3440.6
298.545	3293.5
303.386	1865.1
308.225	1111.04
313.061	793.981
317.894	870.727
322.725	733.098
327.554	829.057
332.38	968.059
337.203	984.422
342.024	1099.2
346.842	1190.14
351.658	1385.75
356.471	1792.2
361.281	2201.97
366.09	2875.08
370.895	3690.97
375.698	4701.25
380.498	5019.69
385.296	4769.57
390.092	4266.23
394.884	3453.35
399.675	2585.02
404.462	1822.31
409.248	1325.27
414.03	1162.13
418.81	1026.61
423.588	832.705
428.363	817.835
433.135	875.428
437.905	1199.96
442.672	1250.34
447.437	1822.96
452.199	2616.4
456.959	4065.37
461.716	6648.84
466.47	11957.6
471.222	20604
475.972	30889.5
480.719	35152.8
485.463	29419.2
490.205	19225.6
494.944	11618
499.681	7118.4
504.415	4595.94
509.146	2997.61
513.875	2133.48
518.602	1675.59
523.326	1244.96
528.047	625.578
532.766	610.449
537.482	484.627
542.196	279.197
546.907	221.631
551.616	119.804
556.322	4.40332
561.025	76.0498
565.726	9.47168
570.424	129.685
575.12	5.13281
579.813	22.0752
584.504	25.0195
589.192	108.655
593.877	200.304
598.56	427.454
603.241	675.732
607.919	832.891
612.594	472.86
617.267	413.69
621.937	472.509
626.604	332.086
631.269	401.583
635.932	505.606
640.592	407.712
645.249	326.876
649.904	557.945
654.556	341.986
659.206	237.924
663.853	376.661
668.497	309.593
673.139	389.959
677.779	478.837
682.416	150.04
687.05	18.9336
691.682	141.439
696.311	6.36133
700.937	97.4961
705.561	30.5146
710.183	34.5713
714.802	10.2266
719.418	77.6328
724.032	110.635
728.643	9.9082
733.251	28.875
737.857	199.876
742.461	97.0029
747.062	11.8174
751.66	107.866
756.256	65.3887
760.849	104.947
765.44	147.347
770.028	152.44
774.613	205.644
779.196	307.889
783.777	513.298
788.354	413.281
792.93	432.084
797.502	245.157
802.072	285.63
806.64	283.88
811.205	157.506
815.767	193.797
820.327	228.493
824.884	184.601
829.439	227.504
833.991	90.8311
838.541	235.114
843.087	237.513
847.632	44.167
852.174	132.752
856.713	223.988
861.25	200.168
865.784	87.7822
870.315	92.0674
874.844	95.2559
879.371	159.024
883.894	73.4883
888.416	89.2637
892.934	93.335
897.45	28.6348
901.964	181.194
906.475	47.4043
910.983	21.2217
915.489	17.0293
919.992	155.812
924.493	39.7539
928.991	104.234
933.486	222.986
937.979	154.495
942.47	205.451
946.957	273.319
951.443	99.7178
955.925	8.61426
960.405	282.541
964.883	137.268
969.358	269.25
973.83	169.003
978.3	365.836
982.767	381.95
987.232	461.236
991.694	421.813
996.153	478.144
1000.61	416.61
1005.06	492.694
1009.52	322.031
1013.97	443.931
1018.41	488.225
1022.86	396.836
1027.3	479.688
1031.74	596.208
1036.17	617.428
1040.61	888.537
1045.04	727.91
1049.47	855.002
1053.89	1061.12
1058.32	891.816
1062.74	1044.49
1067.15	1261.51
1071.57	1245.76
1075.98	1652.87
1080.39	1888.35
1084.8	2018.41
1089.21	2395.55
1093.61	2686.2
1098.01	2445.8
1102.41	2506.99
1106.8	2168.33
1111.19	2250.2
1115.59	2014.8
1119.97	1795.56
1124.36	1598.29
1128.74	1611.6
1133.12	1272.68
1137.5	1277.89
1141.87	1014.45
1146.24	810.484
1150.61	789.723
1154.98	703.723
1159.34	393.365
1163.7	394.195
1168.06	260.559
1172.42	264.875
1176.77	174.822
1181.12	336.623
1185.47	273.935
1189.82	80.3965
1194.16	28.6602
1198.5	121.363
1202.84	19.0566
1207.18	80.8027
1211.51	15.582
1215.84	0.355469
1220.17	27.8867
1224.5	99.7598
1228.82	94.9336
1233.14	53.0176
1237.46	153.455
1241.77	113.055
1246.09	34.6309
1250.39	99.1562
1254.7	54.5137
1259.01	78.5273
1263.31	60.5664
1267.61	173.598
1271.91	27.3262
1276.2	33.6094
1280.49	152.9
1284.78	59.6719
1289.07	47.5234
1293.35	70.043
1297.64	138.348
1301.91	121.602
1306.19	4.82227
1310.46	164.951
1314.74	197.025
1319.01	75.0254
1323.27	41.7227
1327.54	141.41
1331.8	172.039
1336.06	220.553
1340.31	241.836
1344.57	117.426
1348.82	268.102
1353.06	286.603
1357.31	229.644
1361.55	14.6465
1365.79	113.496
1370.03	100.305
1374.27	237.922
1378.5	230.611
1382.73	53.332
1386.96	147.732
1391.18	130.367
1395.4	169.062
1399.62	91.6191
1403.84	227.701
1408.06	204.014
1412.27	34.543
1416.48	277.016
1420.69	36.373
1424.89	193.688
1429.09	126.449
1433.29	194.119
1437.49	78.6426
1441.68	178.912
1445.87	330.68
1450.06	202.053
1454.25	253.309
1458.43	286.549
1462.62	209.389
1466.79	509.129
1470.97	171.201
1475.14	319.471
1479.31	297.129
1483.48	280.644
1487.65	276.787
1491.81	294.098
1495.97	143.828
1500.13	349.818
1504.29	137.906
1508.44	273.482
1512.59	136.248
1516.74	199.693
1520.88	76.4668
1525.03	247.723
1529.17	165.801
1533.3	318.904
1537.44	157.812
1541.57	230.908
1545.7	330.996
1549.83	30.207
1553.95	338.914
1558.08	292.42
1562.19	333.76
