Measurement: Raman, 514 nm, ccw, Raman Data Processed
Mineral: Analcime
Rruff sample: R040128
Ideal chemistry: NaAlSi_2_O_6_H_2_O
Locality: Mont Saint-Hilaire, Rouville County, Quebec, Canada
Source: Bob Downs
Description: White trapezohedra associated with black arfvedsonite, R040127
Measured chemistry: Na_0.93_(Si_2.04_Al_0.99_)O_6_Â·H_2_O
Pin_id: L00542
Orientation: Laser parallel to -a [-1 0 0]. Fiducial mark perpendicular to laser is parallel to -b* (0 -1 0)
Raman shift (cm-1)	intensity
107.387	0
111.566	594.813
115.744	843.548
119.919	760.297
124.092	920.833
128.263	1226.24
132.432	1372.02
136.599	1324.27
140.764	1375.3
144.927	1322.09
149.088	1150.38
153.247	1150.86
157.404	938.462
161.559	816.047
165.711	577.331
169.862	431.188
174.011	405.916
178.158	411.415
182.303	543.984
186.446	842.164
190.587	1095.52
194.726	1232.41
198.862	1252.16
202.997	1200.28
207.13	1071.87
211.261	1036.95
215.39	1160.26
219.517	1239.54
223.642	1252.62
227.765	1341.34
231.886	1220.49
236.005	1077.66
240.122	723.754
244.237	559.795
248.35	241.814
252.461	126.838
256.57	105.106
260.677	174.908
264.782	239.722
268.885	306.174
272.986	273.396
277.085	156.223
281.182	79.367
285.278	171.639
289.371	1010.95
293.462	2401.99
297.552	3645.29
301.639	2805.54
305.724	1639.61
309.808	980.433
313.889	738.776
317.969	693.214
322.046	696.784
326.122	796.646
330.196	816.915
334.267	987.684
338.337	1071.02
342.405	1246.99
346.471	1337.42
350.535	1604.63
354.597	1835.36
358.657	2078.58
362.715	2439.19
366.771	2932.98
370.825	3558.9
374.877	4244.97
378.928	4781.2
382.976	5117.58
387.023	5244.18
391.067	4830.94
395.11	4397.94
399.15	3635.11
403.189	3142.48
407.226	2611.44
411.261	2156.25
415.294	1675.41
419.325	1546.44
423.354	1259.71
427.381	1050.98
431.406	981.176
435.43	1165.51
439.451	1261.43
443.471	1351.65
447.488	1737
451.504	2217.37
455.518	2976.71
459.53	4096.01
463.54	6265.26
467.548	9494.46
471.554	15363.6
475.558	24592.7
479.561	35671.8
483.561	38200.8
487.559	30789.8
491.556	20828.9
495.551	13427.9
499.544	9058.79
503.535	6225.87
507.524	4354.88
511.511	3133.92
515.496	2413.02
519.48	1822.24
523.461	1441.58
527.441	1147.03
531.418	894.006
535.394	775.269
539.368	552.684
543.34	447.437
547.311	466.944
551.279	158.062
555.245	187.726
559.21	7.234
563.173	47.663
567.133	100.528
571.092	51.478
575.049	0.759
579.005	56.687
582.958	86.18
586.909	159.741
590.859	120.675
594.807	324.376
598.753	383.844
602.697	505.317
606.639	548.266
610.579	610.008
614.518	595.169
618.454	734.825
622.389	606.735
626.322	613.385
630.253	574.927
634.182	617.405
638.109	618.822
642.035	521.172
645.958	511.443
649.88	396.634
653.8	469.739
657.718	399.758
661.634	415.692
665.549	392.667
669.461	432.788
673.372	299.1
677.281	313.766
681.188	246.566
685.093	91.346
688.997	46.663
692.898	27.871
696.798	82.296
700.696	111.237
704.592	42.226
708.486	53.399
712.378	41.352
716.269	3.53
720.158	78.068
724.045	107.932
727.93	43.477
731.813	60.505
735.694	5.974
739.574	16.882
743.452	56.938
747.328	31.367
751.202	163.641
755.075	97.352
758.945	36.422
762.814	61.3
766.681	100.232
770.546	247.412
774.409	303.025
778.271	197.826
782.131	261.374
785.989	346.87
789.845	420.919
793.699	535.723
797.552	519.273
801.402	322.578
805.251	355.633
809.098	238.442
812.944	331.005
816.787	424.131
820.629	96.208
824.469	248.029
828.307	108.997
832.144	140.935
835.978	192.014
839.811	252.816
843.642	302.803
847.472	107.791
851.299	177.18
855.125	192.82
858.949	241.703
862.771	294.612
866.591	126.19
870.41	76.247
874.227	29.949
878.042	93.681
881.855	135.686
885.667	160.982
889.476	94.019
893.284	69.283
897.09	18.496
900.895	6.194
904.698	7.216
908.499	132.05
912.298	104.583
916.095	60.749
919.891	34.615
923.685	51.495
927.477	88.362
931.267	104.874
935.056	1.553
938.843	158.221
942.628	35.151
946.411	101.413
950.193	197.944
953.973	294.45
957.751	50.934
961.527	157.4
965.302	36.135
969.075	30.303
972.846	286.231
976.615	232.681
980.383	158.636
984.149	414.659
987.913	271.024
991.675	377.166
995.436	493.677
999.195	479.695
1002.95	616.395
1006.71	463.446
1010.46	430.769
1014.21	488.366
1017.96	656.13
1021.71	773.927
1025.46	811.713
1029.2	730.104
1032.95	743.659
1036.69	660.317
1040.43	979.369
1044.17	1138.74
1047.9	1314.69
1051.64	1446.26
1055.37	1356.68
1059.1	1343.73
1062.83	1467.55
1066.56	1475.4
1070.29	1913.3
1074.01	2071.15
1077.73	2336.41
1081.46	2741.18
1085.17	2892.54
1088.89	3203.91
1092.61	3664.47
1096.32	3695.92
1100.04	3637.61
1103.75	3459.22
1107.46	3140.97
1111.16	2732.96
1114.87	2464.99
1118.57	2297.3
1122.28	2310.23
1125.98	1942.63
1129.67	1715.59
1133.37	1383.25
1137.07	1188.37
1140.76	981.48
1144.45	664.731
1148.14	689.477
1151.83	786.037
1155.52	707.256
1159.21	507.304
1162.89	461.225
1166.57	274.818
1170.25	238.283
1173.93	151.423
1177.61	334.324
1181.28	410.104
1184.96	366.896
1188.63	241.269
1192.3	147.815
1195.97	58.898
1199.64	11.338
1203.3	53.69
1206.97	86.771
1210.63	210.385
1214.29	195.939
1217.95	169.878
1221.6	224.838
1225.26	68.968
1228.91	58.729
1232.57	133.035
1236.21	246.447
1239.86	358.226
1243.51	308.825
1247.16	239.298
1250.8	111.53
1254.44	73.262
1258.08	5.976
1261.72	114.449
1265.36	114.491
1268.99	284.67
1272.63	413.784
1276.26	463.556
1279.89	396.354
1283.52	74.532
1287.15	62.765
1290.77	9.251
1294.4	32.039
1298.02	144.566
1301.64	310.805
1305.26	296.508
1308.88	41.659
1312.49	186.477
1316.11	80.954
1319.72	55.061
1323.33	11.175
1326.94	72.192
1330.55	115.057
1334.15	137.452
1337.76	329.431
1341.36	258.868
1344.96	339.477
1348.56	90.088
1352.16	10.386
1355.75	22.861
1359.35	3.27
1362.94	3.829
1366.53	295.176
1370.12	190.134
1373.71	188.436
1377.3	337.055
1380.88	439.962
1384.46	245.746
1388.05	251.267
1391.63	15.117
1395.2	28.39
1398.78	71.363
1402.36	135.248
1405.93	326.333
1409.5	410.78
1413.07	541.266
1416.64	598.694
1420.21	386.688
1423.78	250.961
1427.34	180.586
1430.9	55.013
1434.46	108.445
1438.02	179.749
1441.58	384.387
1445.13	613.772
1448.69	768.348
1452.24	743.259
1455.79	754.294
1459.34	726.197
1462.89	561.183
1466.44	305.101
1469.98	238.682
1473.53	211.044
1477.07	72.039
1480.61	345.447
1484.14	349.474
1487.68	414.588
1491.22	549.351
1494.75	513.971
1498.28	460.627
1501.81	239.061
1505.34	259.131
1508.87	21.986
1512.4	6.162
1515.92	2.223
1519.44	0
