Measurement: Raman, 514 nm, ccw, Raman Data Processed
Mineral: Analcime
Rruff sample: R050094
Ideal chemistry: NaAlSi_2_O_6_H_2_O
Locality: Springfield, Oregon, USA
Source: Rock Currier
Description: Clear colorless single crystals associated with gmelinite
Measured chemistry: (Na_0.99_[box]_0.01_)_Σ=1_(Si_2.01_Al_0.99_)O_6_·H_2_O
Pin_id: M00117
Orientation: Laser parallel to a* (1 0 0). Fiducial mark perpendicular to laser is parallel to -c [0 0 -1]
Raman shift (cm-1)	intensity
169.765	0
174.7	65.769
179.631	193.694
184.56	208.372
189.484	380.315
194.406	471.557
199.325	652.241
204.24	700.823
209.153	619.576
214.062	706.752
218.968	714.643
223.87	750.579
228.77	560.94
233.666	502.239
238.56	367.663
243.45	210.451
248.337	103.898
253.221	31.3127
258.102	62.7695
262.979	140.529
267.854	127.229
272.726	130.968
277.594	9.92993
282.459	162.222
287.321	761.276
292.18	2074.79
297.036	3928.76
301.889	3460.41
306.739	1809.18
311.586	945.745
316.43	641.639
321.271	624.917
326.108	726.411
330.943	890.042
335.774	1010.56
340.603	1127.86
345.428	1486.7
350.251	1642.71
355.07	1798.7
359.887	2024.46
364.7	2542.44
369.511	3006.8
374.318	3752.61
379.123	4566.51
383.924	5432.11
388.723	6131.38
393.518	5955.9
398.311	4810.1
403.1	3222.97
407.887	2109.58
412.671	1432.16
417.451	1076.01
422.229	896.307
427.004	865.636
431.776	977.666
436.545	1211.44
441.311	1424.07
446.074	1914.45
450.834	2703.48
455.591	4149.1
460.346	6445.32
465.097	10325.7
469.846	17589.3
474.591	28924.3
479.334	42452.6
484.074	48691.1
488.811	39994.8
493.545	25757.6
498.276	16023.6
503.005	9893.79
507.73	6485.28
512.453	4609.08
517.173	3225.24
521.89	2283.76
526.604	1756.67
531.315	1288.01
536.024	904.808
540.729	581.184
545.432	454.195
550.132	248.764
554.83	143.165
559.524	58.3091
564.216	43.4316
568.904	63.2847
573.59	89.7485
578.274	19.8586
582.954	23.8059
587.632	0.506836
592.307	54.0798
596.979	52.8792
601.648	44.6321
606.315	113.551
610.979	279.812
615.64	327.165
620.298	379.248
624.954	427.358
629.607	321.589
634.257	299.373
638.904	343.107
643.549	310.348
648.191	417.919
652.83	504.407
657.467	518.772
662.101	693.052
666.732	793.593
671.36	900.032
675.986	912.128
680.609	702.029
685.23	484.746
689.847	189.947
694.462	111.957
699.075	127.558
703.685	94.7893
708.292	30.0523
712.896	69.0784
717.498	2.07446
722.097	2.64209
726.694	13.596
731.287	2.30103
735.879	1.6792
740.467	53.7256
745.053	46.48
749.637	0.879395
754.217	2.93701
758.795	25.6914
763.371	112.132
767.944	87.7622
772.514	193.295
777.082	147.112
781.647	167.634
786.21	182.539
790.77	275.497
795.327	248.377
799.882	273.866
804.434	193.251
808.984	240.695
813.531	153.392
818.076	171.489
822.618	151.088
827.158	152.199
831.695	187.691
836.229	167.359
840.761	277.559
845.291	222.847
849.817	293.171
854.342	269.926
858.864	322.739
863.383	314.713
867.9	267.207
872.414	206.016
876.926	147.546
881.436	72.3411
885.942	35.919
890.447	1.49097
894.949	52.8628
899.448	50.0698
903.945	25.5252
908.44	63.6594
912.932	69.9121
917.421	23.8831
921.909	54.4377
926.393	4.89356
930.876	42.636
935.355	70.3635
939.833	8.90649
944.308	36.0295
948.78	39.2219
953.25	74.7163
957.718	160.886
962.183	91.3616
966.646	149.867
971.107	196.144
975.565	305.208
980.02	371.556
984.474	565.339
988.925	593.211
993.373	701.202
997.819	970.343
1002.26	1031.67
1006.7	960.08
1011.14	845.532
1015.58	885.977
1020.01	1058.44
1024.45	1082.74
1028.88	1076.28
1033.3	1117.88
1037.73	1166.89
1042.15	1227.78
1046.57	1231.84
1050.99	1327.7
1055.4	1412.88
1059.82	1576.41
1064.23	1799.35
1068.64	2224.92
1073.04	2490.33
1077.45	2922.15
1081.85	3269.59
1086.25	3482.11
1090.64	3669.86
1095.04	3794.35
1099.43	4012.12
1103.82	3944.03
1108.21	3829.97
1112.6	3734.04
1116.98	3506.09
1121.36	3190.26
1125.74	2942.52
1130.12	2513.89
1134.49	2167.35
1138.86	1822.92
1143.23	1562.58
1147.6	1300.35
1151.96	1083.22
1156.33	918.201
1160.69	657.276
1165.05	572.472
1169.4	441.749
1173.76	275.107
1178.11	310.543
1182.46	102.057
1186.81	98.7339
1191.15	44.6426
1195.49	21.3435
1199.84	65.6672
1204.17	7.27734
1208.51	77.3518
1212.84	21.7407
1217.18	49.7117
1221.51	62.7891
1225.83	94.5693
1230.16	38.1475
1234.48	55.419
1238.8	18.3418
1243.12	43.9351
1247.44	41.3208
1251.76	46.7642
1256.07	69.1299
1260.38	38.0527
1264.69	126.843
1268.99	164.704
1273.3	166.622
1277.6	117.591
1281.9	125.609
1286.2	120.667
1290.49	191.753
1294.79	274.237
1299.08	231.975
1303.37	217.097
1307.65	334.217
1311.94	389.329
1316.22	379.431
1320.5	360.549
1324.78	278.008
1329.06	172.812
1333.33	172.681
1337.6	128.932
1341.87	140.195
1346.14	167.52
1350.41	43.8669
1354.67	31.106
1358.93	81.5005
1363.19	78.9228
1367.45	114.679
1371.71	88.6907
1375.96	127.466
1380.21	184.308
1384.46	156.14
1388.71	176.092
1392.96	133.376
1397.2	80.3652
1401.44	167.799
1405.68	234.215
1409.92	130.42
1414.16	169.003
1418.39	123.158
1422.62	160.938
1426.85	134.444
1431.08	195.493
1435.3	304.317
1439.53	411.021
1443.75	605.788
1447.97	736.273
1452.19	792.92
1456.4	832.821
1460.62	656.069
1464.83	543.4
1469.04	433.337
1473.24	335.229
1477.45	205.868
1481.65	204.369
1485.86	166.886
1490.06	36.4751
1494.26	113.249
1498.45	8.66187
1502.64	9.88867
1506.84	23.9734
1511.03	0.554932
1515.22	112.237
1519.4	34.3059
1523.59	159.684
1527.77	131.527
1531.95	112.033
1536.13	176.826
1540.31	62.6958
1544.48	93.0332
1548.65	105.531
1552.82	74.8267
1556.99	128.414
1561.16	77.4561
1565.33	0
