Measurement: Raman, 514 nm, ccw, Raman Data Processed
Mineral: Analcime
Rruff sample: R050094
Ideal chemistry: NaAlSi_2_O_6_H_2_O
Locality: Springfield, Oregon, USA
Source: Rock Currier
Description: Clear colorless single crystals associated with gmelinite
Measured chemistry: (Na_0.99_[box]_0.01_)_Σ=1_(Si_2.01_Al_0.99_)O_6_·H_2_O
Pin_id: M00117
Orientation: Laser parallel to a* (1 0 0). Fiducial mark perpendicular to laser is parallel to -c [0 0 -1]
Raman shift (cm-1)	intensity
169.765	0
174.7	120.418
179.631	288.873
184.56	597.822
189.484	905.287
194.406	1283.96
199.325	1754.07
204.24	1809.54
209.153	1539.9
214.062	1323.94
218.968	1378.02
223.87	1441.48
228.77	1277.44
233.666	968.071
238.56	749.977
243.45	561.31
248.337	329.145
253.221	139.129
258.102	119.089
262.979	10.0493
267.854	67.1143
272.726	195.08
277.594	67.4341
282.459	70.7407
287.321	733.808
292.18	1966.84
297.036	3520.2
301.889	3339.64
306.739	1663.46
311.586	962.151
316.43	691.488
321.271	801.978
326.108	797.267
330.943	1042.64
335.774	1147.56
340.603	1387.87
345.428	1542.94
350.251	1835.99
355.07	2034.58
359.887	2473.24
364.7	2973.16
369.511	3623.45
374.318	4288.8
379.123	5464.5
383.924	6348.02
388.723	7374.85
393.518	7021.86
398.311	5778.39
403.1	4262.73
407.887	3058.93
412.671	2269.28
417.451	1637.88
422.229	1238.03
427.004	1068.34
431.776	1177.83
436.545	1173.89
441.311	1564.97
446.074	2188.25
450.834	3049.79
455.591	4629.38
460.346	7052.58
465.097	11428
469.846	19403.4
474.591	31382
479.334	44623.8
484.074	48642.6
488.811	38827.4
493.545	24910.3
498.276	15335.4
503.005	9863.64
507.73	6399.1
512.453	4464.88
517.173	3221.04
521.89	2351.61
526.604	1714.57
531.315	1323.94
536.024	806.033
540.729	652.142
545.432	456.168
550.132	292.073
554.83	67.5093
559.524	7.77051
564.216	87.6782
568.904	121.079
573.59	89.9565
578.274	55.1802
582.954	11.7393
587.632	42.2798
592.307	152.623
596.979	151.265
601.648	118.687
606.315	53.1011
610.979	88.8984
615.64	201.834
620.298	397.401
624.954	450.15
629.607	503.252
634.257	285.906
638.904	384.338
643.549	461.685
648.191	474.914
652.83	449.043
657.467	441.08
662.101	607.021
666.732	582.841
671.36	693.457
675.986	666.826
680.609	434.973
685.23	322.855
689.847	120.422
694.462	118.643
699.075	152.077
703.685	75.7476
708.292	61.1892
712.896	50.6851
717.498	45.8284
722.097	28.6543
726.694	71.0767
731.287	1.2417
735.879	83.5601
740.467	2.86401
745.053	26.8718
749.637	14.905
754.217	136.542
758.795	106.757
763.371	151.194
767.944	121.471
772.514	246.401
777.082	356.516
781.647	446.925
786.21	431.587
790.77	477.043
795.327	519.338
799.882	381.548
804.434	455.697
808.984	392.509
813.531	315.822
818.076	289.33
822.618	264.502
827.158	278.446
831.695	292.671
836.229	278.498
840.761	302.844
845.291	347.288
849.817	358.205
854.342	362.166
858.864	410.305
863.383	463.25
867.9	278.537
872.414	341.137
876.926	148.439
881.436	124.886
885.942	25.3396
890.447	43.9053
894.949	97.3569
899.448	13.5923
903.945	111.344
908.44	57.7539
912.932	38.9482
917.421	63.0029
921.909	28.2905
926.393	22.9268
930.876	19.1226
935.355	57.0913
939.833	35.5078
944.308	32.1177
948.78	53.376
953.25	37.0356
957.718	101.319
962.183	123.496
966.646	103.575
971.107	131.784
975.565	237.027
980.02	263.403
984.474	458.985
988.925	488.794
993.373	575.848
997.819	834.107
1002.26	970.579
1006.7	813.278
1011.14	812.106
1015.58	933.842
1020.01	1023.55
1024.45	1109.52
1028.88	1190.03
1033.3	1224.45
1037.73	1277.08
1042.15	1503.14
1046.57	1559.79
1050.99	1701.39
1055.4	1740.35
1059.82	1876.22
1064.23	1995.59
1068.64	2289.76
1073.04	2634.33
1077.45	2934.41
1081.85	3341.98
1086.25	3525.91
1090.64	3704.07
1095.04	3907.03
1099.43	3957.41
1103.82	3978.99
1108.21	3770.97
1112.6	3574.53
1116.98	3395.15
1121.36	3047.88
1125.74	2700.73
1130.12	2163.69
1134.49	1888.76
1138.86	1540.93
1143.23	1341.22
1147.6	1083.61
1151.96	875.13
1156.33	717.769
1160.69	468.511
1165.05	376.356
1169.4	329.307
1173.76	184.372
1178.11	134.555
1182.46	85.8818
1186.81	99.3315
1191.15	67.0635
1195.49	45.4121
1199.84	10.8389
1204.17	30.4062
1208.51	50.8101
1212.84	40.002
1217.18	110.744
1221.51	58.2334
1225.83	25.4941
1230.16	4.15918
1234.48	64.25
1238.8	6.75635
1243.12	30.3691
1247.44	100.135
1251.76	44.1587
1256.07	110.395
1260.38	97.7915
1264.69	179.326
1268.99	226.964
1273.3	236.705
1277.6	169.542
1281.9	134.474
1286.2	207.485
1290.49	197.562
1294.79	226.693
1299.08	362.925
1303.37	259.134
1307.65	405.363
1311.94	463.603
1316.22	437.857
1320.5	439.996
1324.78	340.077
1329.06	346.448
1333.33	173.002
1337.6	245.668
1341.87	199.463
1346.14	94.3857
1350.41	187.419
1354.67	129.462
1358.93	149.102
1363.19	159.629
1367.45	84.6138
1371.71	214.039
1375.96	240.965
1380.21	165.192
1384.46	223.403
1388.71	203.239
1392.96	144.778
1397.2	145.886
1401.44	283.396
1405.68	107.936
1409.92	206.494
1414.16	187.447
1418.39	155.161
1422.62	58.4531
1426.85	184.116
1431.08	174.112
1435.3	323.692
1439.53	384.971
1443.75	528.606
1447.97	611.017
1452.19	671.19
1456.4	630.003
1460.62	559.167
1464.83	462.566
1469.04	311.149
1473.24	329.535
1477.45	273.44
1481.65	147.223
1485.86	137.048
1490.06	39.9634
1494.26	52.125
1498.45	57.6162
1502.64	86.1318
1506.84	52.1494
1511.03	6.23975
1515.22	93.916
1519.4	96.8467
1523.59	185.151
1527.77	156.602
1531.95	229.857
1536.13	107.401
1540.31	49.3828
1544.48	106.103
1548.65	39.8672
1552.82	64.8198
1556.99	83.6172
1561.16	64.7231
1565.33	0
