Measurement: Raman, 514 nm, ccw, Raman Data Processed
Mineral: Analcime
Rruff sample: R040128
Ideal chemistry: NaAlSi_2_O_6_H_2_O
Locality: Mont Saint-Hilaire, Rouville County, Quebec, Canada
Source: Bob Downs
Description: White trapezohedra associated with black arfvedsonite, R040127
Measured chemistry: Na_0.93_(Si_2.04_Al_0.99_)O_6_Â·H_2_O
Pin_id: L00542
Orientation: Laser parallel to -a [-1 0 0]. Fiducial mark perpendicular to laser is parallel to -b* (0 -1 0)
Raman shift (cm-1)	intensity
100.418	0
104.6	166.982
108.781	733.257
112.959	1698.84
117.136	1653.48
121.31	1521.56
125.482	1573.28
129.653	1703.22
133.821	1842.46
137.987	1921.9
142.152	1919.73
146.314	1907.4
150.474	1887.24
154.633	1577.35
158.789	1401.96
162.943	1349.65
167.095	1187.48
171.246	1145.21
175.394	1087.39
179.54	1264.23
183.684	1528.37
187.826	1946.69
191.967	2331.58
196.105	2243.21
200.241	1973.99
204.375	1552.24
208.507	1246.8
212.638	973.45
216.766	922.027
220.892	787.405
225.016	826.462
229.139	818.92
233.259	685.533
237.377	614.286
241.493	491.2
245.608	317.302
249.72	158.275
253.83	39.165
257.939	52.016
262.045	242.093
266.15	229.089
270.252	296.474
274.353	265.388
278.451	236.839
282.548	112.978
286.642	69.677
290.735	483.977
294.826	1245.67
298.914	1895.56
303.001	1297.55
307.086	813.536
311.168	622.194
315.249	590.553
319.328	622.926
323.405	636.262
327.48	690.273
331.553	718.051
335.624	880.642
339.693	1013.08
343.76	1129.17
347.826	1331.64
351.889	1474.76
355.95	1666.79
360.01	1847.08
364.067	2214.6
368.123	2629.34
372.176	3151.36
376.228	3648.63
380.277	4379.17
384.325	4884.02
388.371	5249.2
392.415	5594.74
396.457	5700.59
400.497	5236.81
404.535	4573.32
408.571	3702.16
412.605	2711.09
416.638	2100.39
420.668	1576.59
424.697	1075.67
428.723	1133.02
432.748	1060.42
436.77	1111.25
440.791	1202.02
444.81	1422.34
448.827	1909.99
452.842	2550.03
456.855	3462.12
460.867	4991.27
464.876	7600.48
468.883	11809.7
472.889	18819
476.892	30148.4
480.894	40167.8
484.894	39367.2
488.892	28076.8
492.888	18016.3
496.882	11706
500.874	7835.72
504.865	5373.22
508.853	3805.38
512.84	2867.37
516.824	2230.5
520.807	1864.79
524.788	1392.25
528.767	1039.06
532.744	891.498
536.719	719.32
540.693	514.174
544.664	346.235
548.634	324.993
552.601	184.699
556.567	77.595
560.531	28.321
564.493	22.009
568.453	2.412
572.412	52.578
576.368	81.701
580.323	84.505
584.275	130.551
588.226	266.967
592.175	307.555
596.122	366.077
600.068	361.705
604.011	404.48
607.952	513.564
611.892	502.553
615.83	426.039
619.766	381.391
623.7	466.791
627.632	607.973
631.563	449.076
635.491	530.094
639.418	474.024
643.343	507.86
647.266	490.598
651.187	421.233
655.106	346.762
659.024	292.176
662.939	346.474
666.853	424.095
670.765	329.948
674.675	289.113
678.583	168.047
682.49	133.902
686.394	202.486
690.297	8.201
694.198	42.935
698.097	118.472
701.995	6.345
705.89	29.149
709.784	32.974
713.675	127.471
717.565	51.456
721.453	64.148
725.34	28.574
729.224	16.407
733.107	78.203
736.988	86.74
740.867	20.631
744.744	93.021
748.62	100.515
752.493	57.686
756.365	10.269
760.235	23.951
764.103	114.411
767.969	140.091
771.834	174.687
775.697	148.091
779.558	286.839
783.417	330.37
787.274	433.575
791.13	400.509
794.983	270.172
798.835	211.564
802.686	244.689
806.534	211.544
810.38	201.133
814.225	265.833
818.068	175.516
821.909	144.308
825.749	189.821
829.586	159.066
833.422	283.032
837.256	208.727
841.088	97.954
844.919	251.677
848.748	208.38
852.575	156.342
856.4	123.768
860.223	138.874
864.045	102.217
867.864	101.522
871.682	75.59
875.499	180.015
879.313	124.534
883.126	30.139
886.937	38.392
890.746	3.368
894.553	65.371
898.359	43.821
902.163	0.967
905.965	48.723
909.765	16.77
913.564	48.784
917.361	31.473
921.156	41.86
924.949	18.476
928.74	52.975
932.53	3.446
936.318	52.119
940.104	115.635
943.889	134.109
947.672	83.55
951.453	59.96
955.232	33.342
959.01	143.706
962.785	140.057
966.559	222.449
970.332	136.799
974.102	153.605
977.871	212.342
981.638	267.391
985.404	452.726
989.167	459.94
992.929	481.997
996.689	474.498
1000.45	528.365
1004.2	630.448
1007.96	692.538
1011.71	668.137
1015.46	793.009
1019.21	838.996
1022.96	863.041
1026.71	887.591
1030.45	915.322
1034.19	1144.29
1037.94	1315.27
1041.68	1534.15
1045.41	1648.92
1049.15	1768.63
1052.88	1858.02
1056.62	2025.02
1060.35	2164.57
1064.08	2144.66
1067.8	2263.28
1071.53	2360.82
1075.25	2696.8
1078.97	3059.72
1082.7	3532.64
1086.41	4132.6
1090.13	4542.78
1093.85	4813.31
1097.56	4813.68
1101.27	4624.08
1104.98	4464.89
1108.69	4336.03
1112.4	4180.96
1116.1	3891.5
1119.81	3362.07
1123.51	3163.36
1127.21	2354.06
1130.91	1895.04
1134.61	1706.94
1138.3	1369.91
1141.99	1333.55
1145.68	1305.03
1149.38	939.105
1153.06	641.324
1156.75	520.477
1160.43	473.136
1164.12	352.162
1167.8	444.155
1171.48	302.154
1175.16	244.062
1178.83	193.157
1182.51	78.514
1186.18	37.019
1189.85	103.155
1193.52	60.329
1197.19	206.016
1200.86	123.815
1204.52	92.224
1208.19	85.67
1211.85	34.58
1215.51	1.371
1219.17	66.739
1222.82	67.557
1226.48	227.702
1230.13	147.091
1233.78	282.479
1237.43	302.453
1241.08	192.191
1244.73	58.373
1248.37	15.601
1252.01	37.504
1255.66	136.621
1259.3	305.665
1262.93	264.504
1266.57	272.973
1270.21	253.053
1273.84	141.347
1277.47	9.599
1281.1	0.852
1284.73	66.519
1288.36	124.092
1291.98	311.774
1295.6	278.33
1299.23	214.537
1302.85	120.351
1306.46	14.222
1310.08	150.844
1313.7	55.699
1317.31	130.289
1320.92	244.466
1324.53	178.401
1328.14	152.056
1331.75	244.163
1335.35	117.213
1338.96	79.926
1342.56	30.397
1346.16	8.216
1349.76	33.66
1353.36	154.773
1356.95	155.192
1360.55	236.065
1364.14	280.159
1367.73	328.934
1371.32	236.464
1374.91	53.403
1378.49	43.27
1382.08	53.304
1385.66	178.469
1389.24	163.326
1392.82	403.449
1396.4	468.436
1399.97	342.426
1403.55	333.271
1407.12	261.371
1410.69	190.297
1414.26	49.649
1417.83	37.16
1421.4	6.686
1424.96	123.281
1428.53	142.805
1432.09	355.735
1435.65	447.211
1439.21	450.174
1442.76	497.231
1446.32	495.173
1449.87	453.654
1453.43	316.15
1456.98	322.829
1460.53	330.766
1464.07	363.584
1467.62	346.221
1471.16	532.138
1474.71	608.814
1478.25	668.623
1481.79	476.306
1485.32	247.285
1488.86	249.496
1492.39	251.736
1495.93	125.125
1499.46	159.927
1502.99	63.014
1506.52	116.852
1510.05	190.428
1513.57	195.557
1517.09	280.729
1520.62	344.384
