Measurement: Raman, 514 nm, ccw, Raman Data Processed
Mineral: Anatase
Rruff sample: R060277
Ideal chemistry: TiO_2_
Locality: Taftan, near Dalbandi, Baluchistan Province, Pakistan
Source: Herb Obodda
Description: Dark brown tetragonal tabular crystals
Measured chemistry: Ti_1.00_O_2_
Pin_id: L01480
Orientation: Laser parallel to c* (0 0 1). Fiducial mark perpendicular to laser is parallel to [1 1 0]
Raman shift (cm-1)	intensity
50.724	0
55.708	12.0475
60.69	1.12476
65.668	1.40292
70.644	38.7458
75.617	163.711
80.588	260.243
85.555	436.51
90.52	666.388
95.482	878.949
100.441	1063.22
105.398	1252.32
110.351	1583.08
115.302	1891.23
120.25	2601.84
125.195	3900.98
130.138	7856.61
135.078	16921.9
140.015	39782.1
144.949	47315.8
149.88	16217.6
154.809	6128.19
159.735	3303.62
164.658	2096.33
169.578	1558.66
174.496	1200.9
179.411	913.9
184.323	767.556
189.232	690.07
194.138	986.406
199.042	983.093
203.943	422.451
208.841	266.029
213.737	178.687
218.63	183.717
223.52	118.595
228.407	65.2108
233.291	1.41577
238.173	3.90759
243.052	45.8715
247.928	84.6329
252.802	67.455
257.672	98.0199
262.54	58.3401
267.406	36.0856
272.268	31.3916
277.128	27.9202
281.985	143.083
286.839	333.125
291.691	580.702
296.54	905.106
301.386	1100.07
306.229	1227.91
311.07	1339.35
315.908	1403.94
320.743	1417.96
325.575	1301.72
330.405	1104.04
335.232	1010.95
340.056	1074.49
344.878	1189.67
349.697	1271.33
354.513	1340.46
359.326	1557.1
364.137	1928.12
368.945	2660.55
373.75	3852.56
378.552	5914.31
383.352	9660.58
388.149	15368
392.944	22641.1
397.735	26115.5
402.524	20437.2
407.311	11777.1
412.094	6593.03
416.875	3859.23
421.653	2322.22
426.429	1505.62
431.202	875.085
435.972	470.646
440.739	221.343
445.504	128.363
450.266	28.0508
455.025	16.4973
459.782	54.1414
464.535	36.0183
469.287	222.02
474.035	423.864
478.781	912.312
483.524	1459.19
488.265	2217.38
493.003	3398.88
497.738	5668.68
502.47	9340.8
507.2	16603.2
511.927	28072
516.651	34977.1
521.373	32128.6
526.092	23857.7
530.808	16622.5
535.522	11495.1
540.233	8260.62
544.942	6015.93
549.647	4291.04
554.35	3283.84
559.051	2508.19
563.748	1878.95
568.443	1547.95
573.136	1139.14
577.825	965.507
582.513	831.427
587.197	697.065
591.879	586.327
596.558	572.503
601.234	607.766
605.908	690.364
610.579	959.423
615.248	1185.91
619.913	1664.99
624.577	2473.19
629.237	3784.66
633.895	5332.78
638.55	6087.52
643.203	5126.86
647.853	3337.76
652.5	2186.2
657.145	1463.15
661.787	967.569
666.426	809.436
671.063	576.726
675.697	461.405
680.329	425.425
684.957	416.75
689.584	507.327
694.207	477.116
698.828	495.089
703.447	432.181
708.062	257.359
712.675	160.603
717.286	86.8897
721.894	45.8381
726.499	83.0175
731.102	51.2026
735.702	111.531
740.299	94.3294
744.894	98.4419
749.486	59.944
754.075	19.3818
758.662	122.958
763.247	147.132
767.828	375.032
772.407	533.678
776.984	722.992
781.558	1016.1
786.129	1231.33
790.698	1463.01
795.264	1555.03
799.827	1509.06
804.388	1409.98
808.946	1323.73
813.502	1187.84
818.055	1049.09
822.605	942.913
827.153	945.245
831.699	870.162
836.241	909.019
840.781	812.091
845.319	740.064
849.854	749.485
854.386	748.03
858.916	672.888
863.443	608.711
867.968	578.457
872.49	511.788
877.009	395.944
881.526	318.989
886.04	252.254
890.552	190.044
895.061	193.89
899.567	132.578
904.071	124.165
908.573	96.6742
913.071	108.838
917.568	105.819
922.061	67.1493
926.552	83.063
931.041	78.907
935.527	30.4544
940.01	37.5732
944.491	22.6892
948.969	21.9956
953.445	39.4299
957.918	25.2492
962.389	24.7267
966.857	23.222
971.322	40.1602
975.785	33.9456
980.246	14.2871
984.703	28.2651
989.159	40.8797
993.611	26.8651
998.062	9.59467
1002.51	8.99829
1006.95	29.4646
1011.4	20.3339
1015.84	47.5681
1020.27	43.7867
1024.71	37.608
1029.14	32.1874
1033.57	59.825
1038	18.7021
1042.42	32.4775
1046.85	42.5972
1051.27	45.7017
1055.68	64.8891
1060.1	46.2129
1064.51	22.8317
1068.92	41.5046
1073.33	5.42639
1077.73	66.2672
1082.13	18.2716
1086.53	9.81268
1090.93	44.6223
1095.32	18.5377
1099.71	12.2349
1104.1	10.5867
1108.49	18.8149
1112.88	30.3307
1117.26	40.1909
1121.64	34.2202
1126.01	16.6891
1130.39	14.3976
1134.76	1.87878
1139.13	8.19568
1143.49	14.7396
1147.86	22.3184
1152.22	14.316
1156.58	1.6922
1160.94	2.93884
1165.29	20.7283
1169.64	3.21112
1173.99	36.5832
1178.34	11.775
1182.68	31.8012
1187.02	48.2446
1191.36	14.891
1195.7	2.47363
1200.03	3.79694
1204.37	12.5745
1208.69	41.9955
1213.02	67.3713
1217.35	40.2819
1221.67	59.544
1225.99	34.5972
1230.3	57.2534
1234.62	54.0784
1238.93	72.7428
1243.24	84.5106
1247.55	96.2772
1251.85	100.063
1256.15	110.438
1260.45	121.959
1264.75	109.201
1269.04	112.231
1273.34	83.4651
1277.62	115.104
1281.91	87.5951
1286.2	94.1567
1290.48	72.6659
1294.76	80.6751
1299.03	63.9995
1303.31	93.0636
1307.58	60.9617
1311.85	84.5764
1316.12	71.937
1320.38	37.6906
1324.64	49.1428
1328.9	32.9103
1333.16	60.7399
1337.42	78.3574
1341.67	53.5973
1345.92	32.9233
1350.17	65.1802
1354.41	40.5247
1358.66	45.9443
1362.9	41.1707
1367.13	41.5261
1371.37	46.8002
1375.6	39.9568
1379.83	22.1661
1384.06	24.4635
1388.29	33.1995
1392.51	16.0301
1396.73	46.8148
1400.95	36.5851
1405.16	41.3727
1409.38	12.0933
1413.59	5.24603
1417.8	13.3006
1422	6.98035
1426.21	9.45966
1430.41	5.85236
1434.61	25.0479
1438.8	8.75525
1443	16.1601
1447.19	4.32239
1451.38	24.8345
1455.56	12.9721
1459.75	3.91827
1463.93	42.1716
1468.11	0.235718
1472.29	23.2715
1476.46	39.168
1480.63	10.9615
1484.8	27.7565
1488.97	14.6767
1493.13	17.4807
1497.3	47.899
1501.46	20.8686
1505.61	11.0057
1509.77	2.88385
1513.92	22.4111
1518.07	44.6172
1522.22	18.6795
1526.37	18.2187
1530.51	39.1364
1534.65	21.5333
1538.79	41.3342
1542.92	2.28375
1547.06	6.41803
1551.19	12.9213
1555.32	21.6537
1559.44	38.5847
1563.57	13.7847
1567.69	34.2511
