Measurement: Raman, 514 nm, ccw, Raman Data Processed
Mineral: Anatase
Rruff sample: R060277
Ideal chemistry: TiO_2_
Locality: Taftan, near Dalbandi, Baluchistan Province, Pakistan
Source: Herb Obodda
Description: Dark brown tetragonal tabular crystals
Measured chemistry: Ti_1.00_O_2_
Pin_id: L01956
Orientation: Laser parallel to -a* (-1 0 0). Fiducial mark perpendicular to laser is parallel to -c [0 0 -1]
Raman shift (cm-1)	intensity
50.724	0
55.708	20.0414
60.69	2.65286
65.668	14.3445
70.644	28.4554
75.617	103.332
80.588	183.954
85.555	321.129
90.52	488.687
95.482	647.002
100.441	853.031
105.398	1092.39
110.351	1488.77
115.302	2033.66
120.25	3002.93
125.195	5102.75
130.138	11542.2
135.078	25025.3
140.015	48516.4
144.949	59646.5
149.88	25133.6
154.809	8602.31
159.735	3889.68
164.658	2249.82
169.578	1459.65
174.496	984.858
179.411	759.735
184.323	565.678
189.232	578.805
194.138	883.972
199.042	1119.22
203.943	372.448
208.841	203.444
213.737	145.411
218.63	82.75
223.52	52.3132
228.407	50.0332
233.291	13.853
238.173	8.73639
243.052	1.35339
247.928	2.44785
252.802	23.5837
257.672	26.8571
262.54	11.3073
267.406	32.9123
272.268	0.328247
277.128	2.52472
281.985	5.55646
286.839	28.6074
291.691	53.6528
296.54	62.6204
301.386	87.4048
306.229	121.083
311.07	103.204
315.908	115.438
320.743	137.314
325.575	128.763
330.405	114.134
335.232	108.501
340.056	97.8735
344.878	128.396
349.697	162.932
354.513	196.535
359.326	247.199
364.137	308.912
368.945	474.671
373.75	708.476
378.552	1163.32
383.352	1826.14
388.149	2711.69
392.944	3706.62
397.735	3868.44
402.524	2906.2
407.311	1698.92
412.094	966.041
416.875	602.266
421.653	347.383
426.429	234.98
431.202	136.616
435.972	84.3556
440.739	31.2035
445.504	25.1647
450.266	3.2489
455.025	3.52234
459.782	20.1705
464.535	23.7556
469.287	3.23181
474.035	7.46942
478.781	73.4231
483.524	141.602
488.265	198.948
493.003	342.448
497.738	518.094
502.47	1008.89
507.2	1805.83
511.927	2670.91
516.651	2890.15
521.373	2425.53
526.092	1748.07
530.808	1151.78
535.522	797.678
540.233	576.784
544.942	428.143
549.647	286.78
554.35	224.689
559.051	164.868
563.748	135.264
568.443	128.859
573.136	121.617
577.825	144.522
582.513	126.573
587.197	137.77
591.879	178.592
596.558	234.63
601.234	346.209
605.908	494.478
610.579	745.73
615.248	1125.1
619.913	1661.34
624.577	2812.74
629.237	4340.48
633.895	6221.42
638.55	7190.02
643.203	5997.74
647.853	4191.55
652.5	2774.47
657.145	1913.48
661.787	1346.58
666.426	993.771
671.063	740.05
675.697	605.419
680.329	399.859
684.957	313.372
689.584	267.949
694.207	226.992
698.828	186.261
703.447	139.983
708.062	105.744
712.675	88.5355
717.286	28.3564
721.894	19.2024
726.499	14.0673
731.102	29.0561
735.702	5.78155
740.299	6.45435
744.894	0.713562
749.486	8.00928
754.075	28.4547
758.662	10.7885
763.247	10.4117
767.828	0.475403
772.407	41.2108
776.984	62.6697
781.558	76.8403
786.129	93.6095
790.698	121.874
795.264	143.314
799.827	139.362
804.388	116.325
808.946	122.98
813.502	89.0996
818.055	91.0791
822.605	51.3874
827.153	63.3017
831.699	50.1865
836.241	82.7678
840.781	66.5941
845.319	82.9895
849.854	72.4725
854.386	59.9924
858.916	48.2284
863.443	56.5417
867.968	54.1189
872.49	37.4558
877.009	57.2917
881.526	41.6459
886.04	50.0558
890.552	18.2177
895.061	15.8995
899.567	27.3924
904.071	11.1175
908.573	0.722137
913.071	11.074
917.568	13.4133
922.061	1.67282
926.552	0.179962
931.041	11.8871
935.527	5.92712
940.01	15.8852
944.491	5.72745
948.969	22.5196
953.445	4.58313
957.918	9.15247
962.389	2.72494
966.857	23.2208
971.322	17.7212
975.785	24.2221
980.246	13.5805
984.703	4.86395
989.159	15.0597
993.611	8.20148
998.062	29.3067
1002.51	13.3557
1006.95	16.369
1011.4	25.1099
1015.84	33.2566
1020.27	25.303
1024.71	24.1
1029.14	11.4794
1033.57	24.3802
1038	11.5358
1042.42	26.8701
1046.85	20.8376
1051.27	16.7682
1055.68	19.918
1060.1	15.7548
1064.51	19.8668
1068.92	9.51505
1073.33	19.411
1077.73	13.273
1082.13	13.8814
1086.53	4.81869
1090.93	8.40112
1095.32	17.7085
1099.71	15.2226
1104.1	14.7873
1108.49	15.0369
1112.88	8.60303
1117.26	18.9544
1121.64	19.3514
1126.01	7.81699
1130.39	13.2191
1134.76	12.695
1139.13	4.83228
1143.49	1.35599
1147.86	6.59686
1152.22	0.030304
1156.58	0.599579
1160.94	1.32651
1165.29	7.02206
1169.64	7.36114
1173.99	6.59638
1178.34	3.96457
1182.68	19.2639
1187.02	11.4311
1191.36	0.886444
1195.7	14.2084
1200.03	11.466
1204.37	5.78366
1208.69	0.119904
1213.02	8.42474
1217.35	2.51416
1221.67	22.7401
1225.99	11.1673
1230.3	20.4968
1234.62	9.73923
1238.93	11.9178
1243.24	24.7958
1247.55	5.10062
1251.85	23.4084
1256.15	20.7006
1260.45	21.8942
1264.75	21.3094
1269.04	7.34442
1273.34	9.2399
1277.62	9.19934
1281.91	14.4248
1286.2	18.0417
1290.48	1.0928
1294.76	30.3454
1299.03	20.5691
1303.31	22.7511
1307.58	24.9317
1311.85	8.21521
1316.12	17.6808
1320.38	12.9428
1324.64	18.2113
1328.9	4.48428
1333.16	1.897
1337.42	12.1176
1341.67	21.368
1345.92	15.9572
1350.17	4.23419
1354.41	3.46631
1358.66	15.7314
1362.9	12.9592
1367.13	13.2382
1371.37	21.4612
1375.6	6.69553
1379.83	15.8854
1384.06	5.21716
1388.29	18.4029
1392.51	18.6788
1396.73	19.9363
1400.95	12.0972
1405.16	9.24905
1409.38	6.45801
1413.59	4.69782
1417.8	13.9803
1422	14.1132
1426.21	15.2846
1430.41	12.0373
1434.61	1.53415
1438.8	19.7402
1443	6.77847
1447.19	15.5055
1451.38	8.81986
1455.56	9.10532
1459.75	9.39996
1463.93	11.5589
1468.11	6.84839
1472.29	23.3672
1476.46	18.5997
1480.63	2.823
1484.8	17.0622
1488.97	18.0873
1493.13	18.0159
1497.3	0.202911
1501.46	6.35208
1505.61	20.4114
1509.77	11.4887
1513.92	13.5389
1518.07	9.20892
1522.22	28.3596
1526.37	24.2174
1530.51	5.23804
1534.65	0.907135
1538.79	2.34128
1542.92	13.3306
1547.06	22.3493
1551.19	31.0844
1555.32	16.7692
1559.44	4.76953
1563.57	19.8618
1567.69	18.0552
