Measurement: Raman, 514 nm, ccw, Raman Data Processed
Mineral: Anatase
Rruff sample: R060277
Ideal chemistry: TiO_2_
Locality: Taftan, near Dalbandi, Baluchistan Province, Pakistan
Source: Herb Obodda
Description: Dark brown tetragonal tabular crystals
Measured chemistry: Ti_1.00_O_2_
Pin_id: L01480
Orientation: Laser parallel to c* (0 0 1). Fiducial mark perpendicular to laser is parallel to [1 1 0]
Raman shift (cm-1)	intensity
50.724	0
55.708	3.43225
60.69	16.493
65.668	7.55182
70.644	44.7114
75.617	97.2879
80.588	197.329
85.555	357.757
90.52	557.182
95.482	725.324
100.441	916.137
105.398	1114.94
110.351	1406.48
115.302	1789.58
120.25	2462.35
125.195	3642.98
130.138	7215.79
135.078	15210.6
140.015	37405
144.949	50727.5
149.88	16776.2
154.809	6258.31
159.735	3323.32
164.658	2143.68
169.578	1489.32
174.496	1133.78
179.411	920.88
184.323	743.523
189.232	629.781
194.138	857.781
199.042	1033.79
203.943	393.46
208.841	234.257
213.737	175.049
218.63	76.6506
223.52	89.9513
228.407	69.8208
233.291	19.1104
238.173	46.2824
243.052	72.471
247.928	84.6006
252.802	112.848
257.672	102.344
262.54	90.9337
267.406	53.3888
272.268	75.5345
277.128	1.177
281.985	92.9424
286.839	229.766
291.691	444.943
296.54	677.838
301.386	852.32
306.229	948.697
311.07	1123.52
315.908	1161.66
320.743	1083.32
325.575	984.547
330.405	962.385
335.232	961.877
340.056	978.06
344.878	1058.95
349.697	1241.35
354.513	1491.25
359.326	1912.7
364.137	2513.52
368.945	3771.95
373.75	5844.42
378.552	9327.53
383.352	15405.4
388.149	24914.6
392.944	36616.8
397.735	43386.3
402.524	34603.1
407.311	20471
412.094	11275.9
416.875	6615.95
421.653	4129.98
426.429	2735.29
431.202	1717.77
435.972	970.47
440.739	742.534
445.504	504.219
450.266	332.717
455.025	71.1248
459.782	12.5581
464.535	100.049
469.287	113.638
474.035	353.194
478.781	708.493
483.524	1157.39
488.265	1772.74
493.003	2886.52
497.738	4586.73
502.47	8130.38
507.2	14817.5
511.927	25705.1
516.651	30691.2
521.373	26360.9
526.092	18873.4
530.808	13122.7
535.522	8962.9
540.233	6483.05
544.942	4623.19
549.647	3282.21
554.35	2467.03
559.051	1813.59
563.748	1314.71
568.443	995.158
573.136	867.885
577.825	697.493
582.513	564.662
587.197	408.775
591.879	368.075
596.558	206.126
601.234	383.692
605.908	443.206
610.579	651.986
615.248	943.318
619.913	1415.93
624.577	2204.42
629.237	3445.88
633.895	5093.96
638.55	6019.66
643.203	5066.94
647.853	3339.77
652.5	2146.1
657.145	1353.93
661.787	936.168
666.426	666.831
671.063	450.851
675.697	307.196
680.329	266.81
684.957	303.65
689.584	296.673
694.207	320.835
698.828	377.091
703.447	291.409
708.062	153.74
712.675	102.785
717.286	33.7266
721.894	77.92
726.499	83.9795
731.102	85.1748
735.702	127.638
740.299	87.6111
744.894	102.225
749.486	50.2324
754.075	1.61731
758.662	87.1001
763.247	150.217
767.828	313.937
772.407	402.408
776.984	626.491
781.558	849.084
786.129	1084.1
790.698	1237.14
795.264	1317.56
799.827	1332.38
804.388	1261.03
808.946	1184.63
813.502	1079.75
818.055	951.774
822.605	882.944
827.153	791.809
831.699	768.364
836.241	770.414
840.781	728.741
845.319	725.1
849.854	657.247
854.386	635.396
858.916	580.422
863.443	596.495
867.968	516.792
872.49	474.877
877.009	347.858
881.526	281.736
886.04	205.426
890.552	184.915
895.061	168.084
899.567	118.224
904.071	86.9468
908.573	134.421
913.071	92.2789
917.568	106.825
922.061	77.9321
926.552	73.6265
931.041	73.2076
935.527	108.226
940.01	53.9871
944.491	61.4503
948.969	57.4766
953.445	30.2073
957.918	45.0013
962.389	61.8055
966.857	50.4083
971.322	34.7625
975.785	5.84241
980.246	53.7819
984.703	44.501
989.159	4.6554
993.611	3.58136
998.062	28.6755
1002.51	13.7855
1006.95	0.709595
1011.4	9.94403
1015.84	29.5232
1020.27	55.5966
1024.71	60.3101
1029.14	40.6752
1033.57	34.2234
1038	9.30182
1042.42	44.2568
1046.85	34.6812
1051.27	47.9568
1055.68	45.2312
1060.1	31.6727
1064.51	68.3406
1068.92	16.1463
1073.33	29.8629
1077.73	12.3767
1082.13	18.5374
1086.53	39.739
1090.93	27.7888
1095.32	32.3295
1099.71	49.2183
1104.1	31.8289
1108.49	19.0713
1112.88	6.91315
1117.26	11.4163
1121.64	32.5415
1126.01	23.8488
1130.39	1.16406
1134.76	17.3435
1139.13	12.5432
1143.49	21.8342
1147.86	24.8715
1152.22	11.7394
1156.58	30.192
1160.94	4.26617
1165.29	0.778137
1169.64	4.76312
1173.99	24.4473
1178.34	30.0283
1182.68	13.4543
1187.02	41.9368
1191.36	26.2596
1195.7	8.40185
1200.03	17.4299
1204.37	32.499
1208.69	39.2949
1213.02	14.2259
1217.35	46.0948
1221.67	41.3695
1225.99	22.2993
1230.3	58.0768
1234.62	33.637
1238.93	73.1153
1243.24	93.359
1247.55	78.5966
1251.85	57.1403
1256.15	79.8584
1260.45	98.3491
1264.75	109.243
1269.04	130.45
1273.34	95.8068
1277.62	100.242
1281.91	78.8115
1286.2	59.2504
1290.48	71.769
1294.76	53.7351
1299.03	84.138
1303.31	67.7395
1307.58	39.9125
1311.85	40.3206
1316.12	69.8394
1320.38	29.8913
1324.64	48.7105
1328.9	15.7407
1333.16	20.4883
1337.42	51.9633
1341.67	76.9848
1345.92	44.1661
1350.17	47.4028
1354.41	52.4316
1358.66	44.8433
1362.9	29.8274
1367.13	55.9215
1371.37	13.9396
1375.6	36.0301
1379.83	28.0115
1384.06	6.16461
1388.29	16.0823
1392.51	31.8842
1396.73	15.6338
1400.95	33.2953
1405.16	12.9247
1409.38	21.5802
1413.59	13.2271
1417.8	7.80798
1422	38.3727
1426.21	10.9066
1430.41	19.2904
1434.61	10.6909
1438.8	2.05579
1443	10.2664
1447.19	7.75543
1451.38	13.2629
1455.56	33.3084
1459.75	9.32459
1463.93	19.3103
1468.11	0.284607
1472.29	0.190979
1476.46	29.122
1480.63	10.6938
1484.8	29.4081
1488.97	26.9867
1493.13	45.6949
1497.3	29.2639
1501.46	33.1343
1505.61	9.40454
1509.77	13.5909
1513.92	16.7656
1518.07	10.0906
1522.22	36.059
1526.37	39.1608
1530.51	30.4853
1534.65	13.584
1538.79	39.4205
1542.92	6.37933
1547.06	0.582764
1551.19	29.936
1555.32	38.5708
1559.44	12.4403
1563.57	43.9886
1567.69	46.7026
