Measurement: Raman, 514 nm, ccw, Raman Data Processed
Mineral: Anatase
Rruff sample: R060277
Ideal chemistry: TiO_2_
Locality: Taftan, near Dalbandi, Baluchistan Province, Pakistan
Source: Herb Obodda
Description: Dark brown tetragonal tabular crystals
Measured chemistry: Ti_1.00_O_2_
Pin_id: L01956
Orientation: Laser parallel to -a* (-1 0 0). Fiducial mark perpendicular to laser is parallel to -c [0 0 -1]
Raman shift (cm-1)	intensity
50.724	0
55.708	3.90729
60.69	6.19485
65.668	3.40167
70.644	75.2922
75.617	183.22
80.588	293.006
85.555	449.331
90.52	668.617
95.482	871.935
100.441	1064.98
105.398	1431.47
110.351	1876.5
115.302	2542.58
120.25	3856.98
125.195	6824.22
130.138	16542.1
135.078	35212.2
140.015	54716.7
144.949	51470.8
149.88	20165.8
154.809	7402.3
159.735	3656.8
164.658	2223.61
169.578	1480.05
174.496	1089.43
179.411	792.731
184.323	687.894
189.232	810.034
194.138	1051.11
199.042	907.533
203.943	411.719
208.841	197.983
213.737	146.33
218.63	88.4507
223.52	70.6848
228.407	28.9391
233.291	9.00159
238.173	12.9489
243.052	16.2528
247.928	60.8909
252.802	29.9504
257.672	70.7512
262.54	17.7389
267.406	31.6038
272.268	36.5586
277.128	9.7793
281.985	37.855
286.839	111.427
291.691	174.756
296.54	243.513
301.386	319.499
306.229	405.909
311.07	437.075
315.908	444.324
320.743	466.047
325.575	397.402
330.405	376.19
335.232	372.24
340.056	378.568
344.878	458.182
349.697	519.023
354.513	659.09
359.326	905.386
364.137	1234.92
368.945	1885.68
373.75	2894.49
378.552	4744.07
383.352	7522.97
388.149	11301.6
392.944	14976.7
397.735	15277.7
402.524	11397.2
407.311	6736.94
412.094	3832.35
416.875	2256.62
421.653	1426.58
426.429	891.742
431.202	484.222
435.972	318.196
440.739	231.69
445.504	100.775
450.266	63.5911
455.025	13.2004
459.782	32.3207
464.535	41.2075
469.287	91.0915
474.035	175.046
478.781	299.748
483.524	539.181
488.265	893.242
493.003	1478.03
497.738	2471.18
502.47	4331.05
507.2	7499.53
511.927	10976.6
516.651	11705.3
521.373	9721.68
526.092	6996.78
530.808	4700.65
535.522	3419.38
540.233	2430
544.942	1720.5
549.647	1233.86
554.35	866.002
559.051	626.934
563.748	544.586
568.443	375.859
573.136	334.689
577.825	269.065
582.513	242.277
587.197	283.453
591.879	239.898
596.558	300.266
601.234	417.945
605.908	640.526
610.579	877.288
615.248	1366.21
619.913	2150.02
624.577	3454.02
629.237	5341.32
633.895	7337.67
638.55	7777.31
643.203	6386.23
647.853	4439.4
652.5	2849.83
657.145	1892.49
661.787	1381.36
666.426	1009.43
671.063	752.695
675.697	569.116
680.329	433.686
684.957	385.388
689.584	318.192
694.207	247.075
698.828	249.014
703.447	174.001
708.062	127.029
712.675	48.0677
717.286	27.0976
721.894	1.92267
726.499	40.5839
731.102	27.7978
735.702	54.0049
740.299	55.8611
744.894	56.3803
749.486	48.5122
754.075	9.78992
758.662	14.6671
763.247	72.2864
767.828	97.6722
772.407	205.907
776.984	269.734
781.558	331.939
786.129	434.918
790.698	455.911
795.264	490.768
799.827	484.191
804.388	482.995
808.946	440.029
813.502	409.042
818.055	378.649
822.605	327.375
827.153	331.571
831.699	287.329
836.241	313.782
840.781	281.393
845.319	271.78
849.854	254.774
854.386	249.083
858.916	227.346
863.443	209.31
867.968	172.823
872.49	181.578
877.009	156.92
881.526	103.105
886.04	96.155
890.552	52.8967
895.061	38.6665
899.567	41.5491
904.071	51.4895
908.573	27.7565
913.071	60.0925
917.568	28.3523
922.061	17.3323
926.552	24.2185
931.041	36.866
935.527	20.4814
940.01	28.6343
944.491	25.6891
948.969	6.51776
953.445	17.215
957.918	23.7778
962.389	22.3954
966.857	33.6359
971.322	1.88159
975.785	10.0148
980.246	8.85095
984.703	7.13745
989.159	7.5423
993.611	14.7667
998.062	14.1141
1002.51	11.7415
1006.95	11.68
1011.4	32.2033
1015.84	13.2957
1020.27	9.33521
1024.71	17.9935
1029.14	17.2321
1033.57	14.4044
1038	15.5193
1042.42	46.3391
1046.85	1.41248
1051.27	34.8875
1055.68	9.39441
1060.1	10.5735
1064.51	31.5734
1068.92	9.67456
1073.33	35.6942
1077.73	24.8648
1082.13	24.7786
1086.53	11.7651
1090.93	16.1697
1095.32	21.6832
1099.71	9.50525
1104.1	2.20166
1108.49	20.1532
1112.88	14.7383
1117.26	10.4055
1121.64	45.8127
1126.01	0.732117
1130.39	24.3599
1134.76	10.7932
1139.13	5.88031
1143.49	1.66144
1147.86	3.41882
1152.22	8.28577
1156.58	2.0257
1160.94	0.719788
1165.29	2.38995
1169.64	4.58911
1173.99	3.47644
1178.34	4.36664
1182.68	19.4465
1187.02	8.48828
1191.36	12.3444
1195.7	8.27722
1200.03	9.85852
1204.37	6.08313
1208.69	17.7592
1213.02	7.61981
1217.35	20.3612
1221.67	20.097
1225.99	33.5898
1230.3	14.2112
1234.62	41.598
1238.93	23.194
1243.24	32.0597
1247.55	14.6248
1251.85	28.4211
1256.15	45.067
1260.45	26.7163
1264.75	38.059
1269.04	47.2362
1273.34	36.0221
1277.62	54.4354
1281.91	38.6159
1286.2	37.9835
1290.48	44.377
1294.76	33.2821
1299.03	25.7196
1303.31	24.3898
1307.58	27.8709
1311.85	24.8902
1316.12	39.1107
1320.38	33.9777
1324.64	11.3285
1328.9	32.291
1333.16	12.0241
1337.42	32.7028
1341.67	9.6817
1345.92	32.1461
1350.17	23.5547
1354.41	31.0635
1358.66	23.517
1362.9	3.95139
1367.13	16.6303
1371.37	13.8663
1375.6	21.2976
1379.83	8.72119
1384.06	14.2159
1388.29	1.04617
1392.51	5.36978
1396.73	3.74005
1400.95	21.0804
1405.16	6.39291
1409.38	11.7319
1413.59	9.31284
1417.8	6.38632
1422	3.37903
1426.21	3.99026
1430.41	11.1485
1434.61	20.33
1438.8	25.4754
1443	13.3447
1447.19	14.153
1451.38	10.6314
1455.56	5.89792
1459.75	2.40918
1463.93	7.08487
1468.11	1.55292
1472.29	12.0472
1476.46	6.3829
1480.63	22.7636
1484.8	20.1394
1488.97	23.3829
1493.13	16.7289
1497.3	24.0033
1501.46	15.2867
1505.61	20.6087
1509.77	9.04089
1513.92	36.2972
1518.07	29.4664
1522.22	16.9963
1526.37	14.7525
1530.51	17.2276
1534.65	24.543
1538.79	21.1335
1542.92	20.2428
1547.06	1.60434
1551.19	19.3899
1555.32	17.5274
1559.44	30.8878
1563.57	39.1087
1567.69	28.7991
