Measurement: Raman, 514 nm, ccw, Raman Data Processed
Mineral: Anatase
Rruff sample: R060277
Ideal chemistry: TiO_2_
Locality: Taftan, near Dalbandi, Baluchistan Province, Pakistan
Source: Herb Obodda
Description: Dark brown tetragonal tabular crystals
Measured chemistry: Ti_1.00_O_2_
Pin_id: L01480
Orientation: Laser parallel to c* (0 0 1). Fiducial mark perpendicular to laser is parallel to [1 1 0]
Raman shift (cm-1)	intensity
50.724	0
55.708	30.1323
60.69	8.65671
65.668	11.0662
70.644	40.5706
75.617	183.198
80.588	259.36
85.555	462.242
90.52	706.894
95.482	894.96
100.441	1061.47
105.398	1341.02
110.351	1600.54
115.302	2015.64
120.25	2671.61
125.195	4149.82
130.138	8384.83
135.078	18689.6
140.015	42904.6
144.949	45414.2
149.88	15186.5
154.809	5895.64
159.735	3205.99
164.658	2175.63
169.578	1538.46
174.496	1172.09
179.411	899.306
184.323	755.007
189.232	734.287
194.138	1020.29
199.042	930.747
203.943	339.228
208.841	266.522
213.737	178.845
218.63	115.461
223.52	102.704
228.407	56.4417
233.291	36.4871
238.173	79.2772
243.052	88.9812
247.928	133.539
252.802	98.9575
257.672	117.568
262.54	72.376
267.406	35.1285
272.268	45.5288
277.128	12.5977
281.985	100.478
286.839	239.019
291.691	555.694
296.54	701.859
301.386	925.257
306.229	1085.52
311.07	1141.43
315.908	1215.83
320.743	1199.58
325.575	1182.1
330.405	1031.31
335.232	964.268
340.056	1063.01
344.878	1209.55
349.697	1369.67
354.513	1717.36
359.326	2310.05
364.137	2976.62
368.945	4559.17
373.75	6724.71
378.552	10811.5
383.352	17737.2
388.149	28392
392.944	41597.7
397.735	48696.1
402.524	38966.4
407.311	23196.3
412.094	12761.4
416.875	7594.14
421.653	4590.21
426.429	3165.93
431.202	2087.97
435.972	1244.37
440.739	768.26
445.504	577.987
450.266	356.825
455.025	245.867
459.782	106.176
464.535	11.844
469.287	194.834
474.035	332.049
478.781	785.187
483.524	1244.07
488.265	2075.58
493.003	3188.68
497.738	5112.4
502.47	8926.72
507.2	16399.7
511.927	28119.3
516.651	32898.6
521.373	28091.8
526.092	20221.9
530.808	13785.2
535.522	9315.64
540.233	6829.38
544.942	4694.31
549.647	3488.33
554.35	2497.32
559.051	1780.12
563.748	1386.61
568.443	1031.59
573.136	797.999
577.825	593.8
582.513	424.817
587.197	322.342
591.879	242.763
596.558	326.269
601.234	370.19
605.908	449.322
610.579	671.134
615.248	917.116
619.913	1448.55
624.577	2337.3
629.237	3686.66
633.895	5234.74
638.55	5940.48
643.203	4789.86
647.853	3124.84
652.5	1997.36
657.145	1302.4
661.787	822.946
666.426	560.936
671.063	471.326
675.697	294.057
680.329	296.076
684.957	218.331
689.584	287.781
694.207	328.362
698.828	379.019
703.447	308.715
708.062	209.406
712.675	64.0527
717.286	2.71387
721.894	69.2336
726.499	97.1155
731.102	116.29
735.702	90.6011
740.299	152.855
744.894	81.2773
749.486	31.491
754.075	36.8381
758.662	95.243
763.247	199.008
767.828	327.35
772.407	493.2
776.984	751.577
781.558	926.52
786.129	1181.17
790.698	1392.63
795.264	1447.18
799.827	1528.28
804.388	1340.81
808.946	1288.2
813.502	1211.15
818.055	1043.62
822.605	949.292
827.153	920.86
831.699	886.097
836.241	792.8
840.781	837.079
845.319	771.949
849.854	780.243
854.386	764.095
858.916	685.491
863.443	667.385
867.968	519.28
872.49	490.021
877.009	423.427
881.526	288.961
886.04	261.43
890.552	182.412
895.061	183.362
899.567	165.684
904.071	194.066
908.573	112.769
913.071	94.0774
917.568	99.796
922.061	107.345
926.552	100.316
931.041	26.9048
935.527	73.5676
940.01	48.4058
944.491	88.6334
948.969	59.6501
953.445	59.3436
957.918	24.6992
962.389	50.6775
966.857	58.2441
971.322	40.6119
975.785	48.2521
980.246	26.4229
984.703	41.7466
989.159	24.766
993.611	28.5504
998.062	6.49487
1002.51	21.5206
1006.95	27.5308
1011.4	33.0411
1015.84	43.9386
1020.27	30.4453
1024.71	25.8182
1029.14	58.0761
1033.57	34.6549
1038	20.2409
1042.42	36.0378
1046.85	36.9604
1051.27	73.9466
1055.68	58.2375
1060.1	48.9466
1064.51	3.03638
1068.92	53.0815
1073.33	11.9018
1077.73	26.4329
1082.13	48.603
1086.53	17.7611
1090.93	3.67071
1095.32	20.2787
1099.71	24.3842
1104.1	16.0003
1108.49	5.50006
1112.88	3.3338
1117.26	1.67633
1121.64	20.9528
1126.01	21.7609
1130.39	3.16138
1134.76	38.1257
1139.13	11.8915
1143.49	1.77637
1147.86	23.6849
1152.22	3.35223
1156.58	5.5105
1160.94	6.03369
1165.29	4.11389
1169.64	7.33142
1173.99	6.50824
1178.34	7.143
1182.68	35.9054
1187.02	7.73877
1191.36	51.662
1195.7	3.6236
1200.03	31.714
1204.37	27.9899
1208.69	8.8606
1213.02	24.922
1217.35	32.5973
1221.67	41.0873
1225.99	51.9628
1230.3	78.6115
1234.62	80.0151
1238.93	57.5195
1243.24	55.544
1247.55	78.9356
1251.85	104.404
1256.15	65.1094
1260.45	123.592
1264.75	101.479
1269.04	113.688
1273.34	103.611
1277.62	91.0513
1281.91	120.813
1286.2	104.238
1290.48	94.8531
1294.76	105.61
1299.03	43.9429
1303.31	79.619
1307.58	68.9963
1311.85	84.4899
1316.12	73.0879
1320.38	58.9145
1324.64	52.1899
1328.9	33.4469
1333.16	39.4636
1337.42	84.1301
1341.67	56.496
1345.92	68.6366
1350.17	42.3738
1354.41	44.6423
1358.66	46.1401
1362.9	48.9661
1367.13	51.9034
1371.37	51.088
1375.6	15.9083
1379.83	8.22485
1384.06	32.8573
1388.29	27.5987
1392.51	1.81903
1396.73	9.65643
1400.95	33.1684
1405.16	43.5146
1409.38	12.9511
1413.59	8.23987
1417.8	2.42816
1422	35.5516
1426.21	18.6188
1430.41	7.685
1434.61	4.69604
1438.8	2.56384
1443	22.9002
1447.19	19.1959
1451.38	6.77631
1455.56	1.34442
1459.75	56.1753
1463.93	7.23926
1468.11	8.99506
1472.29	9.37976
1476.46	39.9566
1480.63	55.379
1484.8	23.4174
1488.97	15.9233
1493.13	31.0723
1497.3	50.8331
1501.46	4.17871
1505.61	35.5333
1509.77	14.5289
1513.92	20.3575
1518.07	36.1844
1522.22	36.2928
1526.37	48.1301
1530.51	0.290466
1534.65	60.4318
1538.79	22.6765
1542.92	38.1857
1547.06	23.1368
1551.19	38.2963
1555.32	2.09509
1559.44	27.6858
1563.57	30.535
1567.69	41.4658
