Measurement: Raman, 514 nm, ccw, Raman Data Processed
Mineral: Anatase
Rruff sample: R060277
Ideal chemistry: TiO_2_
Locality: Taftan, near Dalbandi, Baluchistan Province, Pakistan
Source: Herb Obodda
Description: Dark brown tetragonal tabular crystals
Measured chemistry: Ti_1.00_O_2_
Pin_id: L01956
Orientation: Laser parallel to -a* (-1 0 0). Fiducial mark perpendicular to laser is parallel to -c [0 0 -1]
Raman shift (cm-1)	intensity
50.724	0
55.708	16.1031
60.69	6.58347
65.668	1.3721
70.644	21.2772
75.617	103.609
80.588	190.63
85.555	306.798
90.52	447.367
95.482	630.843
100.441	815.041
105.398	1059.72
110.351	1495.59
115.302	1963.66
120.25	2936.7
125.195	5207.74
130.138	11587.7
135.078	25301.5
140.015	46858.3
144.949	57229.3
149.88	23922.4
154.809	8138.45
159.735	3832.4
164.658	2236.04
169.578	1413.2
174.496	947.69
179.411	697.393
184.323	540.386
189.232	585.512
194.138	852.694
199.042	1084.63
203.943	362.746
208.841	188.752
213.737	134.981
218.63	102.049
223.52	51.3784
228.407	46.0068
233.291	37.5933
238.173	6.39658
243.052	4.70349
247.928	4.25854
252.802	2.23822
257.672	9.19855
262.54	5.84863
267.406	12.9172
272.268	26.9973
277.128	4.11804
281.985	7.24329
286.839	13.6311
291.691	27.5172
296.54	38.5125
301.386	63.291
306.229	61.8733
311.07	71.0917
315.908	97.6891
320.743	107.301
325.575	90.4948
330.405	88.1249
335.232	107.774
340.056	84.4448
344.878	91.1404
349.697	103.879
354.513	94.6688
359.326	133.506
364.137	141.381
368.945	207.286
373.75	281.215
378.552	391.167
383.352	626.14
388.149	813.725
392.944	1115.72
397.735	1076.41
402.524	831.874
407.311	481.493
412.094	247.521
416.875	166.331
421.653	104.421
426.429	52.8663
431.202	21.6965
435.972	7.01355
440.739	2.28467
445.504	24.3988
450.266	12.8527
455.025	30.9196
459.782	6.22754
464.535	0.570068
469.287	0.697021
474.035	29.0429
478.781	16.4786
483.524	56.0015
488.265	61.5997
493.003	108.259
497.738	175.979
502.47	292.762
507.2	550.608
511.927	781.518
516.651	778.493
521.373	626.534
526.092	471.642
530.808	362.822
535.522	238.094
540.233	156.487
544.942	108.996
549.647	88.6089
554.35	53.3355
559.051	32.1686
563.748	27.1425
568.443	65.2104
573.136	16.3831
577.825	73.1891
582.513	102.857
587.197	146.876
591.879	176.975
596.558	226.202
601.234	360.036
605.908	490.365
610.579	729.356
615.248	1070.91
619.913	1816.31
624.577	2944.66
629.237	4612.83
633.895	6483.1
638.55	7486.46
643.203	6275.91
647.853	4339.44
652.5	2904.05
657.145	1983.75
661.787	1454.53
666.426	1077.38
671.063	789.304
675.697	629.301
680.329	454.373
684.957	385.518
689.584	309.729
694.207	248.003
698.828	206.336
703.447	150.723
708.062	144.164
712.675	127.661
717.286	64.2086
721.894	38.8204
726.499	40.498
731.102	13.2687
735.702	13.1284
740.299	2.92481
744.894	10.9712
749.486	23.2856
754.075	6.64026
758.662	9.87018
763.247	5.5415
767.828	5.11639
772.407	30.2042
776.984	41.9138
781.558	36.2835
786.129	41.6048
790.698	81.0052
795.264	97.1921
799.827	74.2057
804.388	67.3441
808.946	91.5588
813.502	68.8627
818.055	45.8677
822.605	64.9218
827.153	48.1762
831.699	46.4609
836.241	69.41
840.781	43.4403
845.319	44.428
849.854	27.7581
854.386	20.6758
858.916	23.637
863.443	37.5411
867.968	34.2624
872.49	21.2417
877.009	19.519
881.526	14.2381
886.04	17.59
890.552	10.2283
895.061	10.8804
899.567	3.74759
904.071	5.30838
908.573	8.7742
913.071	6.57388
917.568	0.1026
922.061	0.790924
926.552	0.514099
931.041	12.6369
935.527	14.737
940.01	11.8547
944.491	5.85834
948.969	0.143341
953.445	19.7893
957.918	0.321869
962.389	3.49313
966.857	27.3291
971.322	15.0872
975.785	8.75897
980.246	2.06497
984.703	30.5421
989.159	17.033
993.611	19.4825
998.062	18.8728
1002.51	10.2568
1006.95	10.58
1011.4	19.0308
1015.84	22.3238
1020.27	22.0425
1024.71	0.420929
1029.14	20.0257
1033.57	9.62424
1038	23.3238
1042.42	2.63763
1046.85	18.6363
1051.27	7.98373
1055.68	14.5334
1060.1	31.0393
1064.51	19.02
1068.92	18.8374
1073.33	37.4969
1077.73	18.9839
1082.13	17.2186
1086.53	23.2078
1090.93	13.5389
1095.32	12.0808
1099.71	20.5319
1104.1	13.1418
1108.49	8.41803
1112.88	18.7024
1117.26	9.21396
1121.64	35.6819
1126.01	18.0657
1130.39	7.46088
1134.76	22.8581
1139.13	3.08707
1143.49	17.4387
1147.86	16.7486
1152.22	0.997864
1156.58	5.9855
1160.94	10.473
1165.29	0.34671
1169.64	0.95108
1173.99	4.86859
1178.34	6.12738
1182.68	3.3775
1187.02	5.65393
1191.36	3.22278
1195.7	12.5068
1200.03	14.7871
1204.37	22.1681
1208.69	20.4386
1213.02	15.6594
1217.35	5.92172
1221.67	20.1369
1225.99	24.4115
1230.3	28.5582
1234.62	22.7295
1238.93	21.3712
1243.24	24.4098
1247.55	19.7893
1251.85	26.0337
1256.15	14.2562
1260.45	4.47498
1264.75	13.6911
1269.04	21.1389
1273.34	19.4575
1277.62	10.2969
1281.91	18.7696
1286.2	7.82089
1290.48	27.0357
1294.76	21.5778
1299.03	15.5327
1303.31	13.8592
1307.58	19.0088
1311.85	17.1957
1316.12	19.395
1320.38	21.5673
1324.64	13.4875
1328.9	7.67572
1333.16	15.8553
1337.42	6.03729
1341.67	0.194855
1345.92	18.3672
1350.17	3.52231
1354.41	9.69931
1358.66	17.8668
1362.9	16.0667
1367.13	21.2433
1371.37	4.49442
1375.6	7.62479
1379.83	14.7994
1384.06	11.0191
1388.29	4.12988
1392.51	12.209
1396.73	2.15994
1400.95	2.49249
1405.16	21.6163
1409.38	9.71478
1413.59	13.8068
1417.8	11.6984
1422	9.82187
1426.21	0.848206
1430.41	18.8697
1434.61	13.8557
1438.8	5.84579
1443	17.7916
1447.19	0.814301
1451.38	7.3782
1455.56	11.38
1459.75	4.51318
1463.93	19.6171
1468.11	11.7887
1472.29	25.9391
1476.46	13.0572
1480.63	19.1952
1484.8	14.7614
1488.97	2.38373
1493.13	9.46799
1497.3	13.8442
1501.46	23.4997
1505.61	20.5019
1509.77	20.3711
1513.92	18.9332
1518.07	16.7847
1522.22	9.61804
1526.37	10.3953
1530.51	29.8867
1534.65	2.40106
1538.79	21.8293
1542.92	5.05664
1547.06	11.824
1551.19	8.42709
1555.32	29.3756
1559.44	7.414
1563.57	7.52377
1567.69	6.77414
