Measurement: Raman, 514 nm, ccw, Raman Data Processed
Mineral: Andalusite
Rruff sample: R050449
Ideal chemistry: Al_2_SiO_5_
Locality: Itinga, Minas Gerais, Brazil
Source: Marcus Origlieri
Description: Green fragment
Measured chemistry: Al_2.00_Fe^3+^_0.01_Si_0.99_O_5_
Pin_id: L00608
Orientation: Laser parallel to b* (0 1 0). Fiducial mark perpendicular to laser is parallel to -c [0 0 -1]
Raman shift (cm-1)	intensity
119.365	0
124.288	481.889
129.209	281.723
134.127	303.618
139.043	856.85
143.956	1214.6
148.867	793.427
153.775	556.002
158.681	31.3638
163.585	93.4429
168.486	442.108
173.385	333.297
178.282	603.727
183.176	845.061
188.067	1820.96
192.956	2953.95
197.843	3296.09
202.727	3445.5
207.609	1473.18
212.489	1006.46
217.366	1071.34
222.24	1095.68
227.112	1360.02
231.982	1368.25
236.849	1050.47
241.714	1117.55
246.577	1013.08
251.437	963.085
256.294	778.629
261.149	774.558
266.002	354.603
270.852	411.875
275.7	316.068
280.545	775.344
285.388	2140.92
290.229	6413.25
295.067	9552.31
299.902	2940.01
304.735	7.60547
309.566	599.975
314.394	1385.55
319.22	7454.06
324.043	14557.7
328.864	4121.48
333.682	310.476
338.498	6.87988
343.311	502.021
348.122	1854.45
352.931	4729.19
357.737	11593.2
362.54	14317.3
367.341	8085.07
372.14	5541.41
376.936	4562.96
381.73	3907.97
386.521	3865.46
391.31	4493.56
396.096	4869.91
400.88	4355.91
405.661	3962.74
410.44	4119.86
415.216	3998.09
419.99	4238.03
424.761	3898.56
429.53	3098.69
434.297	2626.41
439.061	2669.75
443.822	3924.72
448.581	4997.55
453.337	6376.64
458.091	2964.01
462.843	1025.34
467.592	489.545
472.338	228.676
477.082	33.2022
481.824	215.033
486.563	400.838
491.3	74.3887
496.034	1152.5
500.765	2589.63
505.494	3947.65
510.221	5482.55
514.945	6276.32
519.666	5835.94
524.385	5751.4
529.102	6324.69
533.816	7532.76
538.527	9931.61
543.236	13052.8
547.943	15225.3
552.647	17089.1
557.348	16935.7
562.047	14891.8
566.744	13921.3
571.438	14143.4
576.129	13860.8
580.818	12268.3
585.504	9953.44
590.188	8388.58
594.87	7394.71
599.549	7053.22
604.225	7603.67
608.899	9023.83
613.57	11311.2
618.239	13700.2
622.905	15113.1
627.569	16027.9
632.23	17018.6
636.889	16630.8
641.545	14952.7
646.198	13754.2
650.849	12952.4
655.498	9598.07
660.144	5887.28
664.787	3499.93
669.428	1489.95
674.067	528.299
678.703	6.10254
683.336	199.424
687.967	208.655
692.595	191.225
697.221	263.232
701.844	594.604
706.465	908.495
711.083	1426.02
715.698	2217.16
720.311	2238.7
724.922	781.356
729.53	364.511
734.135	767.128
738.738	963.407
743.338	522.842
747.936	381.178
752.531	314.073
757.124	510.935
761.714	436.658
766.302	249.565
770.887	315.104
775.469	390.685
780.049	758.574
784.626	1115.99
789.201	1809.91
793.773	2442.32
798.343	3704.21
802.91	5453.54
807.475	8637.31
812.037	12904.5
816.596	18883.8
821.153	23498.6
825.707	20615.1
830.259	13578.7
834.808	8784.08
839.355	5391.93
843.899	2604.28
848.441	1007.12
852.98	24.4141
857.516	477.753
862.05	411.479
866.581	251.942
871.11	213.297
875.636	84.8359
880.159	90.4326
884.68	295.277
889.199	627.835
893.714	1334.9
898.228	2849.15
902.738	5354.46
907.246	8748.65
911.752	14672.4
916.255	27304.9
920.755	41749.4
925.253	27429.2
929.748	18192.2
934.241	10853.6
938.731	6162.4
943.218	4442.71
947.703	3768.55
952.186	3603
956.665	3077.23
961.142	2716.08
965.617	2821.89
970.089	3071.15
974.558	3476.29
979.025	3946.39
983.489	3807.66
987.951	4112.29
992.41	4882.54
996.866	6927.39
1001.32	13187.7
1005.77	22077.9
1010.22	17947
1014.67	8649.1
1019.11	5201.3
1023.55	3968.14
1027.99	3450.23
1032.42	3150.65
1036.86	2867.58
1041.29	2606.69
1045.72	1770.31
1050.14	962.803
1054.56	807.236
1058.98	831.211
1063.4	1849.62
1067.82	2154.18
1072.23	1456.4
1076.64	1604.27
1081.05	1312.71
1085.45	1162.74
1089.85	816.366
1094.25	600.593
1098.65	343.42
1103.04	287.846
1107.43	214.883
1111.82	161.535
1116.21	50.1934
1120.59	201.797
1124.97	99.8799
1129.35	136.251
1133.73	136.817
1138.1	125.1
1142.47	284.262
1146.84	419.484
1151.21	506.604
1155.57	448.301
1159.93	556.484
1164.29	756.067
1168.64	676.138
1172.99	900.152
1177.34	999.765
1181.69	1240.67
1186.04	1205.52
1190.38	1439.42
1194.72	1362.5
1199.05	1415.39
1203.39	1198.89
1207.72	1235.05
1212.05	1031.21
1216.37	972.555
1220.7	773.503
1225.02	632.877
1229.34	478.728
1233.65	401.161
1237.97	389.714
1242.28	380.799
1246.59	445.793
1250.89	475.688
1255.19	434.908
1259.49	606.297
1263.79	518.727
1268.09	570.073
1272.38	346.242
1276.67	386.137
1280.95	267.672
1285.24	220.768
1289.52	131.616
1293.8	158.017
1298.08	134.439
1302.35	131.253
1306.62	363.57
1310.89	33.3272
1315.15	126.176
1319.42	74.7559
1323.68	106.106
1327.94	245.764
1332.19	323.553
1336.44	312.452
1340.69	351.442
1344.94	366.466
1349.19	645.456
1353.43	709.351
1357.67	1110.47
1361.9	1135.33
1366.14	1110.02
1370.37	1217.56
1374.6	1292.23
1378.83	1218.85
1383.05	1211.84
1387.27	1085.71
1391.49	1072.41
1395.7	1056.44
1399.92	922.756
1404.13	853.168
1408.34	949.975
1412.54	930.866
1416.74	855.242
1420.94	817.528
1425.14	821.408
1429.34	1070.37
1433.53	955.686
1437.72	954.084
1441.9	1091.05
1446.09	1390.74
1450.27	1403.93
1454.45	1241.9
1458.63	1473.33
1462.8	1079.35
1466.97	1046.1
1471.14	811.503
1475.31	651.746
1479.47	638.921
1483.63	477.802
1487.79	264.573
1491.94	40.3623
1496.09	32.959
1500.24	11.0586
1504.39	19.0898
1508.54	112.79
1512.68	202.53
1516.82	384.028
1520.95	278.843
1525.09	357.574
1529.22	276.585
1533.35	194.157
1537.47	206.311
1541.6	79.585
