Measurement: Raman, 514 nm, ccw, Raman Data Processed
Mineral: Andalusite
Rruff sample: R050449
Ideal chemistry: Al_2_SiO_5_
Locality: Itinga, Minas Gerais, Brazil
Source: Marcus Origlieri
Description: Green fragment
Measured chemistry: Al_2.00_Fe^3+^_0.01_Si_0.99_O_5_
Pin_id: L00614
Orientation: Laser parallel to a* (1 0 0). Fiducial mark perpendicular to laser is parallel to b [0 1 0]
Raman shift (cm-1)	intensity
121.827	0
126.749	60.5068
131.668	579.142
136.585	805.937
141.5	980.963
146.412	542.844
151.321	314.584
156.229	79.6533
161.134	10.1855
166.036	345.134
170.936	379.857
175.834	265.881
180.729	645.787
185.622	1343.43
190.512	2117.3
195.4	2338.34
200.286	2119.92
205.169	1105.45
210.049	309.602
214.928	317.021
219.803	312.299
224.677	332.191
229.548	307.62
234.416	460.386
239.282	1010.98
244.146	1115.47
249.007	466.925
253.866	24.6074
258.722	199.899
263.576	121.729
268.427	143.436
273.276	517.97
278.123	2141.76
282.967	7843.75
287.809	13497.5
292.648	14698.7
297.485	6898.25
302.319	1134.48
307.151	233.949
311.98	5044.51
316.807	10929
321.631	10672
326.454	4375.15
331.273	848.469
336.09	312.134
340.905	764.688
345.717	2754.85
350.527	8291.69
355.334	14337.2
360.139	14392.4
364.941	8725.34
369.741	4632.94
374.538	3234.16
379.333	2700.95
384.126	3303.31
388.916	3875.24
393.703	3494.71
398.488	2896.5
403.271	2565.87
408.051	2649.73
412.828	2627.24
417.603	2510.47
422.376	1959.38
427.146	1572.98
431.914	1194.28
436.679	1757.32
441.442	2479.1
446.202	3473.65
450.96	2769.26
455.715	1498.87
460.467	59.7451
465.218	415.812
469.965	287.503
474.711	197.8
479.454	153.91
484.194	259.417
488.932	249.905
493.667	801.471
498.4	2026.93
503.13	3071.99
507.858	4126.6
512.583	4346.73
517.306	4185.36
522.026	4262.46
526.744	4982.99
531.459	6427.92
536.172	8483.23
540.882	10897.9
545.59	12962
550.295	14139.5
554.998	12981.7
559.698	11469.4
564.396	11111.1
569.091	11339.8
573.784	10970.5
578.474	8904.9
583.162	7341.09
587.847	6093.32
592.529	5699.04
597.209	5644.58
601.887	6265.68
606.562	7599.15
611.235	9304.52
615.905	11041.1
620.572	11862.6
625.237	12876.3
629.9	13435.9
634.56	12817.4
639.217	11847.5
643.872	11398.5
648.524	9374.54
653.174	6401.68
657.821	4125.85
662.466	2046.97
667.108	826.01
671.748	359.902
676.385	65.4023
681.02	88.4512
685.652	208.029
690.281	5.56836
694.908	210.849
699.533	514.143
704.155	819.208
708.774	1457.11
713.391	2065.5
718.005	1552.62
722.617	599.32
727.226	491.249
731.833	776.834
736.437	715.016
741.039	530.227
745.638	304.635
750.234	312.276
754.828	452.062
759.419	372.591
764.008	222.352
768.595	130.989
773.178	355.261
777.759	644.714
782.338	1085.68
786.914	1539.17
791.488	2113.16
796.059	3317.65
800.627	5131.63
805.193	7853.09
809.756	11687
814.317	16509.2
818.875	18469.5
823.431	14938
827.984	9988.87
832.534	6319.81
837.082	3677.07
841.627	1665.98
846.17	503.535
850.71	109.4
855.248	358.785
859.783	325.671
864.316	214.138
868.846	38.9424
873.373	55.206
877.898	73.3467
882.42	313.644
886.94	765.583
891.457	1623.4
895.971	2992.85
900.483	5521.4
904.993	9018.96
909.5	16246.2
914.004	32527
918.505	41433.3
923.004	28026.1
927.501	15736.4
931.995	9597.19
936.486	6782.61
940.975	6452.7
945.461	8109.51
949.945	11315.1
954.426	9564.92
958.904	5386.29
963.38	3688.33
967.853	3256.57
972.324	3047.86
976.792	3273.24
981.258	3226.77
985.72	3293.15
990.181	3944.43
994.639	6067.65
999.094	12270.5
1003.55	17268
1008	12751.8
1012.44	7000.2
1016.89	5200.87
1021.33	3954.63
1025.77	2912.54
1030.21	2738.74
1034.64	2391.76
1039.07	2005.91
1043.5	1278.19
1047.93	744.654
1052.35	774.394
1056.78	1204.17
1061.19	2732.9
1065.61	2959.44
1070.02	2002.6
1074.43	1245.24
1078.84	1094.41
1083.25	667.029
1087.65	409.073
1092.05	309.544
1096.45	126.431
1100.85	162.736
1105.24	215.46
1109.63	348.608
1114.02	250.181
1118.4	98.3945
1122.78	183.09
1127.16	52.081
1131.54	0.825195
1135.92	90.0254
1140.29	230.985
1144.66	128.655
1149.02	344.846
1153.39	364.353
1157.75	335.411
1162.11	390.134
1166.46	689.645
1170.82	649.898
1175.17	688.52
1179.52	851.954
1183.86	925.595
1188.21	908.368
1192.55	986.039
1196.89	1085.23
1201.22	891.811
1205.55	779.7
1209.88	746.158
1214.21	590.849
1218.54	509.914
1222.86	433.384
1227.18	334.217
1231.5	308.371
1235.81	388.82
1240.12	277.552
1244.43	259.61
1248.74	250.958
1253.04	285.538
1257.34	541.219
1261.64	364.66
1265.94	474.373
1270.23	453.606
1274.52	347.649
1278.81	213.342
1283.1	192.612
1287.38	3.3418
1291.66	78.7754
1295.94	58.5478
1300.21	39.9023
1304.48	30.3193
1308.75	159.269
1313.02	77.3389
1317.29	142.878
1321.55	9.35254
1325.81	65.5586
1330.06	228.878
1334.32	58.3994
1338.57	383.992
1342.82	467.723
1347.06	487.534
1351.31	570.367
1355.55	686.17
1359.79	836.674
1364.02	987.962
1368.26	993.646
1372.49	1067.07
1376.71	1064.86
1380.94	1084.25
1385.16	976.405
1389.38	1046.37
1393.6	1001.98
1397.81	936.127
1402.02	852.508
1406.23	850.644
1410.44	853.702
1414.64	824.732
1418.85	825.03
1423.04	821.964
1427.24	741.761
1431.43	913.704
1435.62	816.083
1439.81	994.649
1444	1193.13
1448.18	1092.77
1452.36	1246.6
1456.54	1012.37
1460.71	1096.41
1464.89	884.373
1469.06	747.441
1473.22	691.75
1477.39	510.362
1481.55	198.683
1485.71	129.841
1489.86	114.673
1494.02	97.9307
1498.17	142.505
1502.32	6.35254
1506.46	47.0273
1510.61	265.868
1514.75	232.894
1518.88	259.954
1523.02	183.974
1527.15	332.526
1531.28	174.403
1535.41	170.616
1539.53	147.815
1543.66	110.087
