Measurement: Raman, 514 nm, ccw, Raman Data Processed
Mineral: Andalusite
Rruff sample: R050561
Ideal chemistry: Al_2_SiO_5_
Locality: Cargo Muchacho Mountain, Imperial County, California
Source: Dave Bunk Minerals
Description: Brown coarsely crystalline massive
Measured chemistry: (Al_1.98_Fe^3+^_0.02_)_Î£=2_Si_1.00_O_5_
Pin_id: M00245
Orientation: Laser parallel to -b* (0 -1 0). Fiducial mark perpendicular to laser is parallel to -c [0 0 -1]
Raman shift (cm-1)	intensity
157.455	0
162.359	56.6426
167.261	333.457
172.161	206.04
177.058	114.681
181.952	149.03
186.845	563.184
191.734	1703.8
196.622	1601.55
201.507	1717.35
206.389	442.091
211.269	65.6123
216.147	75.2593
221.022	16.1577
225.895	91.4785
230.765	183.455
235.633	610.528
240.498	1581.26
245.361	1689.96
250.222	677.727
255.08	276.926
259.936	187.143
264.789	102.599
269.64	475.549
274.488	1450.51
279.334	3901.54
284.178	8736.7
289.019	15514
293.857	18755.5
298.693	7382.14
303.527	1908.78
308.358	1852.6
313.187	6694.83
318.013	14553
322.837	21355.4
327.659	7875.94
332.478	2042.59
337.294	1118.1
342.108	1733.4
346.92	4301.92
351.729	10618
356.535	19871.3
361.34	21902
366.141	10635.6
370.94	4604.98
375.737	2373.52
380.531	1229.61
385.323	961.479
390.113	1288.09
394.9	1480.47
399.684	634.58
404.466	600.363
409.245	1167.74
414.022	1347.71
418.797	1919.26
423.569	1872.37
428.338	1925.02
433.105	1986.69
437.87	2162.91
442.632	2927.12
447.391	3226.85
452.149	4166.41
456.903	2490.82
461.655	1290.05
466.405	778.053
471.152	471.822
475.897	635.346
480.639	950.713
485.378	751.216
490.116	8.39453
494.85	466.915
499.582	418.578
504.312	39.1191
509.039	534.405
513.764	889.38
518.486	567.928
523.206	418.957
527.923	398.19
532.638	815.341
537.35	1365.63
542.059	2521.29
546.766	4114.27
551.471	5588.54
556.173	4934.09
560.873	3501.86
565.57	3315.84
570.264	3501
574.957	3633.43
579.646	3258.56
584.333	3087.96
589.018	2917.3
593.7	3199.57
598.379	3826
603.056	4552.38
607.73	5147.64
612.402	5550.7
617.072	5761.47
621.739	5388.77
626.403	4979.65
631.065	4551.28
635.724	4367.44
640.381	4124.99
645.035	3758.37
649.687	3046.19
654.336	2113.72
658.983	1480.45
663.627	1376.35
668.268	1263.36
672.907	1532.45
677.544	1818.58
682.178	1985.69
686.809	2203.75
691.438	2470.71
696.065	2375.54
700.688	2309.18
705.31	2495.61
709.929	2922.01
714.545	3159.05
719.158	2569.82
723.77	1091.6
728.378	319.426
732.984	164.379
737.588	368.692
742.189	429.817
746.787	421.733
751.383	104.904
755.976	59.252
760.567	19.5742
765.155	169.292
769.741	192.152
774.324	237.902
778.904	66.7563
783.482	135.979
788.058	311.565
792.631	787.2
797.201	1291.87
801.769	2270.57
806.334	3621.28
810.897	3931.99
815.457	4422.7
820.014	4792.4
824.569	4351.08
829.122	3141.73
833.671	2274.12
838.219	1491.96
842.763	619.54
847.306	171.06
851.845	34.9546
856.382	22.2686
860.917	55.1592
865.448	24.4741
869.978	203.341
874.505	335.272
879.029	463.059
883.55	701.863
888.069	994.971
892.586	1474.67
897.1	2467.66
901.611	3891.47
906.12	7284.28
910.626	16865.5
915.129	36533.9
919.63	51722.6
924.129	29377.6
928.625	15453
933.118	8466.9
937.609	4970.34
942.097	3084.31
946.582	2479.85
951.065	2219.98
955.546	1560.77
960.023	908.226
964.499	705.342
968.971	711.82
973.441	760.705
977.909	812.021
982.374	818.642
986.836	861.414
991.295	991.568
995.753	1339.54
1000.21	2609.74
1004.66	4246.21
1009.11	3606.78
1013.55	2645.51
1018	2643.06
1022.44	2466.64
1026.88	1622.23
1031.32	1211.99
1035.75	806.689
1040.18	676.302
1044.61	422.058
1049.04	282.238
1053.46	466.356
1057.88	1050.02
1062.3	2241.59
1066.71	1897.81
1071.13	840.347
1075.54	461.249
1079.94	471.497
1084.35	327.165
1088.75	334.853
1093.15	279.383
1097.55	165.009
1101.94	335.784
1106.34	499.544
1110.73	479.343
1115.11	283.617
1119.5	48.9541
1123.88	114.232
1128.26	46.5566
1132.63	135.055
1137.01	91.2188
1141.38	40.8965
1145.75	6.15918
1150.12	77.5391
1154.48	15.8447
1158.84	94.4522
1163.2	13.1113
1167.55	13.5732
1171.91	146.747
1176.26	7.43066
1180.61	81.0449
1184.95	137.209
1189.29	21.7656
1193.63	77.4434
1197.97	93.3603
1202.31	129.871
1206.64	116.457
1210.97	124.592
1215.29	67.5527
1219.62	6.39941
1223.94	97.4981
1228.26	2.52246
1232.57	1.57617
1236.89	96.0654
1241.2	52.5654
1245.51	117.961
1249.81	95.3379
1254.12	20.5303
1258.42	63.9287
1262.72	12.9736
1267.01	111.939
1271.3	149.204
1275.59	7.21777
1279.88	148.735
1284.17	78.8574
1288.45	75.6748
1292.73	23.2861
1297.01	75.9639
1301.28	110.811
1305.55	30.1504
1309.82	26.7715
1314.09	115.713
1318.35	30.6982
1322.61	105.155
1326.87	93.4961
1331.13	0.681641
1335.38	159.601
1339.63	55.5
1343.88	86.2978
1348.12	106.184
1352.37	200.481
1356.61	150.231
1360.85	205.799
1365.08	253.236
1369.31	264.409
1373.54	274.772
1377.77	212.757
1381.99	122.251
1386.22	218.966
1390.43	184.589
1394.65	136.565
1398.87	338.051
1403.08	258.735
1407.29	152.48
1411.49	91.8613
1415.69	124.525
1419.89	151.07
1424.09	190.688
1428.29	243.99
1432.48	149.46
1436.67	186.134
1440.86	362.393
1445.04	330.642
1449.23	386.71
1453.4	359.112
1457.58	221.944
1461.76	280.687
1465.93	198.401
1470.1	153.199
1474.26	168.477
1478.43	157.608
1482.59	142.451
1486.75	37.3076
1490.9	180.253
1495.06	7.93262
1499.21	65.4092
1503.35	51.3301
1507.5	106.312
1511.64	134.621
1515.78	32.7158
1519.92	49.832
1524.05	195.671
1528.18	145.652
1532.31	193.039
1536.44	51.7031
1540.56	214.247
1544.69	114.976
1548.8	275.862
1552.92	378.305
1557.03	162.684
1561.14	44.1152
1565.25	67.1035
1569.36	231.28
