Measurement: Raman, 514 nm, ccw, Raman Data Processed
Mineral: Andalusite
Rruff sample: R050626
Ideal chemistry: Al_2_SiO_5_
Locality: Minas Gerais, Brazil
Source: Gemological Center
Description: Grayish brown fragment
Measured chemistry: (Al_1.99_Fe^3+^_0.01_)_Î£=1_Si_1.00_O_5_
Pin_id: L01690
Orientation: Laser parallel to b* (0 1 0). Fiducial mark perpendicular to laser is parallel to c [0 0 1]
Raman shift (cm-1)	intensity
123.058	0
127.979	123.896
132.898	105.039
137.814	123.326
142.728	160.848
147.639	111.707
152.549	92.0098
157.455	64.4297
162.359	29.9668
167.261	108.914
172.161	98.3481
177.058	89.166
181.952	28.6157
186.845	169.921
191.734	257.522
196.622	340.289
201.507	432.605
206.389	336.271
211.269	90.4785
216.147	111.147
221.022	133.242
225.895	155.9
230.765	10.146
235.633	49.9551
240.498	59.3164
245.361	226.196
250.222	381.132
255.08	471.585
259.936	848.443
264.789	1042.7
269.64	1710.51
274.488	3309.32
279.334	7277.89
284.178	19973.7
289.019	38054.2
293.857	51696.9
298.693	22558.3
303.527	6827.18
308.358	3828.38
313.187	6820.13
318.013	13460.3
322.837	21812
327.659	10893.7
332.478	4673.25
337.294	3237.17
342.108	2469.4
346.92	2075.95
351.729	3449.66
356.535	6508.47
361.34	8272.44
366.141	4813.27
370.94	2476.5
375.737	1584.38
380.531	1367.05
385.323	1287
390.113	795.429
394.9	435.682
399.684	252.492
404.466	234.543
409.245	346.786
414.022	679.22
418.797	984.913
423.569	552.904
428.338	187.15
433.105	143.599
437.87	14.2407
442.632	299.106
447.391	1394.18
452.149	3307.48
456.903	1338
461.655	195.711
466.405	32.6211
471.152	105.708
475.897	210.983
480.639	120.564
485.378	95.4106
490.116	8.59766
494.85	5.00391
499.582	41.4834
504.312	47.0796
509.039	40.7895
513.764	50.6645
518.486	9.38477
523.206	147.491
527.923	198.658
532.638	381.832
537.35	724.003
542.059	1986.95
546.766	5040.5
551.471	8195.17
556.173	6360.86
560.873	2330.84
565.57	922.224
570.264	635.599
574.957	417.73
579.646	197.077
584.333	271.42
589.018	266.737
593.7	273.018
598.379	249.665
603.056	362.649
607.73	445.28
612.402	355.608
617.072	201.658
621.739	298.898
626.403	460.801
631.065	506.14
635.724	250.118
640.381	184.03
645.035	259.513
649.687	126.327
654.336	241.308
658.983	267.94
663.627	278.725
668.268	107.507
672.907	76.103
677.544	95.4082
682.178	68.3628
686.809	108.144
691.438	148.795
696.065	38.314
700.688	303.686
705.31	489.942
709.929	782.085
714.545	1524.15
719.158	1640.12
723.77	886.339
728.378	309.168
732.984	159.741
737.588	43.3652
742.189	88.8706
746.787	42.2344
751.383	49.4722
755.976	40.4995
760.567	58.1006
765.155	160.559
769.741	62.2051
774.324	123.763
778.904	79.8584
783.482	15.2568
788.058	74.2622
792.631	56.2705
797.201	133.339
801.769	107.41
806.334	313.496
810.897	364.614
815.457	428.894
820.014	557.337
824.569	619.49
829.122	1213.5
833.671	1528.98
838.219	1283.48
842.763	424.076
847.306	235.838
851.845	38.2534
856.382	12.2685
860.917	90.5581
865.448	269.09
869.978	105.071
874.505	195.94
879.029	358.994
883.55	326.856
888.069	627.533
892.586	1005.88
897.1	1573.82
901.611	2845.31
906.12	5261.85
910.626	11815
915.129	31549.6
919.63	52955.3
924.129	32885.9
928.625	14096.7
933.118	7287.79
937.609	3890.33
942.097	3153.25
946.582	4147.56
951.065	4985.35
955.546	3002.63
960.023	1415.31
964.499	667.394
968.971	239.936
973.441	100.949
977.909	37.3115
982.374	2.03418
986.836	38.8867
991.295	81.7647
995.753	1.93945
1000.21	434.996
1004.66	409.584
1009.11	882.394
1013.55	2058.63
1018	3555.37
1022.44	3606.38
1026.88	1834.85
1031.32	1021.49
1035.75	709.6
1040.18	682.601
1044.61	894.5
1049.04	1223.83
1053.46	2065.74
1057.88	4995.06
1062.3	12772.2
1066.71	17582.7
1071.13	8739.81
1075.54	3429.76
1079.94	1618.12
1084.35	709.629
1088.75	657.456
1093.15	559.515
1097.55	527.803
1101.94	866.544
1106.34	1190.19
1110.73	1514.01
1115.11	1134.19
1119.5	585.352
1123.88	469.005
1128.26	390.369
1132.63	155.981
1137.01	112.816
1141.38	105.419
1145.75	91.9561
1150.12	67.9883
1154.48	83.0918
1158.84	173.263
1163.2	21.4688
1167.55	56.7422
1171.91	60.9707
1176.26	23.1445
1180.61	89.1143
1184.95	53.0986
1189.29	27.4619
1193.63	213.345
1197.97	177.039
1202.31	1.75977
1206.64	27.2168
1210.97	43.8291
1215.29	81.9522
1219.62	160.589
1223.94	224.064
1228.26	65.4902
1232.57	162.391
1236.89	135.029
1241.2	95.3916
1245.51	40.0107
1249.81	137.231
1254.12	60.3252
1258.42	136.251
1262.72	185.102
1267.01	114.784
1271.3	15.1709
1275.59	160.273
1279.88	190.109
1284.17	178.934
1288.45	170.685
1292.73	107.883
1297.01	142.894
1301.28	143.478
1305.55	133.395
1309.82	190.635
1314.09	132.003
1318.35	187.228
1322.61	51.7373
1326.87	2.05664
1331.13	126.673
1335.38	123.949
1339.63	125.317
1343.88	97.041
1348.12	212.126
1352.37	102.956
1356.61	91.3984
1360.85	185.129
1365.08	138.575
1369.31	18.3486
1373.54	152.968
1377.77	104.972
1381.99	141.837
1386.22	59.6094
1390.43	94.1689
1394.65	110.286
1398.87	135.265
1403.08	133.288
1407.29	88.0391
1411.49	38.5947
1415.69	14.0068
1419.89	122.286
1424.09	13.0576
1428.29	114.027
1432.48	177.029
1436.67	100.964
1440.86	133.502
1445.04	204.638
1449.23	12.4541
1453.4	103.145
1457.58	110.139
1461.76	69.0117
1465.93	16.2148
1470.1	47.2188
1474.26	79.4424
1478.43	4.42285
1482.59	230.241
1486.75	162.171
1490.9	186.197
1495.06	62.335
1499.21	74.9746
1503.35	188.882
1507.5	232.639
1511.64	164.788
1515.78	170.028
1519.92	111.079
1524.05	0.87207
1528.18	93.9365
1532.31	96.1152
1536.44	78.4834
1540.56	119.935
1544.69	219.413
1548.8	130.269
1552.92	128.674
1557.03	230.363
1561.14	89.5303
1565.25	67.1797
1569.36	184.468
