Measurement: Raman, 514 nm, ccw, Raman Data Processed
Mineral: Andalusite
Rruff sample: R050258
Ideal chemistry: Al_2_SiO_5_
Locality: Bautista Canyon, near Hemet, Riverside County, California, USA
Source: Marcus Origlieri
Description: Brown fragment
Measured chemistry: Al_2.00_Si_1.00_O_5_
Pin_id: M00252
Orientation: Laser parallel to b* (0 1 0). Fiducial mark perpendicular to laser is parallel to c [0 0 1]
Raman shift (cm-1)	intensity
111.976	0
116.903	296.262
121.827	75.1328
126.749	90.5518
131.668	230.817
136.585	202.107
141.5	418.117
146.412	208.117
151.321	148.773
156.229	125.439
161.134	72.0625
166.036	169.472
170.936	246.856
175.834	243.165
180.729	141.183
185.622	428.856
190.512	573.642
195.4	667.018
200.286	505.112
205.169	459.018
210.049	255.767
214.928	122.358
219.803	179.98
224.677	164.912
229.548	329.779
234.416	239.464
239.282	358.667
244.146	306.397
249.007	133.641
253.866	148.394
258.722	54.1758
263.576	170.131
268.427	226.913
273.276	346.278
278.123	875.893
282.967	3126.55
287.809	5582.09
292.648	4937.44
297.485	1937.47
302.319	150.215
307.151	203.522
311.98	1584.19
316.807	5103.64
321.631	4944.99
326.454	1460.24
331.273	371.914
336.09	333.723
340.905	428.166
345.717	855.377
350.527	2852.12
355.334	5989.82
360.139	5088.92
364.941	2521.39
369.741	1317.21
374.538	1049.33
379.333	772.752
384.126	820.469
388.916	1202.46
393.703	922.777
398.488	552.334
403.271	642.205
408.051	709.664
412.828	851.559
417.603	1074.35
422.376	627.248
427.146	405.014
431.914	294.83
436.679	325.951
441.442	509.367
446.202	1097.08
450.96	1236.07
455.715	402.357
460.467	99.0293
465.218	228.414
469.965	5.51562
474.711	32.9121
479.454	158.725
484.194	243.682
488.932	76.0488
493.667	32.4219
498.4	485.188
503.13	655.178
507.858	974.346
512.583	857.674
517.306	879.15
522.026	1097.77
526.744	1072.49
531.459	1475.33
536.172	2106.41
540.882	2809.6
545.59	3446.02
550.295	3948.28
554.998	3627
559.698	2824.9
564.396	2729.18
569.091	2811.36
573.784	2548.53
578.474	2212.18
583.162	1726.38
587.847	1521.84
592.529	1325.35
597.209	1445.7
601.887	1513.95
606.562	2049.93
611.235	2401.65
615.905	2613.95
620.572	2759.29
625.237	3437.6
629.9	2934.23
634.56	3064.98
639.217	2958.92
643.872	2971.3
648.524	2593.7
653.174	1837.69
657.821	1330.02
662.466	741.963
667.108	457.496
671.748	53.6016
676.385	60.1328
681.02	36.1152
685.652	73.4453
690.281	14.8691
694.908	112.312
699.533	101.971
704.155	361.066
708.774	561.688
713.391	980.836
718.005	814.787
722.617	267.08
727.226	544.6
731.833	365.818
736.437	59.6543
741.039	118.916
745.638	137.756
750.234	298.467
754.828	136.141
759.419	74.7656
764.008	14.9668
768.595	69.7422
773.178	270.299
777.759	291.865
782.338	386.504
786.914	439.273
791.488	608.174
796.059	913.201
800.627	1406.36
805.193	2114.66
809.756	2875.8
814.317	4081.18
818.875	4462.58
823.431	3591.3
827.984	2576.94
832.534	1820.07
837.082	1048.67
841.627	309.451
846.17	238.106
850.71	97.2988
855.248	65.9258
859.783	84.4531
864.316	24.7129
868.846	71.4668
873.373	18.4746
877.898	6.78516
882.42	125.379
886.94	385.777
891.457	552.859
895.971	849.019
900.483	1751.97
904.993	2555.77
909.5	4776.43
914.004	11416.3
918.505	16481.2
923.004	10008
927.501	6266.95
931.995	3474.67
936.486	2484.84
940.975	2017.48
945.461	2518.62
949.945	2556.36
954.426	1991.09
958.904	882.203
963.38	1063.13
967.853	480.783
972.324	795.109
976.792	665.51
981.258	855.711
985.72	745.434
990.181	958.816
994.639	1072.83
999.094	2853.41
1003.55	4286.71
1008	3303
1012.44	1935.77
1016.89	1686.34
1021.33	1479.29
1025.77	860.086
1030.21	867.039
1034.64	728.367
1039.07	344.543
1043.5	640.809
1047.93	212.078
1052.35	88.4727
1056.78	480.75
1061.19	1002.06
1065.61	1339.58
1070.02	664.598
1074.43	500.566
1078.84	221.481
1083.25	118.898
1087.65	156.859
1092.05	117.348
1096.45	159.754
1100.85	169.09
1105.24	220.918
1109.63	254.734
1114.02	214.144
1118.4	248.672
1122.78	111.297
1127.16	227.426
1131.54	106.676
1135.92	39.1055
1140.29	46.75
1144.66	78.4922
1149.02	83.25
1153.39	51.7188
1157.75	124.074
1162.11	304.34
1166.46	133.481
1170.82	91.5703
1175.17	149.445
1179.52	76.5117
1183.86	182.793
1188.21	265.051
1192.55	143.633
1196.89	72.8789
1201.22	384.277
1205.55	178.051
1209.88	229.285
1214.21	103.769
1218.54	408.289
1222.86	109.484
1227.18	109.422
1231.5	110.137
1235.81	389.141
1240.12	23.6914
1244.43	214.488
1248.74	293.543
1253.04	262.785
1257.34	177.004
1261.64	312.613
1265.94	301.047
1270.23	159.551
1274.52	94.9492
1278.81	243.707
1283.1	228.594
1287.38	307.887
1291.66	155.488
1295.94	134.211
1300.21	141.531
1304.48	2.46875
1308.75	31.8711
1313.02	99.1914
1317.29	84.9805
1321.55	326.84
1325.81	91.1211
1330.06	52.918
1334.32	174.391
1338.57	104.113
1342.82	68.7578
1347.06	262.629
1351.31	359.699
1355.55	366.562
1359.79	40.1719
1364.02	427.863
1368.26	231.383
1372.49	180.434
1376.71	275.5
1380.94	196.418
1385.16	300.406
1389.38	293.789
1393.6	304.523
1397.81	423.672
1402.02	174.918
1406.23	175.559
1410.44	23.4727
1414.64	296.269
1418.85	161.106
1423.04	388.504
1427.24	242.523
1431.43	138.914
1435.62	383.812
1439.81	158.773
1444	720.738
1448.18	489.516
1452.36	436.438
1456.54	243.148
1460.71	252.812
1464.89	343.457
1469.06	190.383
1473.22	488.273
1477.39	42.8398
1481.55	288.555
1485.71	302.606
1489.86	16.7227
1494.02	181.035
1498.17	138.539
1502.32	156.023
1506.46	205.016
1510.61	223.922
1514.75	252.231
1518.88	388.402
1523.02	135.398
1527.15	61.0547
1531.28	331.004
1535.41	229.789
1539.53	481.082
1543.66	309.519
1547.78	2.58203
1551.89	75.6914
1556.01	418.977
1560.12	221.156
1564.23	118.367
1568.33	143.336
