Measurement: Raman, 514 nm, ccw, Raman Data Processed
Mineral: Andalusite
Rruff sample: R060212
Ideal chemistry: Al_2_SiO_5_
Locality: Brazil
Source: Marcus Origlieri
Description: Transparent yellow-green water-worn pebble
Measured chemistry: (Al_1.98_Fe^3+^_0.02_)_Î£=2_Si_1.00_O_5_
Pin_id: L00827
Orientation: Laser parallel to -b* (0 -1 0). Fiducial mark perpendicular to laser is parallel to c [0 0 1]
Raman shift (cm-1)	intensity
99.649	0
104.582	26.4648
109.512	943.79
114.44	420.984
119.365	298.415
124.288	449.894
129.209	579.104
134.127	893.963
139.043	1432.88
143.956	1528.45
148.867	1022.86
153.775	695.958
158.681	307.555
163.585	428.595
168.486	571.391
173.385	546.148
178.282	461.687
183.176	317.022
188.067	967.596
192.956	908.557
197.843	956.273
202.727	974.597
207.609	287.112
212.489	40.4512
217.366	21.084
222.24	139.662
227.112	9.27344
231.982	113.308
236.849	621.551
241.714	773
246.577	269.116
251.437	82.7539
256.294	314.615
261.149	545.532
266.002	260.703
270.852	752.658
275.7	1537.1
280.545	3250.79
285.388	8237.54
290.229	14182.3
295.067	8206.93
299.902	2749.77
304.735	1290.96
309.566	2390.55
314.394	7311.4
319.22	15813.4
324.043	9065.23
328.864	3079.24
333.682	1352.83
338.498	1068.01
343.311	1594.74
348.122	3649.98
352.931	9026.95
357.737	14230.8
362.54	8497.53
367.341	3764.23
372.14	1902.19
376.936	1227.11
381.73	561.197
386.521	558.615
391.31	790.188
396.096	387.565
400.88	211.522
405.661	236.6
410.44	528.934
415.216	1115.31
419.99	1074.1
424.761	356.275
429.53	44.1836
434.297	136.301
439.061	15.1348
443.822	209.938
448.581	924.938
453.337	334.197
458.091	78.7148
462.843	40.7949
467.592	79.2519
472.338	495.975
477.082	756.898
481.824	911.203
486.563	435.662
491.3	249.195
496.034	70.4863
500.765	76.9668
505.494	145.522
510.221	408.371
514.945	180.518
519.666	345.867
524.385	159.363
529.102	210.006
533.816	92.7773
538.527	363.647
543.236	1131.69
547.943	2355.02
552.647	2446.53
557.348	1269.66
562.047	465.787
566.744	280.502
571.438	220.738
576.129	83.7109
580.818	1.45117
585.504	183.877
590.188	67.5019
594.87	44.9395
599.549	23.5664
604.225	327.26
608.899	416.574
613.57	198.264
618.239	211.869
622.905	3.49219
627.569	127.986
632.23	8.04297
636.889	317.551
641.545	360.603
646.198	346.051
650.849	102.475
655.498	265.559
660.144	641.191
664.787	523.15
669.428	588.981
674.067	679.91
678.703	794.359
683.336	989.574
687.967	1135.94
692.595	866.727
697.221	1101.84
701.844	1151.81
706.465	1648.12
711.083	2001.84
715.698	2317.62
720.311	1403.62
724.922	566.594
729.53	221.709
734.135	188.826
738.738	309.518
743.338	84.168
747.936	413.617
752.531	202.688
757.124	151.537
761.714	141.385
766.302	126.16
770.887	89.7852
775.469	13.416
780.049	111.006
784.626	10.6094
789.201	317.371
793.773	334.096
798.343	48.5723
802.91	613.762
807.475	464.699
812.037	175.387
816.596	278.791
821.153	9.18945
825.707	226.129
830.259	341.094
834.808	356.861
839.355	290.377
843.899	3.47852
848.441	271.959
852.98	147.322
857.516	250.961
862.05	59.9746
866.581	141.508
871.11	322.846
875.636	256.781
880.159	302.422
884.68	287.012
889.199	620.209
893.714	880.26
898.228	1159.06
902.738	2508.33
907.246	4498.99
911.752	12498.1
916.255	29215.5
920.755	26665.9
925.253	13460.5
929.748	8038.6
934.241	4203.6
938.731	2243.14
943.218	1279.92
947.703	1043.38
952.186	665.865
956.665	479.443
961.142	360.844
965.617	67.4219
970.089	38.5391
974.558	137.185
979.025	127.709
983.489	100.637
987.951	22.0215
992.41	103.836
996.866	131.363
1001.32	150.824
1005.77	203.805
1010.22	132.312
1014.67	618.527
1019.11	939.269
1023.55	894.125
1027.99	391.023
1032.42	316.004
1036.86	178.66
1041.29	275.492
1045.72	50.6172
1050.14	103.465
1054.56	366.832
1058.98	851.297
1063.4	1742.83
1067.82	1453.69
1072.23	505.316
1076.64	532
1081.05	228.746
1085.45	406.606
1089.85	448.984
1094.25	289.328
1098.65	349.766
1103.04	98.1836
1107.43	235.836
1111.82	216.652
1116.21	177.816
1120.59	574.809
1124.97	692.269
1129.35	386.191
1133.73	11.2891
1138.1	262.574
1142.47	113.008
1146.84	145.699
1151.21	184.777
1155.57	73.0234
1159.93	91.418
1164.29	156.016
1168.64	221.894
1172.99	252.988
1177.34	3.39453
1181.69	28.9531
1186.04	332.133
1190.38	1.52344
1194.72	365.137
1199.05	202.859
1203.39	185.715
1207.72	192.883
1212.05	544.297
1216.37	89.1094
1220.7	369.086
1225.02	380.285
1229.34	695.637
1233.65	646.172
1237.97	808.848
1242.28	611.633
1246.59	678.531
1250.89	720.059
1255.19	751.613
1259.49	560.68
1263.79	538
1268.09	613.316
1272.38	521.254
1276.67	340.242
1280.95	636.934
1285.24	562.18
1289.52	566.566
1293.8	666.387
1298.08	673.555
1302.35	782.102
1306.62	755.965
1310.89	909.438
1315.15	710.41
1319.42	505.523
1323.68	718.102
1327.94	851.918
1332.19	822.234
1336.44	877.016
1340.69	737.414
1344.94	595.531
1349.19	587.777
1353.43	555.742
1357.67	745.062
1361.9	548.598
1366.14	469.594
1370.37	407.633
1374.6	350.41
1378.83	374.894
1383.05	123.328
1387.27	303.301
1391.49	56.1133
1395.7	182.133
1399.92	7.07422
1404.13	3.17188
1408.34	293.215
1412.54	238.027
1416.74	200.434
1420.94	154.348
1425.14	54.1055
1429.34	273.258
1433.53	516.172
1437.72	50.0859
1441.9	54.2695
1446.09	272.867
1450.27	366.016
1454.45	272.789
1458.63	63.8438
1462.8	318.371
1466.97	451.578
1471.14	324.602
1475.31	22.1094
1479.47	378.394
1483.63	353.414
1487.79	219.035
1491.94	165.098
1496.09	266.188
1500.24	303.418
1504.39	181.621
1508.54	360.34
1512.68	481.961
1516.82	396.777
1520.95	448.781
1525.09	37.0547
1529.22	222.539
1533.35	45.3086
1537.47	75.1484
1541.6	393.793
1545.72	171.32
1549.83	261.238
1553.95	438.363
1558.06	15.2969
1562.17	377.773
1566.28	41.168
1570.38	0
