Measurement: Raman, 514 nm, ccw, Raman Data Processed
Mineral: Andalusite
Rruff sample: R060197
Ideal chemistry: Al_2_SiO_5_
Locality: Brazil
Source: Marcus Origlieri
Description: Green colored water worn pebble
Measured chemistry: (Al_1.97_Mn^3+^_0.03_)_Î£=2_Si_1.00_O_5_
Pin_id: M00466
Orientation: Laser parallel to a* (1 0 0). Fiducial mark perpendicular to laser is parallel to -b [0 -1 0]
Raman shift (cm-1)	intensity
91.012	0
95.948	169.939
100.883	228.607
105.815	419.632
110.744	1707.69
115.671	582.667
120.596	237.186
125.519	192.392
130.439	406.32
135.356	392.278
140.271	848.756
145.184	803.475
150.094	441.334
155.002	328.199
159.908	317.582
164.811	599.49
169.711	766.343
174.61	581.107
179.505	753.08
184.399	808.388
189.29	1238.12
194.178	1698.99
199.064	1473.92
203.948	1320.68
208.829	124.239
213.708	22.335
218.585	7.31787
223.459	238.842
228.33	47.8203
233.199	798.031
238.066	2504.68
242.93	2250.6
247.792	1706.06
252.651	1930.94
257.508	2757.2
262.363	4485.32
267.215	4591.9
272.064	7706.88
276.912	13031.5
281.756	25729.9
286.598	43583
291.438	39710.2
296.276	16939
301.111	7514.15
305.943	5409.81
310.773	9255.49
315.601	17467.7
320.426	17147.3
325.248	7875.49
330.068	5131.09
334.886	4583.11
339.701	5432.53
344.514	8344.32
349.324	16443
354.132	28128.2
358.938	25779
363.741	12320.4
368.541	5715.4
373.339	3251.59
378.135	2543.23
382.928	2105.8
387.718	1301.81
392.506	968.404
397.292	491.375
402.075	387.63
406.856	200.142
411.634	21.875
416.41	242.777
421.183	199.884
425.954	22.1494
430.722	68.6289
435.488	115.225
440.251	103.136
445.012	803.231
449.77	2219.51
454.526	770.003
459.28	110.688
464.03	153.554
468.779	260.38
473.525	314.354
478.268	353.129
483.009	266.616
487.747	43.2344
492.483	80.1611
497.217	87.3144
501.948	4.46289
506.676	89.0215
511.402	298.299
516.125	390.398
520.846	325.981
525.565	475.158
530.281	774.588
534.994	1106.37
539.705	2428
544.413	5313.63
549.119	6250.25
553.822	3533.42
558.523	2300.01
563.222	2412.57
567.917	3468.8
572.611	3089.65
577.302	1870.63
581.99	1328.77
586.676	1063.22
591.359	1004.22
596.04	1231.41
600.718	1145.21
605.394	1164.95
610.067	972.638
614.737	916.969
619.406	943.808
624.071	943.278
628.734	882.599
633.395	591.89
638.053	319.288
642.708	359.81
647.361	242.899
652.012	162.005
656.66	21.9395
661.305	69.2119
665.948	104.304
670.588	8.89062
675.226	70.1475
679.861	137.059
684.494	407.928
689.124	406.719
693.752	462.464
698.377	831.169
702.999	1182.83
707.619	1457.44
712.237	1246.5
716.852	1130.61
721.464	405.321
726.074	162.109
730.681	146.237
735.286	137.503
739.888	278.075
744.488	555.948
749.085	700.644
753.68	820.167
758.272	533.523
762.861	680.713
767.448	495.749
772.033	708.78
776.614	958.191
781.194	1907.03
785.77	2949.82
790.345	3737.52
794.916	3080.86
799.485	1870.48
804.052	1152.15
808.616	804.611
813.177	474.181
817.736	64.5772
822.292	105.962
826.846	167.337
831.397	95.71
835.945	188.083
840.491	66.457
845.035	30.1855
849.576	174.505
854.114	123.432
858.65	146.528
863.183	8.42676
867.713	39
872.241	242.205
876.767	163.798
881.29	411.445
885.81	601.539
890.328	818.983
894.843	1334.94
899.356	2174.09
903.866	4132.8
908.373	9234.04
912.878	23695.9
917.38	38793.4
921.88	21892.5
926.377	10037.8
930.872	6834.34
935.364	7174.26
939.853	10422.7
944.34	18164.4
948.824	24756.4
953.306	18383.5
957.785	9939.68
962.261	6418
966.735	5114.4
971.207	3874.91
975.675	2757.51
980.141	1650.56
984.605	1241.07
989.066	815.125
993.524	595.033
997.98	424.049
1002.43	837.598
1006.88	1385.83
1011.33	2888.83
1015.78	5003.08
1020.22	4986.88
1024.66	3368.11
1029.1	2165.81
1033.53	1548.31
1037.97	1369.89
1042.4	1223.41
1046.82	1505.71
1051.25	2518.41
1055.67	5504.52
1060.09	8266.55
1064.51	5286.87
1068.92	2769.65
1073.33	1843.54
1077.74	1191.37
1082.15	1173.88
1086.55	1281.35
1090.95	1358.77
1095.35	1572.14
1099.75	2251.45
1104.14	2892.7
1108.53	2953.88
1112.92	1914.04
1117.31	1382.62
1121.69	1312.95
1126.07	1246.66
1130.45	678.721
1134.82	334.84
1139.19	219.893
1143.57	55.8301
1147.93	47.6445
1152.3	24.3164
1156.66	118.738
1161.02	49.8926
1165.38	131.4
1169.73	153.881
1174.08	34.4434
1178.43	48.3027
1182.78	114.238
1187.12	18.8125
1191.46	10.6367
1195.8	134.549
1200.14	42.5039
1204.47	245.215
1208.8	231.672
1213.13	381.941
1217.46	760.07
1221.78	1292.04
1226.1	2120.85
1230.42	2675.56
1234.73	3147.18
1239.04	3710.07
1243.35	4320.43
1247.66	4462.68
1251.97	4295.35
1256.27	3993.83
1260.57	3553.73
1264.86	2984.48
1269.16	2447.08
1273.45	2055.49
1277.74	1405.7
1282.03	1142.37
1286.31	1011.03
1290.59	683.988
1294.87	724.164
1299.14	630.066
1303.42	452.076
1307.69	460.67
1311.95	282.4
1316.22	267.652
1320.48	368.268
1324.74	398.244
1329	212.502
1333.26	320.232
1337.51	255.799
1341.76	232.619
1346	236.65
1350.25	256.781
1354.49	162.273
1358.73	312.978
1362.96	263.475
1367.2	339.109
1371.43	273.352
1375.66	235.394
1379.88	275.717
1384.11	234.103
1388.33	328.707
1392.54	406.193
1396.76	383.19
1400.97	484.022
1405.18	341.228
1409.39	674.49
1413.59	580.269
1417.8	610.826
1421.99	595.432
1426.19	509.008
1430.38	541.879
1434.58	688.521
1438.77	419.283
1442.95	428.363
1447.13	303.512
1451.32	264.031
1455.49	193.07
1459.67	167.531
1463.84	293.402
1468.01	147.482
1472.18	147.42
1476.35	78.3574
1480.51	56.1309
1484.67	90.5117
1488.83	221.289
1492.98	141.727
1497.13	13.4902
1501.28	162.522
1505.43	11.8105
1509.57	186.74
1513.71	63.2363
1517.85	165.459
1521.99	239.264
1526.12	231.49
1530.25	137.744
1534.38	282.455
1538.5	158.797
1542.62	301.688
1546.74	49.9043
1550.86	251.719
1554.98	316.65
1559.09	196.576
1563.2	351.508
1567.31	1.30664
