Measurement: Raman, 514 nm, ccw, Raman Data Processed
Mineral: Andalusite
Rruff sample: R050449
Ideal chemistry: Al_2_SiO_5_
Locality: Itinga, Minas Gerais, Brazil
Source: Marcus Origlieri
Description: Green fragment
Measured chemistry: Al_2.00_Fe^3+^_0.01_Si_0.99_O_5_
Pin_id: L01352
Orientation: Laser parallel to -c* (0 0 -1). Fiducial mark perpendicular to laser is parallel to a [1 0 0]
Raman shift (cm-1)	intensity
92.246	0
97.182	104.495
102.116	91.4873
107.047	176.945
111.976	844.135
116.903	654.949
121.827	280.881
126.749	229.81
131.668	382.164
136.585	452.005
141.5	850.92
146.412	368.471
151.321	111.505
156.229	181.239
161.134	117.225
166.036	137.915
170.936	103.54
175.834	118.6
180.729	195.451
185.622	466.303
190.512	1196.92
195.4	1151.96
200.286	1182.44
205.169	1622.89
210.049	235.457
214.928	219.22
219.803	174.841
224.677	223.746
229.548	270.961
234.416	120.499
239.282	555.75
244.146	504.048
249.007	164.561
253.866	41.457
258.722	87.7949
263.576	52.126
268.427	14.7002
273.276	273.603
278.123	1100.21
282.967	3549.17
287.809	10677.4
292.648	17214.9
297.485	5695.62
302.319	1110.54
307.151	3.86133
311.98	1352.93
316.807	6859.27
321.631	16443.3
326.454	5230.47
331.273	1162.82
336.09	502.75
340.905	530.315
345.717	1068.94
350.527	3164.63
355.334	9336.37
360.139	12898.1
364.941	6385.88
369.741	3435.6
374.538	2346.29
379.333	1700.94
384.126	1536.55
388.916	1879.26
393.703	2166.11
398.488	1599.15
403.271	1369.63
408.051	1712.7
412.828	2036.71
417.603	3197.53
422.376	2179.43
427.146	1211.43
431.914	741.499
436.679	665.629
441.442	1082.81
446.202	1585.06
450.96	1971.4
455.715	729.966
460.467	125.735
465.218	51.6562
469.965	264.646
474.711	159.999
479.454	77.8086
484.194	143.642
488.932	149.712
493.667	320.251
498.4	817.857
503.13	1459.6
507.858	2166.98
512.583	2638.9
517.306	2432.4
522.026	2480.79
526.744	2694.05
531.459	3196.14
536.172	4243.06
540.882	5834.51
545.59	7688.29
550.295	9575.26
554.998	9016.71
559.698	7240.34
564.396	6374.56
569.091	6342.34
573.784	6272.67
578.474	5764.69
583.162	4449.13
587.847	3706.52
592.529	3390.79
597.209	3174.37
601.887	3285.69
606.562	4040.34
611.235	5024.98
615.905	5887.88
620.572	6631.44
625.237	6999.76
629.9	7449.64
634.56	7453.21
639.217	6969.45
643.872	6362.6
648.524	6173.14
653.174	4688.68
657.821	3153.2
662.466	2365.66
667.108	842.033
671.748	297.279
676.385	94.3701
681.02	129.843
685.652	130.07
690.281	107.48
694.908	126.064
699.533	200.239
704.155	438.085
708.774	920.577
713.391	1456.11
718.005	1808.47
722.617	813.829
727.226	237.898
731.833	408.877
736.437	534.145
741.039	414.658
745.638	202.209
750.234	252.618
754.828	315.824
759.419	292.41
764.008	118.971
768.595	92.8106
773.178	175.497
777.759	282.529
782.338	460.543
786.914	738.629
791.488	1103.79
796.059	1540.01
800.627	2413.29
805.193	3796.64
809.756	5371.05
814.317	8048.52
818.875	10640.2
823.431	9983.34
827.984	7084.55
832.534	4613.2
837.082	2881.26
841.627	1439.49
846.17	547.898
850.71	78.4883
855.248	82.3936
859.783	260.28
864.316	215.019
868.846	106.168
873.373	23.3945
877.898	143.223
882.42	161.464
886.94	459.275
891.457	871.629
895.971	1682.39
900.483	3054.36
904.993	5385.13
909.5	9637.62
914.004	19649.6
918.505	39774.1
923.004	28262.2
927.501	18398
931.995	11173.6
936.486	6015.98
940.975	3758.2
945.461	2922.3
949.945	2759.3
954.426	2260.38
958.904	1539.85
963.38	1252.82
967.853	1186.12
972.324	1523.5
976.792	1718.98
981.258	1728.82
985.72	1680.18
990.181	1934.83
994.639	2656.11
999.094	4851.61
1003.55	9514.11
1008	9607.13
1012.44	4979.67
1016.89	3555.52
1021.33	2997.37
1025.77	2249.91
1030.21	1878.32
1034.64	1493.85
1039.07	1684.71
1043.5	1141.31
1047.93	830.606
1052.35	547.215
1056.78	1100.01
1061.19	2580.9
1065.61	3728.05
1070.02	2044.25
1074.43	1119.55
1078.84	775.828
1083.25	727.061
1087.65	397.255
1092.05	335.383
1096.45	258.432
1100.85	142.323
1105.24	374.272
1109.63	512.066
1114.02	110.778
1118.4	248.435
1122.78	398.521
1127.16	475.81
1131.54	944.546
1135.92	129.516
1140.29	66.0518
1144.66	0.060547
1149.02	86.958
1153.39	102.941
1157.75	134.658
1162.11	11.46
1166.46	309.949
1170.82	263.512
1175.17	334.647
1179.52	396.169
1183.86	544.463
1188.21	594.415
1192.55	424.487
1196.89	668.966
1201.22	517.148
1205.55	604.162
1209.88	575.59
1214.21	178.615
1218.54	358.349
1222.86	315.428
1227.18	96.7148
1231.5	217.19
1235.81	177.872
1240.12	181.751
1244.43	120.806
1248.74	19.9932
1253.04	183.267
1257.34	212.648
1261.64	154.044
1265.94	252.417
1270.23	270.266
1274.52	263.781
1278.81	164.428
1283.1	138.02
1287.38	48.3926
1291.66	15.624
1295.94	59.1309
1300.21	41.1865
1304.48	68.9775
1308.75	57.5107
1313.02	25.6367
1317.29	3.69727
1321.55	30.6387
1325.81	0.443359
1330.06	139.372
1334.32	208.637
1338.57	240.364
1342.82	220.579
1347.06	294.249
1351.31	321.369
1355.55	368.907
1359.79	537.158
1364.02	615.366
1368.26	613.365
1372.49	617.592
1376.71	667.932
1380.94	606.648
1385.16	658.924
1389.38	649.759
1393.6	682.831
1397.81	539.968
1402.02	581.712
1406.23	501.164
1410.44	494.991
1414.64	587.673
1418.85	440.739
1423.04	356.106
1427.24	504.757
1431.43	509.428
1435.62	562.655
1439.81	682.988
1444	765.35
1448.18	736.435
1452.36	691.15
1456.54	755.562
1460.71	721.436
1464.89	635.69
1469.06	673.678
1473.22	392.106
1477.39	412.92
1481.55	213.864
1485.71	308.987
1489.86	86.4648
1494.02	85.1553
1498.17	42.623
1502.32	165.185
1506.46	12.7568
1510.61	22.3096
1514.75	151.617
1518.88	188.704
1523.02	137.033
1527.15	232.688
1531.28	260.568
1535.41	200.266
1539.53	211.372
1543.66	185.132
1547.78	246.891
1551.89	232.52
1556.01	289.678
1560.12	197.317
1564.23	123.047
1568.33	139.833
