Measurement: Raman, 514 nm, ccw, Raman Data Processed
Mineral: Andalusite
Rruff sample: R050626
Ideal chemistry: Al_2_SiO_5_
Locality: Minas Gerais, Brazil
Source: Gemological Center
Description: Grayish brown fragment
Measured chemistry: (Al_1.99_Fe^3+^_0.01_)_Î£=1_Si_1.00_O_5_
Pin_id: L00923
Orientation: Laser parallel to a* (1 0 0). Fiducial mark perpendicular to laser is parallel to -b [0 -1 0]
Raman shift (cm-1)	intensity
123.058	0
127.979	6.11548
132.898	254.931
137.814	183.684
142.728	451.56
147.639	149.377
152.549	184.82
157.455	115.295
162.359	52.0803
167.261	539.408
172.161	1010.18
177.058	926.853
181.952	759.695
186.845	1067.86
191.734	2389.67
196.622	2998.11
201.507	2226.98
206.389	1445.33
211.269	352.946
216.147	119.567
221.022	49.3074
225.895	132.009
230.765	22.989
235.633	232.128
240.498	1955.4
245.361	3282.57
250.222	1484.94
255.08	874.481
259.936	1062.64
264.789	968.333
269.64	1125.19
274.488	1881.63
279.334	4445.97
284.178	6658.76
289.019	17405.8
293.857	46797.3
298.693	27523.6
303.527	7211.49
308.358	2859.21
313.187	2404.73
318.013	5711.85
322.837	22299
327.659	15773.7
332.478	5455.64
337.294	3766.08
342.108	3410.93
346.92	3159.2
351.729	5087.85
356.535	14021.9
361.34	29288.9
366.141	16969.6
370.94	6658.56
375.737	3440.76
380.531	1838.22
385.323	1594.44
390.113	1451.04
394.9	1994.04
399.684	960.602
404.466	449.9
409.245	547.942
414.022	660.672
418.797	1475.85
423.569	1638.33
428.338	549.076
433.105	127.088
437.87	25.6186
442.632	27.8135
447.391	182.477
452.149	1001.51
456.903	947.902
461.655	53.3584
466.405	143.544
471.152	0.874512
475.897	191.092
480.639	482.514
485.378	940.403
490.116	529.832
494.85	135.953
499.582	25.6914
504.312	159.828
509.039	196.841
513.764	434.609
518.486	472.828
523.206	442.542
527.923	503.122
532.638	516.99
537.35	760.37
542.059	1327.33
546.766	2739.54
551.471	5719.94
556.173	6160.76
560.873	3259.33
565.57	2280.99
570.264	2439.39
574.957	3289.89
579.646	2143.99
584.333	1272.3
589.018	1007.07
593.7	841.09
598.379	836.352
603.056	964.265
607.73	1319.23
612.402	1370.4
617.072	1309.98
621.739	1404.45
626.403	1625.84
631.065	2127.8
635.724	1889.35
640.381	1513.23
645.035	1618.37
649.687	1720.65
654.336	1319.4
658.983	814.391
663.627	903.584
668.268	612.533
672.907	252.23
677.544	24.3648
682.178	78.6318
686.809	10.8408
691.438	49.6577
696.065	1.92676
700.688	26.5137
705.31	70.5772
709.929	413.312
714.545	941.617
719.158	1874.23
723.77	1438.38
728.378	515.71
732.984	186.191
737.588	205.499
742.189	184.658
746.787	179.602
751.383	56.3272
755.976	118.478
760.567	34.0732
765.155	62.0483
769.741	62.7847
774.324	11.7485
778.904	9.54932
783.482	48.9502
788.058	82.9307
792.631	156.459
797.201	220.56
801.769	473.26
806.334	732.573
810.897	1075.51
815.457	1504.26
820.014	2047.4
824.569	2359.88
829.122	1770.4
833.671	1285.86
838.219	818.717
842.763	530.609
847.306	106.297
851.845	27.2456
856.382	90.4956
860.917	153.726
865.448	30.8696
869.978	37.523
874.505	108.415
879.029	69.2754
883.55	239.109
888.069	489.112
892.586	771.29
897.1	1189.69
901.611	2228.36
906.12	3828.72
910.626	6847.52
915.129	15825.9
919.63	42776.9
924.129	41046.7
928.625	19405.3
933.118	12714.7
937.609	8162.67
942.097	7771.83
946.582	12385.3
951.065	24429
955.546	22508.3
960.023	9745.21
964.499	4326.8
968.971	2447.09
973.441	1596.93
977.909	1240.21
982.374	921.96
986.836	920.657
991.295	816.996
995.753	889.05
1000.21	1260.57
1004.66	2044.13
1009.11	2953.65
1013.55	2809.11
1018	4577.94
1022.44	6583.31
1026.88	3985.84
1031.32	2100.3
1035.75	1200.43
1040.18	1063.6
1044.61	925.484
1049.04	879.227
1053.46	1050.66
1057.88	1790.27
1062.3	3988.49
1066.71	8428.88
1071.13	5133.57
1075.54	2030.15
1079.94	926.216
1084.35	512.561
1088.75	448.812
1093.15	329.321
1097.55	411.197
1101.94	615.988
1106.34	1256.71
1110.73	2147.43
1115.11	2080.47
1119.5	1466.06
1123.88	1133.92
1128.26	992.875
1132.63	228.966
1137.01	62.2876
1141.38	90.7788
1145.75	101.569
1150.12	67.105
1154.48	30.418
1158.84	13.7622
1163.2	5.96973
1167.55	43.127
1171.91	72.29
1176.26	29.8599
1180.61	35.8184
1184.95	0.258789
1189.29	70.48
1193.63	42.084
1197.97	0.269531
1202.31	10.1968
1206.64	6.66797
1210.97	36.0957
1215.29	44.1118
1219.62	8.00049
1223.94	23.3833
1228.26	53.7764
1232.57	73.4321
1236.89	20.5107
1241.2	2.12744
1245.51	34.5317
1249.81	46.498
1254.12	78.0117
1258.42	52.6841
1262.72	85.103
1267.01	81.4751
1271.3	161.966
1275.59	39.4204
1279.88	101.427
1284.17	32.5293
1288.45	104.173
1292.73	148.453
1297.01	57.4741
1301.28	66.9526
1305.55	77.4805
1309.82	73.7617
1314.09	132.709
1318.35	174.191
1322.61	146.373
1326.87	113.018
1331.13	75.1611
1335.38	31.9477
1339.63	1.38281
1343.88	126.918
1348.12	73.5425
1352.37	104.763
1356.61	130.367
1360.85	148.685
1365.08	128.513
1369.31	182.632
1373.54	135.065
1377.77	120.501
1381.99	218.582
1386.22	163.214
1390.43	247.145
1394.65	58.1665
1398.87	112.819
1403.08	158.537
1407.29	106.737
1411.49	59.5444
1415.69	98.0327
1419.89	157.621
1424.09	100.469
1428.29	5.62305
1432.48	146.561
1436.67	149.789
1440.86	134.627
1445.04	322.141
1449.23	241.689
1453.4	224.048
1457.58	221.777
1461.76	153.876
1465.93	229.394
1470.1	199.867
1474.26	76.6562
1478.43	82.4072
1482.59	75.3706
1486.75	185.663
1490.9	77.0591
1495.06	129.148
1499.21	59.8828
1503.35	31.0957
1507.5	79.8023
1511.64	100.001
1515.78	125.12
1519.92	170.669
1524.05	134.574
1528.18	105.762
1532.31	85.0142
1536.44	41.853
1540.56	86.7817
1544.69	72.6777
1548.8	155.377
1552.92	379.705
1557.03	436.42
1561.14	123.082
1565.25	0.383789
1569.36	4.58545
