Measurement: Raman, 514 nm, ccw, Raman Data Processed
Mineral: Andalusite
Rruff sample: R050258
Ideal chemistry: Al_2_SiO_5_
Locality: Bautista Canyon, near Hemet, Riverside County, California, USA
Source: Marcus Origlieri
Description: Brown fragment
Measured chemistry: Al_2.00_Si_1.00_O_5_
Pin_id: M00208
Orientation: Laser parallel to -c* (0 0 -1). Fiducial mark perpendicular to laser is parallel to a [1 0 0]
Raman shift (cm-1)	intensity
99.649	0
104.582	96.6499
109.512	1362.65
114.44	296.445
119.365	288.959
124.288	342.537
129.209	326.848
134.127	244.211
139.043	586.681
143.956	198.328
148.867	139.515
153.775	124.004
158.681	27.248
163.585	124.832
168.486	281.867
173.385	288.118
178.282	291.919
183.176	561.47
188.067	1323.34
192.956	1494.38
197.843	1556.61
202.727	1814.05
207.609	344.625
212.489	28.439
217.366	7.93262
222.24	119.295
227.112	94.0977
231.982	61.6645
236.849	357.725
241.714	540.068
246.577	210.243
251.437	95.5205
256.294	64.8789
261.149	338.484
266.002	151.279
270.852	550.479
275.7	1600.89
280.545	5027.32
285.388	12281.7
290.229	15272.9
295.067	7450.87
299.902	2075.65
304.735	829.828
309.566	3150.67
314.394	12438.9
319.22	18093.8
324.043	8899.75
328.864	2808.07
333.682	1117.36
338.498	818.461
343.311	1450.06
348.122	5084.16
352.931	12623.8
357.737	15261.8
362.54	8947.06
367.341	4579.09
372.14	2621.39
376.936	1602.95
381.73	1427.69
386.521	1547.74
391.31	1853.14
396.096	1158.08
400.88	966.186
405.661	1233.35
410.44	1976.79
415.216	2767.14
419.99	2043.88
424.761	796.004
429.53	431.481
434.297	419.296
439.061	688.441
443.822	1313.91
448.581	2024.72
453.337	978.858
458.091	46.1416
462.843	139.555
467.592	196.934
472.338	78.8125
477.082	227.066
481.824	394.364
486.563	175.243
491.3	222.836
496.034	339.94
500.765	762.371
505.494	1036.08
510.221	1529.08
514.945	1246.38
519.666	1230.94
524.385	1316.34
529.102	1756.55
533.816	2274.09
538.527	3454.6
543.236	5371.97
547.943	7093.43
552.647	6658.97
557.348	4891.75
562.047	3936.15
566.744	3734.52
571.438	3665.87
576.129	3076.34
580.818	2434.38
585.504	2090.31
590.188	1762
594.87	1588.38
599.549	1860.93
604.225	2105.79
608.899	2740.53
613.57	3192.44
618.239	3581.79
622.905	3824.1
627.569	4267.91
632.23	4173.62
636.889	4026.19
641.545	3691.26
646.198	3591.77
650.849	2717.16
655.498	2026.19
660.144	1647.87
664.787	776.17
669.428	312.067
674.067	86.5342
678.703	8.53516
683.336	65.9795
687.967	48.4971
692.595	23.915
697.221	393.053
701.844	707.504
706.465	1053.44
711.083	2295.35
715.698	2830.05
720.311	1717.03
724.922	607.421
729.53	424.683
734.135	435.305
738.738	152.065
743.338	171.716
747.936	135.438
752.531	179.102
757.124	15.8916
761.714	61.5869
766.302	85.7285
770.887	76.3828
775.469	238.195
780.049	204.952
784.626	514.716
789.201	631.575
793.773	994.161
798.343	1394.61
802.91	2006.79
807.475	3213.07
812.037	4529.94
816.596	5572.24
821.153	5454.44
825.707	3791.3
830.259	2537.51
834.808	1696.95
839.355	924.822
843.899	389.253
848.441	48.8154
852.98	86.9297
857.516	226.002
862.05	78.8516
866.581	34.9941
871.11	22.1445
875.636	125.373
880.159	205.808
884.68	549.451
889.199	730.944
893.714	1340.54
898.228	2632.5
902.738	4737.47
907.246	8500.59
911.752	21240.4
916.255	42976.2
920.755	34648.8
925.253	20331.8
929.748	12162.4
934.241	6478.54
938.731	4004.31
943.218	3236.7
947.703	3598.77
952.186	3064.55
956.665	1816.12
961.142	1298.95
965.617	1034.53
970.089	843.672
974.558	964.01
979.025	941.014
983.489	1114.92
987.951	1204.87
992.41	1363.26
996.866	2552.21
1001.32	5061.94
1005.77	5122.3
1010.22	3207.27
1014.67	2587.12
1019.11	2254.05
1023.55	1664.32
1027.99	1272.6
1032.42	817.389
1036.86	772.891
1041.29	607.004
1045.72	338.565
1050.14	569.498
1054.56	485.014
1058.98	1432.08
1063.4	2832.56
1067.82	1961.36
1072.23	782.564
1076.64	534.18
1081.05	462.938
1085.45	233.158
1089.85	340.705
1094.25	65.9668
1098.65	135.816
1103.04	235.525
1107.43	278.185
1111.82	466.986
1116.21	259.668
1120.59	605.592
1124.97	716.766
1129.35	586.746
1133.73	15.498
1138.1	0.5625
1142.47	47.1465
1146.84	132.447
1151.21	25.0488
1155.57	82.1465
1159.93	117.967
1164.29	125.461
1168.64	85.7871
1172.99	151.074
1177.34	178.666
1181.69	259.967
1186.04	126.285
1190.38	140.172
1194.72	266.707
1199.05	362.728
1203.39	128.971
1207.72	217.924
1212.05	142.81
1216.37	65.4785
1220.7	177.244
1225.02	205.789
1229.34	149.772
1233.65	260.654
1237.97	180.627
1242.28	29.5254
1246.59	157.016
1250.89	143.432
1255.19	290.865
1259.49	152.914
1263.79	223.715
1268.09	339.426
1272.38	156.371
1276.67	54.0098
1280.95	319.793
1285.24	87.6016
1289.52	66.4199
1293.8	100.865
1298.08	51.3027
1302.35	117.131
1306.62	182.603
1310.89	27.373
1315.15	93.6934
1319.42	24.9062
1323.68	63.4629
1327.94	60.873
1332.19	604.227
1336.44	145.924
1340.69	162.842
1344.94	212.162
1349.19	100.006
1353.43	279.523
1357.67	401.537
1361.9	321.422
1366.14	520.285
1370.37	219.658
1374.6	555.852
1378.83	418.225
1383.05	438.475
1387.27	195.6
1391.49	308.963
1395.7	343.805
1399.92	76.5137
1404.13	321.33
1408.34	256.859
1412.54	208.566
1416.74	284.469
1420.94	218.098
1425.14	145.856
1429.34	313.25
1433.53	185.801
1437.72	422.76
1441.9	348.107
1446.09	409.281
1450.27	433.281
1454.45	350.672
1458.63	225.902
1462.8	181.693
1466.97	73.25
1471.14	14.6367
1475.31	242.119
1479.47	275.086
1483.63	19.5195
1487.79	181.658
1491.94	85.4941
1496.09	6.13086
1500.24	355.539
1504.39	198.887
1508.54	190.508
1512.68	91.9981
1516.82	112.318
1520.95	111.764
1525.09	132.147
1529.22	8.36719
1533.35	225.324
1537.47	48.3301
1541.6	236.498
1545.72	225.103
1549.83	351.002
1553.95	413.231
1558.06	206.893
1562.17	2.73633
1566.28	131.732
1570.38	0
