Measurement: Raman, 514 nm, ccw, Raman Data Processed
Mineral: Andalusite
Rruff sample: R050626
Ideal chemistry: Al_2_SiO_5_
Locality: Minas Gerais, Brazil
Source: Gemological Center
Description: Grayish brown fragment
Measured chemistry: (Al_1.99_Fe^3+^_0.01_)_Î£=1_Si_1.00_O_5_
Pin_id: L00923
Orientation: Laser parallel to a* (1 0 0). Fiducial mark perpendicular to laser is parallel to -b [0 -1 0]
Raman shift (cm-1)	intensity
123.058	0
127.979	2.28979
132.898	32.5425
137.814	72.52
142.728	56.1836
147.639	57.0366
152.549	108.675
157.455	90.5562
162.359	34.3267
167.261	251.22
172.161	366.487
177.058	326.38
181.952	333.906
186.845	479.942
191.734	777.348
196.622	992.138
201.507	1036.65
206.389	568.902
211.269	10.2654
216.147	1.12256
221.022	21.7795
225.895	85.2632
230.765	0.378174
235.633	594.169
240.498	3146.15
245.361	4638.11
250.222	2194.66
255.08	1476.26
259.936	1509.16
264.789	1461.38
269.64	1809.42
274.488	2480.05
279.334	4124.54
284.178	8575.13
289.019	22361.4
293.857	57090.6
298.693	30587.4
303.527	7428.33
308.358	2867.64
313.187	2458.33
318.013	5797.72
322.837	22166.2
327.659	11930.7
332.478	3576.35
337.294	1848.17
342.108	1758.34
346.92	2493.64
351.729	6236.75
356.535	18627.2
361.34	37949.2
366.141	20324.7
370.94	7620.09
375.737	3529.03
380.531	1964.66
385.323	1929.62
390.113	1158.91
394.9	684.472
399.684	502.335
404.466	292.41
409.245	238.707
414.022	170.209
418.797	36.8462
423.569	51.5996
428.338	13.5054
433.105	59.5083
437.87	17.6025
442.632	21.8071
447.391	290.147
452.149	1394.66
456.903	1346.32
461.655	213.179
466.405	82.2583
471.152	49.5596
475.897	165.02
480.639	113.634
485.378	95.4448
490.116	90.5796
494.85	33.9399
499.582	13.499
504.312	34.2305
509.039	10.1274
513.764	31.249
518.486	83.668
523.206	19.7983
527.923	118.436
532.638	90.5952
537.35	163.439
542.059	483.707
546.766	1087.23
551.471	2724.25
556.173	3462.17
560.873	1637.08
565.57	1252.61
570.264	1797.43
574.957	3040.74
579.646	1689.42
584.333	659.318
589.018	488.224
593.7	345.25
598.379	313.47
603.056	237.975
607.73	213.529
612.402	272.69
617.072	168.469
621.739	470.808
626.403	821.581
631.065	1326.78
635.724	779.07
640.381	314.509
645.035	182.77
649.687	205.98
654.336	173.254
658.983	110.766
663.627	59.6675
668.268	10.4404
672.907	21.5498
677.544	33.9639
682.178	28.2163
686.809	21.2783
691.438	15.124
696.065	115.769
700.688	69.2568
705.31	12.5859
709.929	188.684
714.545	332.606
719.158	378.731
723.77	271.57
728.378	106.199
732.984	101.012
737.588	81.3579
742.189	30.4829
746.787	37.3398
751.383	46.999
755.976	60.5464
760.567	6.96826
765.155	27.8599
769.741	12.1636
774.324	44.2676
778.904	17.4966
783.482	83.6392
788.058	51.7349
792.631	67.7974
797.201	47.8032
801.769	32.6587
806.334	239.617
810.897	256.348
815.457	21.9111
820.014	39.2529
824.569	119.368
829.122	103.05
833.671	273.961
838.219	232.139
842.763	164.981
847.306	38.5767
851.845	28.1528
856.382	41.3105
860.917	101.857
865.448	7.46484
869.978	78.354
874.505	186.039
879.029	147.486
883.55	204.193
888.069	400.346
892.586	603.024
897.1	998.769
901.611	1746.86
906.12	2770.66
910.626	5264.44
915.129	12765.6
919.63	33861.1
924.129	28340.1
928.625	9794.05
933.118	5199.79
937.609	4926.7
942.097	7107.01
946.582	14400.7
951.065	31509
955.546	28978.6
960.023	12241.7
964.499	5149.71
968.971	2784.56
973.441	1557.76
977.909	954.321
982.374	658.363
986.836	451.079
991.295	370.04
995.753	283.998
1000.21	259.402
1004.66	243.333
1009.11	190.55
1013.55	339.446
1018	761.502
1022.44	1047.84
1026.88	734.69
1031.32	336.709
1035.75	255.485
1040.18	254.68
1044.61	391.034
1049.04	484.184
1053.46	685.462
1057.88	1371
1062.3	3473.79
1066.71	7160.89
1071.13	3923.73
1075.54	1485.41
1079.94	510.336
1084.35	289.986
1088.75	92.6821
1093.15	90.9414
1097.55	21.7935
1101.94	139.253
1106.34	230.829
1110.73	335.275
1115.11	475.901
1119.5	434.965
1123.88	400.981
1128.26	374.59
1132.63	73.6894
1137.01	40.1377
1141.38	90.9785
1145.75	74.7261
1150.12	95.5469
1154.48	46.499
1158.84	1.46045
1163.2	12.3467
1167.55	27.7949
1171.91	18.1318
1176.26	15.27
1180.61	19.5542
1184.95	6.64502
1189.29	7.01758
1193.63	33.6294
1197.97	34.2315
1202.31	26.148
1206.64	37.3018
1210.97	55.6641
1215.29	18.8701
1219.62	44.7178
1223.94	81.8311
1228.26	109.13
1232.57	59.6777
1236.89	39.5552
1241.2	93.0898
1245.51	162.541
1249.81	98.8633
1254.12	53.3691
1258.42	17.8096
1262.72	134.937
1267.01	85.2656
1271.3	88.7622
1275.59	132.852
1279.88	118.509
1284.17	185.763
1288.45	184.481
1292.73	150.203
1297.01	205.21
1301.28	156.727
1305.55	158.159
1309.82	166.277
1314.09	222.443
1318.35	137.786
1322.61	118.575
1326.87	126.237
1331.13	80.376
1335.38	105.79
1339.63	122.626
1343.88	26.9043
1348.12	28.2349
1352.37	62.5269
1356.61	28.4326
1360.85	108.694
1365.08	142.841
1369.31	95.7598
1373.54	149.232
1377.77	166.922
1381.99	70.6924
1386.22	161.318
1390.43	21.7373
1394.65	66.1562
1398.87	103.124
1403.08	84.1479
1407.29	13.064
1411.49	79.5596
1415.69	15.2842
1419.89	54.1294
1424.09	78.7568
1428.29	57.0444
1432.48	140.288
1436.67	41.6157
1440.86	104.967
1445.04	134.875
1449.23	103.367
1453.4	230.76
1457.58	104.95
1461.76	115.398
1465.93	161.023
1470.1	9.69141
1474.26	121.829
1478.43	157.77
1482.59	169.626
1486.75	160.066
1490.9	261.228
1495.06	161.548
1499.21	194.987
1503.35	126.898
1507.5	152.434
1511.64	179.452
1515.78	170.221
1519.92	149.914
1524.05	90.9888
1528.18	140.674
1532.31	117.68
1536.44	107.967
1540.56	32.4922
1544.69	46.7466
1548.8	62.5693
1552.92	186.689
1557.03	164.239
1561.14	9.33545
1565.25	77.2017
1569.36	37.731
