Measurement: Raman, 514 nm, ccw, Raman Data Processed
Mineral: Andalusite
Rruff sample: R060212
Ideal chemistry: Al_2_SiO_5_
Locality: Brazil
Source: Marcus Origlieri
Description: Transparent yellow-green water-worn pebble
Measured chemistry: (Al_1.98_Fe^3+^_0.02_)_Î£=2_Si_1.00_O_5_
Pin_id: L00827
Orientation: Laser parallel to -b* (0 -1 0). Fiducial mark perpendicular to laser is parallel to c [0 0 1]
Raman shift (cm-1)	intensity
99.649	0
104.582	12.5986
109.512	537.297
114.44	443.13
119.365	508.873
124.288	438.263
129.209	564.202
134.127	1240.18
139.043	1998.12
143.956	2102.93
148.867	1292.42
153.775	668.505
158.681	519.485
163.585	578.715
168.486	484.286
173.385	394.232
178.282	355.823
183.176	567.904
188.067	751.064
192.956	1027.47
197.843	1141.5
202.727	1036.46
207.609	254.48
212.489	10.71
217.366	82.0674
222.24	90.0244
227.112	90.9805
231.982	119.992
236.849	356.674
241.714	536.971
246.577	183.336
251.437	108.703
256.294	244.365
261.149	442.07
266.002	311.678
270.852	676.928
275.7	1723.55
280.545	3314.34
285.388	7982.31
290.229	14670
295.067	8546.57
299.902	2934.03
304.735	1325.15
309.566	1686.86
314.394	4648.08
319.22	10677.7
324.043	7271.78
328.864	2347.63
333.682	1456
338.498	1107.87
343.311	1045.21
348.122	2240.96
352.931	5114.75
357.737	8233.35
362.54	5061.65
367.341	2456.89
372.14	1203.02
376.936	885.904
381.73	468.109
386.521	314.592
391.31	509.379
396.096	227.092
400.88	310.932
405.661	301.231
410.44	791.941
415.216	1523.04
419.99	1504.49
424.761	331.273
429.53	136.658
434.297	165.381
439.061	134.91
443.822	247.961
448.581	734.957
453.337	499.434
458.091	48.3223
462.843	152.049
467.592	78.7598
472.338	513.619
477.082	560.691
481.824	1028.94
486.563	678.42
491.3	249.328
496.034	5.8125
500.765	50.1602
505.494	180.76
510.221	506.613
514.945	344.715
519.666	424.928
524.385	163.211
529.102	129.56
533.816	908.969
538.527	403.475
543.236	1104.16
547.943	2144.91
552.647	2349.69
557.348	1130.46
562.047	372.211
566.744	272.94
571.438	216.969
576.129	440.07
580.818	156.275
585.504	95.8379
590.188	78.1777
594.87	107.715
599.549	17.3672
604.225	449.502
608.899	253.67
613.57	35.0137
618.239	190.867
622.905	169.256
627.569	136.176
632.23	154.799
636.889	429.848
641.545	668.576
646.198	194.799
650.849	374.103
655.498	437.316
660.144	992.156
664.787	923.76
669.428	411.15
674.067	501.859
678.703	404.065
683.336	496.309
687.967	342.443
692.595	462.682
697.221	485.512
701.844	579.301
706.465	747.01
711.083	1288.32
715.698	1663.25
720.311	866.123
724.922	642.564
729.53	23.5781
734.135	299.754
738.738	344.523
743.338	317.307
747.936	456.787
752.531	272.887
757.124	4.64453
761.714	107.936
766.302	17.625
770.887	32.4082
775.469	188.141
780.049	165.359
784.626	77.3125
789.201	165.133
793.773	406.066
798.343	318.363
802.91	487.305
807.475	496.894
812.037	101.121
816.596	205.836
821.153	197.004
825.707	385.731
830.259	255.066
834.808	335.211
839.355	218.144
843.899	341.41
848.441	128.285
852.98	37.5195
857.516	180.789
862.05	34.7227
866.581	318.078
871.11	250.418
875.636	280.031
880.159	273.523
884.68	262.953
889.199	510.254
893.714	672.359
898.228	1249.1
902.738	2060.61
907.246	3584.07
911.752	9446.91
916.255	22115.3
920.755	22207.6
925.253	12603.2
929.748	8638.93
934.241	4295.48
938.731	2382.84
943.218	1861.04
947.703	2048.97
952.186	1432.09
956.665	890.18
961.142	454.051
965.617	301.383
970.089	184.731
974.558	154.625
979.025	312.547
983.489	165.121
987.951	277.113
992.41	147.562
996.866	39.7773
1001.32	122.582
1005.77	55.2109
1010.22	616.324
1014.67	1272.68
1019.11	2386.21
1023.55	1442.45
1027.99	719.559
1032.42	497.191
1036.86	310.656
1041.29	237.344
1045.72	472
1050.14	651.234
1054.56	930.445
1058.98	1935.8
1063.4	3983.17
1067.82	2688.55
1072.23	1307.96
1076.64	595.394
1081.05	821.875
1085.45	879.504
1089.85	476.246
1094.25	155.098
1098.65	297.008
1103.04	657.828
1107.43	935.586
1111.82	504.738
1116.21	702
1120.59	467.578
1124.97	514.492
1129.35	270.242
1133.73	15.5195
1138.1	239.981
1142.47	273.633
1146.84	185.902
1151.21	31.7695
1155.57	100.488
1159.93	56.8477
1164.29	117.727
1168.64	165.043
1172.99	95.2969
1177.34	207.691
1181.69	381.238
1186.04	235.828
1190.38	363.633
1194.72	395.535
1199.05	272.543
1203.39	506.691
1207.72	306.043
1212.05	434.57
1216.37	424.383
1220.7	377.34
1225.02	529.391
1229.34	453.648
1233.65	498.797
1237.97	615.203
1242.28	301.91
1246.59	641.832
1250.89	559.074
1255.19	480.129
1259.49	558.117
1263.79	474.668
1268.09	272.281
1272.38	246.691
1276.67	603.043
1280.95	633.156
1285.24	156.5
1289.52	451.769
1293.8	520.793
1298.08	721.109
1302.35	405.856
1306.62	256.379
1310.89	345.676
1315.15	808.16
1319.42	838.719
1323.68	728.336
1327.94	704.633
1332.19	836.469
1336.44	398.375
1340.69	668
1344.94	482.777
1349.19	472.594
1353.43	838.812
1357.67	434.832
1361.9	546.348
1366.14	291.957
1370.37	176.457
1374.6	392.832
1378.83	515.789
1383.05	54.3438
1387.27	64.6641
1391.49	128.188
1395.7	101.949
1399.92	151.988
1404.13	219.602
1408.34	312.18
1412.54	86.7695
1416.74	224.562
1420.94	233.59
1425.14	26.0195
1429.34	331.906
1433.53	37.8398
1437.72	140.07
1441.9	172.082
1446.09	181.856
1450.27	32.625
1454.45	107.824
1458.63	7.48047
1462.8	45.1406
1466.97	164.898
1471.14	415.238
1475.31	145.629
1479.47	315.07
1483.63	286.203
1487.79	376.262
1491.94	240.277
1496.09	234.484
1500.24	278.688
1504.39	126.375
1508.54	288.254
1512.68	443.254
1516.82	43.5
1520.95	358.996
1525.09	467.269
1529.22	377.648
1533.35	288.719
1537.47	455.883
1541.6	471.676
1545.72	121.019
1549.83	342.883
1553.95	261.102
1558.06	435.734
1562.17	44.4922
1566.28	281.898
1570.38	0
