Measurement: Raman, 514 nm, ccw, Raman Data Processed
Mineral: Andalusite
Rruff sample: R050561
Ideal chemistry: Al_2_SiO_5_
Locality: Cargo Muchacho Mountain, Imperial County, California
Source: Dave Bunk Minerals
Description: Brown coarsely crystalline massive
Measured chemistry: (Al_1.98_Fe^3+^_0.02_)_Î£=2_Si_1.00_O_5_
Pin_id: M00237
Orientation: Laser parallel to c* (0 0 1). Fiducial mark perpendicular to laser is parallel to 1 0 0
Raman shift (cm-1)	intensity
157.455	0
162.359	47.1929
167.261	219.183
172.161	325.767
177.058	314.053
181.952	277.252
186.845	528.189
191.734	1081.67
196.622	881.955
201.507	941.216
206.389	111.677
211.269	166.183
216.147	66.4744
221.022	267.381
225.895	257.333
230.765	1010.79
235.633	2028.62
240.498	4433.55
245.361	3873.41
250.222	2306.97
255.08	2013.26
259.936	2320.63
264.789	2852.28
269.64	4230.28
274.488	7073.06
279.334	14438.6
284.178	27503
289.019	43343.2
293.857	47315.5
298.693	19548.6
303.527	7371.38
308.358	5881.2
313.187	10394.4
318.013	17124
322.837	21093.3
327.659	8487.94
332.478	4200.61
337.294	3406.57
342.108	4569.47
346.92	9567.24
351.729	19064.8
356.535	31690.1
361.34	30720
366.141	14177.1
370.94	6390.55
375.737	3526.64
380.531	2462.39
385.323	1949.79
390.113	1620.75
394.9	1362.26
399.684	847.293
404.466	491.853
409.245	451.908
414.022	420.435
418.797	332.422
423.569	120.857
428.338	42.2739
433.105	23.0356
437.87	29.4912
442.632	343.262
447.391	763.376
452.149	1629.85
456.903	1119.25
461.655	1099.9
466.405	1667.97
471.152	1327.46
475.897	889.377
480.639	575.839
485.378	565.091
490.116	212.253
494.85	11.581
499.582	166.665
504.312	93.6709
509.039	24.9551
513.764	189.938
518.486	162.752
523.206	169.386
527.923	191.654
532.638	337.671
537.35	945.9
542.059	1948.36
546.766	3612.04
551.471	4996.2
556.173	3414
560.873	2024.26
565.57	2231.68
570.264	3281.03
574.957	3320.81
579.646	1765.5
584.333	1100.73
589.018	901.031
593.7	680.057
598.379	599.78
603.056	524.453
607.73	400.177
612.402	395.015
617.072	682.218
621.739	938.485
626.403	1052.8
631.065	836.181
635.724	379.604
640.381	318.7
645.035	547.718
649.687	357.891
654.336	123.084
658.983	3.99853
663.627	79.5347
668.268	69.7905
672.907	162.86
677.544	319.746
682.178	265.441
686.809	261.94
691.438	325.237
696.065	450.328
700.688	449.207
705.31	472.87
709.929	551.816
714.545	724.236
719.158	498.582
723.77	231.885
728.378	38.8198
732.984	88.2104
737.588	243.594
742.189	188.052
746.787	194.256
751.383	191.205
755.976	14.8975
760.567	63.9766
765.155	94.9072
769.741	39.1943
774.324	76.7729
778.904	88.1284
783.482	111.234
788.058	197.606
792.631	303.845
797.201	695.286
801.769	1355.98
806.334	1731.16
810.897	1335.79
815.457	760.285
820.014	444.668
824.569	391.947
829.122	464.135
833.671	410.242
838.219	224.278
842.763	98.2549
847.306	44.835
851.845	31.9292
856.382	17.4521
860.917	18.7798
865.448	53.0879
869.978	34.1748
874.505	113.07
879.029	249.453
883.55	283.769
888.069	598.152
892.586	1067.4
897.1	1708.85
901.611	3062.4
906.12	5876.56
910.626	14710.7
915.129	31867.1
919.63	41700.6
924.129	19954.5
928.625	9002.73
933.118	6647.38
937.609	7970.49
942.097	13112
946.582	24088.9
951.065	32194.3
955.546	20352.2
960.023	9229.38
964.499	5145.94
968.971	4653.87
973.441	6274.15
977.909	2818.86
982.374	1246.76
986.836	894.87
991.295	856.619
995.753	753.626
1000.21	445.158
1004.66	534.606
1009.11	1114.42
1013.55	2523.64
1018	4645.26
1022.44	4135.29
1026.88	2386.58
1031.32	1433.38
1035.75	922.785
1040.18	588.801
1044.61	643.376
1049.04	1091.83
1053.46	1822.04
1057.88	4480.46
1062.3	7960.19
1066.71	6264.99
1071.13	2633.61
1075.54	1364.59
1079.94	759.308
1084.35	499.351
1088.75	386.902
1093.15	336.707
1097.55	534.501
1101.94	1018.67
1106.34	1735.04
1110.73	1780.07
1115.11	1063.52
1119.5	511.364
1123.88	172.367
1128.26	125.743
1132.63	100.139
1137.01	69.8003
1141.38	44.333
1145.75	34.0459
1150.12	96.8438
1154.48	94.7915
1158.84	108.455
1163.2	31.4863
1167.55	60.4204
1171.91	95.8369
1176.26	94.7031
1180.61	14.3188
1184.95	30.3843
1189.29	45.688
1193.63	35.1645
1197.97	5.28467
1202.31	3.35156
1206.64	62.6929
1210.97	52.2056
1215.29	8.28467
1219.62	104.23
1223.94	53.2925
1228.26	85.2158
1232.57	64.7764
1236.89	89.0039
1241.2	63.1099
1245.51	135.026
1249.81	133.385
1254.12	124.348
1258.42	119.529
1262.72	115.344
1267.01	134.344
1271.3	183.086
1275.59	119.495
1279.88	124.684
1284.17	220.528
1288.45	219.171
1292.73	274.884
1297.01	148.344
1301.28	144.996
1305.55	262.983
1309.82	152.919
1314.09	172.321
1318.35	195.087
1322.61	169.337
1326.87	214.54
1331.13	30.7646
1335.38	108.695
1339.63	43.1846
1343.88	71.7398
1348.12	81.0669
1352.37	118.096
1356.61	97.166
1360.85	167.62
1365.08	90.9614
1369.31	70.3486
1373.54	109.626
1377.77	89.2837
1381.99	82.8545
1386.22	20.9639
1390.43	199.093
1394.65	40.6855
1398.87	152.264
1403.08	71.5459
1407.29	165.696
1411.49	29.041
1415.69	108.961
1419.89	83.3149
1424.09	54.7837
1428.29	50.6543
1432.48	37.3193
1436.67	74.0928
1440.86	42.8999
1445.04	7.08203
1449.23	103.752
1453.4	0.253906
1457.58	15.5757
1461.76	80.0737
1465.93	30.4346
1470.1	63.7319
1474.26	83.7998
1478.43	174.493
1482.59	143.315
1486.75	55.8701
1490.9	112.824
1495.06	105.299
1499.21	139.681
1503.35	111.852
1507.5	197.867
1511.64	162.524
1515.78	86.5454
1519.92	75.3794
1524.05	54.9165
1528.18	22.7886
1532.31	101.873
1536.44	102.953
1540.56	105.193
1544.69	128.315
1548.8	15.9521
1552.92	161.432
1557.03	71.1357
1561.14	4.6333
1565.25	74.1387
1569.36	60.8486
