Measurement: Raman, 514 nm, ccw, Raman Data Processed
Mineral: Andalusite
Rruff sample: R060197
Ideal chemistry: Al_2_SiO_5_
Locality: Brazil
Source: Marcus Origlieri
Description: Green colored water worn pebble
Measured chemistry: (Al_1.97_Mn^3+^_0.03_)_Î£=2_Si_1.00_O_5_
Pin_id: L01138
Orientation: Laser parallel to -b* (0 -1 0). Fiducial mark perpendicular to laser is parallel to -c [0 0 -1]
Raman shift (cm-1)	intensity
123.058	0
127.979	10.1768
132.898	195.289
137.814	175.807
142.728	518.347
147.639	506.898
152.549	381.209
157.455	453.449
162.359	535.071
167.261	754.576
172.161	748.467
177.058	527.459
181.952	688.903
186.845	1123.63
191.734	1545.13
196.622	1564.31
201.507	1195.44
206.389	404.272
211.269	8.87207
216.147	102.434
221.022	49.3662
225.895	162.618
230.765	141.335
235.633	1211.3
240.498	1538.3
245.361	1255.18
250.222	1080.15
255.08	1896.89
259.936	2938.09
264.789	2788.32
269.64	3247.55
274.488	5633.38
279.334	10977
284.178	20449.2
289.019	25516.3
293.857	15131.3
298.693	6792.99
303.527	4073.2
308.358	4867.18
313.187	9919.62
318.013	14309.1
322.837	7262.01
327.659	3826.59
332.478	3026.51
337.294	3153.76
342.108	4754.33
346.92	8401.22
351.729	16047.4
356.535	19825.6
361.34	11871.4
366.141	5609.67
370.94	3010.84
375.737	2018.36
380.531	1764.01
385.323	1572.06
390.113	1309.46
394.9	692.146
399.684	469.156
404.466	432.488
409.245	273.141
414.022	168.11
418.797	71.3535
423.569	0.853516
428.338	21.4492
433.105	152.032
437.87	146.476
442.632	138.794
447.391	289.383
452.149	140.756
456.903	32.6328
461.655	131.828
466.405	482.412
471.152	468.412
475.897	534.832
480.639	722.666
485.378	823.914
490.116	382.578
494.85	146.65
499.582	9.83984
504.312	259.106
509.039	470.568
513.764	286.025
518.486	245.502
523.206	109.123
527.923	249.748
532.638	344.344
537.35	733.324
542.059	2066.68
546.766	3907.43
551.471	2770.58
556.173	1397.13
560.873	1402.11
565.57	1900.42
570.264	2256.85
574.957	1502.12
579.646	815.74
584.333	706.644
589.018	736.83
593.7	869.219
598.379	850.564
603.056	865.812
607.73	578.367
612.402	508.254
617.072	518.432
621.739	441.881
626.403	436.594
631.065	189.557
635.724	328.754
640.381	787.973
645.035	937.611
649.687	330.451
654.336	54.4688
658.983	57.5996
663.627	132.209
668.268	101.738
672.907	283.756
677.544	454.887
682.178	568.619
686.809	865.553
691.438	1119.5
696.065	1312.33
700.688	1685.31
705.31	2411.3
709.929	1905.75
714.545	1472.8
719.158	815.381
723.77	179.76
728.378	27.1289
732.984	58.9395
737.588	160.424
742.189	654.562
746.787	797.146
751.383	1171.81
755.976	793.225
760.567	928.381
765.155	734.279
769.741	655.246
774.324	863.293
778.904	1217.41
783.482	2174.26
788.058	3439.85
792.631	3472.16
797.201	2257.1
801.769	1527.21
806.334	1106.12
810.897	506.315
815.457	281.223
820.014	74.832
824.569	120.078
829.122	203.963
833.671	8.52344
838.219	82.4707
842.763	340.312
847.306	62.0508
851.845	189.92
856.382	432.168
860.917	297.496
865.448	259.867
869.978	377.272
874.505	528.611
879.029	312.754
883.55	321.758
888.069	459.588
892.586	827.264
897.1	1021.84
901.611	2240.65
906.12	4368.69
910.626	11260.9
915.129	25124.2
919.63	22066.5
924.129	9839.68
928.625	5661.7
933.118	4252.52
937.609	4274.27
942.097	5804.94
946.582	8868.33
951.065	8897.44
955.546	5948.9
960.023	3833.31
964.499	3061.35
968.971	2522.76
973.441	2273.33
977.909	1477.07
982.374	954.885
986.836	478.816
991.295	198.178
995.753	125.943
1000.21	280.414
1004.66	626.455
1009.11	985.982
1013.55	1952.96
1018	2587.3
1022.44	2212.39
1026.88	1309.44
1031.32	957.082
1035.75	900.775
1040.18	733.119
1044.61	741.414
1049.04	1333.38
1053.46	2208.37
1057.88	3753.25
1062.3	2945.1
1066.71	1568.66
1071.13	1306.62
1075.54	1055.35
1079.94	1315.48
1084.35	1015.34
1088.75	1081.95
1093.15	1178.33
1097.55	1316.48
1101.94	1464.41
1106.34	1895.18
1110.73	1477.11
1115.11	1130.6
1119.5	1089.81
1123.88	680.488
1128.26	692.029
1132.63	239.342
1137.01	144.398
1141.38	73.8379
1145.75	75.582
1150.12	173.986
1154.48	99.8906
1158.84	33.6387
1163.2	7.37305
1167.55	212.076
1171.91	164.924
1176.26	165.783
1180.61	74.5566
1184.95	45.166
1189.29	42.75
1193.63	29.6914
1197.97	50.4922
1202.31	235.256
1206.64	228.803
1210.97	711.168
1215.29	1114.37
1219.62	1569.41
1223.94	2451.31
1228.26	3232.08
1232.57	4006.74
1236.89	4604.36
1241.2	5499.03
1245.51	6187.72
1249.81	6644.33
1254.12	5954.92
1258.42	5379.42
1262.72	4679.91
1267.01	4446.45
1271.3	3465.56
1275.59	2801.97
1279.88	2068.52
1284.17	1581.01
1288.45	1211.24
1292.73	1238.31
1297.01	1124.85
1301.28	804.371
1305.55	677.805
1309.82	781.199
1314.09	586.531
1318.35	869.223
1322.61	604.164
1326.87	539.242
1331.13	628.848
1335.38	663.797
1339.63	686.301
1343.88	466.043
1348.12	567.387
1352.37	594.996
1356.61	687.301
1360.85	590.156
1365.08	608.867
1369.31	489.035
1373.54	463.293
1377.77	542.656
1381.99	666.234
1386.22	557.102
1390.43	757.988
1394.65	780.504
1398.87	566.289
1403.08	697.199
1407.29	761.32
1411.49	690.707
1415.69	928.723
1419.89	1061.53
1424.09	951.32
1428.29	787.457
1432.48	600.981
1436.67	883.867
1440.86	733.176
1445.04	558.215
1449.23	492.812
1453.4	520.809
1457.58	216.981
1461.76	258.902
1465.93	330.992
1470.1	131.461
1474.26	12.0781
1478.43	262.012
1482.59	338.262
1486.75	215.969
1490.9	178.938
1495.06	89.3164
1499.21	46.875
1503.35	14.0508
1507.5	228.277
1511.64	171.254
1515.78	257.473
1519.92	358.758
1524.05	240.316
1528.18	310.008
1532.31	222.297
1536.44	211.914
1540.56	294.859
1544.69	201.398
1548.8	432.184
1552.92	646.231
1557.03	488.391
1561.14	402.324
1565.25	330.594
1569.36	64.0508
