Measurement: Raman, 514 nm, ccw, Raman Data Processed
Mineral: Andalusite
Rruff sample: R060212
Ideal chemistry: Al_2_SiO_5_
Locality: Brazil
Source: Marcus Origlieri
Description: Transparent yellow-green water-worn pebble
Measured chemistry: (Al_1.98_Fe^3+^_0.02_)_Î£=2_Si_1.00_O_5_
Pin_id: M00061
Orientation: Laser parallel to -a* (-1 0 0). Fiducial mark perpendicular to laser is parallel to -b [0 -1 0]
Raman shift (cm-1)	intensity
99.649	0
104.582	193.593
109.512	1321.39
114.44	520.721
119.365	240.088
124.288	224.816
129.209	167.253
134.127	44.1397
139.043	117.455
143.956	18.1064
148.867	109.983
153.775	234.701
158.681	224.012
163.585	372.427
168.486	568.839
173.385	451.638
178.282	370.291
183.176	458.982
188.067	886.376
192.956	1408.4
197.843	1113.11
202.727	1068.35
207.609	57.5254
212.489	72.6387
217.366	16.0605
222.24	65.3955
227.112	21.9824
231.982	283.435
236.849	1258.86
241.714	3229.73
246.577	1970.62
251.437	1229.43
256.294	1146.33
261.149	1591.67
266.002	1542.12
270.852	2207.74
275.7	3871.75
280.545	6787.26
285.388	14679.6
290.229	34062.2
295.067	33517.4
299.902	9896.09
304.735	3500.01
309.566	2673.52
314.394	4587.63
319.22	12947.8
324.043	14412.1
328.864	4840.46
333.682	2713.82
338.498	2348.21
343.311	2563.62
348.122	4655.02
352.931	10437.9
357.737	23482.8
362.54	19316.4
367.341	7639.59
372.14	3287.42
376.936	1852.54
381.73	1322.08
386.521	1283.69
391.31	1205.39
396.096	827.086
400.88	260.82
405.661	210.629
410.44	140.675
415.216	77.8389
419.99	166.983
424.761	106.889
429.53	131.852
434.297	4.92871
439.061	14.3877
443.822	129.102
448.581	786.504
453.337	1744.96
458.091	268.532
462.843	46.2412
467.592	112.144
472.338	134.164
477.082	248.19
481.824	508.43
486.563	350.779
491.3	221.217
496.034	62.8652
500.765	13.041
505.494	60.2109
510.221	51.5752
514.945	175.301
519.666	225.074
524.385	235.971
529.102	268.101
533.816	254.402
538.527	358.917
543.236	1070.64
547.943	2587.6
552.647	3848.53
557.348	2034
562.047	1138.03
566.744	1287.2
571.438	2169.56
576.129	1753.3
580.818	870.653
585.504	730.146
590.188	387.499
594.87	522.376
599.549	538.472
604.225	482.828
608.899	452.593
613.57	506.595
618.239	719.462
622.905	1272.9
627.569	1552.2
632.23	1038.86
636.889	547.757
641.545	652.172
646.198	970.149
650.849	793.173
655.498	358.952
660.144	282.481
664.787	179.759
669.428	53.1455
674.067	80.4883
678.703	53.8066
683.336	30.6201
687.967	42.7812
692.595	18.1699
697.221	90.0098
701.844	84.4424
706.465	80.8203
711.083	333.185
715.698	523.681
720.311	689.105
724.922	125.564
729.53	116.504
734.135	0.275391
738.738	138.626
743.338	32.4912
747.936	15.8643
752.531	29.8896
757.124	59.3066
761.714	76.8486
766.302	81.2647
770.887	112.792
775.469	69.1445
780.049	225.641
784.626	102.012
789.201	189.341
793.773	252.605
798.343	347.816
802.91	342.826
807.475	512.059
812.037	487.886
816.596	17.7832
821.153	48.1719
825.707	9.24805
830.259	83.1562
834.808	149.603
839.355	23.125
843.899	56.7129
848.441	6.47656
852.98	260.394
857.516	360.473
862.05	439.725
866.581	303.148
871.11	330.613
875.636	192.004
880.159	332.644
884.68	490.75
889.199	567.721
893.714	705.568
898.228	1186.51
902.738	2054.64
907.246	3499.49
911.752	8614.43
916.255	22145.6
920.755	29807.2
925.253	12023.5
929.748	5556.35
934.241	4397.77
938.731	5126.8
943.218	8542.33
947.703	17663.4
952.186	22570.1
956.665	11246.5
961.142	4738.48
965.617	2088.22
970.089	1281.56
974.558	635.527
979.025	317.846
983.489	160.654
987.951	89.957
992.41	36.7539
996.866	64.043
1001.32	500.842
1005.77	460.606
1010.22	582.258
1014.67	1431.54
1019.11	2875.84
1023.55	1950.03
1027.99	1124.38
1032.42	613.299
1036.86	364.66
1041.29	246.234
1045.72	364.144
1050.14	449.69
1054.56	947.322
1058.98	2498.62
1063.4	5493.02
1067.82	4445.91
1072.23	1660.63
1076.64	827.924
1081.05	661.658
1085.45	427.875
1089.85	160.852
1094.25	316.147
1098.65	310.742
1103.04	526.684
1107.43	865
1111.82	1098.6
1116.21	751.461
1120.59	773.582
1124.97	916.949
1129.35	514.553
1133.73	77.3848
1138.1	6.57227
1142.47	57.666
1146.84	82.1699
1151.21	13.1328
1155.57	23.9473
1159.93	75.5
1164.29	139.824
1168.64	88.0215
1172.99	244.42
1177.34	118.312
1181.69	49.873
1186.04	48.3242
1190.38	67.8769
1194.72	53.9473
1199.05	84.1074
1203.39	80.4961
1207.72	40.0234
1212.05	348.457
1216.37	280.887
1220.7	151.299
1225.02	176.734
1229.34	226.566
1233.65	614.244
1237.97	627.707
1242.28	733.16
1246.59	659.748
1250.89	577.18
1255.19	637.607
1259.49	488.01
1263.79	632.496
1268.09	490.281
1272.38	762.008
1276.67	639.084
1280.95	439.58
1285.24	588.762
1289.52	452.268
1293.8	595.588
1298.08	421.062
1302.35	633.098
1306.62	464.103
1310.89	518.514
1315.15	760.791
1319.42	763.727
1323.68	411.648
1327.94	338.037
1332.19	369.004
1336.44	40.5879
1340.69	36.1875
1344.94	296.496
1349.19	122.398
1353.43	204.318
1357.67	4.74023
1361.9	71.0898
1366.14	153.74
1370.37	15.7441
1374.6	149.953
1378.83	316.879
1383.05	276.539
1387.27	141.219
1391.49	355.928
1395.7	75.6699
1399.92	58.5645
1404.13	165.357
1408.34	24.1113
1412.54	59.9883
1416.74	30.9395
1420.94	196.059
1425.14	31.4727
1429.34	268.969
1433.53	467.607
1437.72	590.211
1441.9	967.701
1446.09	930.291
1450.27	1022.88
1454.45	956.404
1458.63	845.223
1462.8	857.215
1466.97	505.465
1471.14	793.377
1475.31	380.231
1479.47	407.371
1483.63	369.523
1487.79	214.621
1491.94	204.164
1496.09	62.3828
1500.24	47.4336
1504.39	133.57
1508.54	40.6523
1512.68	220.81
1516.82	72.9453
1520.95	171.393
1525.09	422.098
1529.22	75.9316
1533.35	217.277
1537.47	91.582
1541.6	114.6
1545.72	49.2949
1549.83	197.721
1553.95	268.894
1558.06	215.678
1562.17	6.4707
1566.28	117.793
1570.38	0
