Measurement: Raman, 514 nm, ccw, Raman Data Processed
Mineral: Andalusite
Rruff sample: R050626
Ideal chemistry: Al_2_SiO_5_
Locality: Minas Gerais, Brazil
Source: Gemological Center
Description: Grayish brown fragment
Measured chemistry: (Al_1.99_Fe^3+^_0.01_)_Î£=1_Si_1.00_O_5_
Pin_id: L00621
Orientation: Laser parallel to -c* (0 0 -1). Fiducial mark perpendicular to laser is parallel to -a [-1 0 0]
Raman shift (cm-1)	intensity
132.898	0
137.814	125.652
142.728	100.239
147.639	223.19
152.549	351.72
157.455	58.042
162.359	109.333
167.261	531.506
172.161	505.711
177.058	643.499
181.952	707.315
186.845	929.156
191.734	1658.04
196.622	1802.31
201.507	1754
206.389	337.052
211.269	3.32812
216.147	116.683
221.022	93.9648
225.895	119.262
230.765	725.334
235.633	2846.15
240.498	5428.61
245.361	3520.67
250.222	2038.57
255.08	1798.38
259.936	2035.34
264.789	2333.47
269.64	3055.63
274.488	5036.53
279.334	10205.1
284.178	25822.2
289.019	54064.8
293.857	48915.3
298.693	17233.5
303.527	5457.88
308.358	3584.84
313.187	7390.35
318.013	19780.9
322.837	19792
327.659	6965.22
332.478	3227.93
337.294	2544.29
342.108	3299.27
346.92	7333.84
351.729	19346.6
356.535	39443.8
361.34	32235.5
366.141	13717.8
370.94	5901.15
375.737	3169.07
380.531	2628.35
385.323	2154.34
390.113	1678.83
394.9	1365.81
399.684	1264.6
404.466	1163.27
409.245	899.724
414.022	633.648
418.797	331.03
423.569	238.859
428.338	137.139
433.105	152.872
437.87	150.054
442.632	431.672
447.391	1130.73
452.149	2195.29
456.903	508.385
461.655	78.0693
466.405	105.309
471.152	36.8496
475.897	57.5117
480.639	208.52
485.378	150.23
490.116	76.5967
494.85	47.2363
499.582	94.3936
504.312	93.3311
509.039	17.9941
513.764	24.0986
518.486	57.4658
523.206	13.8935
527.923	71.8447
532.638	179.088
537.35	536.611
542.059	1207.76
546.766	2978.44
551.471	4455.73
556.173	2999.24
560.873	1806.41
565.57	2099.89
570.264	3358
574.957	2895.29
579.646	1368.76
584.333	650.391
589.018	408.788
593.7	438.062
598.379	359.219
603.056	219.631
607.73	241.517
612.402	284.731
617.072	486.714
621.739	773.299
626.403	1422.81
631.065	1171.45
635.724	563.405
640.381	376.447
645.035	491.133
649.687	264.612
654.336	359.598
658.983	156.481
663.627	151.19
668.268	165.11
672.907	124.842
677.544	251.38
682.178	129.718
686.809	346.848
691.438	206.766
696.065	240.467
700.688	210.946
705.31	309.199
709.929	375.223
714.545	859.811
719.158	547.538
723.77	362.977
728.378	56.0185
732.984	181.678
737.588	16.8857
742.189	130.603
746.787	6.67188
751.383	113.33
755.976	75.0049
760.567	8.19336
765.155	51.3916
769.741	111.724
774.324	7.11621
778.904	56.874
783.482	105.67
788.058	87.7588
792.631	52.3711
797.201	121.362
801.769	328.547
806.334	506.302
810.897	279.938
815.457	266.472
820.014	273.909
824.569	259.269
829.122	306.56
833.671	485.802
838.219	393.001
842.763	215.173
847.306	141.328
851.845	109.476
856.382	11.3916
860.917	170.75
865.448	62.7266
869.978	120.179
874.505	123.6
879.029	315.834
883.55	557.33
888.069	883.049
892.586	1083.85
897.1	1862.38
901.611	3030.86
906.12	5484.5
910.626	12534.1
915.129	31558.5
919.63	45418.2
924.129	20504.4
928.625	8949.13
933.118	6732.31
937.609	8145.06
942.097	14362.4
946.582	30686.2
951.065	42314.5
955.546	24584.4
960.023	10347.6
964.499	4991.48
968.971	2685.72
973.441	1752.41
977.909	1276.56
982.374	991.173
986.836	686.493
991.295	486.045
995.753	493.822
1000.21	448.374
1004.66	473.873
1009.11	488.617
1013.55	811.125
1018	1502.54
1022.44	1300.54
1026.88	720.019
1031.32	480.545
1035.75	671.233
1040.18	527.842
1044.61	575.812
1049.04	927.327
1053.46	1568.3
1057.88	3325.87
1062.3	7439.27
1066.71	7590.75
1071.13	3123.96
1075.54	1207.95
1079.94	656.108
1084.35	306.132
1088.75	218.447
1093.15	173.94
1097.55	143.275
1101.94	291.129
1106.34	344.467
1110.73	512.099
1115.11	333.306
1119.5	741.498
1123.88	856.966
1128.26	576.687
1132.63	68.0273
1137.01	40.9385
1141.38	133.281
1145.75	35.2891
1150.12	16.4727
1154.48	127.234
1158.84	9.15234
1163.2	91.2256
1167.55	38.3428
1171.91	5.39453
1176.26	44.1309
1180.61	37.0312
1184.95	13.083
1189.29	93.7207
1193.63	52.5967
1197.97	42.669
1202.31	34.6445
1206.64	0.34375
1210.97	51.46
1215.29	92.1211
1219.62	67.5986
1223.94	85.0498
1228.26	55.2647
1232.57	114.434
1236.89	150.525
1241.2	50.543
1245.51	167.418
1249.81	138.71
1254.12	100.332
1258.42	191.844
1262.72	179.189
1267.01	253.183
1271.3	139.307
1275.59	347.096
1279.88	187.227
1284.17	323.278
1288.45	253.677
1292.73	335.912
1297.01	281.475
1301.28	344.516
1305.55	436.241
1309.82	320.604
1314.09	447.103
1318.35	395.736
1322.61	420.337
1326.87	385.448
1331.13	360.858
1335.38	161.122
1339.63	322.827
1343.88	165.56
1348.12	143.693
1352.37	108.905
1356.61	254.91
1360.85	211.656
1365.08	139.607
1369.31	92.457
1373.54	246.844
1377.77	235.935
1381.99	195.06
1386.22	105.889
1390.43	158.061
1394.65	194.464
1398.87	98.7031
1403.08	62.0908
1407.29	12.4131
1411.49	124.91
1415.69	6.08301
1419.89	16.9141
1424.09	10.2158
1428.29	60.04
1432.48	42.9815
1436.67	61.1201
1440.86	359.112
1445.04	118.982
1449.23	130.578
1453.4	156.619
1457.58	79.9092
1461.76	152.252
1465.93	90.5205
1470.1	23.2705
1474.26	163.43
1478.43	173.364
1482.59	196.336
1486.75	251.874
1490.9	194.41
1495.06	356.291
1499.21	252.188
1503.35	253.18
1507.5	118.706
1511.64	201.482
1515.78	266.152
1519.92	90.3447
1524.05	11.4551
1528.18	151.099
1532.31	137.783
1536.44	156.022
1540.56	61.9688
1544.69	73.6856
1548.8	254.787
1552.92	130.828
1557.03	26.3145
1561.14	90.084
1565.25	85.8574
1569.36	7.26172
