Measurement: Raman, 514 nm, ccw, Raman Data Processed
Mineral: Andalusite
Rruff sample: R050626
Ideal chemistry: Al_2_SiO_5_
Locality: Minas Gerais, Brazil
Source: Gemological Center
Description: Grayish brown fragment
Measured chemistry: (Al_1.99_Fe^3+^_0.01_)_Î£=1_Si_1.00_O_5_
Pin_id: L01690
Orientation: Laser parallel to b* (0 1 0). Fiducial mark perpendicular to laser is parallel to c [0 0 1]
Raman shift (cm-1)	intensity
123.058	0
127.979	16.0391
132.898	291.094
137.814	413.358
142.728	614.517
147.639	278.937
152.549	252.75
157.455	11.3518
162.359	11.147
167.261	176.517
172.161	132.726
177.058	25.1655
181.952	289.187
186.845	542.468
191.734	995.116
196.622	1313
201.507	1626.62
206.389	1259.67
211.269	431.856
216.147	217.865
221.022	94.3227
225.895	77.9878
230.765	149.467
235.633	314.482
240.498	495.775
245.361	462.396
250.222	70.3892
255.08	25.2207
259.936	181.582
264.789	56.2144
269.64	166.47
274.488	745.837
279.334	2436.59
284.178	8055.24
289.019	16518.4
293.857	17683.9
298.693	6995.12
303.527	1533.04
308.358	1137.67
313.187	6730.41
318.013	15977.7
322.837	18910.6
327.659	8002.81
332.478	1878.49
337.294	939.031
342.108	1060.59
346.92	2809.28
351.729	8511.12
356.535	15941.1
361.34	15725.3
366.141	8580.59
370.94	4662.07
375.737	3008.62
380.531	2033.21
385.323	2153.84
390.113	2190.51
394.9	2115.18
399.684	1595.6
404.466	1736.56
409.245	2340.48
414.022	3878.14
418.797	4557.22
423.569	3033.05
428.338	1238.65
433.105	707.368
437.87	739.225
442.632	1432.22
447.391	2758.37
452.149	3448.89
456.903	1327.76
461.655	9.26025
466.405	196.578
471.152	234.131
475.897	33.0303
480.639	70.7383
485.378	204.672
490.116	327.852
494.85	515.45
499.582	800.356
504.312	1479.27
509.039	2024.11
513.764	2190.85
518.486	2256.48
523.206	2249.96
527.923	2423.28
532.638	3213.41
537.35	4573.33
542.059	6230.39
546.766	8537.68
551.471	10367.4
556.173	8982.65
560.873	6748.98
565.57	5947.86
570.264	6068.26
574.957	5691.15
579.646	4963.9
584.333	3927.23
589.018	3206.28
593.7	2955.68
598.379	3122.93
603.056	3329.31
607.73	4234.58
612.402	5144.96
617.072	5821.98
621.739	6411.86
626.403	6758
631.065	7149.34
635.724	6723.83
640.381	6121.5
645.035	5909.73
649.687	5174.92
654.336	3858.04
658.983	2974.04
663.627	2467.91
668.268	939.599
672.907	185.084
677.544	0.666504
682.178	111.06
686.809	227.627
691.438	108.949
696.065	185.664
700.688	389.899
705.31	857.733
709.929	1768.14
714.545	2846.89
719.158	2873.94
723.77	1341.5
728.378	547.783
732.984	545.326
737.588	405.763
742.189	273.259
746.787	219.933
751.383	180.355
755.976	291.861
760.567	197.71
765.155	110.989
769.741	72.5371
774.324	127.541
778.904	374.883
783.482	453.867
788.058	751.931
792.631	1059.07
797.201	1697.29
801.769	2522.58
806.334	3831.95
810.897	5784.4
815.457	8605.13
820.014	10031
824.569	8649.61
829.122	6111.92
833.671	4354.05
838.219	2685.39
842.763	1173.96
847.306	379.767
851.845	44.2417
856.382	184.193
860.917	116.448
865.448	46.8555
869.978	96.2656
874.505	0.921387
879.029	271.868
883.55	532.777
888.069	671.512
892.586	1366.53
897.1	2734.49
901.611	4618.91
906.12	7905.71
910.626	15932.5
915.129	37342.4
919.63	54706.9
924.129	39118.2
928.625	26244.2
933.118	14967
937.609	7599.75
942.097	4561.32
946.582	3636.82
951.065	3215.28
955.546	2331.02
960.023	1519.26
964.499	1234.06
968.971	1393.71
973.441	1597.1
977.909	1571.62
982.374	1515.31
986.836	1635.29
991.295	1837.26
995.753	2875.61
1000.21	5798.38
1004.66	9078.61
1009.11	7222.27
1013.55	4213.12
1018	3285.41
1022.44	2860.35
1026.88	1974.21
1031.32	1416.89
1035.75	1280.66
1040.18	1026.87
1044.61	729.327
1049.04	638.205
1053.46	795.227
1057.88	1778.42
1062.3	4362.71
1066.71	5714.08
1071.13	2856.53
1075.54	1395.95
1079.94	782.307
1084.35	426.509
1088.75	318.565
1093.15	183.472
1097.55	36.8184
1101.94	103.666
1106.34	401.956
1110.73	446.05
1115.11	217.945
1119.5	159.731
1123.88	322.125
1128.26	240.681
1132.63	41.8584
1137.01	128.397
1141.38	74.8242
1145.75	52.3945
1150.12	17.6855
1154.48	193.315
1158.84	267.969
1163.2	135.066
1167.55	185.392
1171.91	246.705
1176.26	344.577
1180.61	254.1
1184.95	299.867
1189.29	346.991
1193.63	407.36
1197.97	344.267
1202.31	296.261
1206.64	293.329
1210.97	184.075
1215.29	244.81
1219.62	231.162
1223.94	176.408
1228.26	111.857
1232.57	128.601
1236.89	79.4424
1241.2	20.3633
1245.51	82.3887
1249.81	26.5752
1254.12	209.837
1258.42	42.3565
1262.72	250.597
1267.01	60.5674
1271.3	104.36
1275.59	124.861
1279.88	73.0459
1284.17	193.15
1288.45	54.0586
1292.73	161.04
1297.01	49.4795
1301.28	57.6211
1305.55	180.231
1309.82	45.459
1314.09	63.0654
1318.35	11.6406
1322.61	2.44238
1326.87	60.5508
1331.13	59.2969
1335.38	232.176
1339.63	155.106
1343.88	270.532
1348.12	167.123
1352.37	313.299
1356.61	340.368
1360.85	394.031
1365.08	385.853
1369.31	619.751
1373.54	625.341
1377.77	540.39
1381.99	666.44
1386.22	405.016
1390.43	480.428
1394.65	462.059
1398.87	577.202
1403.08	485.147
1407.29	367.697
1411.49	330.96
1415.69	403.822
1419.89	299.72
1424.09	330.185
1428.29	365.245
1432.48	411.356
1436.67	500.817
1440.86	556.457
1445.04	671.29
1449.23	550.382
1453.4	580.696
1457.58	485.593
1461.76	345.873
1465.93	476.337
1470.1	323.88
1474.26	388.3
1478.43	211.866
1482.59	245.886
1486.75	118.4
1490.9	25.1475
1495.06	20.8076
1499.21	29.3867
1503.35	53.166
1507.5	11.8164
1511.64	93.4902
1515.78	82.2012
1519.92	44.3994
1524.05	44.6074
1528.18	204.222
1532.31	159.683
1536.44	143.898
1540.56	108.786
1544.69	239.073
1548.8	308.842
1552.92	343.843
1557.03	284.601
1561.14	173.11
1565.25	92.4492
1569.36	1.4043
