Measurement: Raman, 514 nm, ccw, Raman Data Processed
Mineral: Andalusite
Rruff sample: R060197
Ideal chemistry: Al_2_SiO_5_
Locality: Brazil
Source: Marcus Origlieri
Description: Green colored water worn pebble
Measured chemistry: (Al_1.97_Mn^3+^_0.03_)_Î£=2_Si_1.00_O_5_
Pin_id: L01138
Orientation: Laser parallel to -b* (0 -1 0). Fiducial mark perpendicular to laser is parallel to -c [0 0 -1]
Raman shift (cm-1)	intensity
123.058	0
127.979	96.3828
132.898	15.4209
137.814	191.166
142.728	36.3565
147.639	92.3418
152.549	113.186
157.455	98.8769
162.359	121.476
167.261	419.802
172.161	348.376
177.058	321.909
181.952	530.167
186.845	570.449
191.734	951.071
196.622	1154.81
201.507	945.469
206.389	237.031
211.269	115.471
216.147	173.711
221.022	1.31445
225.895	22.6895
230.765	15.4766
235.633	65.1934
240.498	1.6084
245.361	101.933
250.222	337.519
255.08	700.091
259.936	2131.6
264.789	2402.47
269.64	3481.32
274.488	6518.42
279.334	12173.7
284.178	24570.6
289.019	33707
293.857	21169.8
298.693	9735.83
303.527	5328.02
308.358	4872.45
313.187	9086.16
318.013	14294.1
322.837	9362.84
327.659	5270.25
332.478	4114.74
337.294	3623.78
342.108	3558.95
346.92	4502.5
351.729	6676.19
356.535	8147.1
361.34	5205.6
366.141	2911.9
370.94	1824.01
375.737	1967.47
380.531	1716.23
385.323	931.875
390.113	476.285
394.9	224.519
399.684	300.198
404.466	194.334
409.245	284.918
414.022	457.943
418.797	458.431
423.569	445.376
428.338	139.77
433.105	170.003
437.87	16.9492
442.632	425.763
447.391	1501.07
452.149	1246.89
456.903	474.255
461.655	579.144
466.405	775.529
471.152	1311.42
475.897	1580.82
480.639	1240.72
485.378	582.108
490.116	6.00977
494.85	159.494
499.582	31.6719
504.312	149.065
509.039	479.283
513.764	586.088
518.486	465.516
523.206	587.287
527.923	546.688
532.638	760.504
537.35	1559.66
542.059	3538.15
546.766	6652.96
551.471	5017.08
556.173	1920.51
560.873	1240.24
565.57	962.941
570.264	1024.24
574.957	953.801
579.646	815.023
584.333	943.312
589.018	841.295
593.7	1078.3
598.379	1184.62
603.056	1052.85
607.73	914.258
612.402	551.828
617.072	485.549
621.739	363.41
626.403	158.394
631.065	37.623
635.724	265.441
640.381	73.3906
645.035	39.8301
649.687	150.182
654.336	2.99414
658.983	343.092
663.627	452.246
668.268	93.459
672.907	327.721
677.544	407.018
682.178	770.35
686.809	970.701
691.438	1291.07
696.065	1428.44
700.688	1696.02
705.31	2317.96
709.929	2144.97
714.545	1886.36
719.158	1174.54
723.77	256.264
728.378	149.955
732.984	60.4004
737.588	369.467
742.189	891.277
746.787	1240.85
751.383	1379.18
755.976	1269.27
760.567	1252.11
765.155	1111.72
769.741	1112.74
774.324	1286.91
778.904	2186.55
783.482	3770.65
788.058	5704.65
792.631	5722.73
797.201	3887.84
801.769	2579.81
806.334	1382.64
810.897	863.342
815.457	133.906
820.014	293.332
824.569	437.615
829.122	487.756
833.671	426.758
838.219	241.615
842.763	120.93
847.306	265.994
851.845	133.461
856.382	66.0352
860.917	339.19
865.448	594.838
869.978	572.824
874.505	441.984
879.029	555.106
883.55	609.148
888.069	488.223
892.586	730.322
897.1	1443.79
901.611	2504.65
906.12	5237.1
910.626	13431.6
915.129	31021.9
919.63	29096.6
924.129	15229.4
928.625	9322.47
933.118	5432.53
937.609	3605.55
942.097	2914.51
946.582	3130.41
951.065	2729.23
955.546	2083.97
960.023	1906.63
964.499	2104.21
968.971	2147.72
973.441	1891.94
977.909	1365.24
982.374	803.043
986.836	401.709
991.295	45.9141
995.753	48.6758
1000.21	285.799
1004.66	668.389
1009.11	1608.46
1013.55	3199.48
1018	3936.24
1022.44	3176.42
1026.88	2442.58
1031.32	1786.98
1035.75	1461.54
1040.18	1276.89
1044.61	1628.1
1049.04	2357.43
1053.46	5247.79
1057.88	10003.7
1062.3	7648.31
1066.71	3943.31
1071.13	2277.94
1075.54	1743.96
1079.94	1564.8
1084.35	1365.45
1088.75	1413.93
1093.15	1285.23
1097.55	1623.35
1101.94	2046.28
1106.34	2506.03
1110.73	1995.84
1115.11	1185.28
1119.5	1100.72
1123.88	754.229
1128.26	483.699
1132.63	382.623
1137.01	111.353
1141.38	345.877
1145.75	17.1836
1150.12	58.1777
1154.48	59.7617
1158.84	103.191
1163.2	38.5352
1167.55	220.705
1171.91	15.8457
1176.26	208.512
1180.61	55.5723
1184.95	47.8887
1189.29	843.191
1193.63	78.0273
1197.97	25.5918
1202.31	331.877
1206.64	262.928
1210.97	468.775
1215.29	609.436
1219.62	1092.92
1223.94	1488.33
1228.26	2099.66
1232.57	2436.93
1236.89	2955.04
1241.2	3350.05
1245.51	3964.24
1249.81	3917.47
1254.12	3632.55
1258.42	3703.5
1262.72	3220.36
1267.01	2658.93
1271.3	2066.4
1275.59	1784.09
1279.88	1417.83
1284.17	1143.97
1288.45	842.559
1292.73	874.775
1297.01	783.463
1301.28	841.01
1305.55	682.678
1309.82	490.898
1314.09	520.668
1318.35	698.664
1322.61	653.893
1326.87	572.809
1331.13	410.225
1335.38	635.896
1339.63	628.092
1343.88	480.764
1348.12	649.803
1352.37	880.287
1356.61	370.518
1360.85	772.438
1365.08	463.65
1369.31	709.127
1373.54	725.592
1377.77	736.561
1381.99	759.432
1386.22	496.231
1390.43	771.902
1394.65	496.012
1398.87	589.887
1403.08	865.721
1407.29	652.885
1411.49	685.982
1415.69	617.617
1419.89	788.365
1424.09	864.633
1428.29	450.143
1432.48	788.945
1436.67	709.805
1440.86	695.008
1445.04	611.293
1449.23	343.227
1453.4	306.535
1457.58	314.41
1461.76	165.762
1465.93	75.2617
1470.1	205.184
1474.26	115.414
1478.43	98.0625
1482.59	3.75
1486.75	268.445
1490.9	214.051
1495.06	119.223
1499.21	157.273
1503.35	100.727
1507.5	111.336
1511.64	27.7266
1515.78	191.09
1519.92	238.754
1524.05	242.07
1528.18	271.367
1532.31	16.0234
1536.44	39.8398
1540.56	381.176
1544.69	129.945
1548.8	78.7188
1552.92	364.434
1557.03	402.996
1561.14	21.8125
1565.25	292.598
1569.36	3.28516
