Measurement: Raman, 514 nm, ccw, Raman Data Processed
Mineral: Andalusite
Rruff sample: R050258
Ideal chemistry: Al_2_SiO_5_
Locality: Bautista Canyon, near Hemet, Riverside County, California, USA
Source: Marcus Origlieri
Description: Brown fragment
Measured chemistry: Al_2.00_Si_1.00_O_5_
Pin_id: M00252
Orientation: Laser parallel to b* (0 1 0). Fiducial mark perpendicular to laser is parallel to c [0 0 1]
Raman shift (cm-1)	intensity
111.976	0
116.903	163.457
121.827	230.204
126.749	122.996
131.668	310.353
136.585	481.357
141.5	328.815
146.412	290.415
151.321	168.822
156.229	116.71
161.134	22.2236
166.036	63.2227
170.936	60.5312
175.834	253.924
180.729	250.391
185.622	335.388
190.512	617.215
195.4	944.576
200.286	651.743
205.169	559.834
210.049	274.927
214.928	295.938
219.803	402.231
224.677	397.364
229.548	415.773
234.416	315.749
239.282	469.295
244.146	264.426
249.007	119.151
253.866	138.474
258.722	41.2685
263.576	38.1826
268.427	143.474
273.276	224.099
278.123	805.569
282.967	2507.27
287.809	5446.97
292.648	4229.59
297.485	926.14
302.319	130.487
307.151	251.123
311.98	2817.42
316.807	8578.34
321.631	6505.33
326.454	1715.36
331.273	286.816
336.09	60.9014
340.905	471.431
345.717	1573.21
350.527	4713.42
355.334	9396.92
360.139	7484.81
364.941	4053.23
369.741	2587.15
374.538	2037.51
379.333	1596.28
384.126	1731.44
388.916	1891.01
393.703	1850.97
398.488	1644.32
403.271	1544.8
408.051	1500.45
412.828	1310.24
417.603	1480.22
422.376	1396.75
427.146	1196.77
431.914	935.275
436.679	1228.24
441.442	1489.68
446.202	2402.21
450.96	2675.79
455.715	735.262
460.467	236.006
465.218	80.1133
469.965	164.057
474.711	52.7363
479.454	98.5371
484.194	151.428
488.932	92.2519
493.667	535.268
498.4	1123.8
503.13	1854.83
507.858	2139.3
512.583	2336.17
517.306	2193.43
522.026	2269.08
526.744	2484.1
531.459	3310.48
536.172	4310.22
540.882	5309.3
545.59	6536.1
550.295	7500.48
554.998	6806.72
559.698	5756.57
564.396	5699.19
569.091	5619.03
573.784	5176.12
578.474	4481.77
583.162	3747.64
587.847	3121.43
592.529	2712.23
597.209	2706.95
601.887	2978.15
606.562	3769.14
611.235	4715.24
615.905	5551.12
620.572	5943.65
625.237	6203.03
629.9	6529.89
634.56	6051
639.217	5745.16
643.872	4990.94
648.524	4678.36
653.174	3210.69
657.821	1940.89
662.466	1203.95
667.108	334.85
671.748	314.553
676.385	150.043
681.02	206.709
685.652	195.131
690.281	7.75391
694.908	229.15
699.533	331.033
704.155	726.537
708.774	1187.3
713.391	1911.58
718.005	1493.22
722.617	655.492
727.226	638.439
731.833	544.082
736.437	312.06
741.039	262.992
745.638	46.082
750.234	19.5059
754.828	370.469
759.419	114.766
764.008	2.37695
768.595	223.658
773.178	331.611
777.759	314.469
782.338	588.262
786.914	817.08
791.488	1051.94
796.059	1659.82
800.627	2388.73
805.193	3650.64
809.756	5461.54
814.317	7707.43
818.875	8458.63
823.431	6993.69
827.984	4465.02
832.534	3022.75
837.082	1853.1
841.627	741.074
846.17	153.217
850.71	95.0644
855.248	317.883
859.783	16.9043
864.316	34.3281
868.846	124.531
873.373	154.006
877.898	129.666
882.42	3.48438
886.94	479.799
891.457	850.42
895.971	1723.45
900.483	2648.74
904.993	4259.08
909.5	7795.33
914.004	17539.1
918.505	23450.2
923.004	12581
927.501	7037.15
931.995	4097.48
936.486	2634.06
940.975	1679.9
945.461	1957.04
949.945	1510.49
954.426	1386.33
958.904	1122.73
963.38	1288.68
967.853	1387.54
972.324	1159.65
976.792	1523.09
981.258	1828.53
985.72	1914.49
990.181	1748.71
994.639	2777.55
999.094	5478.8
1003.55	8190.96
1008	5749.7
1012.44	3066.97
1016.89	1751.03
1021.33	1645.9
1025.77	1320.51
1030.21	1198.88
1034.64	1208.51
1039.07	963.43
1043.5	678.711
1047.93	351.438
1052.35	203.363
1056.78	462.406
1061.19	628.559
1065.61	710.113
1070.02	386.945
1074.43	580.078
1078.84	440.398
1083.25	386.973
1087.65	269.816
1092.05	210.809
1096.45	262.977
1100.85	186.84
1105.24	171.305
1109.63	102.879
1114.02	9.35547
1118.4	53.2109
1122.78	298.184
1127.16	309.637
1131.54	122.5
1135.92	83.6094
1140.29	261.875
1144.66	278.949
1149.02	277.891
1153.39	436.133
1157.75	360.547
1162.11	14.0664
1166.46	479.062
1170.82	447.582
1175.17	539.5
1179.52	279.336
1183.86	542.535
1188.21	430.531
1192.55	392.481
1196.89	397
1201.22	116.602
1205.55	675.051
1209.88	268.973
1214.21	535.828
1218.54	249.289
1222.86	253.012
1227.18	105.965
1231.5	317.062
1235.81	26.668
1240.12	132.75
1244.43	265.609
1248.74	340.266
1253.04	206.438
1257.34	160.356
1261.64	293.742
1265.94	471.289
1270.23	183.527
1274.52	147.297
1278.81	8.19531
1283.1	264.066
1287.38	231.266
1291.66	229.594
1295.94	42.2695
1300.21	182.559
1304.48	30.1016
1308.75	36.0586
1313.02	28.8359
1317.29	49.9297
1321.55	18.7344
1325.81	72.3047
1330.06	333.461
1334.32	207.809
1338.57	129.488
1342.82	535.438
1347.06	399.762
1351.31	184.691
1355.55	457.945
1359.79	622.246
1364.02	206.254
1368.26	259.344
1372.49	502.461
1376.71	380.641
1380.94	560.863
1385.16	267.824
1389.38	449.004
1393.6	109.238
1397.81	453.516
1402.02	369.852
1406.23	106.137
1410.44	153.363
1414.64	325.856
1418.85	326.523
1423.04	182.375
1427.24	74.582
1431.43	193.254
1435.62	182.266
1439.81	569.332
1444	340.863
1448.18	634.387
1452.36	339.91
1456.54	278.926
1460.71	521.535
1464.89	570.012
1469.06	304.348
1473.22	208.348
1477.39	242.301
1481.55	96.8438
1485.71	279.207
1489.86	34.8867
1494.02	155.731
1498.17	128.801
1502.32	157.078
1506.46	287.215
1510.61	209.664
1514.75	530.141
1518.88	73.4297
1523.02	181.723
1527.15	229.234
1531.28	634.566
1535.41	345.961
1539.53	578.68
1543.66	397.586
1547.78	15.5703
1551.89	341.844
1556.01	671.758
1560.12	284.781
1564.23	174.359
1568.33	1.86328
