Measurement: Raman, 514 nm, ccw, Raman Data Processed
Mineral: Andalusite
Rruff sample: R050561
Ideal chemistry: Al_2_SiO_5_
Locality: Cargo Muchacho Mountain, Imperial County, California
Source: Dave Bunk Minerals
Description: Brown coarsely crystalline massive
Measured chemistry: (Al_1.98_Fe^3+^_0.02_)_Î£=2_Si_1.00_O_5_
Pin_id: M00245
Orientation: Laser parallel to -b* (0 -1 0). Fiducial mark perpendicular to laser is parallel to -c [0 0 -1]
Raman shift (cm-1)	intensity
157.455	0
162.359	14.4722
167.261	152.98
172.161	1.07129
177.058	51.7661
181.952	25.7861
186.845	830.74
191.734	2778.77
196.622	873.419
201.507	1048.66
206.389	433.095
211.269	347.387
216.147	277.545
221.022	331.953
225.895	309.1
230.765	347.562
235.633	345.207
240.498	296.606
245.361	480.385
250.222	569.377
255.08	574.443
259.936	952.221
264.789	1263.76
269.64	2205.15
274.488	3982.81
279.334	8755.69
284.178	19397.8
289.019	35379.1
293.857	44098.6
298.693	19818.3
303.527	6905.62
308.358	3970.3
313.187	6017.36
318.013	11316.1
322.837	16782
327.659	7852.69
332.478	3627.17
337.294	2381.39
342.108	1836.19
346.92	1864.45
351.729	2900.28
356.535	4994.78
361.34	5818.61
366.141	3212.01
370.94	1863.1
375.737	1469.1
380.531	1630.51
385.323	1344.49
390.113	798.38
394.9	496.146
399.684	492.767
404.466	572.188
409.245	896.326
414.022	1151.14
418.797	1724.61
423.569	1894.73
428.338	1633.46
433.105	1958.8
437.87	2324.72
442.632	2690.21
447.391	3473.28
452.149	4925.21
456.903	4072.1
461.655	1541.92
466.405	1144.58
471.152	638.039
475.897	502.225
480.639	418.232
485.378	182.059
490.116	83.8799
494.85	183.429
499.582	203.793
504.312	234.66
509.039	66.1943
513.764	1.64258
518.486	284.325
523.206	75.708
527.923	83.4873
532.638	261.673
537.35	710.247
542.059	1833.19
546.766	3926.48
551.471	6611.11
556.173	4571.06
560.873	2161.3
565.57	1427.83
570.264	1177.63
574.957	1375.71
579.646	1496.15
584.333	1603.11
589.018	2104.45
593.7	2429.03
598.379	2889.42
603.056	3499.97
607.73	3899.5
612.402	3710.84
617.072	3484.45
621.739	3334.22
626.403	2922.47
631.065	2413.76
635.724	1715.23
640.381	1345.57
645.035	845.331
649.687	683.122
654.336	572.901
658.983	624.598
663.627	784.869
668.268	603.368
672.907	589.185
677.544	656.999
682.178	779.106
686.809	788.059
691.438	939.848
696.065	871.46
700.688	1022.88
705.31	1123.11
709.929	1329.14
714.545	1462.17
719.158	1180.65
723.77	461.55
728.378	244.001
732.984	7.85547
737.588	27.1074
742.189	106.91
746.787	203.315
751.383	94.332
755.976	116.932
760.567	27.0742
765.155	18.8672
769.741	120.844
774.324	48.1602
778.904	108.947
783.482	83.0293
788.058	124.2
792.631	332.179
797.201	662.879
801.769	1371.31
806.334	2002.47
810.897	1520.34
815.457	1001.93
820.014	577.257
824.569	616.311
829.122	849.102
833.671	1372.64
838.219	781.92
842.763	292.956
847.306	81.7519
851.845	27.1973
856.382	77.874
860.917	15.7627
865.448	117.899
869.978	155.147
874.505	214.559
879.029	227.291
883.55	368.655
888.069	545.04
892.586	881.367
897.1	1502.06
901.611	2518.05
906.12	5163.07
910.626	13302.6
915.129	30951.2
919.63	45132.6
924.129	24102.2
928.625	11607.2
933.118	6145.24
937.609	3302.52
942.097	2389.89
946.582	2448.31
951.065	2627.82
955.546	1721.43
960.023	781.207
964.499	385.063
968.971	111.006
973.441	246.04
977.909	208.177
982.374	221.427
986.836	119.057
991.295	135.942
995.753	22.2598
1000.21	286.47
1004.66	579.578
1009.11	1479.08
1013.55	2722.6
1018	4016.56
1022.44	3617.9
1026.88	2253.28
1031.32	1394.07
1035.75	1077.56
1040.18	959.281
1044.61	1025.05
1049.04	1426.89
1053.46	2934.7
1057.88	7199.9
1062.3	14616.7
1066.71	13644
1071.13	5500.96
1075.54	2558.43
1079.94	1569.51
1084.35	1257.23
1088.75	1082.14
1093.15	678.651
1097.55	738.835
1101.94	799.882
1106.34	1015.53
1110.73	901.863
1115.11	532.461
1119.5	338.188
1123.88	349.58
1128.26	112.09
1132.63	17.5371
1137.01	121.11
1141.38	29.5518
1145.75	128.995
1150.12	93.2061
1154.48	63.373
1158.84	7.91406
1163.2	125.492
1167.55	58.2734
1171.91	19.251
1176.26	33.457
1180.61	45.0742
1184.95	28.2402
1189.29	22.874
1193.63	55.9834
1197.97	120.439
1202.31	168.657
1206.64	20.7949
1210.97	23.3389
1215.29	46.5566
1219.62	13.4346
1223.94	45.5185
1228.26	88.6035
1232.57	178.247
1236.89	126.956
1241.2	112.268
1245.51	10.4463
1249.81	40.6846
1254.12	143.702
1258.42	141.887
1262.72	162.869
1267.01	161.915
1271.3	227.029
1275.59	101.894
1279.88	299.2
1284.17	239.011
1288.45	305.144
1292.73	272.318
1297.01	125.392
1301.28	158.641
1305.55	287.192
1309.82	222.208
1314.09	163.564
1318.35	211.441
1322.61	146.749
1326.87	161.278
1331.13	148.54
1335.38	152.939
1339.63	57.6728
1343.88	45.877
1348.12	122.246
1352.37	204.812
1356.61	109.408
1360.85	45.9531
1365.08	226.097
1369.31	118.08
1373.54	95.5674
1377.77	232.836
1381.99	272.274
1386.22	51.376
1390.43	41.4775
1394.65	183.377
1398.87	14.1113
1403.08	82.501
1407.29	96.5586
1411.49	117.45
1415.69	52.0918
1419.89	108.185
1424.09	37.0185
1428.29	19.3633
1432.48	99.415
1436.67	68.4043
1440.86	99.4727
1445.04	221.606
1449.23	240.743
1453.4	144.803
1457.58	46.3906
1461.76	184.931
1465.93	176.965
1470.1	104.478
1474.26	187.847
1478.43	68.751
1482.59	123.565
1486.75	183.911
1490.9	166.607
1495.06	21.418
1499.21	97.7695
1503.35	228.366
1507.5	56.7022
1511.64	75.126
1515.78	146.514
1519.92	96.2227
1524.05	119.897
1528.18	84.2344
1532.31	50.5586
1536.44	142.036
1540.56	110.164
1544.69	131.103
1548.8	173.419
1552.92	272.267
1557.03	174.102
1561.14	142.394
1565.25	183.335
1569.36	41.1084
