Measurement: Raman, 514 nm, ccw, Raman Data Processed
Mineral: Andalusite
Rruff sample: R060197
Ideal chemistry: Al_2_SiO_5_
Locality: Brazil
Source: Marcus Origlieri
Description: Green colored water worn pebble
Measured chemistry: (Al_1.97_Mn^3+^_0.03_)_Î£=2_Si_1.00_O_5_
Pin_id: M00401
Orientation: Laser parallel to c* (0 0 1). Fiducial mark perpendicular to laser is parallel to a [1 0 0]
Raman shift (cm-1)	intensity
91.012	0
95.948	103.448
100.883	412.231
105.815	1722.75
110.744	3132.68
115.671	2175.37
120.596	128.108
125.519	56.5225
130.439	111.492
135.356	88.2647
140.271	424.08
145.184	218.86
150.094	246.47
155.002	496.098
159.908	637.574
164.811	1392.71
169.711	1557.61
174.61	1342.72
179.505	1128.85
184.399	1784.42
189.29	3668.18
194.178	4636.23
199.064	4490.38
203.948	2614.26
208.829	1381.76
213.708	1428.92
218.585	1158.81
223.459	34.4775
228.33	266.625
233.199	77.8521
238.066	183.589
242.93	336.029
247.792	652.367
252.651	4414.47
257.508	5982.37
262.363	11871.5
267.215	7029.86
272.064	4640.56
276.912	9000.14
281.756	16448.6
286.598	21612.5
291.438	21052.5
296.276	12333.5
301.111	5716.75
305.943	4925.19
310.773	9680.21
315.601	14064.7
320.426	14563
325.248	8485.13
330.068	4808.06
334.886	3989.79
339.701	4457.32
344.514	6634.68
349.324	11347.3
354.132	15130.9
358.938	14396
363.741	8459.74
368.541	4168.17
373.339	2352.05
378.135	1509.7
382.928	1276.64
387.718	1059.76
392.506	677.052
397.292	14.5967
402.075	6.45898
406.856	85.8262
411.634	475.65
416.41	628.32
421.183	493.954
425.954	117.495
430.722	88.9658
435.488	48.3818
440.251	527.817
445.012	1343.3
449.77	1867.84
454.526	1511.52
459.28	1078.34
464.03	1653.32
468.779	2629.45
473.525	2983.73
478.268	3087.16
483.009	2276.73
487.747	969.859
492.483	154.785
497.217	43.415
501.948	176.312
506.676	516.049
511.402	779.861
516.125	454.631
520.846	123.707
525.565	33.7207
530.281	129.415
534.994	73.1807
539.705	1486.56
544.413	3227.12
549.119	3883.63
553.822	2388.47
558.523	1037.51
563.222	938.839
567.917	1190.12
572.611	1370.74
577.302	1034.31
581.99	983.405
586.676	1338.21
591.359	1537.44
596.04	1692.14
600.718	1513.59
605.394	1248.76
610.067	967.565
614.737	599.132
619.406	434.276
624.071	47.0205
628.734	153.835
633.395	162.214
638.053	110.841
642.708	336.578
647.361	298.588
652.012	79.0303
656.66	504.869
661.305	984.055
665.948	1342.71
670.588	1729.48
675.226	2564.9
679.861	3367.18
684.494	3974.01
689.124	4742.63
693.752	5684.91
698.377	7503.88
702.999	9726.08
707.619	10934.3
712.237	8456.96
716.852	5290.48
721.464	2669.07
726.074	1082.94
730.681	571.344
735.286	728.265
739.888	1341.68
744.488	1795.56
749.085	2133.88
753.68	2193.63
758.272	1873.78
762.861	1618.32
767.448	1410.69
772.033	1345.39
776.614	2220.87
781.194	3915.16
785.77	6402.88
790.345	7675.01
794.916	5992.53
799.485	3834.43
804.052	2379.73
808.616	1654.57
813.177	1130.11
817.736	603.021
822.292	114.194
826.846	156.136
831.397	38.7549
835.945	28.0791
840.491	253.144
845.035	357.785
849.576	342.136
854.114	8.00293
858.65	402.53
863.183	969.148
867.713	1263.05
872.241	1204.26
876.767	1208.78
881.29	1106.62
885.81	1161.82
890.328	1389.51
894.843	1759.77
899.356	2945.86
903.866	5440.2
908.373	13216.1
912.878	30896.6
917.38	42730.9
921.88	32731.1
926.377	19535.1
930.872	12454.6
935.364	8394.69
939.853	7134.2
944.34	8096.16
948.824	8550.58
953.306	7178.45
957.785	4946.69
962.261	3860.34
966.735	3375.39
971.207	2727.81
975.675	2110.01
980.141	1751.8
984.605	1171.14
989.066	729.17
993.524	675.546
997.98	532.47
1002.43	1127.02
1006.88	1684.56
1011.33	3242.08
1015.78	5059.01
1020.22	5649.74
1024.66	3935.12
1029.1	2755.68
1033.53	2031.73
1037.97	1773.88
1042.4	1643.55
1046.82	2060
1051.25	3157.71
1055.67	5087.26
1060.09	6218.02
1064.51	5325.08
1068.92	4183.72
1073.33	3670.8
1077.74	3198.78
1082.15	3089.49
1086.55	2993.01
1090.95	3064.38
1095.35	3152.89
1099.75	3710.51
1104.14	3929.29
1108.53	3860.51
1112.92	2585.19
1117.31	2242.85
1121.69	2584.16
1126.07	1860.85
1130.45	1013.36
1134.82	363.973
1139.19	516.637
1143.57	343.385
1147.93	88.8555
1152.3	137.918
1156.66	27.5801
1161.02	158.951
1165.38	174.717
1169.73	115.147
1174.08	232.182
1178.43	132.928
1182.78	123.008
1187.12	343.734
1191.46	47.332
1195.8	100.045
1200.14	370.723
1204.47	425.203
1208.8	688.107
1213.13	1383.16
1217.46	2402.54
1221.78	3868.92
1226.1	6564.86
1230.42	8701.99
1234.73	10167
1239.04	11614
1243.35	13188.9
1247.66	13975.2
1251.97	13904.3
1256.27	13047
1260.57	12109.1
1264.86	10853.7
1269.16	8752.86
1273.45	6988.49
1277.74	5448.47
1282.03	3678.07
1286.31	2754.88
1290.59	2139
1294.87	1543.48
1299.14	1037.23
1303.42	906.973
1307.69	669.129
1311.95	435.031
1316.22	156.662
1320.48	130.381
1324.74	146.32
1329	220.039
1333.26	48.0273
1337.51	132.711
1341.76	209.211
1346	44.3652
1350.25	42.0566
1354.49	27.4531
1358.73	14.8965
1362.96	2.06055
1367.2	55.1445
1371.43	66.5684
1375.66	255.01
1379.88	318.342
1384.11	354.603
1388.33	478.803
1392.54	619.957
1396.76	941.109
1400.97	1249.35
1405.18	1565.56
1409.39	1526.94
1413.59	1896.71
1417.8	1900.08
1421.99	1873.44
1426.19	1989.23
1430.38	1935.97
1434.58	1613.52
1438.77	1556.9
1442.95	1305.44
1447.13	977.652
1451.32	1136.92
1455.49	830.75
1459.67	615.25
1463.84	583.072
1468.01	591.963
1472.18	408.713
1476.35	420.69
1480.51	375.455
1484.67	526.549
1488.83	339.022
1492.98	340.922
1497.13	421.16
1501.28	371.594
1505.43	142.121
1509.57	460.428
1513.71	208.951
1517.85	295.824
1521.99	239.91
1526.12	170.441
1530.25	354.807
1534.38	91.1113
1538.5	41.5586
1542.62	25.3828
1546.74	214.809
1550.86	485.996
1554.98	530.295
1559.09	50.9746
1563.2	13.2188
1567.31	119.75
