Measurement: Raman, 514 nm, ccw, Raman Data Processed
Mineral: Andalusite
Rruff sample: R050258
Ideal chemistry: Al_2_SiO_5_
Locality: Bautista Canyon, near Hemet, Riverside County, California, USA
Source: Marcus Origlieri
Description: Brown fragment
Measured chemistry: Al_2.00_Si_1.00_O_5_
Pin_id: L01170
Orientation: Laser parallel to a* (1 0 0). Fiducial mark perpendicular to laser is parallel to -b [0 -1 0]
Raman shift (cm-1)	intensity
113.208	0
118.134	145.02
123.058	23.0742
127.979	10.5869
132.898	91.6094
137.814	183.185
142.728	237.514
147.639	141.212
152.549	295.117
157.455	208.618
162.359	73.6836
167.261	199.4
172.161	147.294
177.058	259.734
181.952	175.102
186.845	338.077
191.734	327.619
196.622	474.506
201.507	667.038
206.389	694.593
211.269	238.971
216.147	65.1436
221.022	47.6543
225.895	153.69
230.765	93.3701
235.633	154.719
240.498	53.7871
245.361	149.555
250.222	191.42
255.08	313.773
259.936	465.041
264.789	574.801
269.64	693.955
274.488	1450.73
279.334	3414.72
284.178	9360.75
289.019	21207.7
293.857	28975.4
298.693	12076.2
303.527	3867.27
308.358	1980.09
313.187	3373.47
318.013	8705.39
322.837	14899
327.659	6858.9
332.478	2321.61
337.294	1369.24
342.108	1017.27
346.92	871.683
351.729	1513.47
356.535	3956.21
361.34	5276.19
366.141	3175.18
370.94	1675.31
375.737	1069.67
380.531	936.334
385.323	752.518
390.113	445.681
394.9	470.075
399.684	223.724
404.466	176.613
409.245	439.894
414.022	1079.56
418.797	1914.57
423.569	1049.92
428.338	316.555
433.105	43.5547
437.87	80.4297
442.632	80.5996
447.391	374.512
452.149	1048.11
456.903	493.68
461.655	45.6816
466.405	0.175781
471.152	82.3457
475.897	106.42
480.639	19.418
485.378	184.568
490.116	202.035
494.85	88.6875
499.582	25.4746
504.312	75.7754
509.039	195.721
513.764	112.186
518.486	143.871
523.206	196.648
527.923	105.857
532.638	300.328
537.35	603.611
542.059	1267.33
546.766	2748.5
551.471	5243.76
556.173	4043.67
560.873	1672.81
565.57	773.852
570.264	492.562
574.957	492.625
579.646	342.065
584.333	31.377
589.018	65.4863
593.7	242.066
598.379	85.7285
603.056	456.478
607.73	444.334
612.402	235.039
617.072	250.902
621.739	279.348
626.403	481.199
631.065	287.148
635.724	308.147
640.381	122.478
645.035	339.815
649.687	118.336
654.336	197.725
658.983	476.42
663.627	689.727
668.268	245.514
672.907	198.053
677.544	13.6738
682.178	192.244
686.809	2.13672
691.438	240.111
696.065	69.0664
700.688	56.6914
705.31	215.992
709.929	435.662
714.545	1073.88
719.158	1148.81
723.77	733.053
728.378	299.984
732.984	121.07
737.588	70.3223
742.189	50.7754
746.787	124.732
751.383	35.0703
755.976	117.881
760.567	56.2285
765.155	7.89258
769.741	7.28125
774.324	171.932
778.904	4.08008
783.482	194.928
788.058	224.568
792.631	430.822
797.201	165.449
801.769	373.711
806.334	441.654
810.897	247.285
815.457	570.652
820.014	632.564
824.569	585.963
829.122	658.885
833.671	810.818
838.219	545.252
842.763	215.5
847.306	35.7266
851.845	137.029
856.382	5.39648
860.917	34.166
865.448	65.2324
869.978	193.938
874.505	50.959
879.029	217.623
883.55	324.072
888.069	334.234
892.586	586.918
897.1	1008.39
901.611	1936.55
906.12	2973.33
910.626	6899.63
915.129	18524.1
919.63	34882.3
924.129	22960.9
928.625	12190.7
933.118	6771
937.609	3431.44
942.097	1951
946.582	1918.48
951.065	1962.9
955.546	1218.31
960.023	617.709
964.499	270.133
968.971	177.516
973.441	74.8731
977.909	274.234
982.374	138.685
986.836	95.4609
991.295	22.4004
995.753	208.996
1000.21	33.4551
1004.66	366.539
1009.11	513.758
1013.55	1031.84
1018	1566.74
1022.44	1658.15
1026.88	1054.88
1031.32	648.578
1035.75	577.598
1040.18	500.772
1044.61	480.602
1049.04	659.719
1053.46	1112.96
1057.88	2568.39
1062.3	6229.38
1066.71	9263.41
1071.13	4970.19
1075.54	2146.72
1079.94	948.496
1084.35	428.453
1088.75	203.305
1093.15	318.822
1097.55	220.242
1101.94	441.201
1106.34	608.574
1110.73	805.223
1115.11	820.227
1119.5	170.219
1123.88	340.803
1128.26	252.068
1132.63	245.91
1137.01	56.9512
1141.38	63.3887
1145.75	54.1934
1150.12	153.772
1154.48	215.533
1158.84	92.3906
1163.2	213.867
1167.55	37.875
1171.91	286.867
1176.26	21.9629
1180.61	169.18
1184.95	78.6152
1189.29	215.086
1193.63	67.5957
1197.97	110.377
1202.31	83.0996
1206.64	0.742188
1210.97	96.8594
1215.29	224.193
1219.62	134.611
1223.94	82.209
1228.26	305.344
1232.57	262.812
1236.89	186.766
1241.2	21.4453
1245.51	148.309
1249.81	351.711
1254.12	196.227
1258.42	401.59
1262.72	293.172
1267.01	63.0547
1271.3	318.691
1275.59	488.137
1279.88	148.562
1284.17	429.508
1288.45	389.602
1292.73	218.211
1297.01	437.242
1301.28	364.617
1305.55	290.637
1309.82	243.293
1314.09	281.738
1318.35	419.676
1322.61	382.852
1326.87	142.352
1331.13	468.805
1335.38	212.418
1339.63	601.496
1343.88	422
1348.12	204.887
1352.37	198.879
1356.61	229.418
1360.85	374.992
1365.08	279.543
1369.31	116.383
1373.54	216.731
1377.77	482.316
1381.99	336.336
1386.22	242.328
1390.43	322.621
1394.65	353.047
1398.87	141.062
1403.08	105.828
1407.29	418.277
1411.49	180.648
1415.69	214.484
1419.89	232.555
1424.09	80.3281
1428.29	192.617
1432.48	169.918
1436.67	217.953
1440.86	79.4766
1445.04	107.996
1449.23	145.551
1453.4	291.356
1457.58	270.57
1461.76	209.824
1465.93	382.5
1470.1	230.664
1474.26	346.844
1478.43	437.055
1482.59	232.742
1486.75	208.141
1490.9	298.441
1495.06	179.859
1499.21	208.699
1503.35	344.012
1507.5	322.422
1511.64	358.578
1515.78	13.0859
1519.92	187.184
1524.05	226.059
1528.18	233.547
1532.31	360.723
1536.44	289.844
1540.56	271.324
1544.69	208.441
1548.8	52.0352
1552.92	486.402
1557.03	4.27734
1561.14	65.8906
1565.25	345.367
1569.36	141.606
