Measurement: Raman, 514 nm, ccw, Raman Data Processed
Mineral: Andalusite
Rruff sample: R050449
Ideal chemistry: Al_2_SiO_5_
Locality: Itinga, Minas Gerais, Brazil
Source: Marcus Origlieri
Description: Green fragment
Measured chemistry: Al_2.00_Fe^3+^_0.01_Si_0.99_O_5_
Pin_id: L01352
Orientation: Laser parallel to -c* (0 0 -1). Fiducial mark perpendicular to laser is parallel to a [1 0 0]
Raman shift (cm-1)	intensity
92.246	0
97.182	95.146
102.116	0.570801
107.047	164.828
111.976	589.405
116.903	468.565
121.827	236.92
126.749	145.714
131.668	275.532
136.585	121.232
141.5	192.347
146.412	56.4746
151.321	80.8603
156.229	33.2837
161.134	8.06641
166.036	154.163
170.936	76.8599
175.834	126.182
180.729	12.1821
185.622	219.844
190.512	666.123
195.4	676.395
200.286	557.383
205.169	2469.74
210.049	127.935
214.928	3.95166
219.803	25.7749
224.677	88.6284
229.548	66.8486
234.416	91.4492
239.282	602.752
244.146	771.21
249.007	625.123
253.866	580.915
258.722	670.327
263.576	900.206
268.427	1584.51
273.276	2975.1
278.123	5678.86
282.967	12966.9
287.809	28105.3
292.648	39132.2
297.485	18378.2
302.319	6012.44
307.151	3048.69
311.98	4547.69
316.807	10687.2
321.631	18243
326.454	10281.1
331.273	5081.18
336.09	4000.12
340.905	3264.41
345.717	3040.02
350.527	4596.63
355.334	9400.38
360.139	11567.4
364.941	6437.33
369.741	3061.59
374.538	1718.97
379.333	1342.69
384.126	1098.89
388.916	835.474
393.703	714.439
398.488	353.813
403.271	300.629
408.051	310.984
412.828	700.883
417.603	1200.18
422.376	785.819
427.146	208.762
431.914	74.9941
436.679	11.623
441.442	214.812
446.202	778.47
450.96	2249.45
455.715	993.734
460.467	33.2978
465.218	168.861
469.965	36.0488
474.711	201.033
479.454	155.413
484.194	202.185
488.932	151.41
493.667	83.9141
498.4	1.91992
503.13	101.622
507.858	248.576
512.583	398.837
517.306	376.465
522.026	218.405
526.744	444.507
531.459	615.959
536.172	932.59
540.882	2210.24
545.59	4400.53
550.295	6903.98
554.998	5328.98
559.698	2746
564.396	1671.71
569.091	1355.41
573.784	1225.69
578.474	1103.23
583.162	706.508
587.847	727.139
592.529	809.805
597.209	770.595
601.887	1026.19
606.562	1282.93
611.235	1030.06
615.905	1102.58
620.572	1276.58
625.237	1484.02
629.9	1473.13
634.56	1236.82
639.217	1100.01
643.872	1239.79
648.524	1233.73
653.174	910.544
657.821	730.14
662.466	797.458
667.108	312.492
671.748	68.2305
676.385	27.6162
681.02	28.5625
685.652	59.0566
690.281	14.4482
694.908	18.5039
699.533	242.954
704.155	336.094
708.774	500.92
713.391	1348.45
718.005	1684.8
722.617	1085.9
727.226	426.224
731.833	76.6953
736.437	120.931
741.039	58.1426
745.638	31.1982
750.234	21.8809
754.828	82.5723
759.419	79.3789
764.008	30.9609
768.595	78.3516
773.178	95.4727
777.759	99.707
782.338	120.587
786.914	42.8691
791.488	129.265
796.059	226.176
800.627	521.877
805.193	809.38
809.756	1098.15
814.317	1574.93
818.875	1898.75
823.431	1905.76
827.984	1604.51
832.534	1622.6
837.082	1215.82
841.627	654.383
846.17	183.911
850.71	54.5791
855.248	3.83398
859.783	3.81543
864.316	110.543
868.846	28.7461
873.373	87.1777
877.898	101.351
882.42	150.204
886.94	409.6
891.457	619.099
895.971	1377.09
900.483	2249.72
904.993	4058.11
909.5	8574.17
914.004	21863.7
918.505	42085.8
923.004	29099.9
927.501	13937.2
931.995	7943.78
936.486	4638.78
940.975	4109.13
945.461	5678.93
949.945	7820.27
954.426	5658.12
958.904	2381.56
963.38	980.693
967.853	643.385
972.324	288.57
976.792	281.26
981.258	355.433
985.72	35.5898
990.181	256.107
994.639	543.595
999.094	1061.12
1003.55	2312.65
1008	2685.58
1012.44	3644.99
1016.89	6735.14
1021.33	7251.94
1025.77	4184.8
1030.21	2164.07
1034.64	1393.45
1039.07	1131.04
1043.5	979.718
1047.93	1229.44
1052.35	1579.48
1056.78	3316.5
1061.19	8297.48
1065.61	11668.2
1070.02	5874.48
1074.43	2388.2
1078.84	1267.69
1083.25	804.72
1087.65	605.232
1092.05	696.638
1096.45	666.759
1100.85	1064.94
1105.24	1898.31
1109.63	2803.24
1114.02	2130.66
1118.4	1180.03
1122.78	677.689
1127.16	548.614
1131.54	168.484
1135.92	90.6221
1140.29	166.199
1144.66	66.0127
1149.02	8.99609
1153.39	0.055664
1157.75	9.91309
1162.11	14.8975
1166.46	74.4092
1170.82	15.8506
1175.17	62.6953
1179.52	3.30371
1183.86	134.934
1188.21	59.5772
1192.55	52.7803
1196.89	74.2217
1201.22	100.659
1205.55	69.7402
1209.88	79.1914
1214.21	8.58203
1218.54	64.5186
1222.86	80.9189
1227.18	98.418
1231.5	76.0898
1235.81	14.748
1240.12	64.3369
1244.43	58.3623
1248.74	143.852
1253.04	88.3877
1257.34	158.559
1261.64	202.525
1265.94	208.666
1270.23	120.831
1274.52	160.75
1278.81	271.86
1283.1	153.444
1287.38	226.289
1291.66	99.4756
1295.94	171.882
1300.21	211.067
1304.48	150.482
1308.75	124.228
1313.02	160.204
1317.29	173.438
1321.55	341.716
1325.81	165.983
1330.06	121.574
1334.32	43.1328
1338.57	4.82422
1342.82	38.8252
1347.06	73.0098
1351.31	161.912
1355.55	174.279
1359.79	260.71
1364.02	3.22168
1368.26	243.209
1372.49	205.68
1376.71	72.1162
1380.94	121.307
1385.16	247.357
1389.38	233.83
1393.6	124.02
1397.81	56.4717
1402.02	231.818
1406.23	124.306
1410.44	82.3574
1414.64	39.4238
1418.85	13.5957
1423.04	100.378
1427.24	15.0391
1431.43	58.8906
1435.62	129.198
1439.81	386.251
1444	455.267
1448.18	432.594
1452.36	433.657
1456.54	521.122
1460.71	343.441
1464.89	534.918
1469.06	220.761
1473.22	180.275
1477.39	193.851
1481.55	228.554
1485.71	174.417
1489.86	32.749
1494.02	185.235
1498.17	87.751
1502.32	82.6562
1506.46	104.596
1510.61	41.374
1514.75	102.915
1518.88	31.8105
1523.02	54.9609
1527.15	85.6387
1531.28	222.768
1535.41	31.4189
1539.53	205.815
1543.66	163.921
1547.78	120.907
1551.89	18.0537
1556.01	287.94
1560.12	146.252
1564.23	15.9365
1568.33	315.71
