Measurement: Raman, 514 nm, ccw, Raman Data Processed
Mineral: Andalusite
Rruff sample: R050449
Ideal chemistry: Al_2_SiO_5_
Locality: Itinga, Minas Gerais, Brazil
Source: Marcus Origlieri
Description: Green fragment
Measured chemistry: Al_2.00_Fe^3+^_0.01_Si_0.99_O_5_
Pin_id: L01352
Orientation: Laser parallel to -c* (0 0 -1). Fiducial mark perpendicular to laser is parallel to a [1 0 0]
Raman shift (cm-1)	intensity
92.246	0
97.182	138.334
102.116	130.663
107.047	307.307
111.976	1004.24
116.903	750.661
121.827	295.584
126.749	361.775
131.668	368.792
136.585	392.6
141.5	747.278
146.412	369.875
151.321	149.274
156.229	164.232
161.134	49.6309
166.036	12.8032
170.936	221.204
175.834	143.644
180.729	274.349
185.622	321.864
190.512	1144.51
195.4	1041.33
200.286	1150.15
205.169	1547.56
210.049	110.468
214.928	35.669
219.803	46.9551
224.677	41.5601
229.548	115.867
234.416	116.258
239.282	387.78
244.146	448.946
249.007	190.176
253.866	35.0967
258.722	98.7666
263.576	25.2173
268.427	290.599
273.276	794.61
278.123	1867.64
282.967	4754.73
287.809	12605.8
292.648	20232.9
297.485	8415.96
302.319	2335.93
307.151	578.795
311.98	1462.21
316.807	6450.75
321.631	14845.1
326.454	6086.27
331.273	1914.94
336.09	946.062
340.905	1041.64
345.717	1131.07
350.527	2920.35
355.334	7794.47
360.139	10758.4
364.941	5636.58
369.741	2860.78
374.538	1953.01
379.333	1423.42
384.126	1426.18
388.916	1659.79
393.703	1849.28
398.488	1119.68
403.271	953.831
408.051	1399.7
412.828	1592.98
417.603	2860.04
422.376	1895.95
427.146	959.7
431.914	471.272
436.679	294.657
441.442	714.847
446.202	1189.84
450.96	2055.79
455.715	793.732
460.467	31.4824
465.218	198.275
469.965	184.416
474.711	34.6582
479.454	211.693
484.194	290.869
488.932	207.172
493.667	201.594
498.4	537.959
503.13	1034.14
507.858	1644.01
512.583	1970.55
517.306	1909.73
522.026	1881.56
526.744	1897.97
531.459	2523.96
536.172	3215.49
540.882	4542.13
545.59	6253.99
550.295	8161.07
554.998	7671.05
559.698	5942.66
564.396	4951.97
569.091	4898.6
573.784	4860.52
578.474	4284.85
583.162	3523.21
587.847	2851.62
592.529	2492.3
597.209	2404.45
601.887	2592.23
606.562	3146.93
611.235	3697.31
615.905	4430.65
620.572	4941.97
625.237	5314.91
629.9	5586.64
634.56	5628.75
639.217	4945.36
643.872	4895.34
648.524	4694.96
653.174	3560.39
657.821	2305.62
662.466	1944.61
667.108	848.342
671.748	326.792
676.385	168.934
681.02	42.7236
685.652	221.286
690.281	65.0293
694.908	11.6484
699.533	150.113
704.155	271.441
708.774	644.315
713.391	1322.8
718.005	1690.8
722.617	729.151
727.226	219.12
731.833	281.123
736.437	428.277
741.039	85.4336
745.638	227.523
750.234	76.1123
754.828	232.507
759.419	205.832
764.008	8.29297
768.595	47.6387
773.178	68.6768
777.759	151.586
782.338	383.312
786.914	528.333
791.488	785.569
796.059	1180.02
800.627	1674.69
805.193	2891.58
809.756	4166.7
814.317	6097.06
818.875	8197.08
823.431	8006.45
827.984	5536.33
832.534	3893.48
837.082	2554.32
841.627	1100.52
846.17	336.107
850.71	3.08301
855.248	81.0879
859.783	97.5215
864.316	115.177
868.846	83.1631
873.373	9.28613
877.898	114.835
882.42	168.603
886.94	345.668
891.457	652.688
895.971	1336.17
900.483	2649.35
904.993	4718.4
909.5	8716.56
914.004	18956.3
918.505	37816.6
923.004	28826.5
927.501	18496.3
931.995	11234.1
936.486	6031.79
940.975	3806.47
945.461	3461.15
949.945	4004.88
954.426	3133.69
958.904	1732.01
963.38	1133.05
967.853	1024.48
972.324	1167.14
976.792	1220.1
981.258	1133.33
985.72	1203.6
990.181	1491.18
994.639	1816.57
999.094	3574.14
1003.55	7289.25
1008	7540.33
1012.44	4617.44
1016.89	4260.34
1021.33	4314.77
1025.77	2730.02
1030.21	1732.98
1034.64	1575.17
1039.07	1306.7
1043.5	919.477
1047.93	821.343
1052.35	963.216
1056.78	1568.89
1061.19	4181.37
1065.61	6346.67
1070.02	3411.79
1074.43	1627.68
1078.84	1058.46
1083.25	716.008
1087.65	572.176
1092.05	394.272
1096.45	262.915
1100.85	636.426
1105.24	675.49
1109.63	1090.46
1114.02	712.652
1118.4	307.915
1122.78	411.202
1127.16	433.113
1131.54	125.247
1135.92	118.993
1140.29	56.3818
1144.66	106.111
1149.02	81.6719
1153.39	18.9814
1157.75	77.7852
1162.11	115.757
1166.46	18.7656
1170.82	210.147
1175.17	181.621
1179.52	266.456
1183.86	248.142
1188.21	355.785
1192.55	260.015
1196.89	414.552
1201.22	272.273
1205.55	220.452
1209.88	330.421
1214.21	23.4209
1218.54	81.4033
1222.86	13.1406
1227.18	91.3418
1231.5	47.0898
1235.81	75.0898
1240.12	123.576
1244.43	129.366
1248.74	227.353
1253.04	89.3115
1257.34	2.16797
1261.64	188.947
1265.94	120.031
1270.23	153.342
1274.52	52.6055
1278.81	201.734
1283.1	346.551
1287.38	61.4141
1291.66	13.29
1295.94	73.0908
1300.21	55.1514
1304.48	16.4131
1308.75	16.5303
1313.02	82.5117
1317.29	86.0127
1321.55	25.8906
1325.81	252.11
1330.06	58.7529
1334.32	26.1768
1338.57	140.154
1342.82	10.6435
1347.06	277.309
1351.31	180.582
1355.55	213.603
1359.79	436.78
1364.02	420.081
1368.26	535.877
1372.49	512.838
1376.71	328.156
1380.94	550.834
1385.16	464.545
1389.38	505.169
1393.6	485.519
1397.81	344.94
1402.02	423.602
1406.23	156.512
1410.44	400.643
1414.64	306.402
1418.85	307.386
1423.04	209.545
1427.24	321.658
1431.43	328.306
1435.62	485.757
1439.81	524.192
1444	538.136
1448.18	753.555
1452.36	839.016
1456.54	635.198
1460.71	696.207
1464.89	449.215
1469.06	523.194
1473.22	305.329
1477.39	362.118
1481.55	284.987
1485.71	163.853
1489.86	101.289
1494.02	92.6982
1498.17	2.48438
1502.32	22.2441
1506.46	3.37891
1510.61	98.25
1514.75	115.015
1518.88	182.499
1523.02	153.192
1527.15	100.874
1531.28	217.998
1535.41	167.458
1539.53	225.332
1543.66	336.409
1547.78	310.528
1551.89	361.873
1556.01	340.947
1560.12	281.711
1564.23	5.52148
1568.33	180.588
