Measurement: Raman, 514 nm, ccw, Raman Data Processed
Mineral: Andalusite
Rruff sample: R050561
Ideal chemistry: Al_2_SiO_5_
Locality: Cargo Muchacho Mountain, Imperial County, California
Source: Dave Bunk Minerals
Description: Brown coarsely crystalline massive
Measured chemistry: (Al_1.98_Fe^3+^_0.02_)_Î£=2_Si_1.00_O_5_
Pin_id: M00237
Orientation: Laser parallel to c* (0 0 1). Fiducial mark perpendicular to laser is parallel to 1 0 0
Raman shift (cm-1)	intensity
91.012	0
95.948	71.6423
100.883	4.00708
105.815	304.983
110.744	686.377
115.671	406.846
120.596	143.982
125.519	138.1
130.439	214.523
135.356	196.56
140.271	327.707
145.184	115.962
150.094	53.2698
155.002	101.62
159.908	70.1338
164.811	170.097
169.711	116.619
174.61	102.842
179.505	112.854
184.399	98.6345
189.29	321.136
194.178	613.391
199.064	654.32
203.948	689.552
208.829	142.565
213.708	97.3745
218.585	32.9834
223.459	16.5862
228.33	35.4841
233.199	12.5212
238.066	115.221
242.93	268.972
247.792	526.258
252.651	693.756
257.508	1114.85
262.363	1728.42
267.215	2793.53
272.064	5176.03
276.912	11049.4
281.756	26972.5
286.598	45987.1
291.438	50447.5
296.276	29235.3
301.111	10958.7
305.943	5977.19
310.773	9166
315.601	16159.8
320.426	19977.1
325.248	12594
330.068	5633.5
334.886	3514.5
339.701	2642.05
344.514	2724.13
349.324	4199.74
354.132	6675.68
358.938	7462.26
363.741	5121.37
368.541	2841.36
373.339	2244.27
378.135	2168.63
382.928	1545.9
387.718	1001.09
392.506	489.788
397.292	326.985
402.075	233.659
406.856	359.805
411.634	607.414
416.41	956.48
421.183	844.004
425.954	312.982
430.722	5.59717
435.488	108.251
440.251	369.529
445.012	1691.23
449.77	2775.43
454.526	1493.21
459.28	247.524
464.03	54.2583
468.779	171.379
473.525	317.875
478.268	428.74
483.009	384.002
487.747	244.29
492.483	43.7681
497.217	120.957
501.948	119.441
506.676	77.2529
511.402	161.298
516.125	228.796
520.846	289.496
525.565	255.103
530.281	489.679
534.994	771.054
539.705	2076.6
544.413	5066.3
549.119	7556.15
553.822	5908.13
558.523	2740.24
563.222	1358.45
567.917	889.757
572.611	586.098
577.302	494.864
581.99	386.037
586.676	296.532
591.359	234.168
596.04	378.846
600.718	512.337
605.394	619.981
610.067	609.598
614.737	522.175
619.406	606.589
624.071	660.144
628.734	542.669
633.395	231.243
638.053	105.915
642.708	4.7583
647.361	82.2837
652.012	112.349
656.66	87.8071
661.305	298.726
665.948	334.492
670.588	375.098
675.226	543.54
679.861	695.811
684.494	789.906
689.124	835.821
693.752	1026.55
698.377	1133.1
702.999	1207.45
707.619	1543.6
712.237	1871.17
716.852	1592.46
721.464	928.756
726.074	301.634
730.681	62.7109
735.286	65.3262
739.888	180.498
744.488	156.389
749.085	227.022
753.68	87.3984
758.272	91.5078
762.861	10.2026
767.448	24.79
772.033	71.6709
776.614	93.6894
781.194	154.049
785.77	288.166
790.345	430.638
794.916	812.212
799.485	1650.21
804.052	2476.07
808.616	2030.8
813.177	1349.41
817.736	797.898
822.292	773.283
826.846	1147.57
831.397	1411.77
835.945	893.893
840.491	240.944
845.035	53.0679
849.576	84.3648
854.114	68.2192
858.65	65.8135
863.183	65.1191
867.713	22.166
872.241	187.025
876.767	286.666
881.29	346.519
885.81	692.421
890.328	1155.19
894.843	1745.99
899.356	3277.3
903.866	5921.4
908.373	14496
912.878	37870.7
917.38	54932.5
921.88	36375.1
926.377	16418.3
930.872	8670.14
935.364	4577.23
939.853	3298.65
944.34	3354.34
948.824	3496.29
953.306	2552.6
957.785	1344.15
962.261	753.947
966.735	419.049
971.207	299.404
975.675	261.013
980.141	306.857
984.605	323.85
989.066	208.154
993.524	318.617
997.98	286.414
1002.43	809.007
1006.88	1701.09
1011.33	3554.6
1015.78	5796.45
1020.22	5953.63
1024.66	4140.14
1029.1	2515.53
1033.53	1719.13
1037.97	1422.4
1042.4	1418.86
1046.82	1997.31
1051.25	3385.12
1055.67	7933.96
1060.09	17239.5
1064.51	17733.5
1068.92	8552.8
1073.33	3778.65
1077.74	2166.65
1082.15	1544.18
1086.55	1292.3
1090.95	1141.88
1095.35	1024.52
1099.75	1274.31
1104.14	1590.45
1108.53	1877.91
1112.92	1251.9
1117.31	815.42
1121.69	684.845
1126.07	695.493
1130.45	272.664
1134.82	72.769
1139.19	157.819
1143.57	46.6387
1147.93	36.9038
1152.3	48.2993
1156.66	7.46484
1161.02	3.58984
1165.38	33.5308
1169.73	39.4214
1174.08	28.5166
1178.43	55.0527
1182.78	0.967773
1187.12	109.269
1191.46	48.9482
1195.8	27.2358
1200.14	67.0122
1204.47	19.7368
1208.8	18.6084
1213.13	56.9805
1217.46	69.4614
1221.78	61.0601
1226.1	12.2173
1230.42	125.519
1234.73	88.0591
1239.04	20.1392
1243.35	20.2319
1247.66	82.2339
1251.97	6.03076
1256.27	52.3579
1260.57	78.7114
1264.86	166.58
1269.16	55.3623
1273.45	174.71
1277.74	200.687
1282.03	113.415
1286.31	126.749
1290.59	180.738
1294.87	175.965
1299.14	226.944
1303.42	118.867
1307.69	112.15
1311.95	190.981
1316.22	106.91
1320.48	121.623
1324.74	157.048
1329	128.658
1333.26	24.269
1337.51	19.0615
1341.76	56.5459
1346	104.185
1350.25	15.7896
1354.49	28.3926
1358.73	91.0186
1362.96	60.4448
1367.2	176.752
1371.43	181.217
1375.66	161.218
1379.88	67.1797
1384.11	151.979
1388.33	79.2627
1392.54	130.529
1396.76	140.964
1400.97	87.0454
1405.18	108.934
1409.39	175.815
1413.59	23.6055
1417.8	38.7515
1421.99	178.476
1426.19	11.2979
1430.38	205.549
1434.58	205.314
1438.77	180.708
1442.95	145.438
1447.13	1.46338
1451.32	166.703
1455.49	188.761
1459.67	138.98
1463.84	23.8398
1468.01	65.9819
1472.18	79.8608
1476.35	135.907
1480.51	192.769
1484.67	134.186
1488.83	162.356
1492.98	161.485
1497.13	214.709
1501.28	139.093
1505.43	215.011
1509.57	149.465
1513.71	74.6118
1517.85	143.648
1521.99	112.852
1526.12	58.437
1530.25	91.1856
1534.38	30.0547
1538.5	61.3657
1542.62	129.047
1546.74	148.506
1550.86	135.478
1554.98	279.094
1559.09	12.8633
1563.2	24.0591
1567.31	113.905
