Measurement: Raman, 514 nm, ccw, Raman Data Processed
Mineral: Andalusite
Rruff sample: R060197
Ideal chemistry: Al_2_SiO_5_
Locality: Brazil
Source: Marcus Origlieri
Description: Green colored water worn pebble
Measured chemistry: (Al_1.97_Mn^3+^_0.03_)_Î£=2_Si_1.00_O_5_
Pin_id: M00401
Orientation: Laser parallel to c* (0 0 1). Fiducial mark perpendicular to laser is parallel to a [1 0 0]
Raman shift (cm-1)	intensity
91.012	0
95.948	157.384
100.883	115.108
105.815	666.446
110.744	2018.5
115.671	1512.25
120.596	344.223
125.519	430.921
130.439	659.499
135.356	575.769
140.271	899.379
145.184	646.434
150.094	791.67
155.002	1014.71
159.908	1139.47
164.811	1467.33
169.711	1512.69
174.61	1337.71
179.505	1209.44
184.399	1194.66
189.29	1755.35
194.178	2385.13
199.064	2580
203.948	1597.2
208.829	89.7344
213.708	22.686
218.585	33.8687
223.459	216.847
228.33	136.748
233.199	404.665
238.066	894.095
242.93	1009.48
247.792	685.233
252.651	697.293
257.508	1176.26
262.363	3828.52
267.215	4343
272.064	5023.58
276.912	9609.85
281.756	17005
286.598	24118.4
291.438	24103
296.276	14409.3
301.111	6780.35
305.943	5576.07
310.773	9721.35
315.601	14734.4
320.426	14807.2
325.248	8851.75
330.068	5023.03
334.886	4130.04
339.701	4807.76
344.514	7201.22
349.324	12675.8
354.132	17467.8
358.938	16562.5
363.741	10063.9
368.541	4600.82
373.339	2568.93
378.135	1813.44
382.928	1676.9
387.718	1791.54
392.506	1122.5
397.292	519.265
402.075	277.788
406.856	350.086
411.634	738.177
416.41	508.078
421.183	380.815
425.954	51.5791
430.722	187.372
435.488	84.2041
440.251	280.387
445.012	1293
449.77	1645.68
454.526	1117.49
459.28	436.435
464.03	1112.51
468.779	1655.71
473.525	2382.05
478.268	2602.52
483.009	2292.12
487.747	1278.67
492.483	374.427
497.217	201.253
501.948	338.379
506.676	412.853
511.402	624.961
516.125	466.084
520.846	334.853
525.565	154.306
530.281	22.0615
534.994	198.116
539.705	1388.19
544.413	3165.47
549.119	4143.17
553.822	2639.48
558.523	1037.12
563.222	1082.82
567.917	1383.84
572.611	1459.79
577.302	965.956
581.99	1024.77
586.676	815.661
591.359	1289.85
596.04	1385.5
600.718	1320.98
605.394	1078.26
610.067	708.314
614.737	486.117
619.406	235.636
624.071	90.8408
628.734	298.538
633.395	119.353
638.053	307.915
642.708	576.713
647.361	481.043
652.012	127.869
656.66	194.145
661.305	444.832
665.948	854.879
670.588	1313.83
675.226	1899.58
679.861	2404.21
684.494	3063.3
689.124	3390.04
693.752	3765.13
698.377	4177.35
702.999	5141.99
707.619	6090.97
712.237	5436.77
716.852	3649.88
721.464	1864.15
726.074	645.078
730.681	177.606
735.286	569.688
739.888	864.316
744.488	1417.47
749.085	1841.11
753.68	1845.23
758.272	1472.79
762.861	1396.79
767.448	1050.77
772.033	1197.13
776.614	1807.63
781.194	3464.34
785.77	5390.48
790.345	6559.03
794.916	5248.99
799.485	3380.34
804.052	1711.09
808.616	827.503
813.177	379.346
817.736	224.48
822.292	52.6357
826.846	89.7344
831.397	140.107
835.945	98.8682
840.491	100.163
845.035	263.399
849.576	206.649
854.114	89.918
858.65	456.375
863.183	900.793
867.713	1287.06
872.241	1328.01
876.767	1322.23
881.29	1065.75
885.81	1124.59
890.328	1190.75
894.843	1813.35
899.356	3074.5
903.866	5514.76
908.373	12422.5
912.878	29899.8
917.38	41955
921.88	31851.1
926.377	18085.9
930.872	11462.1
935.364	8584.87
939.853	7841.01
944.34	9577.58
948.824	11256.6
953.306	9027.82
957.785	5792.86
962.261	4208.79
966.735	3623.18
971.207	2964.43
975.675	2386.45
980.141	1627.78
984.605	1067.06
989.066	799.021
993.524	523.24
997.98	630.185
1002.43	912.07
1006.88	1720.91
1011.33	3500.7
1015.78	5013.74
1020.22	5394.45
1024.66	3849.36
1029.1	2757.69
1033.53	1997.18
1037.97	1517.55
1042.4	1521.03
1046.82	1824.51
1051.25	2754.75
1055.67	4991.79
1060.09	5824.26
1064.51	4572.5
1068.92	3144.07
1073.33	3462.21
1077.74	2453.47
1082.15	2645.5
1086.55	2638.38
1090.95	2588.5
1095.35	2813.79
1099.75	3330.11
1104.14	3941.64
1108.53	3591.05
1112.92	2532.53
1117.31	1696.69
1121.69	1745.34
1126.07	1540.19
1130.45	762.955
1134.82	542.521
1139.19	313.881
1143.57	286.025
1147.93	110.928
1152.3	240.541
1156.66	31.1367
1161.02	108.613
1165.38	2.53906
1169.73	105.945
1174.08	215.088
1178.43	163.365
1182.78	155.076
1187.12	96.0547
1191.46	177.393
1195.8	157.315
1200.14	397.43
1204.47	267.531
1208.8	660.029
1213.13	1300.74
1217.46	2075.35
1221.78	3860.73
1226.1	5989.48
1230.42	8344.09
1234.73	9426.03
1239.04	10817.8
1243.35	12411.6
1247.66	13288.8
1251.97	13051.4
1256.27	12433.6
1260.57	11349.3
1264.86	10147.6
1269.16	8424.42
1273.45	6585.84
1277.74	4948.18
1282.03	3783.12
1286.31	2660
1290.59	1968.57
1294.87	1460.28
1299.14	1164.69
1303.42	696.578
1307.69	512.236
1311.95	368.06
1316.22	203.69
1320.48	158.463
1324.74	202.637
1329	79.3926
1333.26	38.0938
1337.51	115.223
1341.76	25.1465
1346	108.758
1350.25	195.994
1354.49	171.049
1358.73	61.9766
1362.96	161.703
1367.2	92.2832
1371.43	36.2891
1375.66	120.953
1379.88	97.084
1384.11	282.162
1388.33	231.197
1392.54	538.203
1396.76	1028.51
1400.97	1207.54
1405.18	1435.83
1409.39	1495.11
1413.59	1933.21
1417.8	1826.75
1421.99	1680.06
1426.19	1740.11
1430.38	1740.09
1434.58	1493.89
1438.77	1508.79
1442.95	1183.56
1447.13	1148.56
1451.32	839.109
1455.49	825.606
1459.67	632.898
1463.84	659.973
1468.01	509.988
1472.18	555.535
1476.35	601.049
1480.51	469.498
1484.67	502.252
1488.83	355.346
1492.98	290.81
1497.13	367.217
1501.28	90.0254
1505.43	221.682
1509.57	221.432
1513.71	277.666
1517.85	38.252
1521.99	258.416
1526.12	71.7637
1530.25	370.273
1534.38	275.629
1538.5	69.0684
1542.62	71.9863
1546.74	16.6113
1550.86	379.086
1554.98	625.299
1559.09	104.732
1563.2	134.262
1567.31	77.4023
