Measurement: Raman, 514 nm, ccw, Raman Data Processed
Mineral: Andalusite
Rruff sample: R060212
Ideal chemistry: Al_2_SiO_5_
Locality: Brazil
Source: Marcus Origlieri
Description: Transparent yellow-green water-worn pebble
Measured chemistry: (Al_1.98_Fe^3+^_0.02_)_Î£=2_Si_1.00_O_5_
Pin_id: M00061
Orientation: Laser parallel to -a* (-1 0 0). Fiducial mark perpendicular to laser is parallel to -b [0 -1 0]
Raman shift (cm-1)	intensity
99.649	0
104.582	32.7373
109.512	736.689
114.44	172.601
119.365	39.7051
124.288	137.629
129.209	193.394
134.127	11.4971
139.043	170.72
143.956	123.522
148.867	197.364
153.775	170.865
158.681	239.492
163.585	269.627
168.486	477.62
173.385	334.63
178.282	324.119
183.176	296.138
188.067	1152.77
192.956	1041.27
197.843	676.125
202.727	716.415
207.609	60.8545
212.489	17.4121
217.366	87.8984
222.24	64.0742
227.112	27.9092
231.982	687.346
236.849	2263.71
241.714	2990.98
246.577	1628.03
251.437	1131.7
256.294	1225.12
261.149	1482.52
266.002	1801.51
270.852	2849.94
275.7	4985.77
280.545	11040
285.388	23511
290.229	38335.1
295.067	20286.3
299.902	6351.24
304.735	2735.75
309.566	3632.79
314.394	8260.75
319.22	16786.1
324.043	9129.31
328.864	3632.82
333.682	2445.3
338.498	2264.89
343.311	3200.55
348.122	7467.25
352.931	17043.4
357.737	24491.6
362.54	13483
367.341	5538.13
372.14	2626.55
376.936	1645.59
381.73	1323.18
386.521	1143.79
391.31	1466.28
396.096	668.459
400.88	433.71
405.661	370.017
410.44	250.352
415.216	229.694
419.99	131.036
424.761	43.6582
429.53	41.7715
434.297	148.549
439.061	109.699
443.822	465.527
448.581	1316.27
453.337	987.982
458.091	220.663
462.843	315.292
467.592	104.864
472.338	460.479
477.082	542.071
481.824	897.822
486.563	429.024
491.3	373.322
496.034	15.1924
500.765	64.1397
505.494	38.334
510.221	251.427
514.945	147.497
519.666	143.492
524.385	239.308
529.102	305.188
533.816	313.225
538.527	549.658
543.236	1621.68
547.943	3172.3
552.647	2899.26
557.348	1393.31
562.047	1034.19
566.744	1555.63
571.438	2043.78
576.129	1184.96
580.818	627.898
585.504	615.596
590.188	386.336
594.87	458.25
599.549	542.264
604.225	359.475
608.899	362.414
613.57	253.836
618.239	799.57
622.905	1039.17
627.569	1548.1
632.23	699.094
636.889	630.644
641.545	915.385
646.198	1010.48
650.849	599.553
655.498	407.69
660.144	248.402
664.787	7.78711
669.428	15.5
674.067	43.9023
678.703	312.477
683.336	69.2832
687.967	215.269
692.595	191.387
697.221	257.633
701.844	339.84
706.465	384.19
711.083	565.904
715.698	774.613
720.311	576.729
724.922	285.81
729.53	79.1875
734.135	128.375
738.738	175.826
743.338	157.123
747.936	216.092
752.531	60.1133
757.124	209.68
761.714	44.0156
766.302	12.1191
770.887	170.861
775.469	2.77344
780.049	155.381
784.626	135.246
789.201	365.318
793.773	353.818
798.343	581.502
802.91	613.729
807.475	570.609
812.037	219.502
816.596	267.053
821.153	47.0879
825.707	218.525
830.259	219.197
834.808	251.928
839.355	120.961
843.899	226.721
848.441	52.9941
852.98	188.705
857.516	340.924
862.05	418.256
866.581	519.715
871.11	326.516
875.636	58.5117
880.159	455.102
884.68	634.846
889.199	527.512
893.714	914.35
898.228	1495.29
902.738	2522.94
907.246	5120.31
911.752	13492.6
916.255	29974
920.755	25257.9
925.253	10147.1
929.748	5505.33
934.241	4892.94
938.731	6521.66
943.218	11365.4
947.703	21130.8
952.186	19519
956.665	8762.98
961.142	3829.49
965.617	1938.01
970.089	982.99
974.558	545.314
979.025	333.988
983.489	10.5254
987.951	158.435
992.41	121.018
996.866	117.4
1001.32	546.697
1005.77	261.137
1010.22	523.186
1014.67	1428.41
1019.11	2058.85
1023.55	1465.12
1027.99	763.359
1032.42	201.863
1036.86	199.022
1041.29	224.793
1045.72	193.631
1050.14	621.652
1054.56	1343.75
1058.98	3213.75
1063.4	6011.82
1067.82	3260.31
1072.23	1430.16
1076.64	632.807
1081.05	449.574
1085.45	267.121
1089.85	244.615
1094.25	136.658
1098.65	219.42
1103.04	647.994
1107.43	1013.53
1111.82	703.902
1116.21	532.166
1120.59	400.342
1124.97	424.426
1129.35	584.742
1133.73	201.412
1138.1	3.20312
1142.47	104.9
1146.84	37.127
1151.21	232.637
1155.57	210.756
1159.93	120.135
1164.29	168.166
1168.64	62.8105
1172.99	118.664
1177.34	237.543
1181.69	19.4434
1186.04	107.863
1190.38	32.7949
1194.72	159.578
1199.05	146.652
1203.39	74.5977
1207.72	7.25586
1212.05	206.529
1216.37	185.478
1220.7	529.131
1225.02	388.492
1229.34	1082.65
1233.65	641.564
1237.97	687.246
1242.28	829.756
1246.59	902.023
1250.89	831.152
1255.19	678.949
1259.49	874.637
1263.79	801.252
1268.09	867.035
1272.38	638.686
1276.67	764.057
1280.95	650.283
1285.24	514.092
1289.52	568.852
1293.8	1076.58
1298.08	680.894
1302.35	576.359
1306.62	622.555
1310.89	919.359
1315.15	763.93
1319.42	773.406
1323.68	842.512
1327.94	598.418
1332.19	398.562
1336.44	423.91
1340.69	644.711
1344.94	529.031
1349.19	446.312
1353.43	287.988
1357.67	657.809
1361.9	219.59
1366.14	427.637
1370.37	557.152
1374.6	62.0625
1378.83	197.879
1383.05	211.734
1387.27	249.586
1391.49	94.4219
1395.7	2.28906
1399.92	181.988
1404.13	154.883
1408.34	203.969
1412.54	226.133
1416.74	37.5195
1420.94	99.8789
1425.14	92.5625
1429.34	479.027
1433.53	193.773
1437.72	531.883
1441.9	621.273
1446.09	836.207
1450.27	887.793
1454.45	974.504
1458.63	717.562
1462.8	757.887
1466.97	390.394
1471.14	471.031
1475.31	527.727
1479.47	359.859
1483.63	300.977
1487.79	240.113
1491.94	324.508
1496.09	163.59
1500.24	244.496
1504.39	471.277
1508.54	78.1406
1512.68	193.965
1516.82	289.695
1520.95	108.188
1525.09	164.312
1529.22	114.961
1533.35	136.191
1537.47	363.922
1541.6	317.152
1545.72	282.664
1549.83	296.109
1553.95	345.734
1558.06	175.703
1562.17	201.945
1566.28	433.262
1570.38	0
