Measurement: Raman, 514 nm, ccw, Raman Data Processed
Mineral: Andalusite
Rruff sample: R050258
Ideal chemistry: Al_2_SiO_5_
Locality: Bautista Canyon, near Hemet, Riverside County, California, USA
Source: Marcus Origlieri
Description: Brown fragment
Measured chemistry: Al_2.00_Si_1.00_O_5_
Pin_id: M00208
Orientation: Laser parallel to -c* (0 0 -1). Fiducial mark perpendicular to laser is parallel to a [1 0 0]
Raman shift (cm-1)	intensity
99.649	0
104.582	69.7022
109.512	516.148
114.44	158.666
119.365	363.627
124.288	300.386
129.209	90.5859
134.127	307.995
139.043	354.983
143.956	165.119
148.867	347.977
153.775	318.059
158.681	216.789
163.585	328.578
168.486	292.805
173.385	287.537
178.282	343.326
183.176	465.055
188.067	750.365
192.956	969.545
197.843	857.861
202.727	750.004
207.609	150.807
212.489	107.707
217.366	14.8867
222.24	92.6055
227.112	52.7266
231.982	783.754
236.849	1974.72
241.714	2303.01
246.577	1428.09
251.437	1150.71
256.294	1130.4
261.149	1457.84
266.002	1645.18
270.852	2760.18
275.7	4977.95
280.545	10189.5
285.388	23433.9
290.229	38156.9
295.067	17829.2
299.902	5380.97
304.735	2276.37
309.566	2854.78
314.394	7733.21
319.22	16532.6
324.043	8088.53
328.864	3889.07
333.682	3044.32
338.498	2507.47
343.311	2813.49
348.122	6271.34
352.931	14602.5
357.737	21526.5
362.54	11176.2
367.341	4402.78
372.14	2350.11
376.936	1253.99
381.73	1117.88
386.521	849.42
391.31	712.521
396.096	415.949
400.88	323.348
405.661	214.861
410.44	77.3027
415.216	166.541
419.99	207.541
424.761	3.36133
429.53	37.3008
434.297	323.633
439.061	2.31641
443.822	448.353
448.581	1454.52
453.337	722.275
458.091	51.6191
462.843	9.40625
467.592	20.0215
472.338	469.889
477.082	237.318
481.824	383.238
486.563	136.631
491.3	13.4121
496.034	71.0078
500.765	54.0566
505.494	83.9277
510.221	174.231
514.945	217.793
519.666	129.428
524.385	255.779
529.102	251.838
533.816	434.932
538.527	559.242
543.236	1930.5
547.943	3689.97
552.647	3177.83
557.348	1687.58
562.047	1135.01
566.744	1548.26
571.438	1631.21
576.129	976.549
580.818	555.926
585.504	439.295
590.188	231.022
594.87	155.81
599.549	551.107
604.225	498.398
608.899	513.156
613.57	629.174
618.239	530.803
622.905	732.566
627.569	799.686
632.23	729.588
636.889	468.705
641.545	484.074
646.198	587.08
650.849	427.912
655.498	151.967
660.144	91.2715
664.787	4.87305
669.428	23.7656
674.067	106.162
678.703	76.6211
683.336	127.92
687.967	34.9238
692.595	111.824
697.221	351.43
701.844	150.69
706.465	224.609
711.083	697.266
715.698	1109.24
720.311	844.672
724.922	322.791
729.53	296.205
734.135	154.107
738.738	100.057
743.338	200.51
747.936	42.7168
752.531	70.5977
757.124	162.182
761.714	144.619
766.302	329.844
770.887	215.549
775.469	53.9961
780.049	150.961
784.626	274.82
789.201	253.611
793.773	164.213
798.343	279.801
802.91	331.115
807.475	447.228
812.037	368.783
816.596	329.435
821.153	480.877
825.707	222.182
830.259	428.887
834.808	271.791
839.355	30.6133
843.899	344.963
848.441	45.7832
852.98	138.523
857.516	98.4492
862.05	195.375
866.581	130.119
871.11	272.453
875.636	152.133
880.159	159.598
884.68	245.555
889.199	378.078
893.714	1020.31
898.228	1510.71
902.738	2443.28
907.246	4321.75
911.752	11613
916.255	27010.8
920.755	23160.7
925.253	9267.84
929.748	5309.15
934.241	4102.04
938.731	5097.48
943.218	10059.2
947.703	18575.2
952.186	16616.5
956.665	7354.31
961.142	3125.55
965.617	1608.07
970.089	968.812
974.558	663.297
979.025	366.574
983.489	448.273
987.951	214.715
992.41	596.961
996.866	401.731
1001.32	385.527
1005.77	970.519
1010.22	1814.43
1014.67	3529.54
1019.11	4506.89
1023.55	2914.46
1027.99	1211.58
1032.42	745.184
1036.86	504.961
1041.29	476.516
1045.72	736.375
1050.14	933.086
1054.56	1428.11
1058.98	3062.43
1063.4	6402.98
1067.82	4067.94
1072.23	1360.22
1076.64	567.438
1081.05	336.832
1085.45	267.195
1089.85	44.9883
1094.25	384.945
1098.65	585.039
1103.04	1077.83
1107.43	1960.26
1111.82	1594.09
1116.21	853.047
1120.59	1004.07
1124.97	595.539
1129.35	213.957
1133.73	266.543
1138.1	20.6914
1142.47	47.1133
1146.84	22.0352
1151.21	4.24219
1155.57	265.559
1159.93	252.473
1164.29	190.688
1168.64	195.238
1172.99	124.781
1177.34	178.07
1181.69	96.9883
1186.04	165.715
1190.38	5.12109
1194.72	431.047
1199.05	196.887
1203.39	220.719
1207.72	133.555
1212.05	86.0469
1216.37	127.504
1220.7	153.559
1225.02	263.074
1229.34	28.4297
1233.65	267.207
1237.97	299.062
1242.28	305.965
1246.59	64.293
1250.89	1.69922
1255.19	329.481
1259.49	290.504
1263.79	372.805
1268.09	318.332
1272.38	224.371
1276.67	438.434
1280.95	161.707
1285.24	477.262
1289.52	124.797
1293.8	467.269
1298.08	124.332
1302.35	243.922
1306.62	252.473
1310.89	157.977
1315.15	293.949
1319.42	306.676
1323.68	177.992
1327.94	350.723
1332.19	232.18
1336.44	183.699
1340.69	112.242
1344.94	375.848
1349.19	190.676
1353.43	109.922
1357.67	32.4102
1361.9	319.883
1366.14	108.426
1370.37	120.258
1374.6	549.531
1378.83	211.219
1383.05	155.269
1387.27	415.012
1391.49	229.41
1395.7	320.379
1399.92	85.9414
1404.13	306.238
1408.34	125.379
1412.54	133.703
1416.74	299.195
1420.94	258.047
1425.14	292.707
1429.34	370.672
1433.53	313.856
1437.72	11.1992
1441.9	287.731
1446.09	643.566
1450.27	368.762
1454.45	113.113
1458.63	359.922
1462.8	139.766
1466.97	246.496
1471.14	82.0195
1475.31	588.195
1479.47	465.805
1483.63	341.133
1487.79	533.574
1491.94	460.691
1496.09	353.352
1500.24	340.977
1504.39	276.519
1508.54	528.391
1512.68	47.7617
1516.82	428.106
1520.95	491.231
1525.09	289.148
1529.22	479.457
1533.35	84.8203
1537.47	385.836
1541.6	257.477
1545.72	73.4531
1549.83	489.41
1553.95	395.606
1558.06	103.57
1562.17	113.949
1566.28	145.082
1570.38	0
