Measurement: Raman, 514 nm, ccw, Raman Data Processed
Mineral: Andalusite
Rruff sample: R050626
Ideal chemistry: Al_2_SiO_5_
Locality: Minas Gerais, Brazil
Source: Gemological Center
Description: Grayish brown fragment
Measured chemistry: (Al_1.99_Fe^3+^_0.01_)_Î£=1_Si_1.00_O_5_
Pin_id: L01690
Orientation: Laser parallel to b* (0 1 0). Fiducial mark perpendicular to laser is parallel to c [0 0 1]
Raman shift (cm-1)	intensity
123.058	0
127.979	20.7961
132.898	367.512
137.814	464.587
142.728	716.34
147.639	473.117
152.549	265.087
157.455	37.053
162.359	144.486
167.261	200.113
172.161	86.7524
177.058	146.784
181.952	372.839
186.845	679.485
191.734	1005.16
196.622	1271.27
201.507	1553.56
206.389	987.497
211.269	311.772
216.147	334.12
221.022	369.014
225.895	364.491
230.765	426.475
235.633	688.128
240.498	794.786
245.361	708
250.222	284.824
255.08	64.2935
259.936	121.425
264.789	140.762
269.64	98.54
274.488	568.976
279.334	2405.93
284.178	8446.87
289.019	13517.5
293.857	12904.5
298.693	5212.47
303.527	753.392
308.358	1267.03
313.187	9692.43
318.013	17809.5
322.837	18185.2
327.659	7468.84
332.478	1511.49
337.294	618.252
342.108	1287.99
346.92	4138.46
351.729	12435.3
356.535	19827.7
361.34	18465.6
366.141	10305.8
370.94	5703.37
375.737	3790.28
380.531	2709.44
385.323	2734.84
390.113	2961.46
394.9	2684.29
399.684	2121.39
404.466	2091.03
409.245	2283.84
414.022	3104.68
418.797	3230.59
423.569	2582.61
428.338	1517.41
433.105	1130.99
437.87	1519.64
442.632	2505.33
447.391	3977.4
452.149	4168.09
456.903	1800.41
461.655	157.101
466.405	182.923
471.152	261.437
475.897	119.565
480.639	128.125
485.378	179.935
490.116	210.416
494.85	719.586
499.582	1406.34
504.312	2299.26
509.039	3007.54
513.764	3258.86
518.486	3233.29
523.206	3241.82
527.923	3582.41
532.638	4550.05
537.35	6337.7
542.059	8603.54
546.766	11137.7
551.471	12311.5
556.173	11224.4
560.873	9032.63
565.57	8233.68
570.264	8320.49
574.957	7672.05
579.646	6779.81
584.333	5601.56
589.018	4517.28
593.7	4135.84
598.379	4194.74
603.056	4534.36
607.73	5610.43
612.402	6835.48
617.072	8057.94
621.739	8774.88
626.403	9311.4
631.065	9761.68
635.724	9242.75
640.381	8551.77
645.035	8128.36
649.687	7075.03
654.336	4910.74
658.983	3435.46
663.627	2150.15
668.268	863.769
672.907	389.278
677.544	21.3579
682.178	20.481
686.809	31.5855
691.438	41.1675
696.065	256.439
700.688	674.39
705.31	1119.99
709.929	2446.2
714.545	3870.47
719.158	3288.45
723.77	1644.14
728.378	633.296
732.984	744.311
737.588	519.744
742.189	468.635
746.787	214.413
751.383	206.836
755.976	210.466
760.567	154.244
765.155	135.758
769.741	30.4624
774.324	180.788
778.904	375.601
783.482	754.312
788.058	870.996
792.631	1413.64
797.201	2183.25
801.769	3564.82
806.334	5289.35
810.897	8129.82
815.457	11611
820.014	13308.1
824.569	11320.2
829.122	7729.97
833.671	5339.01
838.219	3261.94
842.763	1522.55
847.306	418.216
851.845	21.147
856.382	244.939
860.917	193.273
865.448	161.409
869.978	4.36328
874.505	75.1182
879.029	108.773
883.55	455.408
888.069	846.593
892.586	1538.77
897.1	2890.44
901.611	5401.42
906.12	9304.32
910.626	18969.6
915.129	43084
919.63	55276.1
924.129	37527.9
928.625	22192.4
933.118	12956.7
937.609	6714.71
942.097	4278.59
946.582	3208.35
951.065	2753.04
955.546	2095.9
960.023	1640.17
964.499	1600.87
968.971	1639.12
973.441	1835.23
977.909	1929.26
982.374	2137.46
986.836	2164.16
991.295	2541.39
995.753	4158.1
1000.21	8226.01
1004.66	12161.8
1009.11	9509.85
1013.55	5019.99
1018	3064.16
1022.44	2564.2
1026.88	1937.21
1031.32	1810.23
1035.75	1620.58
1040.18	1432.72
1044.61	824.918
1049.04	502.784
1053.46	526.221
1057.88	873.088
1062.3	2248.31
1066.71	2611.85
1071.13	1561.71
1075.54	873.835
1079.94	848.062
1084.35	502.335
1088.75	309.65
1093.15	188.997
1097.55	29.3594
1101.94	103.278
1106.34	74.0039
1110.73	119.288
1115.11	91.584
1119.5	86.0322
1123.88	190.511
1128.26	204.38
1132.63	98.5586
1137.01	17.2031
1141.38	24.3545
1145.75	163.961
1150.12	133.526
1154.48	224.008
1158.84	109.585
1163.2	417.05
1167.55	348.618
1171.91	401.179
1176.26	411.589
1180.61	398.337
1184.95	539.449
1189.29	657.862
1193.63	544.148
1197.97	742.035
1202.31	600.385
1206.64	479.801
1210.97	465.644
1215.29	422.883
1219.62	275.362
1223.94	301.555
1228.26	290.944
1232.57	209.761
1236.89	107.612
1241.2	187.554
1245.51	155.763
1249.81	228.172
1254.12	213.704
1258.42	162.244
1262.72	301.697
1267.01	207.459
1271.3	255.137
1275.59	153.847
1279.88	135.73
1284.17	102.041
1288.45	36.9834
1292.73	103.802
1297.01	83.9746
1301.28	86.4219
1305.55	7.43262
1309.82	11.3877
1314.09	38
1318.35	25.9385
1322.61	37.4853
1326.87	72.5977
1331.13	90.6162
1335.38	43.8643
1339.63	392.471
1343.88	233.501
1348.12	336.906
1352.37	541.661
1356.61	627.98
1360.85	634.25
1365.08	644.931
1369.31	729.425
1373.54	707.904
1377.77	657.135
1381.99	670.126
1386.22	686.693
1390.43	697.988
1394.65	644.021
1398.87	562.903
1403.08	431.416
1407.29	524.962
1411.49	503.512
1415.69	355.986
1419.89	493.396
1424.09	598.981
1428.29	518.381
1432.48	579.42
1436.67	800.662
1440.86	662.174
1445.04	711.05
1449.23	736.658
1453.4	684.193
1457.58	616.116
1461.76	598.608
1465.93	709.472
1470.1	527.814
1474.26	361.057
1478.43	227.141
1482.59	160.351
1486.75	90.7744
1490.9	26.2227
1495.06	13.4229
1499.21	19.2871
1503.35	185.565
1507.5	95.6562
1511.64	50.6035
1515.78	95.3975
1519.92	246.406
1524.05	260.656
1528.18	305.585
1532.31	253.664
1536.44	154.585
1540.56	63.502
1544.69	402.329
1548.8	187.219
1552.92	436.238
1557.03	283.625
1561.14	193.35
1565.25	139.045
1569.36	1.94141
