Measurement: Raman, 514 nm, ccw, Raman Data Processed
Mineral: Andalusite
Rruff sample: R060212
Ideal chemistry: Al_2_SiO_5_
Locality: Brazil
Source: Marcus Origlieri
Description: Transparent yellow-green water-worn pebble
Measured chemistry: (Al_1.98_Fe^3+^_0.02_)_Î£=2_Si_1.00_O_5_
Pin_id: M00278
Orientation: Laser parallel to c* (0 0 1). Fiducial mark perpendicular to laser is parallel to -a [-1 0 0]
Raman shift (cm-1)	intensity
99.649	0
104.582	207.809
109.512	1707.97
114.44	355.452
119.365	165.702
124.288	2.49463
129.209	189.851
134.127	93.5669
139.043	626.136
143.956	368.774
148.867	178.949
153.775	86.6494
158.681	42.5532
163.585	471.693
168.486	554.312
173.385	462.662
178.282	510.658
183.176	559.398
188.067	1312.84
192.956	1669.89
197.843	1713.82
202.727	2012.66
207.609	329.794
212.489	66.27
217.366	70.0005
222.24	43.0776
227.112	78.9072
231.982	26.9517
236.849	293.437
241.714	741.342
246.577	589.21
251.437	517.675
256.294	681.917
261.149	1293.65
266.002	1554.7
270.852	2756.89
275.7	6413.93
280.545	9851.32
285.388	23711.6
290.229	50756.8
295.067	27207.1
299.902	9241.51
304.735	4259.93
309.566	3922.23
314.394	8028.94
319.22	23432
324.043	14343.2
328.864	6621.65
333.682	4996.28
338.498	4232.11
343.311	3445.15
348.122	4131.38
352.931	7925.31
357.737	14036.6
362.54	8543.44
367.341	3889.03
372.14	2300.19
376.936	1651.92
381.73	1527.66
386.521	992.595
391.31	917.714
396.096	357.023
400.88	217.499
405.661	227.13
410.44	589.911
415.216	1380.84
419.99	1346.91
424.761	391.133
429.53	25.498
434.297	100.026
439.061	93.249
443.822	287.538
448.581	1780
453.337	1485.65
458.091	111.552
462.843	72.582
467.592	97.689
472.338	476.989
477.082	487.497
481.824	711.238
486.563	429.496
491.3	125.297
496.034	1.7251
500.765	63.4448
505.494	18.5098
510.221	172.605
514.945	157.715
519.666	272.795
524.385	188.908
529.102	406.139
533.816	503.482
538.527	972.932
543.236	2909.48
547.943	6540.12
552.647	6245.86
557.348	2545.68
562.047	1202.58
566.744	755.548
571.438	734.815
576.129	517.268
580.818	223.981
585.504	174.568
590.188	273.354
594.87	295.875
599.549	532.144
604.225	945.887
608.899	687.827
613.57	337.105
618.239	220.877
622.905	256.28
627.569	336.36
632.23	211.138
636.889	16.6577
641.545	49.6577
646.198	205.078
650.849	27.187
655.498	0.962891
660.144	389.882
664.787	325.697
669.428	47.4053
674.067	75.999
678.703	142.477
683.336	213.833
687.967	193.065
692.595	262.167
697.221	331.137
701.844	412.974
706.465	615.014
711.083	1285.06
715.698	1833.17
720.311	1440.56
724.922	491.247
729.53	147.528
734.135	76.2588
738.738	229.692
743.338	221.809
747.936	218.017
752.531	68.8398
757.124	53.376
761.714	96.4795
766.302	38.4141
770.887	98.8701
775.469	54.9102
780.049	0.712891
784.626	233.888
789.201	444.55
793.773	464.918
798.343	501.949
802.91	798.814
807.475	824.525
812.037	436.087
816.596	150.507
821.153	103.796
825.707	306.959
830.259	547.007
834.808	737.947
839.355	239.789
843.899	68.5254
848.441	24.5244
852.98	157.489
857.516	8.50586
862.05	21.1494
866.581	60.541
871.11	149.872
875.636	159.13
880.159	351.427
884.68	392.726
889.199	689.013
893.714	1119.82
898.228	1849.65
902.738	3207.76
907.246	6275.48
911.752	16064.7
916.255	42383
920.755	39854.2
925.253	18650.7
929.748	11553.7
934.241	6414.05
938.731	4645.76
943.218	5646.77
947.703	8457.97
952.186	7342.43
956.665	3405.32
961.142	1782.48
965.617	957.949
970.089	788.637
974.558	620.549
979.025	426.702
983.489	436.506
987.951	401.321
992.41	412.247
996.866	582.102
1001.32	847.477
1005.77	1390.5
1010.22	2851.89
1014.67	6306.63
1019.11	8890.14
1023.55	5558.98
1027.99	3014.81
1032.42	1842.6
1036.86	1389.76
1041.29	1268.91
1045.72	1273.29
1050.14	1641.09
1054.56	2885.92
1058.98	7078.77
1063.4	13844.5
1067.82	7867.35
1072.23	3445.59
1076.64	1763.18
1081.05	1210.86
1085.45	1131.98
1089.85	881.202
1094.25	998.005
1098.65	1459.67
1103.04	2162.55
1107.43	3299.64
1111.82	2924.03
1116.21	1722.96
1120.59	2021.7
1124.97	1772.05
1129.35	726.705
1133.73	199.606
1138.1	174.69
1142.47	58.0772
1146.84	20.5674
1151.21	73.8887
1155.57	129.425
1159.93	91.0244
1164.29	181.106
1168.64	5.84766
1172.99	56.6582
1177.34	32.7822
1181.69	40.9072
1186.04	62.5273
1190.38	27.4482
1194.72	3.76465
1199.05	142.286
1203.39	27.0156
1207.72	65.7647
1212.05	27.5371
1216.37	75.0088
1220.7	14.8935
1225.02	128.841
1229.34	63.3848
1233.65	341.876
1237.97	337.804
1242.28	317.078
1246.59	379.609
1250.89	332.912
1255.19	458.584
1259.49	286.325
1263.79	218.158
1268.09	231.01
1272.38	240.648
1276.67	195.685
1280.95	134.867
1285.24	252.644
1289.52	221.613
1293.8	148.695
1298.08	232.698
1302.35	301.635
1306.62	155.252
1310.89	316.894
1315.15	195.393
1319.42	336.149
1323.68	238.212
1327.94	136.268
1332.19	160.568
1336.44	168.898
1340.69	90.0293
1344.94	178.075
1349.19	171.798
1353.43	145.401
1357.67	156.916
1361.9	8.5
1366.14	85.7002
1370.37	20.7432
1374.6	108.434
1378.83	212.088
1383.05	124.778
1387.27	233.028
1391.49	62.1143
1395.7	52.8545
1399.92	186.761
1404.13	43.584
1408.34	151.237
1412.54	32.0781
1416.74	108.342
1420.94	96.3857
1425.14	192.319
1429.34	83.1074
1433.53	97.9981
1437.72	126.206
1441.9	98.7998
1446.09	227.699
1450.27	347.261
1454.45	32.2988
1458.63	210.642
1462.8	278.703
1466.97	109.991
1471.14	182.326
1475.31	118.742
1479.47	160.216
1483.63	284.437
1487.79	201.413
1491.94	145.829
1496.09	73.2305
1500.24	122.523
1504.39	247.735
1508.54	257.073
1512.68	170.439
1516.82	184.077
1520.95	2.85156
1525.09	61.4668
1529.22	182.777
1533.35	75.874
1537.47	133.675
1541.6	105.57
1545.72	233.237
1549.83	249.536
1553.95	74.7637
1558.06	151.106
1562.17	6.65918
1566.28	128.786
1570.38	0
