Measurement: Raman, 514 nm, ccw, Raman Data Processed
Mineral: Andalusite
Rruff sample: R060212
Ideal chemistry: Al_2_SiO_5_
Locality: Brazil
Source: Marcus Origlieri
Description: Transparent yellow-green water-worn pebble
Measured chemistry: (Al_1.98_Fe^3+^_0.02_)_Î£=2_Si_1.00_O_5_
Pin_id: M00278
Orientation: Laser parallel to c* (0 0 1). Fiducial mark perpendicular to laser is parallel to -a [-1 0 0]
Raman shift (cm-1)	intensity
99.649	0
104.582	93.7109
109.512	1872.75
114.44	284.235
119.365	221.202
124.288	264.452
129.209	485.263
134.127	934.845
139.043	2300.45
143.956	2365.8
148.867	1266.23
153.775	499.119
158.681	263.166
163.585	444.072
168.486	545.519
173.385	569.757
178.282	498.712
183.176	584.541
188.067	1191.39
192.956	1769.22
197.843	1646.11
202.727	1898.35
207.609	300.059
212.489	18.3071
217.366	54.0581
222.24	80.0732
227.112	93.7183
231.982	40.5293
236.849	534.482
241.714	883.768
246.577	631.027
251.437	464.765
256.294	585.708
261.149	1245.26
266.002	1408.88
270.852	2552.24
275.7	5513.17
280.545	11006.5
285.388	22321
290.229	37093.5
295.067	25002.7
299.902	8688.27
304.735	3961.65
309.566	4356.38
314.394	8516.31
319.22	17663.3
324.043	13902.1
328.864	6201.13
333.682	4252.43
338.498	3630.05
343.311	3283.97
348.122	4088.15
352.931	8449.44
357.737	13115.1
362.54	8864.03
367.341	4062.06
372.14	2292.75
376.936	1541.57
381.73	1216.46
386.521	939.596
391.31	852.027
396.096	563.841
400.88	367.975
405.661	368.393
410.44	894.073
415.216	1783
419.99	1467.17
424.761	413.565
429.53	23.1919
434.297	151.139
439.061	6.40723
443.822	498.003
448.581	1596.64
453.337	1379.7
458.091	192.922
462.843	5.29443
467.592	80.8477
472.338	433.662
477.082	650.796
481.824	907.292
486.563	705.184
491.3	208.601
496.034	90.6943
500.765	11.2437
505.494	91.8267
510.221	338.758
514.945	327.265
519.666	288.237
524.385	240.614
529.102	221.114
533.816	381.433
538.527	1031.31
543.236	2956.37
547.943	5304.6
552.647	5117.99
557.348	2284.53
562.047	1105.22
566.744	752.044
571.438	743.072
576.129	481.89
580.818	147.743
585.504	94.9814
590.188	11.1621
594.87	140.673
599.549	425.824
604.225	803.092
608.899	642.401
613.57	264.585
618.239	389.346
622.905	323.136
627.569	439.274
632.23	356.202
636.889	362.501
641.545	247.549
646.198	435.386
650.849	141.068
655.498	171.706
660.144	497.286
664.787	368.8
669.428	10.2383
674.067	32.5205
678.703	66.415
683.336	192.48
687.967	95.4443
692.595	204.305
697.221	242.057
701.844	414.694
706.465	722.216
711.083	1224.79
715.698	1646.61
720.311	1215.4
724.922	449.553
729.53	107.051
734.135	71.4365
738.738	140.551
743.338	219.533
747.936	370.313
752.531	104.848
757.124	11.3467
761.714	71.7402
766.302	58.1191
770.887	68.3037
775.469	85.8779
780.049	72.46
784.626	293.428
789.201	341.2
793.773	450.785
798.343	463.192
802.91	657.426
807.475	639.493
812.037	354.773
816.596	106.523
821.153	196.101
825.707	284.54
830.259	766.852
834.808	571.039
839.355	334.111
843.899	47.9228
848.441	152.319
852.98	154.643
857.516	59.9121
862.05	41.7637
866.581	150.898
871.11	159.819
875.636	251.676
880.159	343.477
884.68	359.252
889.199	821.245
893.714	1186.93
898.228	1922.52
902.738	3149.35
907.246	6549.69
911.752	16920.5
916.255	37281.2
920.755	37249
925.253	19546.3
929.748	12163.1
934.241	6912.18
938.731	4925.42
943.218	5749.94
947.703	8311.74
952.186	7629.02
956.665	3807.29
961.142	1698.78
965.617	1064.5
970.089	886.459
974.558	633.662
979.025	538.756
983.489	329.878
987.951	485.537
992.41	316.712
996.866	471.082
1001.32	722.09
1005.77	1169.49
1010.22	2526.27
1014.67	5469.41
1019.11	7455.07
1023.55	5034.98
1027.99	2814.85
1032.42	1596.31
1036.86	1213.86
1041.29	1071.54
1045.72	1024.05
1050.14	1509.98
1054.56	2869.82
1058.98	6774.32
1063.4	10949.2
1067.82	6998.83
1072.23	2955.78
1076.64	1756.21
1081.05	1374.13
1085.45	1061.98
1089.85	1009.49
1094.25	1017.34
1098.65	1307.49
1103.04	1968.9
1107.43	2927.53
1111.82	2544.45
1116.21	1711.87
1120.59	1720.94
1124.97	1602.72
1129.35	722.811
1133.73	207.086
1138.1	131.572
1142.47	94.2373
1146.84	68.0625
1151.21	53.0352
1155.57	128.857
1159.93	134.08
1164.29	69
1168.64	57.9815
1172.99	49.8623
1177.34	84.2637
1181.69	40.7158
1186.04	79.4502
1190.38	96.8574
1194.72	20.2207
1199.05	46.2881
1203.39	7.55078
1207.72	63.4277
1212.05	5.87891
1216.37	97.6045
1220.7	178.139
1225.02	270.801
1229.34	342.797
1233.65	474.327
1237.97	439.802
1242.28	450.642
1246.59	590.988
1250.89	490.563
1255.19	619.731
1259.49	394.791
1263.79	384.736
1268.09	378.859
1272.38	285.562
1276.67	167.136
1280.95	189.429
1285.24	211.228
1289.52	153.395
1293.8	299.675
1298.08	223.737
1302.35	110.132
1306.62	258.583
1310.89	212.455
1315.15	208.791
1319.42	156.897
1323.68	226.252
1327.94	133.962
1332.19	161.242
1336.44	94.5537
1340.69	172.677
1344.94	15.7607
1349.19	207.137
1353.43	152.652
1357.67	81.7461
1361.9	94.7295
1366.14	5.34766
1370.37	119.45
1374.6	88.7656
1378.83	164.397
1383.05	76.9688
1387.27	64.4883
1391.49	26.04
1395.7	86.1231
1399.92	167.69
1404.13	108.019
1408.34	149.355
1412.54	75.8106
1416.74	195.325
1420.94	149.137
1425.14	194.166
1429.34	136.152
1433.53	198.236
1437.72	196.202
1441.9	241.243
1446.09	38.9893
1450.27	52.7344
1454.45	35.6855
1458.63	197.019
1462.8	106.18
1466.97	205.68
1471.14	137.724
1475.31	2.01562
1479.47	157.718
1483.63	201.233
1487.79	200.917
1491.94	148.688
1496.09	182.545
1500.24	126.075
1504.39	111.572
1508.54	137.171
1512.68	219.812
1516.82	73.8818
1520.95	164.442
1525.09	122.246
1529.22	290.266
1533.35	119.805
1537.47	222.624
1541.6	99.2383
1545.72	144.259
1549.83	145.946
1553.95	386.435
1558.06	97.9756
1562.17	28.5996
1566.28	150.631
1570.38	0
