Measurement: Raman, 514 nm, ccw, Raman Data Processed
Mineral: Andalusite
Rruff sample: R050561
Ideal chemistry: Al_2_SiO_5_
Locality: Cargo Muchacho Mountain, Imperial County, California
Source: Dave Bunk Minerals
Description: Brown coarsely crystalline massive
Measured chemistry: (Al_1.98_Fe^3+^_0.02_)_Î£=2_Si_1.00_O_5_
Pin_id: M00417
Orientation: Laser parallel to a* (1 0 0). Fiducial mark perpendicular to laser is parallel to b [0 1 0]
Raman shift (cm-1)	intensity
99.649	0
104.582	51.2251
109.512	594.335
114.44	206.791
119.365	347.857
124.288	415.372
129.209	456.957
134.127	438.371
139.043	528.395
143.956	386.301
148.867	322.92
153.775	538.902
158.681	254.373
163.585	560.613
168.486	765.176
173.385	576.526
178.282	434.24
183.176	647.248
188.067	1545.88
192.956	1560.9
197.843	1127.46
202.727	1195.45
207.609	132.759
212.489	37.73
217.366	120.994
222.24	189.023
227.112	4.28857
231.982	1007.52
236.849	3657.99
241.714	4771.99
246.577	2756.46
251.437	1803.66
256.294	1696.03
261.149	2315.05
266.002	2837.05
270.852	4340.61
275.7	7940.74
280.545	17203.2
285.388	35819.9
290.229	51695.9
295.067	32314.5
299.902	10898
304.735	4534.31
309.566	5600
314.394	13172
319.22	22242.1
324.043	13353
328.864	4831.84
333.682	2920.59
338.498	2869.23
343.311	4911.71
348.122	12210
352.931	26674.2
357.737	34846.8
362.54	21342.1
367.341	8608.47
372.14	3960.36
376.936	2227.39
381.73	1717.15
386.521	1886.78
391.31	1879.41
396.096	938.912
400.88	413.336
405.661	421.618
410.44	314.725
415.216	173.631
419.99	43.6963
424.761	88.5078
429.53	60.9941
434.297	32.8428
439.061	260.398
443.822	1016.7
448.581	2319.75
453.337	1898.64
458.091	895.438
462.843	1032.99
467.592	883.282
472.338	495.297
477.082	791.04
481.824	1108.6
486.563	717.162
491.3	189.894
496.034	227.25
500.765	94.6216
505.494	133.085
510.221	374.722
514.945	400.407
519.666	354.749
524.385	290.651
529.102	320.807
533.816	431.455
538.527	1093.92
543.236	2685.86
547.943	5026.26
552.647	4792.09
557.348	2605.35
562.047	2019.72
566.744	2876.23
571.438	4072.2
576.129	2994.39
580.818	1623.67
585.504	1191.76
590.188	1114.14
594.87	1078.01
599.549	1156.45
604.225	1337.3
608.899	1454.04
613.57	1456.97
618.239	1552.99
622.905	1870.14
627.569	1896.67
632.23	1464.64
636.889	1375.44
641.545	1666.79
646.198	1491.88
650.849	794.339
655.498	326.738
660.144	112.065
664.787	93.7383
669.428	3.13281
674.067	169.151
678.703	224.291
683.336	232.269
687.967	382.072
692.595	437.684
697.221	459.089
701.844	488.298
706.465	519.399
711.083	865.636
715.698	838.809
720.311	458.053
724.922	130.352
729.53	21.5654
734.135	89.7505
738.738	280.334
743.338	267.483
747.936	260.189
752.531	139.443
757.124	0.187012
761.714	49.8628
766.302	119.145
770.887	19.0347
775.469	9.69531
780.049	82.0532
784.626	246.059
789.201	298.586
793.773	632.641
798.343	1096.22
802.91	1946.58
807.475	2079.62
812.037	1600.83
816.596	1310.61
821.153	1121.95
825.707	1002.86
830.259	753.358
834.808	475.44
839.355	207.116
843.899	35.6265
848.441	88.3623
852.98	123.431
857.516	62.853
862.05	30.4482
866.581	9.3916
871.11	251.385
875.636	310.263
880.159	579.918
884.68	727.308
889.199	1135.36
893.714	1540.76
898.228	2506.37
902.738	4485.37
907.246	8542.55
911.752	22177
916.255	45800.4
920.755	36832.3
925.253	15719.6
929.748	9124.86
934.241	8321.08
938.731	10609.4
943.218	18280.9
947.703	33072.5
952.186	32902.2
956.665	16338
961.142	7202.89
965.617	3850.03
970.089	2288.32
974.558	1667.69
979.025	1244.02
983.489	874.32
987.951	743.857
992.41	559.286
996.866	719.789
1001.32	1206.38
1005.77	1660.6
1010.22	1643.88
1014.67	2144.18
1019.11	2568.5
1023.55	1807.36
1027.99	1193.32
1032.42	904.551
1036.86	686.905
1041.29	637.597
1045.72	729.81
1050.14	1080.78
1054.56	2046.42
1058.98	5243.88
1063.4	8120.42
1067.82	4375.71
1072.23	1641.68
1076.64	790.123
1081.05	580.837
1085.45	489.058
1089.85	253.438
1094.25	124.648
1098.65	280.755
1103.04	422.176
1107.43	651.852
1111.82	492.865
1116.21	434.612
1120.59	711.872
1124.97	862.425
1129.35	455.005
1133.73	4.17578
1138.1	80.1826
1142.47	6.14746
1146.84	11.6719
1151.21	10.0752
1155.57	6.59912
1159.93	32.3726
1164.29	12.4551
1168.64	36.812
1172.99	26.3096
1177.34	14.5928
1181.69	68.7822
1186.04	51.6597
1190.38	90.0586
1194.72	8.28467
1199.05	89.1831
1203.39	69.4966
1207.72	17.8916
1212.05	58.5835
1216.37	5.95801
1220.7	55.918
1225.02	11.4473
1229.34	111.068
1233.65	92.083
1237.97	57.3262
1242.28	137.045
1246.59	46.5659
1250.89	7.87109
1255.19	89.0659
1259.49	77.8735
1263.79	56.3413
1268.09	22.293
1272.38	42.3935
1276.67	31.7593
1280.95	190.333
1285.24	26.106
1289.52	230.81
1293.8	121.722
1298.08	103.609
1302.35	91.0005
1306.62	88.001
1310.89	56.9365
1315.15	147.181
1319.42	124.053
1323.68	157.635
1327.94	95.9165
1332.19	13.0693
1336.44	177.015
1340.69	58.2007
1344.94	8.65869
1349.19	150.004
1353.43	100.948
1357.67	117.977
1361.9	174.336
1366.14	114.239
1370.37	173.789
1374.6	181.95
1378.83	182.865
1383.05	270.432
1387.27	104.038
1391.49	178.085
1395.7	71.3682
1399.92	106.584
1404.13	133.572
1408.34	152.52
1412.54	52.5327
1416.74	88.437
1420.94	70.9458
1425.14	125.734
1429.34	38.9009
1433.53	69.9668
1437.72	163.157
1441.9	73.416
1446.09	103.316
1450.27	182.966
1454.45	193.232
1458.63	230.245
1462.8	50.0698
1466.97	111.089
1471.14	139.773
1475.31	114.705
1479.47	182.248
1483.63	99.8486
1487.79	89.3203
1491.94	143.071
1496.09	174.442
1500.24	151.785
1504.39	161.455
1508.54	151.228
1512.68	119.303
1516.82	231.409
1520.95	109.488
1525.09	125.631
1529.22	21.8662
1533.35	121.588
1537.47	137.316
1541.6	1.74023
1545.72	88.9888
1549.83	23.4751
1553.95	319.543
1558.06	111.303
1562.17	147.234
1566.28	7.61231
1570.38	0
