Measurement: Raman, 514 nm, ccw, Raman Data Processed
Mineral: Andalusite
Rruff sample: R050561
Ideal chemistry: Al_2_SiO_5_
Locality: Cargo Muchacho Mountain, Imperial County, California
Source: Dave Bunk Minerals
Description: Brown coarsely crystalline massive
Measured chemistry: (Al_1.98_Fe^3+^_0.02_)_Î£=2_Si_1.00_O_5_
Pin_id: M00417
Orientation: Laser parallel to a* (1 0 0). Fiducial mark perpendicular to laser is parallel to b [0 1 0]
Raman shift (cm-1)	intensity
99.649	0
104.582	85.9607
109.512	885.778
114.44	335.614
119.365	281.849
124.288	141.511
129.209	392.618
134.127	170.003
139.043	347.253
143.956	246.603
148.867	100.937
153.775	46.1362
158.681	2.4165
163.585	117.538
168.486	223.556
173.385	202.586
178.282	143.812
183.176	295.971
188.067	670.596
192.956	936.741
197.843	877.375
202.727	830.701
207.609	116.851
212.489	139.669
217.366	82.8897
222.24	56.5102
227.112	136.598
231.982	1330
236.849	4235.88
241.714	4920.75
246.577	3277.47
251.437	2098.54
256.294	2042.73
261.149	2474.83
266.002	3156.92
270.852	4589.93
275.7	8566.58
280.545	18835.5
285.388	39808.9
290.229	55628.2
295.067	34049.7
299.902	11414.2
304.735	4865.19
309.566	6232.1
314.394	13741.1
319.22	22461.1
324.043	13302.9
328.864	4848.45
333.682	2778.87
338.498	2973.08
343.311	5149.08
348.122	13241.8
352.931	29303.7
357.737	37223.2
362.54	22528.1
367.341	9307.34
372.14	4202.5
376.936	2443.28
381.73	1907.63
386.521	1410.61
391.31	1149.14
396.096	543.429
400.88	321.475
405.661	225.226
410.44	24.6436
415.216	12.6284
419.99	133.137
424.761	71.2065
429.53	101.822
434.297	221.966
439.061	566.652
443.822	1124.87
448.581	2454.61
453.337	2089.9
458.091	977.707
462.843	1328.01
467.592	1149.77
472.338	500.964
477.082	500.599
481.824	343.73
486.563	284.533
491.3	64.0376
496.034	118.042
500.765	173.577
505.494	114.981
510.221	33.2261
514.945	133.741
519.666	84.29
524.385	74.8555
529.102	277.308
533.816	436.871
538.527	1003.66
543.236	2620.76
547.943	5107.94
552.647	4609.29
557.348	2531.28
562.047	2261.49
566.744	3288.92
571.438	4288.78
576.129	2972.37
580.818	1804.37
585.504	1326.9
590.188	1118.33
594.87	1220.02
599.549	1149.36
604.225	1233.85
608.899	1243.35
613.57	1237.04
618.239	1408.08
622.905	1503.73
627.569	1757.08
632.23	1171.42
636.889	764.417
641.545	782.955
646.198	684.292
650.849	381.829
655.498	121.56
660.144	0.181641
664.787	10.5518
669.428	97.5693
674.067	107.402
678.703	54.0938
683.336	314.63
687.967	219.011
692.595	312.229
697.221	297.333
701.844	342.291
706.465	344.416
711.083	583.319
715.698	529.373
720.311	287.285
724.922	160.815
729.53	119.665
734.135	269.049
738.738	330.08
743.338	184.441
747.936	217.282
752.531	84.7656
757.124	50.3491
761.714	44.2983
766.302	47.8623
770.887	53.3008
775.469	24.4463
780.049	105.356
784.626	156.44
789.201	355.516
793.773	494.362
798.343	947.181
802.91	1722.07
807.475	1707.16
812.037	1003.13
816.596	588.782
821.153	483.359
825.707	379.753
830.259	425.97
834.808	183.016
839.355	35.898
843.899	11.5547
848.441	125.779
852.98	27.21
857.516	84.812
862.05	79.8623
866.581	77.5854
871.11	224.039
875.636	280.839
880.159	467.299
884.68	668.754
889.199	1021.7
893.714	1519.03
898.228	2479.54
902.738	4051.75
907.246	8101.85
911.752	21459.8
916.255	43804.3
920.755	34084.8
925.253	13944.7
929.748	7887.92
934.241	7765.24
938.731	10592.8
943.218	19696.6
947.703	36217.7
952.186	35162
956.665	17002.5
961.142	7568.09
965.617	3762.91
970.089	2250.9
974.558	1491.94
979.025	1048.76
983.489	711.173
987.951	444.652
992.41	255.602
996.866	204.647
1001.32	234.127
1005.77	617.857
1010.22	1209.15
1014.67	1574.72
1019.11	1572.62
1023.55	1290.79
1027.99	860.278
1032.42	726.216
1036.86	408.624
1041.29	499.073
1045.72	584.894
1050.14	1027.79
1054.56	2173.55
1058.98	5708.6
1063.4	8591.06
1067.82	4518.21
1072.23	1668.61
1076.64	799.17
1081.05	421.079
1085.45	106.975
1089.85	122.465
1094.25	224.591
1098.65	188.267
1103.04	296.345
1107.43	552.035
1111.82	297.885
1116.21	164.732
1120.59	503.896
1124.97	470.051
1129.35	224.499
1133.73	28.708
1138.1	73.5566
1142.47	143.977
1146.84	17.3169
1151.21	110.025
1155.57	34.6099
1159.93	74.2559
1164.29	72.0459
1168.64	14.7368
1172.99	9.32373
1177.34	86.6494
1181.69	109.54
1186.04	20.6973
1190.38	19.5801
1194.72	5.84619
1199.05	86.5366
1203.39	5.82519
1207.72	9.37793
1212.05	3.42481
1216.37	63.9429
1220.7	36.6362
1225.02	69.7866
1229.34	116.905
1233.65	36.0308
1237.97	84.8457
1242.28	68.5303
1246.59	105.967
1250.89	50.8262
1255.19	64.9492
1259.49	25.686
1263.79	130.747
1268.09	101.114
1272.38	90.0977
1276.67	24.7012
1280.95	163.355
1285.24	164.498
1289.52	91.9849
1293.8	212.019
1298.08	148.581
1302.35	164.572
1306.62	97.9185
1310.89	232.874
1315.15	220.977
1319.42	193.807
1323.68	226.156
1327.94	108.553
1332.19	68.9849
1336.44	27.5947
1340.69	56.707
1344.94	109.123
1349.19	33.353
1353.43	198
1357.67	163.062
1361.9	192.593
1366.14	126.728
1370.37	169.591
1374.6	108.686
1378.83	214.494
1383.05	132.155
1387.27	161.458
1391.49	45.8867
1395.7	64.8623
1399.92	92.4121
1404.13	39.8594
1408.34	179.528
1412.54	15.6953
1416.74	172.727
1420.94	2.63477
1425.14	95.2734
1429.34	52.1553
1433.53	98.0879
1437.72	242.201
1441.9	209.711
1446.09	7.44922
1450.27	9.08301
1454.45	91.2773
1458.63	48.457
1462.8	33.6709
1466.97	57.2685
1471.14	67.6953
1475.31	86.6309
1479.47	102.525
1483.63	197.474
1487.79	205.239
1491.94	149.582
1496.09	141.748
1500.24	238.429
1504.39	92.9834
1508.54	253.528
1512.68	176.329
1516.82	198.873
1520.95	89.8711
1525.09	118.951
1529.22	18.334
1533.35	27.9033
1537.47	227.83
1541.6	88.5508
1545.72	131.078
1549.83	70.1172
1553.95	251.53
1558.06	49.0889
1562.17	2.18848
1566.28	174.047
1570.38	0
