Measurement: Raman, 514 nm, ccw, Raman Data Processed
Mineral: Andalusite
Rruff sample: R050561
Ideal chemistry: Al_2_SiO_5_
Locality: Cargo Muchacho Mountain, Imperial County, California
Source: Dave Bunk Minerals
Description: Brown coarsely crystalline massive
Measured chemistry: (Al_1.98_Fe^3+^_0.02_)_Î£=2_Si_1.00_O_5_
Pin_id: M00245
Orientation: Laser parallel to -b* (0 -1 0). Fiducial mark perpendicular to laser is parallel to -c [0 0 -1]
Raman shift (cm-1)	intensity
157.455	0
162.359	100.73
167.261	226.696
172.161	74.7334
177.058	15.0078
181.952	73.7353
186.845	596.682
191.734	1651.46
196.622	1639.14
201.507	2006.43
206.389	864.33
211.269	172.656
216.147	96.0176
221.022	176.054
225.895	348.171
230.765	496.74
235.633	808.871
240.498	1620.69
245.361	1568.02
250.222	655.448
255.08	57.5244
259.936	184.194
264.789	24.29
269.64	368.842
274.488	1554.21
279.334	4525.45
284.178	10371.6
289.019	18271.7
293.857	22721.8
298.693	9007.77
303.527	2126.09
308.358	1446.66
313.187	5807.15
318.013	13378.8
322.837	21206.6
327.659	9063.38
332.478	2602.04
337.294	1466.28
342.108	1796.84
346.92	3795.55
351.729	8747.59
356.535	16523.8
361.34	18620
366.141	9022.89
370.94	3785.26
375.737	2011.03
380.531	874.148
385.323	493.613
390.113	804.421
394.9	1033.55
399.684	564.514
404.466	862.122
409.245	1806.78
414.022	3172.4
418.797	5080.06
423.569	4451.69
428.338	3697.26
433.105	3947.74
437.87	4309.12
442.632	4996.37
447.391	5284.53
452.149	5752.2
456.903	3322.56
461.655	1649.37
466.405	1186.56
471.152	994.424
475.897	1286.82
480.639	1817.77
485.378	1328.13
490.116	254.416
494.85	441.263
499.582	580.596
504.312	89.6084
509.039	460.752
513.764	914.169
518.486	873.436
523.206	614.503
527.923	450.332
532.638	762.884
537.35	1345.12
542.059	2507.99
546.766	4529.47
551.471	6171.51
556.173	5199.06
560.873	3526.1
565.57	3302.58
570.264	3646.49
574.957	3965.14
579.646	4057.02
584.333	4254.16
589.018	4774.45
593.7	5719.46
598.379	7172.92
603.056	8641.34
607.73	9544.77
612.402	9444.13
617.072	8797.34
621.739	7661.93
626.403	6478.94
631.065	5628.13
635.724	4673.17
640.381	4151.79
645.035	3708.99
649.687	3074.63
654.336	2143.02
658.983	2033.91
663.627	2375.02
668.268	1526.32
672.907	1258.73
677.544	1532.22
682.178	1594.73
686.809	1865.2
691.438	1825.59
696.065	1857.84
700.688	1727.9
705.31	1855.73
709.929	2231.67
714.545	2439
719.158	2160
723.77	794.473
728.378	76.875
732.984	174.059
737.588	267.478
742.189	623.119
746.787	778.09
751.383	329.174
755.976	402.334
760.567	44.4463
765.155	63.2441
769.741	290.882
774.324	23.9229
778.904	131.266
783.482	72.6602
788.058	229.077
792.631	446.464
797.201	986.69
801.769	1921.74
806.334	2984.61
810.897	3487.27
815.457	3489.72
820.014	3801.94
824.569	3421.93
829.122	2566.66
833.671	2134.15
838.219	1216.38
842.763	343.35
847.306	24.8848
851.845	75.9531
856.382	35.9111
860.917	149.078
865.448	52.207
869.978	268.514
874.505	379.731
879.029	582.84
883.55	670.805
888.069	1107.66
892.586	1606.39
897.1	2389.47
901.611	4289.12
906.12	7320.27
910.626	17165.3
915.129	37738.9
919.63	55168.9
924.129	36554.5
928.625	24058.8
933.118	13569.7
937.609	7190.94
942.097	4536.43
946.582	3876.26
951.065	3434.44
955.546	2472
960.023	1802.35
964.499	1050.4
968.971	896.227
973.441	802.855
977.909	1061.88
982.374	1008.14
986.836	746.127
991.295	905.303
995.753	1176.72
1000.21	2420.78
1004.66	3723.17
1009.11	3835.14
1013.55	4075.93
1018	5203.04
1022.44	4699.47
1026.88	2896.59
1031.32	1779.29
1035.75	1145.55
1040.18	900.923
1044.61	706.848
1049.04	612.519
1053.46	1162.75
1057.88	2804.3
1062.3	5780.99
1066.71	5227.8
1071.13	2296.8
1075.54	1237.26
1079.94	898.438
1084.35	915.446
1088.75	919.548
1093.15	856.326
1097.55	822.416
1101.94	894.908
1106.34	1363.71
1110.73	1455.53
1115.11	920.27
1119.5	276.259
1123.88	221.454
1128.26	78.9512
1132.63	13.6016
1137.01	25.5957
1141.38	74.4746
1145.75	113.008
1150.12	1.30078
1154.48	13.3877
1158.84	57.707
1163.2	14.418
1167.55	32.5752
1171.91	135.194
1176.26	69.2588
1180.61	77.6465
1184.95	163.281
1189.29	132.245
1193.63	130.701
1197.97	136.787
1202.31	90.8418
1206.64	150.181
1210.97	26.2373
1215.29	32.1865
1219.62	110.512
1223.94	53.7051
1228.26	249.648
1232.57	43.5537
1236.89	53.0527
1241.2	93.3398
1245.51	120.367
1249.81	94.4414
1254.12	41.956
1258.42	100.394
1262.72	117.945
1267.01	146.928
1271.3	63.8154
1275.59	128.179
1279.88	167.06
1284.17	30.6816
1288.45	46.4287
1292.73	194.996
1297.01	37.6475
1301.28	49.9023
1305.55	81.8164
1309.82	90.8281
1314.09	124.942
1318.35	90.9131
1322.61	128.503
1326.87	71.6836
1331.13	16.3555
1335.38	131.597
1339.63	125.352
1343.88	195.636
1348.12	306.648
1352.37	61.6221
1356.61	100.275
1360.85	142.224
1365.08	270.094
1369.31	174.364
1373.54	377.938
1377.77	216.12
1381.99	249.707
1386.22	297.625
1390.43	315.75
1394.65	251.76
1398.87	13.3701
1403.08	128.976
1407.29	189.315
1411.49	149.16
1415.69	16.2617
1419.89	178.425
1424.09	173.798
1428.29	150.314
1432.48	100.715
1436.67	188.977
1440.86	156.266
1445.04	262.35
1449.23	246.581
1453.4	266.059
1457.58	348.042
1461.76	347.021
1465.93	222.027
1470.1	286.403
1474.26	76.1543
1478.43	129.779
1482.59	162.143
1486.75	124.166
1490.9	58.1279
1495.06	151.976
1499.21	0.794922
1503.35	67.4463
1507.5	77.1377
1511.64	29.5293
1515.78	10.2383
1519.92	139.47
1524.05	169.965
1528.18	109.779
1532.31	30.2441
1536.44	123.172
1540.56	166.341
1544.69	84.7695
1548.8	241.201
1552.92	456.908
1557.03	215.034
1561.14	143.82
1565.25	263.247
1569.36	0.586914
