Measurement: Raman, 514 nm, ccw, Raman Data Processed
Mineral: Andalusite
Rruff sample: R060212
Ideal chemistry: Al_2_SiO_5_
Locality: Brazil
Source: Marcus Origlieri
Description: Transparent yellow-green water-worn pebble
Measured chemistry: (Al_1.98_Fe^3+^_0.02_)_Î£=2_Si_1.00_O_5_
Pin_id: L00827
Orientation: Laser parallel to -b* (0 -1 0). Fiducial mark perpendicular to laser is parallel to c [0 0 1]
Raman shift (cm-1)	intensity
99.649	0
104.582	10.0938
109.512	1000.21
114.44	272.622
119.365	413.435
124.288	445.631
129.209	359.691
134.127	643.839
139.043	1031.16
143.956	1041.22
148.867	725.443
153.775	464.386
158.681	408.524
163.585	539.394
168.486	507.462
173.385	576.24
178.282	384.062
183.176	533.232
188.067	738.653
192.956	983.555
197.843	957.27
202.727	1054.89
207.609	164.856
212.489	151.251
217.366	112.225
222.24	6.24414
227.112	18.2959
231.982	99.6904
236.849	232.209
241.714	400.658
246.577	20.5312
251.437	159.866
256.294	164.643
261.149	305.737
266.002	455.516
270.852	877.226
275.7	1963.61
280.545	3443.43
285.388	8783.42
290.229	16936.7
295.067	10310.5
299.902	3616.98
304.735	1566.96
309.566	1267.72
314.394	3725.17
319.22	8972.29
324.043	6692.33
328.864	2670.81
333.682	1677.64
338.498	1195.04
343.311	1271.96
348.122	1652.34
352.931	3775.41
357.737	6602.35
362.54	4145.07
367.341	1982.92
372.14	981.15
376.936	534.359
381.73	337.221
386.521	339.519
391.31	309.107
396.096	138.281
400.88	39.3164
405.661	39.5293
410.44	346.168
415.216	960.186
419.99	1048.55
424.761	261.225
429.53	91.8496
434.297	42.748
439.061	68.9981
443.822	151.74
448.581	882.582
453.337	556.76
458.091	55.1719
462.843	8.32812
467.592	5.02344
472.338	335.285
477.082	383.471
481.824	503.438
486.563	518.506
491.3	215.992
496.034	36.1855
500.765	131.041
505.494	29.5879
510.221	167.809
514.945	283.449
519.666	42.7793
524.385	175.084
529.102	152.385
533.816	169.443
538.527	304.705
543.236	1074.35
547.943	2337.74
552.647	2584.89
557.348	1189.96
562.047	649.932
566.744	416.805
571.438	388.736
576.129	257.578
580.818	48.8613
585.504	193.721
590.188	19.373
594.87	125.824
599.549	76.9492
604.225	474.863
608.899	394.426
613.57	251.815
618.239	190.316
622.905	212.603
627.569	289.477
632.23	279.699
636.889	62.0254
641.545	192.125
646.198	335.953
650.849	135.697
655.498	284.391
660.144	432.549
664.787	396.315
669.428	108.846
674.067	160.135
678.703	68.1621
683.336	382.447
687.967	227.838
692.595	240.106
697.221	118.121
701.844	479.885
706.465	617.492
711.083	759.736
715.698	978.305
720.311	741.402
724.922	264.543
729.53	25.1367
734.135	146.791
738.738	162.059
743.338	210.201
747.936	240.182
752.531	240.914
757.124	36.5117
761.714	93.8144
766.302	28.2715
770.887	52.8086
775.469	112.418
780.049	86.9062
784.626	85.0898
789.201	231.871
793.773	162.193
798.343	122.561
802.91	671.713
807.475	414.633
812.037	349.562
816.596	309.652
821.153	22.8848
825.707	284.69
830.259	376.478
834.808	450.072
839.355	139.486
843.899	118.652
848.441	31.6113
852.98	58.584
857.516	104.539
862.05	220.732
866.581	205.803
871.11	172.959
875.636	25.0996
880.159	23.4766
884.68	245.019
889.199	383.522
893.714	450.631
898.228	895.738
902.738	1329.18
907.246	2710.74
911.752	7263.15
916.255	19020.9
920.755	19439.7
925.253	10550.5
929.748	6879.52
934.241	3445.51
938.731	2432.55
943.218	2100.64
947.703	2565.81
952.186	2171.06
956.665	1182
961.142	481.418
965.617	344.93
970.089	212.543
974.558	44.2656
979.025	51.2344
983.489	151.758
987.951	177.953
992.41	454.184
996.866	143.359
1001.32	67.6289
1005.77	239.477
1010.22	770.625
1014.67	1777.69
1019.11	2852.83
1023.55	2095.54
1027.99	987.266
1032.42	510.926
1036.86	240.965
1041.29	450.07
1045.72	436.918
1050.14	595.254
1054.56	952.141
1058.98	2555.5
1063.4	5047.5
1067.82	3273.84
1072.23	1519.34
1076.64	716.09
1081.05	437.125
1085.45	475.394
1089.85	422.957
1094.25	662.793
1098.65	573.887
1103.04	543.246
1107.43	818.859
1111.82	1100.81
1116.21	544.152
1120.59	841.992
1124.97	346.883
1129.35	52.6875
1133.73	194.977
1138.1	74.2969
1142.47	43.457
1146.84	18.5586
1151.21	229.238
1155.57	59.2539
1159.93	195.019
1164.29	159.18
1168.64	53.6797
1172.99	189.527
1177.34	2.57031
1181.69	212.824
1186.04	98.3867
1190.38	135.09
1194.72	121.949
1199.05	67.9766
1203.39	230.191
1207.72	18.4141
1212.05	310.106
1216.37	240.793
1220.7	347.633
1225.02	277.648
1229.34	143.816
1233.65	580.133
1237.97	410.562
1242.28	405.176
1246.59	306
1250.89	639.91
1255.19	585.941
1259.49	388.301
1263.79	482.234
1268.09	489.91
1272.38	352.883
1276.67	283.598
1280.95	535.285
1285.24	294.66
1289.52	523.598
1293.8	452.684
1298.08	453.57
1302.35	853.606
1306.62	309.762
1310.89	500.062
1315.15	324.301
1319.42	740.387
1323.68	606.434
1327.94	577.578
1332.19	657.676
1336.44	718.945
1340.69	607.371
1344.94	569.098
1349.19	473.496
1353.43	389.098
1357.67	381.551
1361.9	498.356
1366.14	232.789
1370.37	298.742
1374.6	560.356
1378.83	168.223
1383.05	99.5742
1387.27	41.4219
1391.49	368.801
1395.7	168.344
1399.92	190.019
1404.13	131.293
1408.34	37.3672
1412.54	51.8789
1416.74	222.758
1420.94	73.2617
1425.14	10.6758
1429.34	39.043
1433.53	72.0859
1437.72	244.566
1441.9	222.406
1446.09	421.098
1450.27	303.438
1454.45	30.5703
1458.63	343.602
1462.8	323.465
1466.97	140.133
1471.14	210.586
1475.31	432.609
1479.47	247.231
1483.63	88.8906
1487.79	387.449
1491.94	296.148
1496.09	130.156
1500.24	189.473
1504.39	24.0508
1508.54	162.809
1512.68	249.582
1516.82	159.137
1520.95	277.894
1525.09	258.055
1529.22	314.691
1533.35	88.3008
1537.47	305.516
1541.6	245.547
1545.72	169.059
1549.83	6.32422
1553.95	337.332
1558.06	296.059
1562.17	129.188
1566.28	156.566
1570.38	0
