Measurement: Raman, 514 nm, ccw, Raman Data Processed
Mineral: Andalusite
Rruff sample: R060197
Ideal chemistry: Al_2_SiO_5_
Locality: Brazil
Source: Marcus Origlieri
Description: Green colored water worn pebble
Measured chemistry: (Al_1.97_Mn^3+^_0.03_)_Î£=2_Si_1.00_O_5_
Pin_id: M00466
Orientation: Laser parallel to a* (1 0 0). Fiducial mark perpendicular to laser is parallel to -b [0 -1 0]
Raman shift (cm-1)	intensity
91.012	0
95.948	187.683
100.883	225.044
105.815	500.8
110.744	2184.37
115.671	888.891
120.596	433.872
125.519	541.562
130.439	843.122
135.356	1035.82
140.271	2429.35
145.184	2565.67
150.094	1310
155.002	1082.9
159.908	940.689
164.811	1221.54
169.711	1316.76
174.61	1016.57
179.505	1006.11
184.399	1044.29
189.29	1855.05
194.178	2132.27
199.064	1899.42
203.948	1825.3
208.829	256.905
213.708	106.294
218.585	22.5068
223.459	239.431
228.33	103.565
233.199	133.381
238.066	475.181
242.93	565.887
247.792	187.332
252.651	447.423
257.508	788.991
262.363	1587.61
267.215	1816.1
272.064	3657.29
276.912	6100.81
281.756	12362.7
286.598	22269.6
291.438	22127.3
296.276	10168.3
301.111	4717.44
305.943	3480.6
310.773	6570.97
315.601	13330.2
320.426	15144.2
325.248	7592.13
330.068	4354.85
334.886	3672.38
339.701	3666.69
344.514	4793.78
349.324	8209.01
354.132	12702.5
358.938	11743.6
363.741	5852.55
368.541	2998.14
373.339	1694.71
378.135	1062.68
382.928	1040.35
387.718	925.267
392.506	694.408
397.292	155.402
402.075	158.232
406.856	374.897
411.634	606.394
416.41	1469.73
421.183	863.916
425.954	290.966
430.722	214.181
435.488	206.331
440.251	14.5654
445.012	303.032
449.77	603.601
454.526	235.21
459.28	405.863
464.03	1039.52
468.779	1725.17
473.525	2457.82
478.268	2938.45
483.009	2819.06
487.747	1080.93
492.483	86.3164
497.217	22.0859
501.948	579.542
506.676	899.899
511.402	1032.71
516.125	714.419
520.846	390.627
525.565	158.23
530.281	317.669
534.994	347.934
539.705	1485.02
544.413	3824.19
549.119	4937.57
553.822	2635.89
558.523	1033.31
563.222	905.88
567.917	1120.04
572.611	1001.33
577.302	763.807
581.99	508.333
586.676	705.14
591.359	892.928
596.04	1180.9
600.718	1272.87
605.394	1265.43
610.067	819.562
614.737	644.237
619.406	222.432
624.071	211.116
628.734	85.9482
633.395	198.452
638.053	185.672
642.708	382.135
647.361	205.962
652.012	118.052
656.66	209.224
661.305	1044.64
665.948	845.291
670.588	846.156
675.226	1180.21
679.861	1620.47
684.494	1812.57
689.124	2104.93
693.752	2588.93
698.377	2865.08
702.999	3428.77
707.619	3829.06
712.237	3603.41
716.852	2813.33
721.464	1450
726.074	188.349
730.681	131.299
735.286	328.765
739.888	764.762
744.488	1089.32
749.085	1544.43
753.68	1496.07
758.272	1460.22
762.861	1090.86
767.448	1226.45
772.033	1227.55
776.614	1614.55
781.194	2669.08
785.77	4568.31
790.345	5928.96
794.916	4714.52
799.485	2830.32
804.052	1557.62
808.616	811.422
813.177	414.713
817.736	88.3643
822.292	124.811
826.846	78.9629
831.397	9.77148
835.945	100.772
840.491	284.258
845.035	236.475
849.576	114.891
854.114	28.6016
858.65	412.188
863.183	775.396
867.713	1294.81
872.241	1174.45
876.767	992.047
881.29	989.121
885.81	924.744
890.328	1274.31
894.843	1600.67
899.356	2551.28
903.866	4780.11
908.373	10469.5
912.878	26058.4
917.38	43245.4
921.88	28695.5
926.377	19044.5
930.872	12022.4
935.364	7380.5
939.853	6019.16
944.34	6968.95
948.824	7398.33
953.306	5451.5
957.785	3380.91
962.261	2636.36
966.735	2371.3
971.207	2041.56
975.675	1694.2
980.141	1193.48
984.605	736.188
989.066	781.357
993.524	550.58
997.98	453.367
1002.43	970.144
1006.88	1526.95
1011.33	3246.75
1015.78	5171.1
1020.22	5307.43
1024.66	3528.54
1029.1	2289.34
1033.53	1742.31
1037.97	1305.95
1042.4	1349.49
1046.82	1369.58
1051.25	2116.18
1055.67	4242.16
1060.09	6394.73
1064.51	4278.23
1068.92	2810.6
1073.33	2125.12
1077.74	2017.41
1082.15	2136.52
1086.55	2198.55
1090.95	2061.78
1095.35	2318.15
1099.75	2671.54
1104.14	3368.13
1108.53	3532.09
1112.92	2017.14
1117.31	1493.21
1121.69	1376.93
1126.07	1535.74
1130.45	777.361
1134.82	457.791
1139.19	297.027
1143.57	216.062
1147.93	61.8789
1152.3	13.3203
1156.66	201.438
1161.02	202.76
1165.38	5.16016
1169.73	1.2832
1174.08	297.49
1178.43	161.06
1182.78	158.857
1187.12	153.779
1191.46	15.416
1195.8	283.162
1200.14	5.49609
1204.47	327.541
1208.8	412.371
1213.13	476.023
1217.46	1433.49
1221.78	2378.76
1226.1	3655.89
1230.42	5342.93
1234.73	5559.79
1239.04	6811.46
1243.35	7748.92
1247.66	8278.15
1251.97	7963.15
1256.27	7559.93
1260.57	6526.55
1264.86	5852.05
1269.16	4762.41
1273.45	3732.59
1277.74	2686.19
1282.03	2189.59
1286.31	1527.67
1290.59	1190.22
1294.87	875.762
1299.14	750.512
1303.42	615.33
1307.69	766.494
1311.95	314.727
1316.22	326.562
1320.48	256.644
1324.74	191.982
1329	478.754
1333.26	473.787
1337.51	334.19
1341.76	187.174
1346	514.809
1350.25	413.592
1354.49	363.174
1358.73	285.559
1362.96	305.807
1367.2	260.236
1371.43	291.045
1375.66	357.926
1379.88	245.281
1384.11	219.543
1388.33	546.322
1392.54	633.68
1396.76	825.135
1400.97	1081.83
1405.18	876.092
1409.39	1106.81
1413.59	1261.14
1417.8	1252.05
1421.99	1303.69
1426.19	1258.18
1430.38	1114.98
1434.58	1078.12
1438.77	956.723
1442.95	1007.1
1447.13	567.375
1451.32	519.197
1455.49	347.635
1459.67	169.523
1463.84	57.1289
1468.01	631.461
1472.18	511.641
1476.35	8.57031
1480.51	97.3086
1484.67	112.166
1488.83	204.107
1492.98	95.6309
1497.13	117.644
1501.28	148.031
1505.43	33.1133
1509.57	36.5312
1513.71	286.119
1517.85	33.7168
1521.99	99.5801
1526.12	67.5078
1530.25	354.18
1534.38	172.879
1538.5	124.022
1542.62	134.102
1546.74	220.068
1550.86	80.1094
1554.98	310.486
1559.09	226.531
1563.2	254.193
1567.31	89.1367
