Measurement: Raman, 514 nm, ccw, Raman Data Processed
Mineral: Andalusite
Rruff sample: R060197
Ideal chemistry: Al_2_SiO_5_
Locality: Brazil
Source: Marcus Origlieri
Description: Green colored water worn pebble
Measured chemistry: (Al_1.97_Mn^3+^_0.03_)_Î£=2_Si_1.00_O_5_
Pin_id: L01138
Orientation: Laser parallel to -b* (0 -1 0). Fiducial mark perpendicular to laser is parallel to -c [0 0 -1]
Raman shift (cm-1)	intensity
123.058	0
127.979	4.79688
132.898	162.175
137.814	203.087
142.728	151.117
147.639	278.272
152.549	291.129
157.455	245.774
162.359	160.164
167.261	595.059
172.161	520.075
177.058	471.43
181.952	376.445
186.845	520.723
191.734	985.936
196.622	1308.04
201.507	1107.29
206.389	217.925
211.269	36.2119
216.147	12.2861
221.022	74.0772
225.895	121.098
230.765	60.5303
235.633	143.754
240.498	144.551
245.361	112.942
250.222	110.105
255.08	719.491
259.936	1784.47
264.789	1886.05
269.64	2961.39
274.488	5972.03
279.334	9291.57
284.178	18141.3
289.019	24083.7
293.857	15020.2
298.693	6996.88
303.527	4188.96
308.358	4294.01
313.187	8105
318.013	12619.4
322.837	8267.05
327.659	4840.96
332.478	3777.39
337.294	3707.33
342.108	3764.77
346.92	5008
351.729	7656.13
356.535	8991.15
361.34	5596.73
366.141	2928.31
370.94	1680.94
375.737	1226.01
380.531	992.594
385.323	787.629
390.113	658.096
394.9	469.023
399.684	305.422
404.466	106.289
409.245	341.627
414.022	491.428
418.797	821.644
423.569	264.281
428.338	76.3398
433.105	143.553
437.87	16.9883
442.632	317.84
447.391	623.176
452.149	985.35
456.903	395.471
461.655	602.186
466.405	1406.46
471.152	1932.3
475.897	2211.72
480.639	1724.69
485.378	860.229
490.116	120.885
494.85	26.457
499.582	61.6445
504.312	379.07
509.039	624.346
513.764	628.535
518.486	453.5
523.206	468.963
527.923	319.699
532.638	400.336
537.35	1159.24
542.059	3006.61
546.766	5112.48
551.471	3655.86
556.173	1279.71
560.873	643.988
565.57	912.908
570.264	1092.97
574.957	901.606
579.646	576.131
584.333	502.695
589.018	717.189
593.7	695.465
598.379	885.053
603.056	862.027
607.73	941.297
612.402	625.846
617.072	476.66
621.739	445.725
626.403	190.019
631.065	113.533
635.724	38.1133
640.381	196.336
645.035	168.74
649.687	90.2481
654.336	70.8008
658.983	262.467
663.627	457.275
668.268	133.213
672.907	279.268
677.544	479.418
682.178	733.371
686.809	1034.78
691.438	1025.49
696.065	1416.04
700.688	1525.84
705.31	2121.46
709.929	2246.84
714.545	1919.76
719.158	1167.18
723.77	227.871
728.378	85.0801
732.984	9.8457
737.588	523.885
742.189	645.627
746.787	1177.11
751.383	1397.34
755.976	1357.31
760.567	1015.01
765.155	822.441
769.741	1060.68
774.324	1119.89
778.904	1870.2
783.482	3312.32
788.058	5308.18
792.631	5741.81
797.201	3603.19
801.769	2099.33
806.334	1231.19
810.897	384.795
815.457	105.123
820.014	29.1406
824.569	237.769
829.122	235.012
833.671	397.94
838.219	1.48242
842.763	300.801
847.306	116.088
851.845	243.402
856.382	160.908
860.917	545.578
865.448	680.863
869.978	893.82
874.505	533.477
879.029	696.287
883.55	482.984
888.069	320.736
892.586	594.414
897.1	1244.41
901.611	2219.91
906.12	4568.59
910.626	11980.6
915.129	27489.2
919.63	25835.8
924.129	14671.2
928.625	9400.4
933.118	5450.38
937.609	3427.12
942.097	3193.61
946.582	3464.84
951.065	3269.34
955.546	2135.68
960.023	1695.18
964.499	1753.04
968.971	2003.84
973.441	1488.3
977.909	1114.77
982.374	894.672
986.836	347.434
991.295	149.115
995.753	38.8867
1000.21	283.51
1004.66	1075.61
1009.11	1807.08
1013.55	3727.98
1018	4719.31
1022.44	3822.36
1026.88	2477.04
1031.32	1541.8
1035.75	1444.06
1040.18	1078.9
1044.61	1094.26
1049.04	1940.38
1053.46	3727.14
1057.88	6884.44
1062.3	5072
1066.71	2775.59
1071.13	1734.81
1075.54	1694.99
1079.94	1572.73
1084.35	1646.17
1088.75	1511.33
1093.15	1446.23
1097.55	2047.87
1101.94	2800.21
1106.34	2936.32
1110.73	2376.57
1115.11	1715.34
1119.5	970.793
1123.88	1102.84
1128.26	566.633
1132.63	315.144
1137.01	45.6426
1141.38	173.924
1145.75	96.0312
1150.12	129.344
1154.48	17.1113
1158.84	136.336
1163.2	143.191
1167.55	82.6562
1171.91	43.9336
1176.26	33.3789
1180.61	7.71289
1184.95	199.527
1189.29	263.51
1193.63	220.236
1197.97	328.691
1202.31	276.887
1206.64	348.84
1210.97	440.582
1215.29	1059.12
1219.62	1374.47
1223.94	2005.64
1228.26	2941.64
1232.57	3532.48
1236.89	3975.22
1241.2	4656.03
1245.51	5094.94
1249.81	5432.73
1254.12	5134.52
1258.42	4933.18
1262.72	4061.95
1267.01	3791.32
1271.3	2982.78
1275.59	2478.13
1279.88	2005.79
1284.17	1544.83
1288.45	1456.24
1292.73	1318.55
1297.01	1087.49
1301.28	817.133
1305.55	755.723
1309.82	732.188
1314.09	814.859
1318.35	828.816
1322.61	603.18
1326.87	534.352
1331.13	658.793
1335.38	661.191
1339.63	676.969
1343.88	502.004
1348.12	791.312
1352.37	825.898
1356.61	956.297
1360.85	661.684
1365.08	578.957
1369.31	762.887
1373.54	789.57
1377.77	737.43
1381.99	894.84
1386.22	584.199
1390.43	850.906
1394.65	1024.16
1398.87	658.129
1403.08	1046.82
1407.29	831.363
1411.49	1273.03
1415.69	890.805
1419.89	620.066
1424.09	878.984
1428.29	801.465
1432.48	868.984
1436.67	917.297
1440.86	773.32
1445.04	832.609
1449.23	672.106
1453.4	436.269
1457.58	435.16
1461.76	524.797
1465.93	494.203
1470.1	395.184
1474.26	278.953
1478.43	352.098
1482.59	147.266
1486.75	116.812
1490.9	73.3945
1495.06	56.918
1499.21	33.7305
1503.35	0.550781
1507.5	294.594
1511.64	120.25
1515.78	331.637
1519.92	154.414
1524.05	266.742
1528.18	310.758
1532.31	116.984
1536.44	210.703
1540.56	412.398
1544.69	0.601563
1548.8	191.144
1552.92	401.496
1557.03	513.582
1561.14	223.297
1565.25	278.691
1569.36	134.258
