Measurement: Raman, 514 nm, ccw, Raman Data Processed
Mineral: Andalusite
Rruff sample: R050258
Ideal chemistry: Al_2_SiO_5_
Locality: Bautista Canyon, near Hemet, Riverside County, California, USA
Source: Marcus Origlieri
Description: Brown fragment
Measured chemistry: Al_2.00_Si_1.00_O_5_
Pin_id: L01170
Orientation: Laser parallel to a* (1 0 0). Fiducial mark perpendicular to laser is parallel to -b [0 -1 0]
Raman shift (cm-1)	intensity
113.208	0
118.134	147.857
123.058	137.489
127.979	88.8027
132.898	238.118
137.814	325.576
142.728	343.969
147.639	181.182
152.549	134.329
157.455	171.664
162.359	343.152
167.261	415.682
172.161	409.978
177.058	222.109
181.952	403.879
186.845	449
191.734	442.758
196.622	464.078
201.507	611.539
206.389	297.537
211.269	243.31
216.147	121.082
221.022	158.537
225.895	236.199
230.765	188.697
235.633	633.152
240.498	1028.19
245.361	906.482
250.222	592.768
255.08	378.705
259.936	677.394
264.789	549.422
269.64	728.371
274.488	1771.98
279.334	2953.17
284.178	5862.38
289.019	12150.4
293.857	16114.8
298.693	6620.94
303.527	2343.91
308.358	996.58
313.187	2130.9
318.013	4677.82
322.837	7571.95
327.659	3956.45
332.478	2490.82
337.294	2058.6
342.108	1841.78
346.92	2090.35
351.729	3518.69
356.535	7282.14
361.34	8019.39
366.141	3800.65
370.94	1698.3
375.737	735.934
380.531	577.58
385.323	489.977
390.113	394.404
394.9	269.301
399.684	161.529
404.466	158.859
409.245	211.5
414.022	190.475
418.797	392.731
423.569	135.209
428.338	20.2285
433.105	53.3047
437.87	120.85
442.632	58.9121
447.391	224.26
452.149	734.24
456.903	350.223
461.655	5.76172
466.405	104.936
471.152	263.363
475.897	295.652
480.639	147.129
485.378	377.945
490.116	253.451
494.85	81.6875
499.582	164.342
504.312	127.897
509.039	54.3887
513.764	15.6699
518.486	192.732
523.206	107.42
527.923	44.8184
532.638	22.8086
537.35	281.168
542.059	485.15
546.766	1818.95
551.471	2393.03
556.173	1381.7
560.873	944.223
565.57	607.502
570.264	944.227
574.957	928.439
579.646	412.338
584.333	313.982
589.018	328.41
593.7	582.271
598.379	450.324
603.056	882.416
607.73	602.529
612.402	301.244
617.072	135.369
621.739	198.69
626.403	184.943
631.065	433.281
635.724	452.131
640.381	282.742
645.035	141.373
649.687	320.088
654.336	83.6621
658.983	234.057
663.627	370.56
668.268	53.8711
672.907	45.9062
677.544	245.318
682.178	35.5645
686.809	237.775
691.438	139.438
696.065	98.7949
700.688	4.02539
705.31	123.602
709.929	370.578
714.545	452.502
719.158	1050.4
723.77	652.039
728.378	174.951
732.984	196.367
737.588	28.7812
742.189	135.426
746.787	182.305
751.383	153.736
755.976	10.8926
760.567	0.476563
765.155	27.6074
769.741	31.4883
774.324	194.727
778.904	302.522
783.482	140.647
788.058	76.8418
792.631	228.168
797.201	189.859
801.769	172.258
806.334	88.0996
810.897	292.826
815.457	16.873
820.014	225.629
824.569	390.492
829.122	65.6211
833.671	321.584
838.219	139.422
842.763	277.266
847.306	79.7109
851.845	15.8867
856.382	292.18
860.917	277.172
865.448	66.3359
869.978	174.297
874.505	234.957
879.029	84.7344
883.55	73.4453
888.069	325.856
892.586	374.617
897.1	476.062
901.611	771.754
906.12	1730.51
910.626	3354.09
915.129	8882.43
919.63	16485.6
924.129	10256.6
928.625	4846.83
933.118	2856.52
937.609	2052.32
942.097	3183.22
946.582	6219.57
951.065	9138.38
955.546	5895.65
960.023	2464.62
964.499	1324.32
968.971	694.332
973.441	338
977.909	480.32
982.374	137.473
986.836	25.6758
991.295	370.559
995.753	291.746
1000.21	409.559
1004.66	415.981
1009.11	752.316
1013.55	1883.11
1018	3884.36
1022.44	3447.1
1026.88	1998.13
1031.32	1082.44
1035.75	336.898
1040.18	419.867
1044.61	215.574
1049.04	325.148
1053.46	502.121
1057.88	958.266
1062.3	2533.6
1066.71	4223.21
1071.13	2271.84
1075.54	604.156
1079.94	288.469
1084.35	67.3672
1088.75	236.297
1093.15	114.629
1097.55	578.332
1101.94	772.188
1106.34	1202.19
1110.73	1565.35
1115.11	1266.08
1119.5	400.426
1123.88	661.414
1128.26	416.285
1132.63	201.734
1137.01	31.3633
1141.38	118.176
1145.75	86.875
1150.12	202.125
1154.48	27.7617
1158.84	312.41
1163.2	262.078
1167.55	192.754
1171.91	386.305
1176.26	165.684
1180.61	124.078
1184.95	148.535
1189.29	256.625
1193.63	9.94922
1197.97	218.301
1202.31	102.746
1206.64	45.0312
1210.97	75.8906
1215.29	112.703
1219.62	74.8828
1223.94	209.992
1228.26	202.731
1232.57	87.4727
1236.89	95.4414
1241.2	165.793
1245.51	120.551
1249.81	144.176
1254.12	366.887
1258.42	75.332
1262.72	147.664
1267.01	3.85156
1271.3	190.621
1275.59	270.977
1279.88	565.996
1284.17	612.551
1288.45	386.996
1292.73	284.621
1297.01	477.668
1301.28	503.266
1305.55	136.781
1309.82	307.039
1314.09	418.144
1318.35	225.887
1322.61	310.141
1326.87	445.695
1331.13	105.574
1335.38	353.316
1339.63	289.621
1343.88	432.359
1348.12	242.914
1352.37	225.723
1356.61	501.879
1360.85	326.383
1365.08	420.246
1369.31	393.09
1373.54	268.191
1377.77	405.383
1381.99	339.684
1386.22	614.637
1390.43	346.723
1394.65	143.793
1398.87	40.0898
1403.08	167.508
1407.29	244.945
1411.49	158.121
1415.69	91.2969
1419.89	304.438
1424.09	207.195
1428.29	53.0195
1432.48	81.9805
1436.67	41.6562
1440.86	275.742
1445.04	11.3789
1449.23	354.121
1453.4	83.0625
1457.58	63.4766
1461.76	29.2656
1465.93	493.941
1470.1	5.56641
1474.26	427.273
1478.43	558.465
1482.59	569.023
1486.75	181.215
1490.9	491.519
1495.06	517.074
1499.21	265.234
1503.35	534.445
1507.5	110.641
1511.64	431.75
1515.78	205.777
1519.92	248.465
1524.05	442.246
1528.18	227.078
1532.31	434.16
1536.44	126.285
1540.56	86.6055
1544.69	72.3555
1548.8	283.965
1552.92	180.289
1557.03	141.477
1561.14	249.598
1565.25	673.348
1569.36	62.8047
