Measurement: Raman, 514 nm, ccw, Raman Data Processed
Mineral: Andalusite
Rruff sample: R060212
Ideal chemistry: Al_2_SiO_5_
Locality: Brazil
Source: Marcus Origlieri
Description: Transparent yellow-green water-worn pebble
Measured chemistry: (Al_1.98_Fe^3+^_0.02_)_Î£=2_Si_1.00_O_5_
Pin_id: M00278
Orientation: Laser parallel to c* (0 0 1). Fiducial mark perpendicular to laser is parallel to -a [-1 0 0]
Raman shift (cm-1)	intensity
99.649	0
104.582	36.8633
109.512	1036.7
114.44	228.489
119.365	214.799
124.288	9.99658
129.209	76.7881
134.127	141.306
139.043	312.137
143.956	144.99
148.867	51.7642
153.775	135.989
158.681	89.5552
163.585	578.88
168.486	577.045
173.385	452.671
178.282	401.514
183.176	439.742
188.067	1082.86
192.956	1006.53
197.843	1013.16
202.727	1496.92
207.609	236.525
212.489	23.9292
217.366	67.814
222.24	60.6435
227.112	103.51
231.982	164.126
236.849	681.795
241.714	1093.47
246.577	534.407
251.437	348.005
256.294	370.185
261.149	765.231
266.002	808.294
270.852	1275.54
275.7	2585.6
280.545	5849.96
285.388	12755.1
290.229	20943.3
295.067	10710.7
299.902	3639.98
304.735	1987.89
309.566	3799.72
314.394	9493.24
319.22	20424
324.043	11490.6
328.864	3836.78
333.682	2200.09
338.498	1970.56
343.311	2508.22
348.122	5414.11
352.931	11488.2
357.737	16708.6
362.54	9572.56
367.341	4459.92
372.14	2424.39
376.936	1468.1
381.73	922.764
386.521	824.704
391.31	1116.91
396.096	427.207
400.88	295.567
405.661	634.013
410.44	1111.57
415.216	2444.26
419.99	2088.12
424.761	592.154
429.53	162.379
434.297	151.013
439.061	37.6621
443.822	417.729
448.581	1059.62
453.337	802.499
458.091	103.156
462.843	9.11328
467.592	202.369
472.338	778.927
477.082	1237.78
481.824	1461.08
486.563	1087.13
491.3	563.372
496.034	148.761
500.765	271.151
505.494	281.678
510.221	388.966
514.945	253.882
519.666	181.601
524.385	201.57
529.102	193.779
533.816	296.222
538.527	457.897
543.236	1608.87
547.943	3306.27
552.647	3292.97
557.348	1313.89
562.047	667.029
566.744	419.378
571.438	379.084
576.129	307.674
580.818	62.2812
585.504	33.3115
590.188	27.3335
594.87	70.3584
599.549	252.659
604.225	529.08
608.899	382.738
613.57	250.563
618.239	147.545
622.905	82.1152
627.569	15.8096
632.23	118.294
636.889	7.25488
641.545	244.252
646.198	220.429
650.849	87.2402
655.498	210.964
660.144	881.629
664.787	738.311
669.428	423.004
674.067	594.7
678.703	580.092
683.336	693.785
687.967	931.112
692.595	788.734
697.221	832.312
701.844	1047.84
706.465	1483.66
711.083	2166.86
715.698	2594.55
720.311	1351.19
724.922	476.63
729.53	159.351
734.135	87.249
738.738	129.536
743.338	304.695
747.936	362.276
752.531	95.6123
757.124	6.36133
761.714	76.7139
766.302	50.7402
770.887	10.2617
775.469	32.8506
780.049	21.8154
784.626	121.593
789.201	416.249
793.773	433.046
798.343	400.473
802.91	579.791
807.475	546.006
812.037	146.122
816.596	20.6309
821.153	50.165
825.707	260.035
830.259	334.069
834.808	392.019
839.355	265.883
843.899	54.3477
848.441	38.9522
852.98	22.3779
857.516	153.302
862.05	135.351
866.581	338.356
871.11	345.444
875.636	326.364
880.159	453.226
884.68	513.033
889.199	806.793
893.714	1177.58
898.228	2048.77
902.738	3327.55
907.246	6835.74
911.752	18015
916.255	40346.4
920.755	34864.9
925.253	19797.5
929.748	12508.4
934.241	6381.45
938.731	3779.7
943.218	2701.25
947.703	2859
952.186	1996.78
956.665	1006.88
961.142	559.372
965.617	384.426
970.089	188.548
974.558	166.745
979.025	12.4639
983.489	125.127
987.951	87.4248
992.41	114.943
996.866	183.567
1001.32	311.312
1005.77	487.19
1010.22	774.649
1014.67	1656.33
1019.11	2085.59
1023.55	1428.97
1027.99	825.489
1032.42	618.782
1036.86	301.536
1041.29	416.225
1045.72	404.088
1050.14	503.339
1054.56	1088.39
1058.98	2574.84
1063.4	4198.69
1067.82	2476.25
1072.23	1155.63
1076.64	812.788
1081.05	656.003
1085.45	713.836
1089.85	577.2
1094.25	530.736
1098.65	739.297
1103.04	796.899
1107.43	970.512
1111.82	819.025
1116.21	600.934
1120.59	982.179
1124.97	946.966
1129.35	407.315
1133.73	271.66
1138.1	164.879
1142.47	204.326
1146.84	137.638
1151.21	52.9316
1155.57	282.202
1159.93	4.44629
1164.29	20.3906
1168.64	3.37793
1172.99	53.4512
1177.34	43.0947
1181.69	20.5498
1186.04	30.4482
1190.38	27.3086
1194.72	18.0889
1199.05	50.1162
1203.39	61.8984
1207.72	82.8877
1212.05	3.03418
1216.37	0.299805
1220.7	169.303
1225.02	366.831
1229.34	457.969
1233.65	691.348
1237.97	480.69
1242.28	712.995
1246.59	948.277
1250.89	927.516
1255.19	778.74
1259.49	783.943
1263.79	882.065
1268.09	859.106
1272.38	647.072
1276.67	477.963
1280.95	548.78
1285.24	408.522
1289.52	332.116
1293.8	457.667
1298.08	448.313
1302.35	537.746
1306.62	463.075
1310.89	559.502
1315.15	421.776
1319.42	528.904
1323.68	508.284
1327.94	318.769
1332.19	222.565
1336.44	100.552
1340.69	298.607
1344.94	227.263
1349.19	61.3447
1353.43	118.565
1357.67	174.815
1361.9	79.5547
1366.14	36.081
1370.37	191.492
1374.6	159.708
1378.83	165.794
1383.05	131.054
1387.27	126.735
1391.49	296.437
1395.7	134.231
1399.92	48.1641
1404.13	139.207
1408.34	355.178
1412.54	205.997
1416.74	124.575
1420.94	115.064
1425.14	177.68
1429.34	90.2178
1433.53	231.836
1437.72	481.611
1441.9	437.509
1446.09	689.673
1450.27	597.271
1454.45	667.281
1458.63	751.028
1462.8	422.046
1466.97	344.251
1471.14	330.449
1475.31	252.629
1479.47	227.769
1483.63	107.014
1487.79	74.4502
1491.94	41.0879
1496.09	17.0078
1500.24	4.77441
1504.39	207.814
1508.54	70.7588
1512.68	87.1846
1516.82	281.433
1520.95	146.295
1525.09	99.0606
1529.22	144.266
1533.35	203.529
1537.47	231.682
1541.6	225.926
1545.72	316.22
1549.83	156.273
1553.95	385.687
1558.06	7.57715
1562.17	86.8828
1566.28	176.968
1570.38	0
