Measurement: Raman, 514 nm, ccw, Raman Data Processed
Mineral: Andalusite
Rruff sample: R060197
Ideal chemistry: Al_2_SiO_5_
Locality: Brazil
Source: Marcus Origlieri
Description: Green colored water worn pebble
Measured chemistry: (Al_1.97_Mn^3+^_0.03_)_Î£=2_Si_1.00_O_5_
Pin_id: M00401
Orientation: Laser parallel to c* (0 0 1). Fiducial mark perpendicular to laser is parallel to a [1 0 0]
Raman shift (cm-1)	intensity
91.012	0
95.948	152.038
100.883	319.737
105.815	1627.89
110.744	3223.51
115.671	1920.66
120.596	296.067
125.519	77.2905
130.439	335.746
135.356	93.9097
140.271	119.124
145.184	42.169
150.094	10.8604
155.002	308.819
159.908	329.504
164.811	1061.86
169.711	1447.69
174.61	1704.16
179.505	1440.01
184.399	1356.93
189.29	2516.77
194.178	3866.1
199.064	4218.92
203.948	2177.59
208.829	630.083
213.708	768.393
218.585	858.524
223.459	121.734
228.33	163.762
233.199	346.084
238.066	1091.65
242.93	1472.08
247.792	1622.63
252.651	3440.48
257.508	5352.24
262.363	10546
267.215	10845.1
272.064	10984
276.912	20020.5
281.756	33917.1
286.598	42416.3
291.438	40644
296.276	24202
301.111	11406.5
305.943	8987.74
310.773	14281.2
315.601	17906.3
320.426	19308
325.248	12736.3
330.068	8342.17
334.886	7616.57
339.701	8371.52
344.514	11540
349.324	18903.3
354.132	23500.8
358.938	22587
363.741	14068.8
368.541	7289.3
373.339	4517.02
378.135	3165.54
382.928	2534.19
387.718	1840.23
392.506	1228.61
397.292	663.331
402.075	181.386
406.856	110.784
411.634	244.533
416.41	233.651
421.183	129.152
425.954	59.0283
430.722	46.2798
435.488	259.942
440.251	592.273
445.012	1652.07
449.77	1977.29
454.526	1608.97
459.28	440.091
464.03	697.65
468.779	1045.64
473.525	1024.04
478.268	796.855
483.009	654.069
487.747	248.673
492.483	145.43
497.217	312.415
501.948	176.931
506.676	83.4121
511.402	217.831
516.125	294.64
520.846	332.334
525.565	458.572
530.281	654.233
534.994	1628.28
539.705	3939.38
544.413	6804.85
549.119	7150.59
553.822	4579.65
558.523	2660.99
563.222	2607.64
567.917	2846.61
572.611	2548.6
577.302	1837.53
581.99	1263.94
586.676	1386.47
591.359	1507.59
596.04	1763.39
600.718	1818.9
605.394	1637.33
610.067	1239.87
614.737	1271.52
619.406	1001.25
624.071	922.058
628.734	576.928
633.395	440.859
638.053	310.867
642.708	307.859
647.361	173.394
652.012	76.2734
656.66	141.198
661.305	65.7978
665.948	97.2783
670.588	204.688
675.226	655.629
679.861	935.899
684.494	1241.22
689.124	1617.26
693.752	2306.23
698.377	3383.86
702.999	5282.47
707.619	6538.92
712.237	5293.68
716.852	3241.77
721.464	1688.53
726.074	752.799
730.681	249.222
735.286	463.386
739.888	734.229
744.488	1123.74
749.085	1472.93
753.68	1532.78
758.272	1497.3
762.861	1222.48
767.448	1163.33
772.033	1396.98
776.614	2051.12
781.194	3408.89
785.77	5465.97
790.345	6743.61
794.916	6008.12
799.485	3747.97
804.052	2384.89
808.616	1496.7
813.177	1232.28
817.736	764.602
822.292	133.682
826.846	153.464
831.397	100.871
835.945	111.958
840.491	59.6641
845.035	226.175
849.576	352.567
854.114	219.508
858.65	120.114
863.183	52.5205
867.713	368.606
872.241	495.491
876.767	556.187
881.29	551.704
885.81	813.058
890.328	1071.31
894.843	1876.47
899.356	2941.77
903.866	5544.64
908.373	13251.1
912.878	31365
917.38	41744.3
921.88	30726.8
926.377	15339.6
930.872	9957.69
935.364	8508.17
939.853	10446.7
944.34	15366.2
948.824	18234.5
953.306	14585.8
957.785	9319.76
962.261	6778.28
966.735	5562.42
971.207	4473.3
975.675	3224.42
980.141	2125.74
984.605	1592.48
989.066	1099.22
993.524	836.227
997.98	859.77
1002.43	1557.46
1006.88	2722.4
1011.33	5589.6
1015.78	8492.06
1020.22	8343.97
1024.66	5728.01
1029.1	3978.61
1033.53	2756.45
1037.97	2321.93
1042.4	2243.94
1046.82	2746.76
1051.25	4642.83
1055.67	8415.77
1060.09	9710.19
1064.51	6974.82
1068.92	4343.85
1073.33	3135.52
1077.74	2514.91
1082.15	2343.17
1086.55	2363.45
1090.95	2487.8
1095.35	3065.17
1099.75	4154.56
1104.14	5448.04
1108.53	4927.59
1112.92	3348.43
1117.31	2143.74
1121.69	1928.62
1126.07	1712.59
1130.45	802.062
1134.82	482.495
1139.19	448.796
1143.57	309.66
1147.93	276.943
1152.3	48.2432
1156.66	1.75195
1161.02	30.6143
1165.38	162.433
1169.73	140.931
1174.08	88.9727
1178.43	106.686
1182.78	33.9766
1187.12	25.6553
1191.46	25.1035
1195.8	19.8486
1200.14	159.029
1204.47	191.495
1208.8	381.951
1213.13	681.732
1217.46	1259.67
1221.78	1929.04
1226.1	3038.05
1230.42	4287.9
1234.73	5060.96
1239.04	5887.98
1243.35	6542.35
1247.66	6975.12
1251.97	7090.16
1256.27	6822.2
1260.57	6206.55
1264.86	5510.41
1269.16	4634.8
1273.45	3531.9
1277.74	2745.14
1282.03	2160.1
1286.31	1699.7
1290.59	1223.35
1294.87	816.069
1299.14	757.612
1303.42	602.384
1307.69	362.8
1311.95	365.794
1316.22	166.014
1320.48	258.403
1324.74	54.0264
1329	69.541
1333.26	62.0996
1337.51	48.6348
1341.76	46.877
1346	48.6953
1350.25	165.013
1354.49	183.013
1358.73	87.1914
1362.96	4.69531
1367.2	60.5674
1371.43	272.608
1375.66	122.585
1379.88	17.9238
1384.11	206.286
1388.33	395.51
1392.54	517.606
1396.76	608.598
1400.97	800.519
1405.18	759.407
1409.39	1107.3
1413.59	1161.54
1417.8	1124.97
1421.99	1147.36
1426.19	1201.02
1430.38	1151.31
1434.58	1127.46
1438.77	837.578
1442.95	954.809
1447.13	868.949
1451.32	465.881
1455.49	403.803
1459.67	424.4
1463.84	386.816
1468.01	518.51
1472.18	525.99
1476.35	317.072
1480.51	232.873
1484.67	289.828
1488.83	216.984
1492.98	302.363
1497.13	192.678
1501.28	249.022
1505.43	283.35
1509.57	259.606
1513.71	28.8711
1517.85	196.65
1521.99	97.4473
1526.12	191.164
1530.25	193.682
1534.38	175.805
1538.5	102.826
1542.62	14.8516
1546.74	183.312
1550.86	322.441
1554.98	493.621
1559.09	294.715
1563.2	4.35547
1567.31	30.0156
