Measurement: Raman, 514 nm, ccw, Raman Data Processed
Mineral: Andalusite
Rruff sample: R050626
Ideal chemistry: Al_2_SiO_5_
Locality: Minas Gerais, Brazil
Source: Gemological Center
Description: Grayish brown fragment
Measured chemistry: (Al_1.99_Fe^3+^_0.01_)_Î£=1_Si_1.00_O_5_
Pin_id: L00923
Orientation: Laser parallel to a* (1 0 0). Fiducial mark perpendicular to laser is parallel to -b [0 -1 0]
Raman shift (cm-1)	intensity
123.058	0
127.979	8.45654
132.898	423.313
137.814	263.97
142.728	475.635
147.639	316.037
152.549	272.59
157.455	181.967
162.359	77.8669
167.261	731.32
172.161	960.438
177.058	828.622
181.952	786.739
186.845	1082.49
191.734	2498.14
196.622	2882.66
201.507	2330.54
206.389	1424.7
211.269	362.316
216.147	5.01636
221.022	8.27295
225.895	131.237
230.765	53.8105
235.633	134.843
240.498	1348.77
245.361	2399.72
250.222	1090.12
255.08	661.207
259.936	872.905
264.789	794.136
269.64	879.392
274.488	1414.18
279.334	3670.98
284.178	5233.42
289.019	13799.7
293.857	37622.9
298.693	21765.3
303.527	5865.52
308.358	2421
313.187	2015.03
318.013	4932.88
322.837	19597.1
327.659	13848.2
332.478	4756.32
337.294	3351.47
342.108	2948.07
346.92	2738.12
351.729	4127.61
356.535	10890.5
361.34	23648.1
366.141	13651.4
370.94	5421.91
375.737	2881.28
380.531	1718.54
385.323	1247.86
390.113	1133.58
394.9	2010.73
399.684	910.387
404.466	437.769
409.245	605.861
414.022	697.669
418.797	1590.09
423.569	1786.9
428.338	524.03
433.105	118.486
437.87	119.769
442.632	23.9805
447.391	266.037
452.149	763.499
456.903	764.359
461.655	44.3955
466.405	108.975
471.152	28.7602
475.897	218.742
480.639	454.665
485.378	1059.08
490.116	701.019
494.85	203.56
499.582	87.7681
504.312	193.58
509.039	417.007
513.764	565.342
518.486	637.5
523.206	604.113
527.923	546.032
532.638	729.244
537.35	948.949
542.059	1502.36
546.766	2832.45
551.471	5468.45
556.173	5898.25
560.873	3265.39
565.57	2338.1
570.264	2458.88
574.957	2963.77
579.646	2151.3
584.333	1438.99
589.018	1078.99
593.7	817.474
598.379	857.295
603.056	1056.04
607.73	1402.76
612.402	1496.53
617.072	1458.69
621.739	1562.04
626.403	1848.65
631.065	2223.16
635.724	1993.23
640.381	1842.51
645.035	1769.88
649.687	2019.01
654.336	1444.63
658.983	909.457
663.627	1056.06
668.268	656.409
672.907	98.5029
677.544	37.312
682.178	7.59277
686.809	35.0127
691.438	183.411
696.065	20.1289
700.688	77.9434
705.31	179.387
709.929	353.491
714.545	924.405
719.158	1693.57
723.77	1457.41
728.378	560.919
732.984	195.547
737.588	122.501
742.189	139.35
746.787	152.567
751.383	79.5606
755.976	67.0386
760.567	77.9688
765.155	27.2578
769.741	57.769
774.324	1.33643
778.904	1.10644
783.482	147.606
788.058	88.7754
792.631	219.412
797.201	264.62
801.769	390.409
806.334	800.784
810.897	1123.76
815.457	1757.11
820.014	2477.06
824.569	2733.04
829.122	1929.35
833.671	1376.73
838.219	943.28
842.763	604.917
847.306	99.3726
851.845	38.5801
856.382	66.7788
860.917	123.155
865.448	126.471
869.978	66.7446
874.505	124.265
879.029	137.332
883.55	199.34
888.069	389.627
892.586	617.078
897.1	1191.65
901.611	2029.92
906.12	3500.15
910.626	6251.04
915.129	14480.2
919.63	37951.4
924.129	36705.3
928.625	17944.7
933.118	12059.3
937.609	7348.08
942.097	6818.03
946.582	9925.19
951.065	18887.7
955.546	17450.7
960.023	7690.17
964.499	3486.24
968.971	1949.97
973.441	1350.28
977.909	1201.97
982.374	1039.03
986.836	856.287
991.295	848.175
995.753	954.504
1000.21	1198.55
1004.66	2416.49
1009.11	3374.68
1013.55	2941.86
1018	4271.15
1022.44	5902.35
1026.88	3552.95
1031.32	2077.82
1035.75	1322.31
1040.18	1194.07
1044.61	992.265
1049.04	883.451
1053.46	996.688
1057.88	1428.11
1062.3	3429.53
1066.71	7190.46
1071.13	4326.06
1075.54	1750.04
1079.94	914.922
1084.35	548.83
1088.75	405.528
1093.15	389.689
1097.55	440.45
1101.94	606.818
1106.34	1187.66
1110.73	1987.67
1115.11	1757.44
1119.5	1312.28
1123.88	1343.18
1128.26	955.369
1132.63	290.944
1137.01	115.032
1141.38	75.6768
1145.75	36.1572
1150.12	88.7148
1154.48	43.5898
1158.84	88.8618
1163.2	10.5864
1167.55	57.5615
1171.91	32.9956
1176.26	42.3057
1180.61	21.6665
1184.95	49.5757
1189.29	78.791
1193.63	137.08
1197.97	3.65381
1202.31	40.7559
1206.64	43.6538
1210.97	113.732
1215.29	36.0166
1219.62	22.1626
1223.94	9.67139
1228.26	25.2979
1232.57	1.12891
1236.89	55.3418
1241.2	47.2334
1245.51	393.011
1249.81	4.81934
1254.12	62.248
1258.42	50.8882
1262.72	111.116
1267.01	76.106
1271.3	148.527
1275.59	142.498
1279.88	38.79
1284.17	68.8643
1288.45	177.758
1292.73	51.5674
1297.01	25.8066
1301.28	177.986
1305.55	696.721
1309.82	46.3096
1314.09	176.004
1318.35	85.5806
1322.61	72.4253
1326.87	105.841
1331.13	98.0693
1335.38	92.8315
1339.63	74.0063
1343.88	60.2422
1348.12	116.958
1352.37	86.5391
1356.61	102.596
1360.85	105.46
1365.08	164.357
1369.31	159.789
1373.54	153.48
1377.77	223.918
1381.99	60.8115
1386.22	149.704
1390.43	105.031
1394.65	106.957
1398.87	169.598
1403.08	182.145
1407.29	213.315
1411.49	56.9053
1415.69	101.71
1419.89	6.29297
1424.09	82.7847
1428.29	219.306
1432.48	126.055
1436.67	182.676
1440.86	187.546
1445.04	293.486
1449.23	152.651
1453.4	191.228
1457.58	211.214
1461.76	187.837
1465.93	190.194
1470.1	155.526
1474.26	115.816
1478.43	101.542
1482.59	9.18164
1486.75	95.4307
1490.9	97.6846
1495.06	106.314
1499.21	36.5059
1503.35	1.375
1507.5	59.1016
1511.64	21.332
1515.78	76.6387
1519.92	151.089
1524.05	28.6035
1528.18	189.037
1532.31	61.331
1536.44	121.168
1540.56	184.812
1544.69	40.292
1548.8	121.859
1552.92	327.429
1557.03	368.392
1561.14	52.1992
1565.25	126.599
1569.36	75.8916
