Measurement: Raman, 514 nm, ccw, Raman Data Processed
Mineral: Andalusite
Rruff sample: R050258
Ideal chemistry: Al_2_SiO_5_
Locality: Bautista Canyon, near Hemet, Riverside County, California, USA
Source: Marcus Origlieri
Description: Brown fragment
Measured chemistry: Al_2.00_Si_1.00_O_5_
Pin_id: L01170
Orientation: Laser parallel to a* (1 0 0). Fiducial mark perpendicular to laser is parallel to -b [0 -1 0]
Raman shift (cm-1)	intensity
113.208	0
118.134	123.327
123.058	110.516
127.979	143.425
132.898	233.814
137.814	316.097
142.728	240.519
147.639	304.357
152.549	355.861
157.455	312.374
162.359	391.905
167.261	460.994
172.161	281.205
177.058	400.201
181.952	434.816
186.845	375.767
191.734	569.398
196.622	616.57
201.507	453.685
206.389	572.467
211.269	86.2129
216.147	306.043
221.022	107.141
225.895	94.3613
230.765	311.508
235.633	494.867
240.498	569.949
245.361	568.156
250.222	584.189
255.08	355.111
259.936	398.664
264.789	628.894
269.64	871.646
274.488	1588.17
279.334	2908.56
284.178	6225.47
289.019	13125.7
293.857	16465.8
298.693	7167.19
303.527	2317.72
308.358	1259.67
313.187	2304.35
318.013	5465.72
322.837	8336.91
327.659	4445.96
332.478	2513.95
337.294	2188.43
342.108	1836.38
346.92	1606.99
351.729	2750.36
356.535	5474.13
361.34	6216.6
366.141	3092.53
370.94	1479.51
375.737	959.098
380.531	589.941
385.323	562.723
390.113	417.582
394.9	260.66
399.684	184.879
404.466	253.01
409.245	296.644
414.022	445.713
418.797	721.34
423.569	237.297
428.338	272.619
433.105	5.85352
437.87	49.3438
442.632	70.0117
447.391	200.273
452.149	580.412
456.903	434.816
461.655	38.2012
466.405	27.4062
471.152	197.898
475.897	31.2949
480.639	57.75
485.378	168.256
490.116	84.0996
494.85	206.293
499.582	4.60938
504.312	145.43
509.039	14.9668
513.764	56.0195
518.486	111.266
523.206	150.951
527.923	74.5586
532.638	101.191
537.35	255.33
542.059	783.227
546.766	2246.06
551.471	2869.16
556.173	2134.03
560.873	960.592
565.57	771.746
570.264	569.482
574.957	744.811
579.646	375.953
584.333	157.131
589.018	278.033
593.7	202.248
598.379	199.635
603.056	531.15
607.73	505.756
612.402	364.752
617.072	267.19
621.739	458.467
626.403	156.256
631.065	460.332
635.724	534.631
640.381	346.621
645.035	457.609
649.687	363.312
654.336	439.789
658.983	122.875
663.627	381.777
668.268	115.289
672.907	124.09
677.544	5.51562
682.178	0.833984
686.809	402.957
691.438	237.897
696.065	113.041
700.688	410.002
705.31	254.322
709.929	270.299
714.545	865.467
719.158	976.814
723.77	737.059
728.378	358.973
732.984	109.871
737.588	166.525
742.189	461.557
746.787	79.2676
751.383	201.252
755.976	128.869
760.567	168.057
765.155	134.805
769.741	109.049
774.324	65.584
778.904	347.447
783.482	199.775
788.058	210.674
792.631	395.301
797.201	263.565
801.769	326.682
806.334	194.082
810.897	226.062
815.457	283.533
820.014	176.582
824.569	213.59
829.122	442.139
833.671	466.678
838.219	538.871
842.763	296.56
847.306	124.684
851.845	85.1797
856.382	17.0488
860.917	4.32812
865.448	50.5859
869.978	6.69922
874.505	98.2461
879.029	103.887
883.55	238.098
888.069	166.68
892.586	470.652
897.1	577.727
901.611	818.441
906.12	1830.44
910.626	4056
915.129	10651.7
919.63	19991.7
924.129	12506.8
928.625	6600.7
933.118	3887.36
937.609	2258.03
942.097	2776.77
946.582	4429.08
951.065	6307.28
955.546	4107.82
960.023	1916.03
964.499	1046.31
968.971	168.613
973.441	416.961
977.909	145.359
982.374	18.9883
986.836	71.6484
991.295	108.484
995.753	46.4414
1000.21	108.566
1004.66	249.293
1009.11	889.856
1013.55	1787.77
1018	3328.95
1022.44	3448.43
1026.88	1680.99
1031.32	1004.21
1035.75	519.309
1040.18	305.25
1044.61	414.5
1049.04	599.875
1053.46	704.828
1057.88	1543.59
1062.3	3249.57
1066.71	5181.47
1071.13	2727.12
1075.54	1018.58
1079.94	588.305
1084.35	366.957
1088.75	115.488
1093.15	200.141
1097.55	263.324
1101.94	689.207
1106.34	1302.21
1110.73	1662.69
1115.11	1069.56
1119.5	514.461
1123.88	652.926
1128.26	308.805
1132.63	224.715
1137.01	25.293
1141.38	219.144
1145.75	62.8164
1150.12	89.3555
1154.48	213.68
1158.84	38.0625
1163.2	109.781
1167.55	228.543
1171.91	218.844
1176.26	327
1180.61	110.918
1184.95	53.6445
1189.29	279.301
1193.63	351.867
1197.97	68.1797
1202.31	335.508
1206.64	164.82
1210.97	111.859
1215.29	97.4922
1219.62	69.9297
1223.94	190.16
1228.26	190.168
1232.57	296.004
1236.89	268.133
1241.2	387.133
1245.51	121.117
1249.81	386.125
1254.12	319.156
1258.42	265.41
1262.72	111.391
1267.01	424.543
1271.3	313.098
1275.59	234.402
1279.88	458.957
1284.17	251.957
1288.45	133.664
1292.73	97.293
1297.01	594.137
1301.28	380.953
1305.55	266.543
1309.82	217.356
1314.09	431.394
1318.35	327.723
1322.61	65.3867
1326.87	309.086
1331.13	450.434
1335.38	174.441
1339.63	104.176
1343.88	442.012
1348.12	177.828
1352.37	166.953
1356.61	39.0586
1360.85	195.473
1365.08	434.273
1369.31	302.828
1373.54	191.109
1377.77	198.316
1381.99	235.973
1386.22	361.785
1390.43	161.598
1394.65	84.7656
1398.87	102.641
1403.08	204.836
1407.29	395.344
1411.49	155.984
1415.69	488.516
1419.89	118.523
1424.09	82.2891
1428.29	89.5781
1432.48	376.606
1436.67	116.098
1440.86	327.891
1445.04	340.543
1449.23	148.906
1453.4	41.1953
1457.58	168.867
1461.76	155.981
1465.93	80.9805
1470.1	203.09
1474.26	259.297
1478.43	318.195
1482.59	127.098
1486.75	553.434
1490.9	70.5977
1495.06	191.793
1499.21	365.934
1503.35	306.109
1507.5	284.598
1511.64	85.4805
1515.78	459.434
1519.92	193.922
1524.05	130
1528.18	329.453
1532.31	173.812
1536.44	156.266
1540.56	53.9922
1544.69	275.379
1548.8	131.172
1552.92	216.668
1557.03	248.281
1561.14	141.043
1565.25	176.867
1569.36	1.12109
