Measurement: Raman, 514 nm, ccw, Raman Data Processed
Mineral: Andalusite
Rruff sample: R060197
Ideal chemistry: Al_2_SiO_5_
Locality: Brazil
Source: Marcus Origlieri
Description: Green colored water worn pebble
Measured chemistry: (Al_1.97_Mn^3+^_0.03_)_Î£=2_Si_1.00_O_5_
Pin_id: M00466
Orientation: Laser parallel to a* (1 0 0). Fiducial mark perpendicular to laser is parallel to -b [0 -1 0]
Raman shift (cm-1)	intensity
91.012	0
95.948	206.118
100.883	153.386
105.815	328.044
110.744	1109.26
115.671	521.106
120.596	260.606
125.519	389.435
130.439	423.512
135.356	388.313
140.271	734.752
145.184	588.006
150.094	1327.46
155.002	1502.53
159.908	523.923
164.811	739.192
169.711	779.731
174.61	606.096
179.505	580.94
184.399	474.217
189.29	931.761
194.178	1107.46
199.064	1068.21
203.948	988.752
208.829	95.0234
213.708	68.0747
218.585	2.03906
223.459	66.1631
228.33	151.077
233.199	38.4307
238.066	122.399
242.93	115.1
247.792	5.7085
252.651	88.7065
257.508	267.025
262.363	891.927
267.215	899.337
272.064	1825.18
276.912	3992.15
281.756	9386.26
286.598	19577.7
291.438	22633.4
296.276	11062.8
301.111	4556.42
305.943	2799.83
310.773	5304.17
315.601	13637.1
320.426	18657.7
325.248	9087.15
330.068	4006.49
334.886	2472.72
339.701	2357.83
344.514	3186.84
349.324	6206.98
354.132	11920.5
358.938	12958.9
363.741	6877.23
368.541	3382.63
373.339	1855.63
378.135	1054.41
382.928	639.411
387.718	679.374
392.506	381.726
397.292	139.068
402.075	22.8828
406.856	270.652
411.634	877.392
416.41	1801.12
421.183	1587.85
425.954	586.608
430.722	159.431
435.488	14.6582
440.251	234.351
445.012	426.473
449.77	470.734
454.526	183.171
459.28	360.796
464.03	1066.21
468.779	2078.61
473.525	2807.79
478.268	3554.15
483.009	2523.68
487.747	1118.57
492.483	142.356
497.217	43.6758
501.948	76.6103
506.676	636.38
511.402	892.958
516.125	660.78
520.846	438.166
525.565	219.777
530.281	232.408
534.994	147.042
539.705	842.785
544.413	2923.57
549.119	5266.67
553.822	3190.2
558.523	1247.93
563.222	690.106
567.917	1002.14
572.611	1174.21
577.302	1133.77
581.99	939.496
586.676	999.045
591.359	1495.35
596.04	1693.39
600.718	1712.14
605.394	1516.56
610.067	1088.64
614.737	823.333
619.406	627.623
624.071	42.4766
628.734	109.147
633.395	175.076
638.053	129.558
642.708	195.642
647.361	40.2881
652.012	287.091
656.66	836.844
661.305	1842.93
665.948	1598.33
670.588	1642
675.226	2219.92
679.861	2652.07
684.494	3087.07
689.124	3695.15
693.752	3964.29
698.377	4046.98
702.999	4623.13
707.619	5128.8
712.237	5321.77
716.852	4185.66
721.464	2221.73
726.074	846.438
730.681	342.833
735.286	576.892
739.888	993.594
744.488	1707.92
749.085	1917.84
753.68	1936.35
758.272	1836.43
762.861	1567.06
767.448	1438.44
772.033	1458.73
776.614	1667.44
781.194	2867.52
785.77	4932.85
790.345	6750.15
794.916	5604.02
799.485	3440.47
804.052	2021.48
808.616	1080.03
813.177	453.119
817.736	18.7275
822.292	3.47656
826.846	74.9375
831.397	20.5352
835.945	79.0176
840.491	165.905
845.035	112.502
849.576	71.1191
854.114	94.0117
858.65	414.053
863.183	1058.56
867.713	1395.55
872.241	1564.05
876.767	1419.05
881.29	1389.57
885.81	1306.63
890.328	1322.34
894.843	1841.68
899.356	2671.72
903.866	4830.82
908.373	10099.7
912.878	25613.3
917.38	49286.2
921.88	36347.2
926.377	24026
930.872	15385.3
935.364	8225.27
939.853	4804.83
944.34	3561
948.824	2883.75
953.306	2310.05
957.785	1947.4
962.261	1512.09
966.735	1615.02
971.207	1670.79
975.675	1244.44
980.141	887.345
984.605	732.869
989.066	445.92
993.524	219.886
997.98	292.88
1002.43	295.802
1006.88	690.733
1011.33	1190.87
1015.78	1976.97
1020.22	2454.69
1024.66	1846.66
1029.1	1497.09
1033.53	1102.77
1037.97	844.097
1042.4	877.069
1046.82	968.835
1051.25	1642.19
1055.67	3125.08
1060.09	5673.12
1064.51	4049.51
1068.92	2497.32
1073.33	1778.83
1077.74	1793.82
1082.15	1775.4
1086.55	1808.8
1090.95	1895.24
1095.35	1757.93
1099.75	1682.79
1104.14	1624.84
1108.53	1678.45
1112.92	1292.03
1117.31	926.482
1121.69	1114.18
1126.07	842.794
1130.45	531.203
1134.82	352.403
1139.19	219.391
1143.57	220.157
1147.93	46.6934
1152.3	23.9121
1156.66	43.6523
1161.02	0.959961
1165.38	69.4404
1169.73	138.342
1174.08	62.4268
1178.43	43.7285
1182.78	112.321
1187.12	131.12
1191.46	70.0918
1195.8	145.777
1200.14	13.0898
1204.47	217.855
1208.8	481.776
1213.13	514.457
1217.46	1223.92
1221.78	2134.18
1226.1	3462.22
1230.42	4852.04
1234.73	5667.66
1239.04	6154.12
1243.35	7306.42
1247.66	7824.46
1251.97	7863.24
1256.27	7237.75
1260.57	6597.02
1264.86	5881.05
1269.16	4570.76
1273.45	3719.97
1277.74	2658.34
1282.03	2069.19
1286.31	1772.9
1290.59	1187.02
1294.87	840.843
1299.14	622.92
1303.42	552.246
1307.69	288.969
1311.95	328.398
1316.22	302.045
1320.48	144.443
1324.74	69.7871
1329	135.211
1333.26	0.277344
1337.51	98.4473
1341.76	122.279
1346	101.373
1350.25	132.379
1354.49	243.428
1358.73	306.531
1362.96	94.9766
1367.2	52.8457
1371.43	176.174
1375.66	155.602
1379.88	179.209
1384.11	275.402
1388.33	350.203
1392.54	490.289
1396.76	689.484
1400.97	864.469
1405.18	962.986
1409.39	953.377
1413.59	1168.23
1417.8	1116.11
1421.99	975.639
1426.19	1039.8
1430.38	1147.63
1434.58	1066.44
1438.77	875.934
1442.95	715.086
1447.13	754.426
1451.32	702.123
1455.49	534.291
1459.67	470.473
1463.84	233.984
1468.01	289.812
1472.18	192.715
1476.35	144.947
1480.51	128.58
1484.67	142.596
1488.83	220.055
1492.98	75.9746
1497.13	171.328
1501.28	231.178
1505.43	168.494
1509.57	54.1445
1513.71	17.4219
1517.85	37.7383
1521.99	50.5957
1526.12	74.2441
1530.25	228.209
1534.38	58.9004
1538.5	94.9551
1542.62	106.043
1546.74	55.0449
1550.86	137.299
1554.98	297.711
1559.09	58.4004
1563.2	6.85156
1567.31	19.4043
