Measurement: Raman, 514 nm, ccw, Raman Data Processed
Mineral: Andalusite
Rruff sample: R050449
Ideal chemistry: Al_2_SiO_5_
Locality: Itinga, Minas Gerais, Brazil
Source: Marcus Origlieri
Description: Green fragment
Measured chemistry: Al_2.00_Fe^3+^_0.01_Si_0.99_O_5_
Pin_id: L00614
Orientation: Laser parallel to a* (1 0 0). Fiducial mark perpendicular to laser is parallel to b [0 1 0]
Raman shift (cm-1)	intensity
118.134	0
123.058	275.153
127.979	109.443
132.898	180.949
137.814	408.133
142.728	534.481
147.639	439.1
152.549	301.93
157.455	48.9619
162.359	166.016
167.261	603.617
172.161	664.356
177.058	532.135
181.952	866.591
186.845	1306.44
191.734	1684.55
196.622	1345.96
201.507	1372.62
206.389	218.862
211.269	8.7627
216.147	129.728
221.022	57.0435
225.895	19.3481
230.765	1146.78
235.633	2826.32
240.498	4649.85
245.361	3481.12
250.222	2110.47
255.08	1710.55
259.936	1908.53
264.789	2315.3
269.64	3289.45
274.488	5526.35
279.334	12235.3
284.178	29505.1
289.019	43898.3
293.857	46471.4
298.693	17361.8
303.527	5143.76
308.358	3908.6
313.187	10027.5
318.013	16120.1
322.837	19387.6
327.659	7561.88
332.478	3333
337.294	2798.67
342.108	3714.87
346.92	8963.59
351.729	21187.4
356.535	32260.7
361.34	30941.1
366.141	13927.6
370.94	5858.73
375.737	3127.43
380.531	2258.62
385.323	2377.3
390.113	2063.52
394.9	1260.39
399.684	737.913
404.466	474.165
409.245	364.185
414.022	324.079
418.797	196.564
423.569	21.4551
428.338	26.0889
433.105	47.543
437.87	102.413
442.632	483.663
447.391	1224.37
452.149	1841.58
456.903	717.264
461.655	30.5605
466.405	16.0527
471.152	5.74023
475.897	499.128
480.639	669.632
485.378	403.902
490.116	155.506
494.85	46.3877
499.582	173.102
504.312	180.336
509.039	413.454
513.764	325.356
518.486	605.726
523.206	436.475
527.923	764.588
532.638	1068.62
537.35	1541.2
542.059	2735.58
546.766	4473.9
551.471	5191.26
556.173	4093.61
560.873	2962.74
565.57	3425.46
570.264	4148.89
574.957	3743.81
579.646	2095.41
584.333	1449
589.018	1097.9
593.7	995.6
598.379	1084.09
603.056	1003.44
607.73	1264.67
612.402	1498.38
617.072	1871.18
621.739	2241.49
626.403	2888.69
631.065	2766.49
635.724	2281.54
640.381	2245.94
645.035	2068.52
649.687	1578.53
654.336	798.365
658.983	449.009
663.627	196.445
668.268	76.6641
672.907	76.5557
677.544	50.0371
682.178	25.2061
686.809	18.0811
691.438	69.8262
696.065	109.296
700.688	227.95
705.31	364.232
709.929	344.241
714.545	693.04
719.158	530.5
723.77	218.365
728.378	104.237
732.984	208.656
737.588	117.678
742.189	266.241
746.787	223.44
751.383	74.2334
755.976	171.589
760.567	31.5107
765.155	70.7217
769.741	23.0225
774.324	2.30371
778.904	98.751
783.482	214.726
788.058	376.323
792.631	386.879
797.201	708.409
801.769	1118.91
806.334	1733.06
810.897	2231.3
815.457	2942.43
820.014	2904.77
824.569	2290.08
829.122	1522.85
833.671	1169.8
838.219	757.973
842.763	463.044
847.306	43.9434
851.845	107.539
856.382	11.919
860.917	5.87207
865.448	3.82715
869.978	24.7627
874.505	237.315
879.029	370.165
883.55	529.152
888.069	774.341
892.586	1429.02
897.1	2254.61
901.611	3977.15
906.12	7084.15
910.626	15940.7
915.129	35084.2
919.63	43296.7
924.129	21965.2
928.625	10172
933.118	7861.96
937.609	8978.14
942.097	15243.6
946.582	29608.3
951.065	37732.5
955.546	23439.1
960.023	10375.3
964.499	4903.01
968.971	3095.55
973.441	2173.51
977.909	1581.88
982.374	1153.78
986.836	978.624
991.295	1032.45
995.753	1393.53
1000.21	2467.26
1004.66	2976.73
1009.11	1974.42
1013.55	1641.71
1018	1796.46
1022.44	1471.89
1026.88	1076.92
1031.32	638.592
1035.75	730.962
1040.18	524.96
1044.61	630.36
1049.04	741.141
1053.46	1460.58
1057.88	3801.51
1062.3	7168.95
1066.71	6327.9
1071.13	2706.34
1075.54	1086.31
1079.94	502.856
1084.35	268.769
1088.75	184.561
1093.15	72.7432
1097.55	124.362
1101.94	143.394
1106.34	382.609
1110.73	339.046
1115.11	13.5195
1119.5	6.29102
1123.88	204.852
1128.26	36.042
1132.63	25.5742
1137.01	39.7773
1141.38	49.5254
1145.75	74.0195
1150.12	53.9043
1154.48	67.7627
1158.84	144.883
1163.2	97.4082
1167.55	37.9512
1171.91	19.0459
1176.26	60.9639
1180.61	180.751
1184.95	137.704
1189.29	230.029
1193.63	118.912
1197.97	26.5068
1202.31	90.334
1206.64	118.152
1210.97	32.041
1215.29	62.4297
1219.62	86.8897
1223.94	188.427
1228.26	85.3311
1232.57	52.8105
1236.89	70.2119
1241.2	33.54
1245.51	193.049
1249.81	52.7744
1254.12	78.3584
1258.42	169.903
1262.72	20.041
1267.01	65.9629
1271.3	38.3945
1275.59	86.5049
1279.88	79.1709
1284.17	30.7979
1288.45	4.38769
1292.73	148.842
1297.01	63.9111
1301.28	162.02
1305.55	54.2881
1309.82	33.4815
1314.09	69.2754
1318.35	29.8418
1322.61	125.137
1326.87	80.1904
1331.13	52.8828
1335.38	127.085
1339.63	13.1084
1343.88	36.835
1348.12	112.55
1352.37	236.405
1356.61	224.001
1360.85	290.35
1365.08	261.679
1369.31	349.015
1373.54	289.978
1377.77	209.662
1381.99	221.012
1386.22	196.941
1390.43	150.654
1394.65	128.218
1398.87	98.2051
1403.08	97.6035
1407.29	234.511
1411.49	337.984
1415.69	199.428
1419.89	122.093
1424.09	192.753
1428.29	141.387
1432.48	144.879
1436.67	163.779
1440.86	273.962
1445.04	185.122
1449.23	315.672
1453.4	373.948
1457.58	318.852
1461.76	276.331
1465.93	303.043
1470.1	286.07
1474.26	317.216
1478.43	186.073
1482.59	165.678
1486.75	157.977
1490.9	43.5449
1495.06	129.846
1499.21	127.163
1503.35	37.2344
1507.5	221.761
1511.64	72.2266
1515.78	281.353
1519.92	305.412
1524.05	135.692
1528.18	159.189
1532.31	213.685
1536.44	128.561
1540.56	227.981
1544.69	306.763
1548.8	206.897
1552.92	411.284
1557.03	306.309
1561.14	292.25
1565.25	227.74
1569.36	221.375
