Measurement: Raman, 514 nm, ccw, Raman Data Processed
Mineral: Andalusite
Rruff sample: R050449
Ideal chemistry: Al_2_SiO_5_
Locality: Itinga, Minas Gerais, Brazil
Source: Marcus Origlieri
Description: Green fragment
Measured chemistry: Al_2.00_Fe^3+^_0.01_Si_0.99_O_5_
Pin_id: L00608
Orientation: Laser parallel to b* (0 1 0). Fiducial mark perpendicular to laser is parallel to -c [0 0 -1]
Raman shift (cm-1)	intensity
119.365	0
124.288	0.154053
129.209	187.179
134.127	71.4104
139.043	324.887
143.956	346.512
148.867	361.769
153.775	331.638
158.681	32.0994
163.585	230.162
168.486	549.156
173.385	404.64
178.282	453.703
183.176	501.226
188.067	1027.56
192.956	1612.59
197.843	1798.48
202.727	2148.16
207.609	791.398
212.489	302.062
217.366	137.62
222.24	36.8313
227.112	74.4895
231.982	50.2812
236.849	67.8027
241.714	18.9973
246.577	200.133
251.437	292.36
256.294	411.04
261.149	829.49
266.002	1012.98
270.852	1540.9
275.7	2881.28
280.545	6237.37
285.388	14614.1
290.229	34405.8
295.067	47924.6
299.902	16586.6
304.735	5359.59
309.566	3136.5
314.394	4744.03
319.22	11706.8
324.043	21618.2
328.864	8861.56
333.682	3578
338.498	2349.65
343.311	1739.84
348.122	1714.13
352.931	2658.72
357.737	5901
362.54	7460.83
367.341	3966.36
372.14	2230.2
376.936	1583.55
381.73	1581.96
386.521	1270.54
391.31	748.952
396.096	573.214
400.88	463.782
405.661	467.707
410.44	843.055
415.216	1431.75
419.99	2661.71
424.761	1472.92
429.53	422.41
434.297	160.184
439.061	81.2519
443.822	373.617
448.581	1148.31
453.337	3777.47
458.091	888.023
462.843	59.9385
467.592	79.6997
472.338	62.8169
477.082	31.2427
481.824	73.5
486.563	173.283
491.3	110.456
496.034	28.1162
500.765	24.1855
505.494	116.578
510.221	312.256
514.945	554.213
519.666	542.472
524.385	433.116
529.102	720.323
533.816	877.874
538.527	1563.9
543.236	2771.29
547.943	5428.31
552.647	8697.22
557.348	6028.88
562.047	2725.73
566.744	1882.76
571.438	1631.96
576.129	1296.33
580.818	983.962
585.504	707.183
590.188	529.018
594.87	441.955
599.549	561.007
604.225	749.628
608.899	998.499
613.57	1056.14
618.239	1065.76
622.905	1211.12
627.569	1429.85
632.23	1526.38
636.889	1308.54
641.545	1089.28
646.198	1000.03
650.849	962.995
655.498	913.918
660.144	863.788
664.787	1130.6
669.428	315.33
674.067	6.97266
678.703	2.51074
683.336	43.0698
687.967	43.9214
692.595	125.82
697.221	86.3325
701.844	120.709
706.465	318.941
711.083	724.024
715.698	1353.06
720.311	1285.92
724.922	529.115
729.53	92.2036
734.135	21.6362
738.738	8.37451
743.338	28.9683
747.936	25.9102
752.531	45.6489
757.124	28.1729
761.714	41.354
766.302	23.0967
770.887	44.7461
775.469	11.7446
780.049	28.7388
784.626	124.915
789.201	168.735
793.773	304.839
798.343	483.686
802.91	908.282
807.475	1329.63
812.037	1881.74
816.596	2268.36
821.153	2862.75
825.707	2721.04
830.259	2458.05
834.808	2459.05
839.355	1616.87
843.899	673.513
848.441	193.982
852.98	70.2778
857.516	131.957
862.05	98.2891
866.581	8.73145
871.11	67.3848
875.636	5.27979
880.159	156.169
884.68	340.829
889.199	620.635
893.714	1084.12
898.228	1858.62
902.738	3330.59
907.246	6065.64
911.752	13597.6
916.255	32559
920.755	52467.4
925.253	28689.2
929.748	16915.2
934.241	9026.32
938.731	4656.55
943.218	3452.93
947.703	3828.47
952.186	4218.18
956.665	2620.1
961.142	1175.33
965.617	832.842
970.089	580.332
974.558	558.973
979.025	466.416
983.489	534.166
987.951	504.106
992.41	541.717
996.866	785.332
1001.32	1587.71
1005.77	2623.92
1010.22	2472.59
1014.67	2273.99
1019.11	2911.27
1023.55	2741.3
1027.99	1504.22
1032.42	1175.89
1036.86	856.118
1041.29	815.908
1045.72	1019.82
1050.14	1431.84
1054.56	2511.66
1058.98	6145.95
1063.4	14243.4
1067.82	13830.3
1072.23	5775.6
1076.64	2638.32
1081.05	1438.59
1085.45	811.088
1089.85	625.784
1094.25	439.403
1098.65	486.019
1103.04	544.338
1107.43	762.14
1111.82	793.763
1116.21	518.671
1120.59	212.894
1124.97	152.975
1129.35	112.008
1133.73	12.1265
1138.1	0.081055
1142.47	73.5796
1146.84	9.85791
1151.21	109.784
1155.57	19.2324
1159.93	19.0181
1164.29	6.88525
1168.64	12.1465
1172.99	9.11182
1177.34	53.4648
1181.69	53.0855
1186.04	99.0962
1190.38	80.3433
1194.72	82.5068
1199.05	101.786
1203.39	56.4546
1207.72	162.361
1212.05	63.3945
1216.37	56.8818
1220.7	57.4898
1225.02	35.0727
1229.34	69.8379
1233.65	47.9077
1237.97	40.1357
1242.28	26.4512
1246.59	41.9868
1250.89	80.7793
1255.19	8.17627
1259.49	53.1157
1263.79	80.2085
1268.09	43.1284
1272.38	59.8867
1276.67	37.6323
1280.95	39.9072
1285.24	79.7822
1289.52	59.334
1293.8	6.68066
1298.08	14.917
1302.35	16.8931
1306.62	42.7759
1310.89	54.9268
1315.15	163.169
1319.42	59.0635
1323.68	70.8687
1327.94	130.262
1332.19	34.3135
1336.44	70.1167
1340.69	141.318
1344.94	108.718
1349.19	138.87
1353.43	59.2705
1357.67	196.706
1361.9	138.526
1366.14	142.155
1370.37	173.905
1374.6	186.7
1378.83	162.028
1383.05	236.634
1387.27	184.625
1391.49	124.439
1395.7	192.636
1399.92	203.824
1404.13	173.313
1408.34	190.859
1412.54	120.727
1416.74	185.98
1420.94	99.2178
1425.14	242.92
1429.34	106.249
1433.53	139.684
1437.72	110.403
1441.9	278.612
1446.09	245.102
1450.27	280.652
1454.45	171.644
1458.63	199.233
1462.8	220.685
1466.97	158.292
1471.14	105.457
1475.31	177.558
1479.47	146.086
1483.63	141.36
1487.79	139.254
1491.94	90.7427
1496.09	99.2144
1500.24	5.8042
1504.39	38.6514
1508.54	25.3057
1512.68	26.4477
1516.82	4.66602
1520.95	183.305
1525.09	158.383
1529.22	105.092
1533.35	57.334
1537.47	117.317
1541.6	145.862
1545.72	168.954
1549.83	260.148
1553.95	479.077
1558.06	63.4282
1562.17	50.9937
1566.28	82.167
1570.38	0
