Measurement: Raman, 514 nm, ccw, Raman Data Processed
Mineral: Andalusite
Rruff sample: R050561
Ideal chemistry: Al_2_SiO_5_
Locality: Cargo Muchacho Mountain, Imperial County, California
Source: Dave Bunk Minerals
Description: Brown coarsely crystalline massive
Measured chemistry: (Al_1.98_Fe^3+^_0.02_)_Î£=2_Si_1.00_O_5_
Pin_id: M00237
Orientation: Laser parallel to c* (0 0 1). Fiducial mark perpendicular to laser is parallel to 1 0 0
Raman shift (cm-1)	intensity
157.455	0
162.359	46.4761
167.261	573.823
172.161	468.824
177.058	394.977
181.952	603.705
186.845	1060.56
191.734	1881.87
196.622	2197.27
201.507	2384.09
206.389	474.596
211.269	20.5576
216.147	87.2217
221.022	117.23
225.895	68.9116
230.765	730.269
235.633	2123.42
240.498	2491.32
245.361	1985.89
250.222	1656.96
255.08	1698.58
259.936	2494.3
264.789	3835.83
269.64	7224.27
274.488	11554.3
279.334	20518.8
284.178	40358
289.019	49912.6
293.857	35848
298.693	15835.5
303.527	8103.36
308.358	8623
313.187	17160.2
318.013	23565.8
322.837	19284.4
327.659	12371.1
332.478	10132.8
337.294	9184.23
342.108	8754.54
346.92	12365.5
351.729	20490.1
356.535	23066.2
361.34	15487.2
366.141	7497.42
370.94	3889.81
375.737	2538.01
380.531	1842.64
385.323	1256.79
390.113	838.444
394.9	353.651
399.684	120.251
404.466	78.1943
409.245	340.463
414.022	606.097
418.797	400.087
423.569	36.4263
428.338	34.958
433.105	6.27197
437.87	84.52
442.632	933.159
447.391	1844.09
452.149	1552.4
456.903	572.069
461.655	236.08
466.405	434.427
471.152	589.115
475.897	732.14
480.639	657.55
485.378	395.598
490.116	50.4595
494.85	185.847
499.582	12.1851
504.312	8.7583
509.039	402.079
513.764	431.797
518.486	460.64
523.206	518.648
527.923	634.357
532.638	991.264
537.35	2316.46
542.059	5782.85
546.766	8146.77
551.471	6676.5
556.173	3796.39
560.873	2464.43
565.57	2586.6
570.264	2776.8
574.957	2161.14
579.646	1452.6
584.333	1086.46
589.018	1169.73
593.7	1426.28
598.379	1827.91
603.056	1939.61
607.73	1445.72
612.402	835.134
617.072	665.964
621.739	870.206
626.403	878.282
631.065	554.264
635.724	307.712
640.381	328.754
645.035	408.764
649.687	124.957
654.336	56.9683
658.983	41.7681
663.627	14.3174
668.268	181.431
672.907	95.0552
677.544	110.249
682.178	367.793
686.809	496.946
691.438	555.446
696.065	659.683
700.688	728.651
705.31	973.344
709.929	1947.22
714.545	2344.74
719.158	1818.87
723.77	852.398
728.378	382.628
732.984	280.216
737.588	423.217
742.189	460.575
746.787	442.524
751.383	260.063
755.976	113.189
760.567	20.7398
765.155	82.7695
769.741	137.72
774.324	70.2353
778.904	12.7358
783.482	206.084
788.058	311.537
792.631	488.359
797.201	1152.01
801.769	2009.67
806.334	2099.05
810.897	1373.9
815.457	680.381
820.014	546.59
824.569	823.54
829.122	1230.24
833.671	1045.72
838.219	365.971
842.763	74.0156
847.306	81.2642
851.845	71.396
856.382	105.616
860.917	82.8862
865.448	37.0801
869.978	161.691
874.505	362.424
879.029	279.556
883.55	572.863
888.069	986.112
892.586	1599.97
897.1	2517.31
901.611	4691
906.12	9351.79
910.626	25372.7
915.129	50413.2
919.63	44995.2
924.129	22530.8
928.625	12304.7
933.118	8509.9
937.609	9068.53
942.097	14239.7
946.582	22912.4
951.065	21171.6
955.546	11429.2
960.023	5156.26
964.499	2584.79
968.971	1537.64
973.441	1157.8
977.909	720.314
982.374	607.425
986.836	560.537
991.295	748.633
995.753	864.101
1000.21	1411.91
1004.66	3045.8
1009.11	6860.35
1013.55	14627.6
1018	18588.3
1022.44	12735.5
1026.88	7038.75
1031.32	3978.01
1035.75	2375.2
1040.18	1912.27
1044.61	1784.95
1049.04	2290.38
1053.46	4225.65
1057.88	10415.3
1062.3	15143.3
1066.71	9555.52
1071.13	4245.99
1075.54	2352.23
1079.94	1848.76
1084.35	1528.42
1088.75	1715.43
1093.15	2117.29
1097.55	3178.66
1101.94	5284.93
1106.34	7263.66
1110.73	5918.99
1115.11	3069.61
1119.5	1404.82
1123.88	939.467
1128.26	461.407
1132.63	368.943
1137.01	190.083
1141.38	161.067
1145.75	195.281
1150.12	159.612
1154.48	28.7988
1158.84	82.71
1163.2	104.468
1167.55	24.9209
1171.91	7.53613
1176.26	4.58008
1180.61	56.9316
1184.95	4.7666
1189.29	26.8555
1193.63	13.085
1197.97	163.006
1202.31	100.408
1206.64	33.4355
1210.97	39.3691
1215.29	63.7812
1219.62	55.6807
1223.94	11.9697
1228.26	108.859
1232.57	179.684
1236.89	13.9521
1241.2	295.758
1245.51	83.1367
1249.81	35.8955
1254.12	25.415
1258.42	152.185
1262.72	152.48
1267.01	126.414
1271.3	166.4
1275.59	126.147
1279.88	154.917
1284.17	324.092
1288.45	310.688
1292.73	322.054
1297.01	340.3
1301.28	307.443
1305.55	190.846
1309.82	308.839
1314.09	274.437
1318.35	184.302
1322.61	259.387
1326.87	279.62
1331.13	119.982
1335.38	188.886
1339.63	175.032
1343.88	143.815
1348.12	105.283
1352.37	131.124
1356.61	186.634
1360.85	195.422
1365.08	283.259
1369.31	159.281
1373.54	131.469
1377.77	69.5195
1381.99	209.123
1386.22	158.024
1390.43	13.2393
1394.65	149.876
1398.87	25.7031
1403.08	194.541
1407.29	175.185
1411.49	179.26
1415.69	113.369
1419.89	201.428
1424.09	131.059
1428.29	357.964
1432.48	325.951
1436.67	357.841
1440.86	514.571
1445.04	397.214
1449.23	552.043
1453.4	342.932
1457.58	506.607
1461.76	237.585
1465.93	248.819
1470.1	268.386
1474.26	216.215
1478.43	220.067
1482.59	228.723
1486.75	125.584
1490.9	299.809
1495.06	158.223
1499.21	85.5391
1503.35	141.905
1507.5	194.4
1511.64	277.115
1515.78	121.147
1519.92	86.4531
1524.05	81.0322
1528.18	184.921
1532.31	111.544
1536.44	9.7002
1540.56	22.4502
1544.69	24.3906
1548.8	45.8057
1552.92	477.777
1557.03	158.731
1561.14	103.144
1565.25	0.087891
1569.36	0.147461
