Measurement: Raman, 514 nm, ccw, Raman Data Processed
Mineral: Andalusite
Rruff sample: R050449
Ideal chemistry: Al_2_SiO_5_
Locality: Itinga, Minas Gerais, Brazil
Source: Marcus Origlieri
Description: Green fragment
Measured chemistry: Al_2.00_Fe^3+^_0.01_Si_0.99_O_5_
Pin_id: L00608
Orientation: Laser parallel to b* (0 1 0). Fiducial mark perpendicular to laser is parallel to -c [0 0 -1]
Raman shift (cm-1)	intensity
123.058	0
127.979	30.8945
132.898	328.881
137.814	900.596
142.728	1303.67
147.639	1319.44
152.549	837.977
157.455	39.3203
162.359	49.9522
167.261	568.569
172.161	553.503
177.058	629.009
181.952	661.225
186.845	1388.94
191.734	2662.29
196.622	3111.93
201.507	3859.99
206.389	1831.37
211.269	846.597
216.147	500.349
221.022	402.91
225.895	488.525
230.765	664.625
235.633	499.53
240.498	157.006
245.361	324.995
250.222	257.45
255.08	62.4067
259.936	389.639
264.789	106.952
269.64	22.708
274.488	134.321
279.334	773.969
284.178	2967.73
289.019	9513.84
293.857	16739.9
298.693	7074.64
303.527	1089.01
308.358	454.527
313.187	639.979
318.013	5929.76
322.837	15042.8
327.659	7710.84
332.478	955.143
337.294	38.29
342.108	199.806
346.92	873.564
351.729	2677.23
356.535	7731.81
361.34	11356.4
366.141	6979.02
370.94	4168
375.737	3411.28
380.531	2700.75
385.323	2640.48
390.113	2873.48
394.9	3173.74
399.684	2876.29
404.466	2546.43
409.245	3127.74
414.022	3592.55
418.797	5476.76
423.569	4548.68
428.338	2656.93
433.105	1747.55
437.87	1576.56
442.632	2236.95
447.391	3308.79
452.149	4879.4
456.903	2934.63
461.655	562.289
466.405	83.4414
471.152	217.901
475.897	78.4102
480.639	185.798
485.378	111.079
490.116	13.7109
494.85	636.246
499.582	1458.82
504.312	2541.84
509.039	3743.27
513.764	4499.08
518.486	4899.27
523.206	4176.8
527.923	4588.67
532.638	5451.84
537.35	7116.3
542.059	9386.74
546.766	11783.2
551.471	14094.2
556.173	14120.1
560.873	11884.3
565.57	10632.6
570.264	10714.8
574.957	10379
579.646	9371.5
584.333	7589.28
589.018	6169.06
593.7	5561.52
598.379	5118.22
603.056	5570.6
607.73	6665.56
612.402	8224.79
617.072	10032.6
621.739	11157.4
626.403	11719.7
631.065	12569.6
635.724	12435.9
640.381	11462.7
645.035	10267.1
649.687	9842.17
654.336	7750.4
658.983	5026.79
663.627	3820.3
668.268	1879.86
672.907	531.437
677.544	157.978
682.178	128.718
686.809	137.681
691.438	169.295
696.065	58.7764
700.688	342.943
705.31	712.74
709.929	1127.73
714.545	1889.14
719.158	2073.05
723.77	1005.78
728.378	218.807
732.984	637.904
737.588	838.837
742.189	615.237
746.787	387.22
751.383	492.15
755.976	517.204
760.567	504.312
765.155	443.45
769.741	314.13
774.324	386.046
778.904	567.324
783.482	949.271
788.058	1297.86
792.631	1916.09
797.201	2614.96
801.769	3982.45
806.334	6283.56
810.897	9414.29
815.457	13887.6
820.014	18124.8
824.569	17412.2
829.122	11726.4
833.671	7798.44
838.219	4814.12
842.763	2364.53
847.306	825.691
851.845	25.4336
856.382	188.05
860.917	282.226
865.448	343.577
869.978	102.166
874.505	39.4668
879.029	46.4473
883.55	195.31
888.069	561.305
892.586	1244.87
897.1	2366.46
901.611	4272.5
906.12	7368.86
910.626	12737
915.129	25430.9
919.63	45717.5
924.129	35376.5
928.625	25468.9
933.118	16200.9
937.609	8170.45
942.097	5172.63
946.582	4275.49
951.065	4189.08
955.546	3336.6
960.023	2523.66
964.499	2402.28
968.971	2380.28
973.441	2869.28
977.909	3036.31
982.374	3103.42
986.836	3051.18
991.295	3501.96
995.753	4953.1
1000.21	9175.43
1004.66	16606.3
1009.11	15563.2
1013.55	7884.07
1018	4852.56
1022.44	3870.81
1026.88	2976.13
1031.32	2551.56
1035.75	2583.47
1040.18	2330.18
1044.61	1743.79
1049.04	979.77
1053.46	1010.02
1057.88	1909.39
1062.3	4595.51
1066.71	6110.42
1071.13	3283.93
1075.54	1945.81
1079.94	1363.08
1084.35	1103.7
1088.75	826.697
1093.15	619.069
1097.55	292.321
1101.94	295.921
1106.34	252.399
1110.73	179.724
1115.11	141.485
1119.5	55.1914
1123.88	222.138
1128.26	91.3838
1132.63	28.8926
1137.01	57.0898
1141.38	153.788
1145.75	175.53
1150.12	287.563
1154.48	281.944
1158.84	416.583
1163.2	392.435
1167.55	509.473
1171.91	542.808
1176.26	727.514
1180.61	802.016
1184.95	878.365
1189.29	1071.39
1193.63	930.736
1197.97	1118.25
1202.31	1009.14
1206.64	793.788
1210.97	763.833
1215.29	703.393
1219.62	518.31
1223.94	441.897
1228.26	285.755
1232.57	337.963
1236.89	350.504
1241.2	333.356
1245.51	281.634
1249.81	273.247
1254.12	234.078
1258.42	441.1
1262.72	377.462
1267.01	481.995
1271.3	296.051
1275.59	294.553
1279.88	242.829
1284.17	190.715
1288.45	23.1348
1292.73	57.207
1297.01	205.993
1301.28	145.701
1305.55	179.43
1309.82	146.914
1314.09	18.418
1318.35	31.1914
1322.61	93.959
1326.87	194.065
1331.13	166.341
1335.38	333.867
1339.63	415.532
1343.88	492.531
1348.12	544.566
1352.37	895.657
1356.61	819.875
1360.85	1038.93
1365.08	1045.66
1369.31	1135.73
1373.54	1178.32
1377.77	1245.98
1381.99	1081.5
1386.22	1037.94
1390.43	1003.26
1394.65	913.02
1398.87	907.109
1403.08	703.377
1407.29	827.14
1411.49	797.611
1415.69	639.709
1419.89	685.212
1424.09	706.304
1428.29	845.684
1432.48	787.082
1436.67	933.869
1440.86	976.512
1445.04	1102.73
1449.23	1188.35
1453.4	1132.72
1457.58	1223.16
1461.76	1199.54
1465.93	890.958
1470.1	905.495
1474.26	622.294
1478.43	612.429
1482.59	366.606
1486.75	164.63
1490.9	91.917
1495.06	90.7393
1499.21	107.097
1503.35	148.731
1507.5	13.0898
1511.64	242.84
1515.78	255.764
1519.92	393.565
1524.05	137.094
1528.18	41.626
1532.31	112.531
1536.44	6.26953
1540.56	8.72656
