Measurement: Raman, 514 nm, ccw, Raman Data Processed
Mineral: Andalusite
Rruff sample: R050258
Ideal chemistry: Al_2_SiO_5_
Locality: Bautista Canyon, near Hemet, Riverside County, California, USA
Source: Marcus Origlieri
Description: Brown fragment
Measured chemistry: Al_2.00_Si_1.00_O_5_
Pin_id: M00208
Orientation: Laser parallel to -c* (0 0 -1). Fiducial mark perpendicular to laser is parallel to a [1 0 0]
Raman shift (cm-1)	intensity
99.649	0
104.582	52.1611
109.512	873.574
114.44	286.483
119.365	174.551
124.288	289.903
129.209	290.488
134.127	173.033
139.043	491.159
143.956	278.717
148.867	345.46
153.775	333.571
158.681	168.352
163.585	327.397
168.486	326.42
173.385	470.959
178.282	217.494
183.176	416.859
188.067	821.894
192.956	813.658
197.843	696.691
202.727	804.869
207.609	172.562
212.489	145.008
217.366	138.152
222.24	28.3105
227.112	29.5586
231.982	461.799
236.849	1546.99
241.714	2056.75
246.577	1149.02
251.437	819.572
256.294	867.242
261.149	1143.15
266.002	1392.61
270.852	2083.12
275.7	4027.5
280.545	7261.51
285.388	17179.4
290.229	32952.7
295.067	17873.4
299.902	5370.1
304.735	2553.22
309.566	2193.32
314.394	5236.33
319.22	13797.2
324.043	8175.48
328.864	3593.31
333.682	2686.74
338.498	2285.97
343.311	2168.98
348.122	4261.73
352.931	10815.2
357.737	18040.4
362.54	10195.4
367.341	4402.35
372.14	2258.34
376.936	989.963
381.73	976.59
386.521	735.856
391.31	945.172
396.096	174.328
400.88	273.357
405.661	208.193
410.44	115.205
415.216	136.033
419.99	169.227
424.761	159.797
429.53	1.47461
434.297	61.7637
439.061	59.8574
443.822	221.334
448.581	1034.97
453.337	755.107
458.091	114.777
462.843	103.127
467.592	26.1484
472.338	333.805
477.082	245.322
481.824	425.477
486.563	213.615
491.3	41.1367
496.034	159.793
500.765	113.459
505.494	31.9043
510.221	164.537
514.945	27.0938
519.666	10.2852
524.385	36.4883
529.102	262.641
533.816	227.838
538.527	533.229
543.236	1452.11
547.943	3074.49
552.647	2708.17
557.348	1513.7
562.047	1143.36
566.744	1167.14
571.438	1503.74
576.129	736.326
580.818	634.078
585.504	313.125
590.188	249.242
594.87	323.557
599.549	486.027
604.225	435.812
608.899	547.602
613.57	391.158
618.239	692.277
622.905	665.613
627.569	930.008
632.23	626.188
636.889	378.996
641.545	585.049
646.198	530.242
650.849	410.088
655.498	349.688
660.144	186.732
664.787	193.537
669.428	252.621
674.067	110.523
678.703	41.1719
683.336	637.523
687.967	189.525
692.595	19.7812
697.221	134.635
701.844	49.4219
706.465	401.693
711.083	706.094
715.698	796.793
720.311	766.393
724.922	417.602
729.53	308.441
734.135	117.791
738.738	316.961
743.338	65.8613
747.936	151.144
752.531	36.5078
757.124	54.4355
761.714	125.709
766.302	47.5039
770.887	199.957
775.469	101.984
780.049	270.438
784.626	105.691
789.201	144.912
793.773	76.9473
798.343	480.783
802.91	298.363
807.475	102.572
812.037	122.746
816.596	494.594
821.153	464.221
825.707	407.19
830.259	338.453
834.808	502.56
839.355	101.522
843.899	2.50586
848.441	117.156
852.98	42.209
857.516	138.988
862.05	17.3789
866.581	155.836
871.11	202.56
875.636	187.635
880.159	32.1094
884.68	242.016
889.199	361.066
893.714	584.641
898.228	1194.56
902.738	1746.77
907.246	3554.18
911.752	8507.72
916.255	22256.3
920.755	22128.2
925.253	8774.15
929.748	4553.85
934.241	3516.29
938.731	4275.04
943.218	7382.95
947.703	14963.1
952.186	14381.8
956.665	6390.28
961.142	2776.02
965.617	1345.98
970.089	784.332
974.558	550.152
979.025	272.629
983.489	170.481
987.951	0.808594
992.41	207.316
996.866	263.762
1001.32	562.418
1005.77	986.277
1010.22	1286.24
1014.67	2886.38
1019.11	4485.47
1023.55	2771.66
1027.99	1254.71
1032.42	749.32
1036.86	582.16
1041.29	317.473
1045.72	387.195
1050.14	504.875
1054.56	1066.77
1058.98	2618.81
1063.4	5541.25
1067.82	3735.2
1072.23	1693.69
1076.64	667.356
1081.05	402.961
1085.45	471.387
1089.85	61.6367
1094.25	398.566
1098.65	476.922
1103.04	887.82
1107.43	1518.51
1111.82	1604.61
1116.21	865.262
1120.59	913.266
1124.97	451.078
1129.35	381.894
1133.73	271.723
1138.1	433.477
1142.47	242.906
1146.84	322.152
1151.21	369.465
1155.57	17.3242
1159.93	178.316
1164.29	167.019
1168.64	44.957
1172.99	180.871
1177.34	45.1641
1181.69	80.3555
1186.04	235.758
1190.38	142.996
1194.72	57.0977
1199.05	218.75
1203.39	128.59
1207.72	2.30469
1212.05	337.547
1216.37	31.3281
1220.7	226.031
1225.02	37.1719
1229.34	92.5586
1233.65	120.938
1237.97	0.101563
1242.28	97.8281
1246.59	188.484
1250.89	355.023
1255.19	327.227
1259.49	453.75
1263.79	334.031
1268.09	218.309
1272.38	241.231
1276.67	426.969
1280.95	199.359
1285.24	402.398
1289.52	290.738
1293.8	448.016
1298.08	365.531
1302.35	219.258
1306.62	152.707
1310.89	385.148
1315.15	228.75
1319.42	325.051
1323.68	33.1094
1327.94	363.531
1332.19	152.57
1336.44	312.867
1340.69	264.129
1344.94	181.543
1349.19	254.184
1353.43	104.406
1357.67	206.117
1361.9	414.203
1366.14	327.617
1370.37	79.3945
1374.6	65.3398
1378.83	454.711
1383.05	99.0117
1387.27	441.055
1391.49	64.8711
1395.7	157.519
1399.92	148.719
1404.13	267.75
1408.34	45.9688
1412.54	70.6094
1416.74	164.91
1420.94	288.223
1425.14	150.379
1429.34	138.367
1433.53	350.809
1437.72	298.473
1441.9	177.809
1446.09	360.418
1450.27	608.559
1454.45	4.64844
1458.63	223.852
1462.8	248.043
1466.97	317.219
1471.14	2.47266
1475.31	260.602
1479.47	104.785
1483.63	76.4141
1487.79	408.199
1491.94	262.543
1496.09	232.012
1500.24	474.879
1504.39	199.168
1508.54	398.586
1512.68	340.988
1516.82	126.016
1520.95	401
1525.09	325.664
1529.22	8.875
1533.35	224.25
1537.47	561.031
1541.6	345.285
1545.72	79.2383
1549.83	157.719
1553.95	275.68
1558.06	74.2656
1562.17	37.3438
1566.28	30.4219
1570.38	0
