Measurement: Raman, 514 nm, ccw, Raman Data Processed
Mineral: Andalusite
Rruff sample: R060212
Ideal chemistry: Al_2_SiO_5_
Locality: Brazil
Source: Marcus Origlieri
Description: Transparent yellow-green water-worn pebble
Measured chemistry: (Al_1.98_Fe^3+^_0.02_)_Î£=2_Si_1.00_O_5_
Pin_id: M00061
Orientation: Laser parallel to -a* (-1 0 0). Fiducial mark perpendicular to laser is parallel to -b [0 -1 0]
Raman shift (cm-1)	intensity
99.649	0
104.582	1.54785
109.512	678.393
114.44	227.28
119.365	60.7812
124.288	124.751
129.209	97.6018
134.127	63.9233
139.043	88.6318
143.956	101.609
148.867	49.5652
153.775	95.5842
158.681	194.273
163.585	364.344
168.486	486.056
173.385	366.412
178.282	304.208
183.176	413.493
188.067	711.586
192.956	804.014
197.843	625.597
202.727	741.102
207.609	133.502
212.489	57.1851
217.366	73.9258
222.24	78.6687
227.112	27.3823
231.982	237.842
236.849	856.84
241.714	1195.17
246.577	593.424
251.437	420.171
256.294	365.371
261.149	605.669
266.002	613.062
270.852	931.915
275.7	1600.31
280.545	4052.13
285.388	9507.91
290.229	16236.6
295.067	8286.88
299.902	2759.28
304.735	1707.47
309.566	3920.08
314.394	11776.7
319.22	26099.6
324.043	12445.1
328.864	3857.19
333.682	2023.51
338.498	1651.95
343.311	2319.53
348.122	5999.27
352.931	15037.2
357.737	22889.1
362.54	13176.5
367.341	5700.75
372.14	3132.38
376.936	1843.9
381.73	991.935
386.521	878.466
391.31	916.785
396.096	426.986
400.88	219.488
405.661	239.008
410.44	382.58
415.216	566.241
419.99	461.04
424.761	176.988
429.53	140.121
434.297	45.4341
439.061	84.9336
443.822	996.672
448.581	3533.65
453.337	2356.88
458.091	319.349
462.843	194.072
467.592	294.051
472.338	578.283
477.082	760.767
481.824	825.641
486.563	540.127
491.3	201.295
496.034	30.8086
500.765	56.5474
505.494	7.87012
510.221	126.856
514.945	63.5273
519.666	78.2886
524.385	104.051
529.102	1.83838
533.816	19.5684
538.527	141.793
543.236	1167.38
547.943	2979.19
552.647	3328.23
557.348	1400.5
562.047	555.988
566.744	428.697
571.438	373.623
576.129	339.763
580.818	383.614
585.504	296.181
590.188	321.957
594.87	382.941
599.549	402.127
604.225	278.511
608.899	244.089
613.57	247.854
618.239	397.213
622.905	554.059
627.569	617.089
632.23	471.293
636.889	337.194
641.545	492.192
646.198	560.763
650.849	500.471
655.498	447.23
660.144	424.03
664.787	657.172
669.428	892.417
674.067	1190.95
678.703	1448.91
683.336	1634.9
687.967	1739.93
692.595	1726.99
697.221	1838.07
701.844	2081.18
706.465	2608.3
711.083	3908.47
715.698	4473.73
720.311	2554.06
724.922	1045.49
729.53	469.119
734.135	297.738
738.738	350.344
743.338	128.934
747.936	170.505
752.531	89.0537
757.124	23.4282
761.714	50.3916
766.302	89.126
770.887	5.82227
775.469	56.418
780.049	33.2363
784.626	228.99
789.201	512.193
793.773	580.365
798.343	636.507
802.91	862.68
807.475	849.982
812.037	496.343
816.596	136.727
821.153	332.094
825.707	503.443
830.259	895.776
834.808	819.095
839.355	418.397
843.899	368.477
848.441	268.397
852.98	370.202
857.516	551.764
862.05	544.477
866.581	483.66
871.11	608.016
875.636	550.926
880.159	567.023
884.68	691.203
889.199	976.39
893.714	1459.18
898.228	2458.88
902.738	3817.9
907.246	7532.63
911.752	20789.4
916.255	47988.1
920.755	38834.6
925.253	14571.2
929.748	6987.99
934.241	3880.8
938.731	2464.74
943.218	1969.88
947.703	2038.76
952.186	1707
956.665	905.728
961.142	486.523
965.617	186.387
970.089	171.32
974.558	37.3213
979.025	17.6255
983.489	8.42188
987.951	12.3394
992.41	13.2241
996.866	45.9058
1001.32	443.371
1005.77	228.905
1010.22	174.94
1014.67	515.71
1019.11	859.842
1023.55	704.62
1027.99	420.498
1032.42	157.294
1036.86	123.549
1041.29	158.751
1045.72	112.434
1050.14	224.586
1054.56	412.976
1058.98	801.974
1063.4	1457
1067.82	993.057
1072.23	489.137
1076.64	452.246
1081.05	610.09
1085.45	470.24
1089.85	321.389
1094.25	380.527
1098.65	297.659
1103.04	331.78
1107.43	378.883
1111.82	251.731
1116.21	275.601
1120.59	354.103
1124.97	390.815
1129.35	242.472
1133.73	94.3594
1138.1	82.3774
1142.47	31.3789
1146.84	80.3057
1151.21	3.96191
1155.57	63.6924
1159.93	90.333
1164.29	51.9116
1168.64	69.3013
1172.99	58.6182
1177.34	46.8945
1181.69	29.8852
1186.04	8.17285
1190.38	22.123
1194.72	67.4604
1199.05	40.1968
1203.39	0.597168
1207.72	12.6411
1212.05	150.849
1216.37	145.11
1220.7	251.556
1225.02	474.049
1229.34	928.706
1233.65	1212.02
1237.97	1017.28
1242.28	1164.53
1246.59	1443.76
1250.89	1435.09
1255.19	1190.42
1259.49	1117.89
1263.79	1177.47
1268.09	955.992
1272.38	818.058
1276.67	564.435
1280.95	461.646
1285.24	340.976
1289.52	426.423
1293.8	386.315
1298.08	534.754
1302.35	344.663
1306.62	471.203
1310.89	589.822
1315.15	439.291
1319.42	430.213
1323.68	440.827
1327.94	169.117
1332.19	204.224
1336.44	47.5371
1340.69	2.39062
1344.94	27.2852
1349.19	14.0176
1353.43	5.18457
1357.67	61.6797
1361.9	25.6172
1366.14	52.6357
1370.37	139.74
1374.6	105.936
1378.83	142.223
1383.05	77.6689
1387.27	156.145
1391.49	188.093
1395.7	26.8926
1399.92	50.7588
1404.13	83.9219
1408.34	85.1572
1412.54	277.607
1416.74	246.19
1420.94	196.019
1425.14	226.334
1429.34	373.8
1433.53	428.318
1437.72	586.142
1441.9	709.087
1446.09	797.376
1450.27	852.543
1454.45	864.964
1458.63	827.785
1462.8	813.188
1466.97	462.532
1471.14	289.429
1475.31	421.54
1479.47	239.88
1483.63	297.348
1487.79	243.093
1491.94	41.0742
1496.09	44.2881
1500.24	22.7217
1504.39	135.149
1508.54	101.768
1512.68	35.7822
1516.82	55.3965
1520.95	226.544
1525.09	125.181
1529.22	86.3613
1533.35	255.156
1537.47	143.667
1541.6	123.833
1545.72	192.171
1549.83	204.517
1553.95	223.5
1558.06	168.309
1562.17	180.164
1566.28	154.257
1570.38	0
