Measurement: Raman, 514 nm, ccw, Raman Data Processed
Mineral: Andalusite
Rruff sample: R050626
Ideal chemistry: Al_2_SiO_5_
Locality: Minas Gerais, Brazil
Source: Gemological Center
Description: Grayish brown fragment
Measured chemistry: (Al_1.99_Fe^3+^_0.01_)_Î£=1_Si_1.00_O_5_
Pin_id: L00621
Orientation: Laser parallel to -c* (0 0 -1). Fiducial mark perpendicular to laser is parallel to -a [-1 0 0]
Raman shift (cm-1)	intensity
132.898	0
137.814	164.974
142.728	427.603
147.639	364.522
152.549	553.925
157.455	32.1094
162.359	130.936
167.261	919.008
172.161	982.23
177.058	841.265
181.952	892.494
186.845	1926.42
191.734	3604.93
196.622	3043.44
201.507	3110.7
206.389	610.721
211.269	1.14844
216.147	36.2495
221.022	54.3066
225.895	67.4771
230.765	163.611
235.633	729.739
240.498	2289.43
245.361	2063.19
250.222	882.137
255.08	520.597
259.936	883.675
264.789	476.242
269.64	734.842
274.488	2280.67
279.334	3387.16
284.178	8807.05
289.019	21416.9
293.857	24078.1
298.693	9027.56
303.527	2727.51
308.358	1495.8
313.187	3168.73
318.013	10397.8
322.837	14098.1
327.659	4776.44
332.478	1568.66
337.294	1185.87
342.108	2323.12
346.92	4410.39
351.729	7557.01
356.535	18097.1
361.34	18092.2
366.141	8191.32
370.94	4277
375.737	2850.68
380.531	2599.04
385.323	2969.37
390.113	3977.66
394.9	4251.93
399.684	3413.21
404.466	3140.61
409.245	2885.81
414.022	2363.13
418.797	2119.44
423.569	1309.53
428.338	1032.95
433.105	597.078
437.87	608.165
442.632	903.249
447.391	1499.36
452.149	2615.68
456.903	714.148
461.655	175.296
466.405	298.206
471.152	135.234
475.897	220.352
480.639	971.443
485.378	967.985
490.116	111.377
494.85	154.52
499.582	284.259
504.312	678.405
509.039	1128.06
513.764	1318.19
518.486	1197.08
523.206	1130.86
527.923	1276.11
532.638	1805.26
537.35	2461.3
542.059	3618.2
546.766	5352.94
551.471	6727.5
556.173	6046.84
560.873	4568.95
565.57	4254.8
570.264	4942.37
574.957	4577.63
579.646	3448.7
584.333	2370.86
589.018	1926.36
593.7	1678.42
598.379	1634.28
603.056	1885.87
607.73	2123.57
612.402	2716.81
617.072	3445.27
621.739	3978.13
626.403	4451.43
631.065	4858.11
635.724	4611.14
640.381	4317.23
645.035	4412.69
649.687	4003.19
654.336	2663.15
658.983	1664.9
663.627	1155.53
668.268	508.991
672.907	278.266
677.544	455.313
682.178	277.102
686.809	334.599
691.438	267.772
696.065	363.591
700.688	407.024
705.31	596.042
709.929	843.614
714.545	1525.21
719.158	1610.02
723.77	694.144
728.378	70.3096
732.984	178.06
737.588	198.028
742.189	20.8467
746.787	33.9453
751.383	22.4219
755.976	84.2139
760.567	78.1914
765.155	144.052
769.741	80.8398
774.324	7.84277
778.904	19.7549
783.482	253.042
788.058	232.644
792.631	604.299
797.201	842.029
801.769	1496.83
806.334	2372.71
810.897	3601.66
815.457	5239.68
820.014	6630.78
824.569	5708.95
829.122	4069.84
833.671	2499.56
838.219	1668.99
842.763	757.554
847.306	252.223
851.845	26.541
856.382	57.5586
860.917	136.009
865.448	2.11231
869.978	6.08594
874.505	1.15332
879.029	167.522
883.55	441.783
888.069	615.974
892.586	885.935
897.1	1644.34
901.611	2985.85
906.12	5092.77
910.626	10180.4
915.129	22957.1
919.63	39241.2
924.129	21535.2
928.625	11310.6
933.118	7286.83
937.609	6145.77
942.097	7388.51
946.582	13033.1
951.065	18887.5
955.546	12465.8
960.023	5578.95
964.499	3057.07
968.971	1997.22
973.441	1667.47
977.909	1631.9
982.374	1515.43
986.836	1410.87
991.295	1640.62
995.753	2043.99
1000.21	3869.58
1004.66	6805.09
1009.11	5668.07
1013.55	3407.98
1018	3305.92
1022.44	2738.15
1026.88	1849.63
1031.32	1292.92
1035.75	1196.07
1040.18	878.549
1044.61	759.116
1049.04	597.618
1053.46	524.98
1057.88	1484.95
1062.3	3569.48
1066.71	4017.56
1071.13	1724.26
1075.54	987.529
1079.94	474.382
1084.35	171.819
1088.75	69.8535
1093.15	78.4912
1097.55	163.731
1101.94	129.572
1106.34	464.932
1110.73	625.511
1115.11	429.523
1119.5	295.167
1123.88	138.625
1128.26	196.113
1132.63	76.0439
1137.01	119.694
1141.38	34.1123
1145.75	2.29981
1150.12	30.6953
1154.48	157.168
1158.84	117.847
1163.2	79.8926
1167.55	84.3545
1171.91	58.4121
1176.26	205.341
1180.61	81.4004
1184.95	176.754
1189.29	194.42
1193.63	205.444
1197.97	160.957
1202.31	55.6065
1206.64	86.5225
1210.97	36.71
1215.29	168.154
1219.62	162.352
1223.94	130.268
1228.26	58.1631
1232.57	139.97
1236.89	97.8467
1241.2	91.1582
1245.51	23.7666
1249.81	49.4648
1254.12	10.0156
1258.42	92.7002
1262.72	117.024
1267.01	45.0029
1271.3	73.8291
1275.59	27.8369
1279.88	2.94238
1284.17	179.265
1288.45	83.1631
1292.73	89.3057
1297.01	122.992
1301.28	124.007
1305.55	113.081
1309.82	142.556
1314.09	183.83
1318.35	152.806
1322.61	222.483
1326.87	49.8281
1331.13	158.282
1335.38	199.468
1339.63	159.515
1343.88	182.644
1348.12	236.161
1352.37	304.948
1356.61	233.466
1360.85	369.565
1365.08	273.798
1369.31	369.177
1373.54	172.573
1377.77	254.507
1381.99	361.552
1386.22	251.643
1390.43	249.309
1394.65	310.888
1398.87	88.2588
1403.08	50.7822
1407.29	330.121
1411.49	56.6094
1415.69	159.196
1419.89	199.736
1424.09	18.8564
1428.29	94.6397
1432.48	302.673
1436.67	321.458
1440.86	372.864
1445.04	504.791
1449.23	338.006
1453.4	433.321
1457.58	456.506
1461.76	303.72
1465.93	399.623
1470.1	453.972
1474.26	235.003
1478.43	214.818
1482.59	159.877
1486.75	122.739
1490.9	9.61426
1495.06	69.9492
1499.21	72.4346
1503.35	88.4248
1507.5	32.085
1511.64	175.207
1515.78	68.2773
1519.92	228.848
1524.05	137.038
1528.18	414.793
1532.31	174.244
1536.44	122.19
1540.56	378.633
1544.69	367.905
1548.8	291.75
1552.92	399.857
1557.03	560.378
1561.14	184.685
1565.25	195.842
1569.36	0.316406
