Measurement: Raman, 514 nm, ccw, Raman Data Processed
Mineral: Andalusite
Rruff sample: R050561
Ideal chemistry: Al_2_SiO_5_
Locality: Cargo Muchacho Mountain, Imperial County, California
Source: Dave Bunk Minerals
Description: Brown coarsely crystalline massive
Measured chemistry: (Al_1.98_Fe^3+^_0.02_)_Î£=2_Si_1.00_O_5_
Pin_id: M00417
Orientation: Laser parallel to a* (1 0 0). Fiducial mark perpendicular to laser is parallel to b [0 1 0]
Raman shift (cm-1)	intensity
99.649	0
104.582	99.0601
109.512	799.734
114.44	137.036
119.365	181.195
124.288	291.694
129.209	417.897
134.127	448.835
139.043	624.493
143.956	450.635
148.867	259.409
153.775	143.764
158.681	48.6326
163.585	48.7175
168.486	180.124
173.385	136.707
178.282	239.369
183.176	351.767
188.067	777.198
192.956	913.173
197.843	871.615
202.727	1263.08
207.609	300.435
212.489	32.2895
217.366	27.3413
222.24	36.4419
227.112	24.9717
231.982	258.752
236.849	870.522
241.714	1077.71
246.577	450.675
251.437	38.4834
256.294	106.804
261.149	226.29
266.002	11.4951
270.852	466.806
275.7	1493.24
280.545	4858.04
285.388	11707.1
290.229	16866.6
295.067	8731.64
299.902	2326.51
304.735	618.645
309.566	3405.82
314.394	13462.8
319.22	23749.2
324.043	11949.8
328.864	3373.18
333.682	1244.71
338.498	1099.67
343.311	2218.07
348.122	6787.78
352.931	16482.6
357.737	21088.1
362.54	12332.3
367.341	5864.42
372.14	3304.2
376.936	1746.85
381.73	1082.96
386.521	1441.54
391.31	1311.58
396.096	752.222
400.88	506.556
405.661	611.126
410.44	828.132
415.216	1349.34
419.99	939.208
424.761	328.752
429.53	37.021
434.297	147.411
439.061	205.26
443.822	1445.56
448.581	3681.64
453.337	2338.67
458.091	411.502
462.843	248.117
467.592	240.518
472.338	372.711
477.082	716.72
481.824	490.667
486.563	19.9902
491.3	332.853
496.034	181.898
500.765	212.815
505.494	1062.5
510.221	1612.07
514.945	1513.42
519.666	1284.49
524.385	1142.21
529.102	1363.57
533.816	2190.55
538.527	3215.12
543.236	5022.31
547.943	7226.29
552.647	7165.98
557.348	5645.2
562.047	4513.89
566.744	4513
571.438	4472.43
576.129	4093.71
580.818	3172.79
585.504	2468.9
590.188	2041.46
594.87	2001.97
599.549	2247.89
604.225	2787.04
608.899	3439.3
613.57	4334.85
618.239	4799.89
622.905	4994.19
627.569	5339.2
632.23	5307.99
636.889	5074.06
641.545	4922.66
646.198	4444.31
650.849	3225.75
655.498	2196.65
660.144	1784.97
664.787	1253.65
669.428	1555.65
674.067	1981.92
678.703	2452.41
683.336	2733.08
687.967	2997.88
692.595	3039.75
697.221	2787.65
701.844	3171.53
706.465	3498.35
711.083	4117.13
715.698	3720.69
720.311	2034.18
724.922	692.81
729.53	495.985
734.135	515.369
738.738	493.033
743.338	393.549
747.936	308.101
752.531	181.922
757.124	86.9048
761.714	72.3359
766.302	154.974
770.887	200.915
775.469	1.30127
780.049	218.517
784.626	501.522
789.201	795.576
793.773	1418.67
798.343	2624.78
802.91	4301.91
807.475	5637.02
812.037	6772.12
816.596	7862.19
821.153	7842.23
825.707	6011.22
830.259	4075.16
834.808	2675.03
839.355	1267.86
843.899	532.614
848.441	28.2432
852.98	147.144
857.516	109.814
862.05	155.977
866.581	9.58154
871.11	199.094
875.636	329.364
880.159	590.596
884.68	851.88
889.199	1323.12
893.714	2121.03
898.228	3548.35
902.738	6156.63
907.246	11861
911.752	29561.1
916.255	59804.8
920.755	43739.5
925.253	21033
929.748	11485.1
934.241	6280.63
938.731	4169.76
943.218	3290.49
947.703	3294.84
952.186	2814.85
956.665	1807.55
961.142	1363.96
965.617	1195.12
970.089	1172.06
974.558	1390.83
979.025	1428.46
983.489	1332.59
987.951	1448.39
992.41	1791.55
996.866	3337.14
1001.32	6593.71
1005.77	7451.38
1010.22	4585.72
1014.67	3219.67
1019.11	2822
1023.55	2327.66
1027.99	1716.38
1032.42	1394.04
1036.86	1109.47
1041.29	849.01
1045.72	400.51
1050.14	310.233
1054.56	491.83
1058.98	1158.19
1063.4	1981.29
1067.82	1074.08
1072.23	731.599
1076.64	553.751
1081.05	593.517
1085.45	585.923
1089.85	481.948
1094.25	297.589
1098.65	266.152
1103.04	121.027
1107.43	200.836
1111.82	30.9609
1116.21	11.7778
1120.59	330.857
1124.97	454.747
1129.35	79.4775
1133.73	87.186
1138.1	105.024
1142.47	20.6719
1146.84	11.4243
1151.21	9.25537
1155.57	118.993
1159.93	36.6831
1164.29	123.161
1168.64	102.059
1172.99	134.761
1177.34	231.198
1181.69	229.237
1186.04	334.092
1190.38	246.648
1194.72	284.26
1199.05	194.727
1203.39	119.639
1207.72	165.33
1212.05	185.555
1216.37	91.1562
1220.7	82.7988
1225.02	124.732
1229.34	96.7524
1233.65	11.1484
1237.97	23.9609
1242.28	35.1055
1246.59	76.8579
1250.89	100.125
1255.19	78.9033
1259.49	158.473
1263.79	71.417
1268.09	65.6352
1272.38	161.042
1276.67	37.0498
1280.95	46.8003
1285.24	47.3188
1289.52	57.978
1293.8	117.259
1298.08	60.5288
1302.35	8.3623
1306.62	10.377
1310.89	10.5161
1315.15	4.83106
1319.42	64.7075
1323.68	156.887
1327.94	9.20703
1332.19	99.1157
1336.44	131.995
1340.69	102.458
1344.94	109.485
1349.19	263.106
1353.43	307.75
1357.67	279.823
1361.9	414.76
1366.14	417.99
1370.37	480.586
1374.6	426.461
1378.83	444.762
1383.05	478.772
1387.27	424.001
1391.49	384.373
1395.7	375.49
1399.92	394.843
1404.13	364.062
1408.34	324.585
1412.54	262.307
1416.74	319.363
1420.94	342.914
1425.14	253.041
1429.34	290.782
1433.53	394.305
1437.72	358.569
1441.9	387.824
1446.09	322.914
1450.27	526.378
1454.45	393.416
1458.63	298.907
1462.8	401.425
1466.97	210.96
1471.14	198.58
1475.31	243.961
1479.47	105.282
1483.63	21.5322
1487.79	146.642
1491.94	76.6597
1496.09	57.0098
1500.24	42.5942
1504.39	59.1728
1508.54	53.1841
1512.68	67.5811
1516.82	162.223
1520.95	142.475
1525.09	128.044
1529.22	62.5176
1533.35	136.041
1537.47	177.716
1541.6	214.694
1545.72	253.459
1549.83	208.627
1553.95	224.189
1558.06	110.667
1562.17	53.1821
1566.28	85.4853
1570.38	0
