Measurement: Raman, 514 nm, ccw, Raman Data Processed
Mineral: Andalusite
Rruff sample: R050626
Ideal chemistry: Al_2_SiO_5_
Locality: Minas Gerais, Brazil
Source: Gemological Center
Description: Grayish brown fragment
Measured chemistry: (Al_1.99_Fe^3+^_0.01_)_Î£=1_Si_1.00_O_5_
Pin_id: L00621
Orientation: Laser parallel to -c* (0 0 -1). Fiducial mark perpendicular to laser is parallel to -a [-1 0 0]
Raman shift (cm-1)	intensity
132.898	0
137.814	191.791
142.728	209.821
147.639	240.797
152.549	320.377
157.455	15.3584
162.359	160.943
167.261	815.878
172.161	842.76
177.058	690.24
181.952	960.237
186.845	1895.87
191.734	3198.79
196.622	2469.44
201.507	2772.61
206.389	621.289
211.269	14.272
216.147	36.6953
221.022	161.314
225.895	75.4092
230.765	259.845
235.633	1028.93
240.498	2372.43
245.361	1396.39
250.222	706.214
255.08	524.146
259.936	733.501
264.789	649.323
269.64	967.871
274.488	2254.43
279.334	4590.55
284.178	12291.4
289.019	26208.1
293.857	20889.8
298.693	6865.23
303.527	2025.46
308.358	1326.57
313.187	4340.13
318.013	13059.2
322.837	11894.5
327.659	3440.56
332.478	1668.46
337.294	1281.67
342.108	1630.71
346.92	3639.57
351.729	10289.2
356.535	20960.8
361.34	15545.1
366.141	6723.02
370.94	3268.63
375.737	2047.86
380.531	1729.24
385.323	1959.35
390.113	2978.2
394.9	2463.82
399.684	1659.23
404.466	1727.48
409.245	1698.62
414.022	1390.55
418.797	1304.24
423.569	713.676
428.338	474.8
433.105	231.613
437.87	294.143
442.632	730.405
447.391	1270.46
452.149	1954.43
456.903	355.253
461.655	266.139
466.405	133.694
471.152	141.062
475.897	226.216
480.639	1065.49
485.378	720.96
490.116	182.688
494.85	203.444
499.582	407.338
504.312	841.352
509.039	1008.35
513.764	1184.56
518.486	1141.7
523.206	1149.55
527.923	1391.08
532.638	1877.28
537.35	2391.18
542.059	3661.31
546.766	5306.11
551.471	6402.49
556.173	5077.71
560.873	4026.47
565.57	3939.74
570.264	4624.51
574.957	4022.8
579.646	2943.98
584.333	2174.37
589.018	1778.05
593.7	1567.07
598.379	1385.34
603.056	1636.16
607.73	2036.01
612.402	2720.83
617.072	3239.34
621.739	3595.33
626.403	4090.65
631.065	4272.42
635.724	3858.06
640.381	3652.01
645.035	3933.29
649.687	3160.62
654.336	2069.67
658.983	1346.62
663.627	636.429
668.268	201.073
672.907	28.5283
677.544	83.7246
682.178	35.7725
686.809	36.8916
691.438	61.0889
696.065	310.736
700.688	182.046
705.31	282.995
709.929	774.763
714.545	1184.06
719.158	1191.92
723.77	380.111
728.378	95.8682
732.984	250.675
737.588	323.04
742.189	23.8994
746.787	46.5488
751.383	87.0459
755.976	64.1035
760.567	25.9375
765.155	68.5986
769.741	4.81738
774.324	81.7353
778.904	169.932
783.482	226.116
788.058	314.483
792.631	646.071
797.201	912.882
801.769	1610.91
806.334	2293.17
810.897	3389.65
815.457	5091.31
820.014	6040.71
824.569	5098.1
829.122	3224.83
833.671	2263.55
838.219	1297.55
842.763	579.841
847.306	124.865
851.845	119.877
856.382	183.023
860.917	198.41
865.448	2.74805
869.978	9.96094
874.505	159.778
879.029	166.592
883.55	330.534
888.069	549.41
892.586	972.216
897.1	1819.44
901.611	3235.93
906.12	5624.44
910.626	11531.5
915.129	27068.8
919.63	38059.4
924.129	18237.6
928.625	10230.7
933.118	6747.64
937.609	6238.99
942.097	8473.19
946.582	15511.8
951.065	19640.5
955.546	10727.1
960.023	5061.87
964.499	2817.79
968.971	2020.76
973.441	1805.84
977.909	1523.18
982.374	1446.97
986.836	1428.61
991.295	1548.52
995.753	2202.93
1000.21	4113.27
1004.66	6705.5
1009.11	4839.65
1013.55	3206.9
1018	3301.62
1022.44	2642.86
1026.88	1590
1031.32	1356.09
1035.75	1187.34
1040.18	1213.86
1044.61	923.123
1049.04	731.557
1053.46	1010.37
1057.88	2057.76
1062.3	4447.29
1066.71	4022.46
1071.13	1762.25
1075.54	1042.87
1079.94	522.293
1084.35	440.394
1088.75	353.889
1093.15	229.401
1097.55	64.4717
1101.94	266.54
1106.34	409.28
1110.73	573.318
1115.11	409.82
1119.5	825.273
1123.88	1012.11
1128.26	829.394
1132.63	132.944
1137.01	29.4824
1141.38	14.294
1145.75	33.4912
1150.12	13.9717
1154.48	105.644
1158.84	35.6553
1163.2	183.684
1167.55	206.082
1171.91	42.7891
1176.26	124.36
1180.61	26.8906
1184.95	127.843
1189.29	218.285
1193.63	197.36
1197.97	268.977
1202.31	122.733
1206.64	70.1309
1210.97	231.925
1215.29	135.296
1219.62	26.3145
1223.94	93.4727
1228.26	1.66406
1232.57	19.7686
1236.89	30.248
1241.2	164.714
1245.51	133.5
1249.81	73.4971
1254.12	78.6064
1258.42	6.33594
1262.72	170.814
1267.01	120.087
1271.3	158.647
1275.59	46.5303
1279.88	134.424
1284.17	32.6768
1288.45	62.9228
1292.73	86.582
1297.01	31.833
1301.28	0.275391
1305.55	2.21484
1309.82	143.411
1314.09	69.4092
1318.35	98.3662
1322.61	70.9356
1326.87	194.477
1331.13	76.1309
1335.38	190.981
1339.63	236.703
1343.88	182.309
1348.12	203.692
1352.37	234.219
1356.61	369.008
1360.85	360.292
1365.08	305.022
1369.31	578.07
1373.54	449.376
1377.77	417.51
1381.99	472.512
1386.22	200.527
1390.43	277.65
1394.65	314.272
1398.87	174.782
1403.08	339.647
1407.29	137.981
1411.49	304.667
1415.69	201.465
1419.89	372.032
1424.09	274.51
1428.29	365.271
1432.48	212.831
1436.67	608.003
1440.86	384.338
1445.04	405.104
1449.23	581.67
1453.4	371.557
1457.58	389.343
1461.76	306.981
1465.93	381.108
1470.1	299.231
1474.26	225.909
1478.43	16.2979
1482.59	274.54
1486.75	194.81
1490.9	93.7393
1495.06	73.8418
1499.21	95.5811
1503.35	10.2051
1507.5	83.8545
1511.64	167.362
1515.78	336.738
1519.92	338.791
1524.05	249.589
1528.18	372.368
1532.31	257.741
1536.44	22.5986
1540.56	291.315
1544.69	168.694
1548.8	181.023
1552.92	229.277
1557.03	211.251
1561.14	97.334
1565.25	49.6934
1569.36	1.21484
