Measurement: Raman, 514 nm, ccw, Raman Data Processed
Mineral: Andalusite
Rruff sample: R050258
Ideal chemistry: Al_2_SiO_5_
Locality: Bautista Canyon, near Hemet, Riverside County, California, USA
Source: Marcus Origlieri
Description: Brown fragment
Measured chemistry: Al_2.00_Si_1.00_O_5_
Pin_id: M00252
Orientation: Laser parallel to b* (0 1 0). Fiducial mark perpendicular to laser is parallel to c [0 0 1]
Raman shift (cm-1)	intensity
111.976	0
116.903	126.889
121.827	30.8496
126.749	333.75
131.668	307.164
136.585	270.305
141.5	396.207
146.412	367.772
151.321	347.055
156.229	177.25
161.134	401.238
166.036	344.353
170.936	304.227
175.834	314.394
180.729	262.715
185.622	312.965
190.512	433.326
195.4	569.486
200.286	521.299
205.169	247.943
210.049	149.078
214.928	251.707
219.803	199.074
224.677	2.9082
229.548	365.56
234.416	534.627
239.282	564.481
244.146	540.766
249.007	331.744
253.866	279.094
258.722	480.039
263.576	617.695
268.427	895.391
273.276	1482.1
278.123	2065.88
282.967	5506.85
287.809	10264
292.648	10403.4
297.485	4600.93
302.319	1588.77
307.151	894.828
311.98	1692.04
316.807	3744.35
321.631	4470.92
326.454	2450.78
331.273	1473.03
336.09	1347.26
340.905	1091.41
345.717	1438.47
350.527	2648.62
355.334	4988.59
360.139	5027.95
364.941	2610.51
369.741	1145.54
374.538	571.486
379.333	401.797
384.126	270.764
388.916	195.244
393.703	257.523
398.488	92.6894
403.271	85.6406
408.051	121.603
412.828	11.6016
417.603	33.7734
422.376	296.93
427.146	204.559
431.914	105.447
436.679	10.1992
441.442	235.707
446.202	301.773
450.96	412.848
455.715	322.68
460.467	96.7422
465.218	33.5762
469.965	57.7402
474.711	151.783
479.454	324.932
484.194	29.7793
488.932	204.324
493.667	5.35547
498.4	3.43555
503.13	98.0977
507.858	22.832
512.583	127.787
517.306	152.076
522.026	27.9824
526.744	207.287
531.459	136.438
536.172	305.266
540.882	421.297
545.59	1230.01
550.295	1382.26
554.998	953
559.698	588.211
564.396	489.014
569.091	489.685
573.784	423.602
578.474	270.773
583.162	240.742
587.847	425.139
592.529	85.0742
597.209	209.41
601.887	475.988
606.562	260.707
611.235	59.0625
615.905	253.863
620.572	268.629
625.237	210.535
629.9	513.281
634.56	257.406
639.217	140.535
643.872	297.93
648.524	246.41
653.174	248.219
657.821	218.898
662.466	98.1445
667.108	332.566
671.748	88.9062
676.385	170.941
681.02	107.981
685.652	221.473
690.281	144.945
694.908	8.77344
699.533	196.305
704.155	323.148
708.774	345.863
713.391	411.379
718.005	723.07
722.617	703.981
727.226	78.1836
731.833	243.137
736.437	156.254
741.039	204.551
745.638	194.961
750.234	202.152
754.828	332.887
759.419	296.789
764.008	37.7617
768.595	57.2227
773.178	182.586
777.759	375.578
782.338	23.8828
786.914	277.856
791.488	2.32422
796.059	90.6406
800.627	304.094
805.193	371.949
809.756	80.5234
814.317	368.098
818.875	84.0156
823.431	3.18359
827.984	305.531
832.534	214.797
837.082	194.07
841.627	28.8906
846.17	67.3281
850.71	170.191
855.248	81.4297
859.783	130.934
864.316	45.3984
868.846	225.938
873.373	213.477
877.898	411.164
882.42	22.1953
886.94	298.066
891.457	194.598
895.971	417.981
900.483	681.758
904.993	1030.2
909.5	2265.56
914.004	6303.34
918.505	9718.13
923.004	5535.08
927.501	2482.79
931.995	1583.82
936.486	1244.25
940.975	2161.75
945.461	3860.67
949.945	5371.61
954.426	3422.09
958.904	1612.82
963.38	951.133
967.853	295.512
972.324	256
976.792	277.785
981.258	271.07
985.72	79.2461
990.181	211.055
994.639	89.5273
999.094	194.637
1003.55	344.848
1008	468.465
1012.44	1018.28
1016.89	1784.68
1021.33	1784.53
1025.77	1092.43
1030.21	437.398
1034.64	263.812
1039.07	13.1016
1043.5	31.1016
1047.93	255.41
1052.35	350.758
1056.78	743.879
1061.19	1935.26
1065.61	2051.38
1070.02	1260.47
1074.43	531.211
1078.84	60.3125
1083.25	327.258
1087.65	3.58203
1092.05	103.637
1096.45	351.129
1100.85	514.316
1105.24	780.07
1109.63	1076.84
1114.02	348.539
1118.4	133.035
1122.78	201.117
1127.16	467.902
1131.54	13.9492
1135.92	83.918
1140.29	161.051
1144.66	171.477
1149.02	176.172
1153.39	125.574
1157.75	448.785
1162.11	19.8125
1166.46	437.504
1170.82	21.0742
1175.17	494.195
1179.52	299.418
1183.86	182.242
1188.21	53.8594
1192.55	242.848
1196.89	1.55859
1201.22	132.664
1205.55	4.63281
1209.88	217.883
1214.21	140.769
1218.54	368.836
1222.86	161.242
1227.18	94.6641
1231.5	359.824
1235.81	267.707
1240.12	154.277
1244.43	179.461
1248.74	348.316
1253.04	244.926
1257.34	290.57
1261.64	441.606
1265.94	312.008
1270.23	258.242
1274.52	113.062
1278.81	156.797
1283.1	424.203
1287.38	315.375
1291.66	308.68
1295.94	440.562
1300.21	142.297
1304.48	71.1133
1308.75	455.391
1313.02	179.234
1317.29	216.031
1321.55	411.508
1325.81	484.168
1330.06	120.977
1334.32	233.519
1338.57	547.547
1342.82	217.949
1347.06	253.633
1351.31	413.352
1355.55	246.934
1359.79	362.465
1364.02	388.074
1368.26	275.098
1372.49	123.644
1376.71	206.465
1380.94	335.281
1385.16	241.879
1389.38	447.262
1393.6	168.016
1397.81	278.734
1402.02	89.2383
1406.23	370.047
1410.44	240.836
1414.64	79.7617
1418.85	430.867
1423.04	135.043
1427.24	568.199
1431.43	79.1016
1435.62	119.879
1439.81	109.766
1444	429.797
1448.18	194.426
1452.36	211.578
1456.54	156.887
1460.71	134.43
1464.89	226.34
1469.06	373.91
1473.22	369.945
1477.39	228.074
1481.55	340.328
1485.71	287.762
1489.86	483.121
1494.02	289.621
1498.17	52.4961
1502.32	206.008
1506.46	277.254
1510.61	425.367
1514.75	329.668
1518.88	268.211
1523.02	164.246
1527.15	389.551
1531.28	2.6875
1535.41	311.973
1539.53	345.07
1543.66	279.941
1547.78	217.644
1551.89	184.809
1556.01	298.641
1560.12	291.566
1564.23	23.0352
1568.33	398.285
