Measurement: Raman, 514 nm, ccw, Raman Data Processed
Mineral: Andalusite
Rruff sample: R050449
Ideal chemistry: Al_2_SiO_5_
Locality: Itinga, Minas Gerais, Brazil
Source: Marcus Origlieri
Description: Green fragment
Measured chemistry: Al_2.00_Fe^3+^_0.01_Si_0.99_O_5_
Pin_id: L00614
Orientation: Laser parallel to a* (1 0 0). Fiducial mark perpendicular to laser is parallel to b [0 1 0]
Raman shift (cm-1)	intensity
121.827	0
126.749	51.7759
131.668	696.574
136.585	1022.32
141.5	1323.9
146.412	787.441
151.321	359.559
156.229	268.642
161.134	49.124
166.036	293.798
170.936	288.024
175.834	372.087
180.729	627.609
185.622	1217.67
190.512	1644.22
195.4	2221.23
200.286	2584.82
205.169	1715.36
210.049	909.42
214.928	974.58
219.803	1185.11
224.677	1186.25
229.548	1022.14
234.416	853.426
239.282	840.423
244.146	734.511
249.007	372.442
253.866	346.694
258.722	316.312
263.576	41.3398
268.427	87.5898
273.276	570.318
278.123	1652.73
282.967	6246.98
287.809	10270.6
292.648	8581.93
297.485	2929.92
302.319	115.584
307.151	32.4268
311.98	6071.01
316.807	12848.5
321.631	10476.1
326.454	3484.56
331.273	313.707
336.09	140.324
340.905	857.944
345.717	2758.44
350.527	8668.79
355.334	13893.1
360.139	11928.6
364.941	7622.41
369.741	5331.23
374.538	4309.05
379.333	3829.75
384.126	4433.34
388.916	4961.83
393.703	4580.19
398.488	4030.48
403.271	3928.13
408.051	4097.71
412.828	4243.52
417.603	3973.29
422.376	3363.06
427.146	2766.86
431.914	2397.71
436.679	2935.66
441.442	3990.76
446.202	5234.43
450.96	4421.59
455.715	1869.94
460.467	550.521
465.218	86.3545
469.965	114.511
474.711	175.688
479.454	173.44
484.194	255.787
488.932	314.292
493.667	1615.9
498.4	3047.8
503.13	4648.77
507.858	6099.79
512.583	6396.83
517.306	6025.86
522.026	6353.85
526.744	7099.77
531.459	9022.6
536.172	11764.3
540.882	14751.4
545.59	17291
550.295	18828.8
554.998	17282.5
559.698	15426.6
564.396	14995.4
569.091	15014.6
573.784	14213.3
578.474	12235.3
583.162	10055.1
587.847	8700.1
592.529	7810.59
597.209	7659.74
601.887	8558.15
606.562	10610.6
611.235	13126.7
615.905	15385.8
620.572	16545.1
625.237	17670.7
629.9	18232.2
634.56	17272.7
639.217	15723.8
643.872	14727.3
648.524	12709.4
653.174	8900.81
657.821	5538.61
662.466	3085.69
667.108	1311
671.748	545.464
676.385	159.019
681.02	217.603
685.652	304.669
690.281	47.1338
694.908	368.407
699.533	722.467
704.155	1159.26
708.774	1907.72
713.391	2532.92
718.005	1921.52
722.617	798.293
727.226	642.176
731.833	904.83
736.437	1008.02
741.039	409.746
745.638	355.023
750.234	401.232
754.828	502.959
759.419	362.753
764.008	72.4082
768.595	234.797
773.178	446.753
777.759	941.874
782.338	1294.38
786.914	1944.26
791.488	2927.49
796.059	4327.05
800.627	6750.93
805.193	10311.1
809.756	15511.6
814.317	21898.3
818.875	24621.5
823.431	19984.4
827.984	12934.7
832.534	8132.84
837.082	4754.32
841.627	2209.21
846.17	806.5
850.71	204.96
855.248	463.757
859.783	434.411
864.316	130.165
868.846	63.6611
873.373	32.3281
877.898	147.82
882.42	216.915
886.94	924.985
891.457	1791.78
895.971	3693.18
900.483	6375.79
904.993	10849.8
909.5	19278.5
914.004	36673.7
918.505	43732
923.004	28535.5
927.501	17557.4
931.995	10506.6
936.486	6521.2
940.975	4784.33
945.461	4516.02
949.945	4396.34
954.426	3773.53
958.904	3063.36
963.38	3004.84
967.853	3453.27
972.324	3912.61
976.792	3974.95
981.258	4021.33
985.72	4253.51
990.181	5119.95
994.639	8153.62
999.094	16247.4
1003.55	23209.3
1008	16571.3
1012.44	8536.75
1016.89	5580.89
1021.33	4349.62
1025.77	3602.61
1030.21	3322.06
1034.64	3076.42
1039.07	2463.13
1043.5	1665.51
1047.93	843.952
1052.35	599.334
1056.78	1000.64
1061.19	1719.14
1065.61	1765.58
1070.02	1493.95
1074.43	1341.03
1078.84	1245.76
1083.25	813.157
1087.65	607.221
1092.05	382.954
1096.45	210.352
1100.85	252.417
1105.24	312.161
1109.63	112.587
1114.02	80.7061
1118.4	95.7754
1122.78	147.312
1127.16	284.345
1131.54	131.451
1135.92	245.458
1140.29	446.324
1144.66	224.878
1149.02	386.301
1153.39	517.358
1157.75	622.318
1162.11	665.964
1166.46	801.82
1170.82	1007.29
1175.17	1148.26
1179.52	1250.5
1183.86	1260.52
1188.21	1367.6
1192.55	1487.31
1196.89	1377.44
1201.22	1375.44
1205.55	1220.1
1209.88	1036.15
1214.21	851.336
1218.54	888.418
1222.86	777.757
1227.18	510.597
1231.5	291.764
1235.81	491.623
1240.12	267.815
1244.43	465.098
1248.74	449.228
1253.04	692.29
1257.34	426.115
1261.64	677.026
1265.94	494.899
1270.23	467.622
1274.52	487.091
1278.81	163.194
1283.1	279.844
1287.38	165.926
1291.66	35.0586
1295.94	37.1035
1300.21	194.122
1304.48	171.379
1308.75	155.564
1313.02	84.6309
1317.29	7.96875
1321.55	50.9238
1325.81	16.5371
1330.06	230.115
1334.32	318.858
1338.57	400.727
1342.82	350.655
1347.06	671.566
1351.31	709.394
1355.55	909.107
1359.79	1127.1
1364.02	1119.47
1368.26	1374.48
1372.49	1370.84
1376.71	1251.62
1380.94	1346.72
1385.16	1279.09
1389.38	1237.99
1393.6	1164.87
1397.81	1047.13
1402.02	1006.25
1406.23	968.834
1410.44	915.291
1414.64	917.384
1418.85	916.911
1423.04	1024.96
1427.24	1008.79
1431.43	1242.59
1435.62	1113.49
1439.81	1353.56
1444	1299.59
1448.18	1462.16
1452.36	1371.3
1456.54	1413.23
1460.71	1340.46
1464.89	1186.76
1469.06	1003.39
1473.22	717.534
1477.39	608.376
1481.55	373.188
1485.71	262.994
1489.86	31.2812
1494.02	22.8867
1498.17	36.4775
1502.32	77.6484
1506.46	288.062
1510.61	15.6035
1514.75	430.756
1518.88	311.538
1523.02	354.094
1527.15	280.12
1531.28	284.196
1535.41	114.198
1539.53	278.161
1543.66	78.9648
1547.78	1.78516
