Measurement: Raman, 514 nm, ccw, Raman Data Processed
Mineral: Andradite
Rruff sample: R060358
Ideal chemistry: Ca_3_Fe^3+^_2_(SiO_4_)_3_
Locality: Soghan, near Jiroft, Kerman, Iran
Source: Herb Obodda
Description: Green dodecahedron
Measured chemistry: Ca_3.00_(Fe^3+^_1.89_Cr_0.11_)_Î£=2_(Si_1.00_O_4_)_3_
Pin_id: L01104
Orientation: Laser parallel to -b* (0 -1 0). Fiducial mark perpendicular to laser is parallel to c [0 0 1]
Raman shift (cm-1)	intensity
51.431	0
56.387	3.11578
61.341	2.5957
66.292	15.4267
71.241	64.0197
76.187	75.7048
81.131	110.168
86.072	99.6724
91.012	163.677
95.948	149.835
100.883	113.002
105.815	161.997
110.744	217.561
115.671	167.458
120.596	73.8902
125.519	105.013
130.439	87.7332
135.356	107.584
140.271	107.022
145.184	85.7074
150.094	42.1115
155.002	104.703
159.908	76.4346
164.811	175.393
169.711	720.559
174.61	3187.92
179.505	727.464
184.399	175.18
189.29	145.1
194.178	160.254
199.064	140.808
203.948	105.769
208.829	28.4607
213.708	5.95789
218.585	11.7479
223.459	29.6028
228.33	150.105
233.199	671.75
238.066	1439.53
242.93	134.422
247.792	29.5871
252.651	70.5885
257.508	14.7059
262.363	128.187
267.215	292.194
272.064	97.3276
276.912	38.5754
281.756	56.7482
286.598	117.925
291.438	361.275
296.276	931.791
301.111	735.147
305.943	439.529
310.773	1014.12
315.601	1282.91
320.426	756.066
325.248	1251.18
330.068	1200.74
334.886	1580.36
339.701	2763.18
344.514	6370.21
349.324	18399.5
354.132	30748.4
358.938	14331.2
363.741	18302.8
368.541	48225.4
373.339	48541.7
378.135	16016.4
382.928	7620.25
387.718	3819.42
392.506	1809.1
397.292	1136.73
402.075	725.915
406.856	551.38
411.634	348.78
416.41	207.686
421.183	126.867
425.954	94.3087
430.722	68.9912
435.488	57.9125
440.251	17.0729
445.012	57.4595
449.77	213.077
454.526	292.925
459.28	33.0092
464.03	5.69025
468.779	13.2035
473.525	97.468
478.268	244.344
483.009	542.526
487.747	1588.4
492.483	3872.9
497.217	2732.94
501.948	1689.48
506.676	2786.72
511.402	8916.2
516.125	23139.2
520.846	11898.7
525.565	3766.64
530.281	1786.07
534.994	1140.56
539.705	895.233
544.413	744.094
549.119	677.346
553.822	716.476
558.523	561.116
563.222	422.162
567.917	611.757
572.611	1233.24
577.302	2252.03
581.99	1111.73
586.676	462.269
591.359	290.337
596.04	243.801
600.718	196.584
605.394	139.043
610.067	119.676
614.737	56.7534
619.406	52.9762
624.071	2.76318
628.734	8.84692
633.395	17.6853
638.053	24.212
642.708	13.7538
647.361	28.6473
652.012	0.023621
656.66	13.3455
661.305	25.435
665.948	8.41327
670.588	11.4651
675.226	35.7892
679.861	2.70752
684.494	4.04096
689.124	8.21515
693.752	21.8133
698.377	24.8959
702.999	6.46393
707.619	26.9028
712.237	1.73822
716.852	45.5179
721.464	25.6897
726.074	22.795
730.681	47.8218
735.286	12.7668
739.888	15.6254
744.488	54.4206
749.085	34.173
753.68	62.8731
758.272	53.5157
762.861	2.99744
767.448	9.06012
772.033	32.3889
776.614	50.9456
781.194	66.4367
785.77	81.9407
790.345	133.883
794.916	246.565
799.485	395.48
804.052	713.88
808.616	1212.82
813.177	2510.37
817.736	3495.97
822.292	2632.14
826.846	1874.32
831.397	1981.93
835.945	2346.62
840.491	3655.95
845.035	4285.28
849.576	3537.97
854.114	3552.68
858.65	4391.95
863.183	6932.45
867.713	13704.5
872.241	34690.2
876.767	49960.7
881.29	20205.5
885.81	6935.23
890.328	3143.08
894.843	1851.99
899.356	1262.19
903.866	856.163
908.373	712.307
912.878	643.539
917.38	456.044
921.88	359.058
926.377	292.57
930.872	266.377
935.364	221.974
939.853	131.784
944.34	128.661
948.824	122.669
953.306	99.821
957.785	120.097
962.261	143.489
966.735	174.033
971.207	246.725
975.675	282.518
980.141	295.407
984.605	288.382
989.066	474.466
993.524	823.654
997.98	883.921
1002.43	361.292
1006.88	146.818
1011.33	79.4823
1015.78	67.2343
1020.22	42.0607
1024.66	10.9438
1029.1	19.8792
1033.53	3.146
1037.97	6.17316
1042.4	27.2028
1046.82	50.317
1051.25	5.64423
1055.67	5.04059
1060.09	8.52368
1064.51	36.1015
1068.92	63.6995
1073.33	96.3238
1077.74	128.972
1082.15	156.64
1086.55	206.326
1090.95	226.025
1095.35	246.736
1099.75	262.454
1104.14	260.175
1108.53	298.897
1112.92	272.984
1117.31	226.427
1121.69	249.454
1126.07	207.37
1130.45	139.127
1134.82	67.871
1139.19	73.8889
1143.57	71.104
1147.93	93.5555
1152.3	61.2793
1156.66	105.043
1161.02	110.502
1165.38	153.454
1169.73	153.77
1174.08	181.922
1178.43	200.749
1182.78	188.659
1187.12	199.235
1191.46	188.612
1195.8	177.468
1200.14	171.54
1204.47	177.574
1208.8	169.569
1213.13	142.541
1217.46	114.454
1221.78	81.3237
1226.1	77.1503
1230.42	44.9324
1234.73	36.6694
1239.04	3.36078
1243.35	9.99725
1247.66	3.5448
1251.97	7.00336
1256.27	3.33588
1260.57	6.59363
1264.86	21.2873
1269.16	4.396
1273.45	5.66333
1277.74	12.9605
1282.03	7.51367
1286.31	27.0132
1290.59	13.6158
1294.87	14.8884
1299.14	9.30719
1303.42	25.7389
1307.69	22.217
1311.95	18.7769
1316.22	13.3521
1320.48	26.924
1324.74	36.4599
1329	30.9591
1333.26	33.4183
1337.51	21.8373
1341.76	111.216
1346	51.5539
1350.25	78.8521
1354.49	89.113
1358.73	98.3395
1362.96	117.539
1367.2	115.56
1371.43	114.454
1375.66	91.7631
1379.88	93.9535
1384.11	102.445
1388.33	88.4952
1392.54	96.9792
1396.76	103.753
1400.97	87.1661
1405.18	107.981
1409.39	98.8616
1413.59	75.7901
1417.8	60.8993
1421.99	82.8869
1426.19	61.2013
1430.38	64.4035
1434.58	76.995
1438.77	58.3646
1442.95	46.8054
1447.13	69.7152
1451.32	30.5979
1455.49	52.4556
1459.67	29.2415
1463.84	42.9958
1468.01	23.6996
1472.18	32.3594
1476.35	38.0779
1480.51	29.8829
1484.67	44.9851
1488.83	43.3843
1492.98	42.8834
1497.13	44.4205
1501.28	52.9853
1505.43	33.556
1509.57	32.1236
1513.71	47.7664
1517.85	31.5197
1521.99	31.4283
1526.12	29.5372
1530.25	42.8421
1534.38	30.3014
1538.5	14.9435
1542.62	12.8383
1546.74	15.0623
1550.86	16.6736
1554.98	48.7626
1559.09	42.5075
1563.2	21.0017
1567.31	2.89899
