Measurement: Raman, 514 nm, ccw, Raman Data Processed
Mineral: Andradite
Rruff sample: R060350
Ideal chemistry: Ca_3_Fe^3+^_2_(SiO_4_)_3_
Locality: south of the Gem mine, southern San Benito County, California, USA
Source: Michael Scott
Description: Cluster of black vitreous crystals showing well-developed faces
Measured chemistry: (Ca_2.93_Mg_0.07_)_Σ=3_(Fe^3+^_1.18_Ti_0.77_Al_0.05_)_Σ=2_((Si_0.74_Fe^3+^_0.26_)_Σ=1_O_4_)_3_ ; trace amounts of Mn
Pin_id: M00067
Orientation: Laser parallel to a* (1 0 0). Fiducial mark perpendicular to laser is parallel to c [0 0 1]
Raman shift (cm-1)	intensity
114.44	0
119.365	183.873
124.288	6.37793
129.209	648.378
134.127	1162.26
139.043	2811.15
143.956	2184.51
148.867	982.645
153.775	1042.06
158.681	1113.25
163.585	2789.18
168.486	5239.65
173.385	4231
178.282	3355.77
183.176	2866.39
188.067	3518.14
192.956	4166.63
197.843	3885.06
202.727	4379.14
207.609	428.296
212.489	295.785
217.366	93.29
222.24	780.992
227.112	214.269
231.982	224.251
236.849	77.2695
241.714	476.232
246.577	512.085
251.437	1327.85
256.294	1740.2
261.149	3479.74
266.002	1989.67
270.852	1473.59
275.7	1430.01
280.545	1491.97
285.388	1818.53
290.229	2412.18
295.067	2972.21
299.902	3648.43
304.735	4900.75
309.566	6723.48
314.394	9600.31
319.22	12943.5
324.043	18109.5
328.864	26054.2
333.682	34222.3
338.498	39505.3
343.311	41292.7
348.122	43127.2
352.931	45181.1
357.737	45204.4
362.54	41222.9
367.341	35177.3
372.14	28733.9
376.936	22530.2
381.73	17661.3
386.521	13267.8
391.31	9573.66
396.096	6485.09
400.88	4234.16
405.661	3035.46
410.44	2521.97
415.216	2070.42
419.99	1937.7
424.761	1669.55
429.53	1634.84
434.297	1824.44
439.061	1503.22
443.822	616.084
448.581	105.095
453.337	102.542
458.091	147.579
462.843	820.802
467.592	1882.77
472.338	3397.41
477.082	5068.21
481.824	7465.75
486.563	9374.64
491.3	8816.03
496.034	8444.15
500.765	11621.1
505.494	16682.6
510.221	17877.3
514.945	15919.3
519.666	13389.2
524.385	11725.8
529.102	10799.2
533.816	10203.6
538.527	9537.81
543.236	8725.34
547.943	7373.82
552.647	5662.85
557.348	3664.43
562.047	2170.07
566.744	1545.14
571.438	2038.58
576.129	3224.31
580.818	3717.28
585.504	3248.43
590.188	2852.45
594.87	2246.43
599.549	1770.41
604.225	1254.85
608.899	572.258
613.57	174.577
618.239	235.948
622.905	154.73
627.569	211.191
632.23	4.99512
636.889	410.685
641.545	625.256
646.198	636.402
650.849	421.452
655.498	180.105
660.144	71.3174
664.787	97.707
669.428	377.33
674.067	469.726
678.703	558.071
683.336	494.344
687.967	355.826
692.595	75.9824
697.221	428.968
701.844	724.416
706.465	1140.47
711.083	1314.2
715.698	1442.7
720.311	1831.03
724.922	2283.3
729.53	3071.58
734.135	4281.04
738.738	5240.89
743.338	7061.07
747.936	8850.63
752.531	10334.2
757.124	10666
761.714	10410.1
766.302	10995.4
770.887	12439.6
775.469	14363.4
780.049	16932.4
784.626	19841.5
789.201	23737.4
793.773	27895.4
798.343	33081.9
802.91	38113.3
807.475	43286.9
812.037	47455.3
816.596	49953
821.153	50884
825.707	49532.6
830.259	47036.4
834.808	44958.1
839.355	43221.7
843.899	41764.4
848.441	40992.8
852.98	41808.7
857.516	42472.4
862.05	43383.4
866.581	44323.9
871.11	45272.9
875.636	44811.4
880.159	42658.5
884.68	38926.2
889.199	32676.5
893.714	25925.7
898.228	19874.4
902.738	15693.1
907.246	12463.2
911.752	10311.2
916.255	8790.49
920.755	7937.31
925.253	7394.7
929.748	6919.72
934.241	6380.1
938.731	5484.57
943.218	4881.87
947.703	4474.35
952.186	4174.44
956.665	4107.08
961.142	4205.92
965.617	4425.92
970.089	4596.7
974.558	4697.93
979.025	4408.62
983.489	4194.69
987.951	3866.99
992.41	3295.45
996.866	2253.1
1001.32	1775.08
1005.77	3182.55
1010.22	5000.03
1014.67	4420.85
1019.11	2056.71
1023.55	583.859
1027.99	130.539
1032.42	399.902
1036.86	463.66
1041.29	458.769
1045.72	480.321
1050.14	416.897
1054.56	147.883
1058.98	190.85
1063.4	74.2715
1067.82	53.8447
1072.23	83.9316
1076.64	251.089
1081.05	286.556
1085.45	743.799
1089.85	372.393
1094.25	484.571
1098.65	580.609
1103.04	652.207
1107.43	609.419
1111.82	655.165
1116.21	646.133
1120.59	829.905
1124.97	812.584
1129.35	658.088
1133.73	537.992
1138.1	628.738
1142.47	700.336
1146.84	695.963
1151.21	723.105
1155.57	723.676
1159.93	795.821
1164.29	817.307
1168.64	660.477
1172.99	768.85
1177.34	639.844
1181.69	443.918
1186.04	581.107
1190.38	459.913
1194.72	453.758
1199.05	434.898
1203.39	379.558
1207.72	239.613
1212.05	216.698
1216.37	235.506
1220.7	128.374
1225.02	231.26
1229.34	65.1748
1233.65	88.4434
1237.97	11.8193
1242.28	84.2285
1246.59	9.26367
1250.89	5.43164
1255.19	129.304
1259.49	50.0879
1263.79	31.7676
1268.09	25.585
1272.38	91.5312
1276.67	20.2109
1280.95	75.1924
1285.24	91.9394
1289.52	141.688
1293.8	78.8457
1298.08	202.775
1302.35	179.226
1306.62	192.465
1310.89	71.3555
1315.15	168.172
1319.42	106.915
1323.68	186.073
1327.94	194.894
1332.19	220.606
1336.44	189.681
1340.69	167.318
1344.94	123.763
1349.19	269.559
1353.43	195.684
1357.67	257.921
1361.9	253.702
1366.14	201.102
1370.37	190.705
1374.6	330.405
1378.83	199.627
1383.05	188.449
1387.27	230.879
1391.49	216.98
1395.7	258.275
1399.92	249.267
1404.13	141.576
1408.34	193.416
1412.54	75.6914
1416.74	233.316
1420.94	71.1562
1425.14	47.3603
1429.34	52.4062
1433.53	14.3848
1437.72	3.33789
1441.9	91.8281
1446.09	199.135
1450.27	113.953
1454.45	66.2334
1458.63	348.805
1462.8	177.825
1466.97	347.718
1471.14	176.444
1475.31	335.176
1479.47	450.278
1483.63	462.315
1487.79	551.235
1491.94	507.756
1496.09	598.64
1500.24	552.359
1504.39	726.188
1508.54	706.869
1512.68	616.371
1516.82	532.106
1520.95	604.934
1525.09	573.867
1529.22	469.711
1533.35	295.948
1537.47	378.269
1541.6	214.068
1545.72	113.625
1549.83	266.435
1553.95	624.491
1558.06	226.465
1562.17	65.7471
1566.28	34.1826
1570.38	0
