Measurement: Raman, 514 nm, ccw, Raman Data Processed
Mineral: Andradite
Rruff sample: R050256
Ideal chemistry: Ca_3_Fe^3+^_2_(SiO_4_)_3_
Locality: Franklin, Sussex County, New Jersey, USA
Source: Marcus Origlieri
Description: Reddish brown fragments
Measured chemistry: (Ca_2.27_Mn_0.73_)_Σ=3_(Fe^3+^_1.35_Al_0.65_)_Σ=2_(Si_1.00_O_4_)_3_
Pin_id: M00458
Orientation: Laser parallel to -c* (0 0 -1). Fiducial mark perpendicular to laser is parallel to a [1 0 0]
Raman shift (cm-1)	intensity
123.058	0
127.979	24.8774
132.898	173.989
137.814	184.204
142.728	22.5361
147.639	38.0322
152.549	66.5261
157.455	190.232
162.359	442.68
167.261	1019.3
172.161	1126.31
177.058	998.816
181.952	778.372
186.845	806.676
191.734	706.547
196.622	604.894
201.507	750.205
206.389	339.604
211.269	669.586
216.147	1179.04
221.022	1807.37
225.895	2721.74
230.765	3603.26
235.633	3675.95
240.498	2913.85
245.361	1617.96
250.222	897.358
255.08	673.133
259.936	1943.34
264.789	571.966
269.64	521.752
274.488	356.428
279.334	411.832
284.178	311.246
289.019	485.756
293.857	899.153
298.693	1485.87
303.527	2544.41
308.358	3409.95
313.187	4246.33
318.013	4312.42
322.837	4269.14
327.659	4776.38
332.478	6084.08
337.294	7608.14
342.108	10273.5
346.92	14275
351.729	20791.8
356.535	31332.8
361.34	46811
366.141	55777.8
370.94	54517.3
375.737	37103.7
380.531	19536.1
385.323	9992.14
390.113	5134.62
394.9	2755.27
399.684	1346.91
404.466	524.387
409.245	14.2739
414.022	147.991
418.797	206.532
423.569	43.8042
428.338	194.447
433.105	422.091
437.87	606.95
442.632	818.835
447.391	877.526
452.149	1059.91
456.903	923.875
461.655	708.374
466.405	363.322
471.152	528.653
475.897	1452.3
480.639	2656.21
485.378	3886.31
490.116	4693.55
494.85	5042.87
499.582	4940.05
504.312	4870.66
509.039	5941.59
513.764	9262.42
518.486	16529.9
523.206	24235.3
527.923	25590.7
532.638	18239.8
537.35	8516.64
542.059	4514.64
546.766	3151.84
551.471	2699.89
556.173	2427.12
560.873	2096.68
565.57	1612.27
570.264	1312.72
574.957	1339.86
579.646	1625.35
584.333	1621.94
589.018	1589.62
593.7	1939.4
598.379	2122.29
603.056	2439.11
607.73	2461.98
612.402	2290.89
617.072	1749.86
621.739	1116.99
626.403	675.231
631.065	282.542
635.724	104.888
640.381	13.1619
645.035	46.9343
649.687	166.056
654.336	155.773
658.983	133.375
663.627	71.946
668.268	54.0413
672.907	4.72607
677.544	39.7249
682.178	67.1934
686.809	35.227
691.438	36.5383
696.065	35.156
700.688	55.1338
705.31	97.436
709.929	8.22363
714.545	22.9382
719.158	154.387
723.77	157.315
728.378	195.832
732.984	195.071
737.588	244.072
742.189	243.495
746.787	239.956
751.383	308.992
755.976	342.381
760.567	435.688
765.155	477.935
769.741	529.152
774.324	755.379
778.904	837.193
783.482	1049.14
788.058	1329.09
792.631	2014.53
797.201	3094.35
801.769	4795.82
806.334	7212.89
810.897	10049.9
815.457	13313.2
820.014	15716.4
824.569	16276
829.122	14337.6
833.671	11594.1
838.219	10012.9
842.763	10146.8
847.306	11225.3
851.845	11887.2
856.382	11069.9
860.917	10167.8
865.448	10772.5
869.978	13164.5
874.505	18223
879.029	26253.8
883.55	30735.1
888.069	25383.9
892.586	15225
897.1	8785.44
901.611	5691.24
906.12	3743.81
910.626	2913.4
915.129	2326.94
919.63	1954.99
924.129	1912.48
928.625	1892.07
933.118	2123.28
937.609	2525.76
942.097	2595.23
946.582	2112.49
951.065	1563.55
955.546	1267.82
960.023	1496.09
964.499	1919.46
968.971	2386.84
973.441	2904.36
977.909	3539.04
982.374	3755.83
986.836	3983.51
991.295	4273.93
995.753	4634.05
1000.21	4950.84
1004.66	4364.34
1009.11	2685.78
1013.55	1468.89
1018	901.589
1022.44	550.676
1026.88	229.886
1031.32	115.323
1035.75	81.4394
1040.18	12.8342
1044.61	35.1628
1049.04	69.5461
1053.46	112.835
1057.88	89.2312
1062.3	62.7165
1066.71	70.3919
1071.13	95.2434
1075.54	55.4116
1079.94	29.7524
1084.35	25.9473
1088.75	101.789
1093.15	162.819
1097.55	239.011
1101.94	251.342
1106.34	290.783
1110.73	362.308
1115.11	455.889
1119.5	1326.88
1123.88	1462.65
1128.26	469.477
1132.63	241.731
1137.01	206.194
1141.38	202.127
1145.75	82.8308
1150.12	77.2939
1154.48	102.234
1158.84	45.2087
1163.2	177.093
1167.55	86.0132
1171.91	113.667
1176.26	200.257
1180.61	191.972
1184.95	276.775
1189.29	364.988
1193.63	375.545
1197.97	353.91
1202.31	300.5
1206.64	295.556
1210.97	354.727
1215.29	390.823
1219.62	334.058
1223.94	290.895
1228.26	351.137
1232.57	246.063
1236.89	228.666
1241.2	198.409
1245.51	165.875
1249.81	99.467
1254.12	80.7029
1258.42	61.491
1262.72	23.1816
1267.01	39.707
1271.3	21.7082
1275.59	47.5469
1279.88	19.8652
1284.17	17.1677
1288.45	20.4666
1292.73	1.26416
1297.01	52.0276
1301.28	28.5281
1305.55	96.6392
1309.82	81.415
1314.09	41.9597
1318.35	62.3384
1322.61	112.603
1326.87	155.774
1331.13	71.811
1335.38	78.7993
1339.63	204.614
1343.88	133.184
1348.12	75.4353
1352.37	134.352
1356.61	195.939
1360.85	241.212
1365.08	183.193
1369.31	172.893
1373.54	262.329
1377.77	240.351
1381.99	181.054
1386.22	268.37
1390.43	249.85
1394.65	180.296
1398.87	174.416
1403.08	254.553
1407.29	228.461
1411.49	172.297
1415.69	212.598
1419.89	236.255
1424.09	196.44
1428.29	191.308
1432.48	172.831
1436.67	151.749
1440.86	165.704
1445.04	177.186
1449.23	173.697
1453.4	181.19
1457.58	141.342
1461.76	124.343
1465.93	54.7703
1470.1	189.562
1474.26	80.4414
1478.43	65.6565
1482.59	153.646
1486.75	55.1836
1490.9	86.8235
1495.06	51.967
1499.21	28.6724
1503.35	14.5857
1507.5	23.5212
1511.64	60.499
1515.78	28.7331
1519.92	92.2044
1524.05	133.06
1528.18	134.547
1532.31	89.085
1536.44	58.3188
1540.56	100.775
1544.69	92.2459
1548.8	116.365
1552.92	269.825
1557.03	82.249
1561.14	92.7751
1565.25	82.7793
1569.36	73.4021
