Measurement: Raman, 514 nm, ccw, Raman Data Processed
Mineral: Andradite
Rruff sample: R050311
Ideal chemistry: Ca_3_Fe^3+^_2_(SiO_4_)_3_
Locality: Calaveras County, California, USA
Source: Eugene Schlepp
Description: Deep red crystals
Measured chemistry: (Ca_2.88_Mn_0.07_Fe^2+^_0.05_)_Σ=3_(Fe^3+^_1.39_Al_0.59_Ti_0.02_)_Σ=2_((Si_0.99_Al_0.01_)_Σ=1_O_4_)_3_
Pin_id: M00304
Orientation: Laser parallel to c* (0 0 1). Fiducial mark perpendicular to laser is parallel to a [1 0 0]
Raman shift (cm-1)	intensity
123.058	0
127.979	106.831
132.898	140.225
137.814	226.641
142.728	28.5405
147.639	29.9253
152.549	393.751
157.455	10.0396
162.359	235.499
167.261	1001.64
172.161	1345.69
177.058	1578.89
181.952	1091.01
186.845	487.9
191.734	576.474
196.622	556.698
201.507	570.266
206.389	8.98633
211.269	12.4771
216.147	151.163
221.022	466.194
225.895	1116.7
230.765	2162.73
235.633	2631.33
240.498	2534.43
245.361	1126
250.222	256.191
255.08	180.037
259.936	773.734
264.789	634.752
269.64	832.91
274.488	617.393
279.334	587.796
284.178	402.189
289.019	301.389
293.857	622.87
298.693	627.939
303.527	1042.79
308.358	1794.56
313.187	2520.63
318.013	3099.89
322.837	2889.5
327.659	2544.4
332.478	2936.56
337.294	3400.94
342.108	5011.51
346.92	8717.22
351.729	13665
356.535	19961.2
361.34	30570.3
366.141	40331.6
370.94	45706
375.737	33868.8
380.531	16158.8
385.323	7605.08
390.113	4308.43
394.9	2344
399.684	1179.95
404.466	396.19
409.245	171.674
414.022	136.045
418.797	59.2427
423.569	51.7515
428.338	16.1699
433.105	231.328
437.87	402.752
442.632	488.372
447.391	600.938
452.149	577.388
456.903	514.648
461.655	307.683
466.405	103.464
471.152	261.957
475.897	809.127
480.639	1413.94
485.378	2182.38
490.116	2590.39
494.85	2782.03
499.582	2643.17
504.312	2222.16
509.039	2824.62
513.764	5194.91
518.486	10354.6
523.206	14890.9
527.923	14473.9
532.638	7461.08
537.35	3103.11
542.059	1767.21
546.766	1579.19
551.471	1543.07
556.173	1524.24
560.873	1313.91
565.57	983.106
570.264	763.106
574.957	850.767
579.646	953.595
584.333	1006.39
589.018	1100.12
593.7	1293.81
598.379	1500.72
603.056	1519.19
607.73	1544.19
612.402	1301.71
617.072	981.72
621.739	646.192
626.403	192.108
631.065	313.446
635.724	80.1787
640.381	165.294
645.035	89.7271
649.687	5.59814
654.336	65.8989
658.983	9.37744
663.627	1.03223
668.268	25.2856
672.907	9.28711
677.544	74.272
682.178	35.8076
686.809	43.1953
691.438	64.3315
696.065	144.753
700.688	82.8916
705.31	8.73584
709.929	13.8833
714.545	158.236
719.158	148.356
723.77	56.439
728.378	133.838
732.984	271.179
737.588	267.997
742.189	363.146
746.787	441.636
751.383	506.126
755.976	604.706
760.567	681.312
765.155	811.335
769.741	703.8
774.324	763.685
778.904	746.243
783.482	878.063
788.058	1221.09
792.631	1744.9
797.201	2642.67
801.769	4258.05
806.334	6179.58
810.897	8456.64
815.457	11000.6
820.014	12034.8
824.569	10272.8
829.122	8175.62
833.671	6777.78
838.219	7048.06
842.763	7943.02
847.306	8335.05
851.845	7410.72
856.382	6923.42
860.917	7613.89
865.448	9585.28
869.978	13634.7
874.505	19000.4
879.029	20607.2
883.55	15689.3
888.069	9041.64
892.586	5219.21
897.1	3182.08
901.611	2107.98
906.12	1666.01
910.626	1406.25
915.129	1173.48
919.63	871.828
924.129	1161.12
928.625	1377.18
933.118	1713.45
937.609	1852.35
942.097	1482.3
946.582	1081.54
951.065	905.56
955.546	885.268
960.023	1194.66
964.499	1424.88
968.971	1632.03
973.441	2180.87
977.909	2247.98
982.374	2466.6
986.836	2525.85
991.295	2787.43
995.753	2902.26
1000.21	2824.25
1004.66	1939.63
1009.11	884.933
1013.55	528.767
1018	537.468
1022.44	505.427
1026.88	195.202
1031.32	32.0518
1035.75	9.23047
1040.18	22.9922
1044.61	82.8652
1049.04	67.6436
1053.46	42.5166
1057.88	46.4951
1062.3	4.57715
1066.71	4.22754
1071.13	8.1377
1075.54	87.3428
1079.94	102.89
1084.35	132.559
1088.75	139.336
1093.15	178.201
1097.55	298.137
1101.94	271.128
1106.34	159.156
1110.73	261.506
1115.11	511.183
1119.5	687.345
1123.88	726.058
1128.26	494.825
1132.63	195.31
1137.01	178.376
1141.38	39.1113
1145.75	14.8301
1150.12	266.013
1154.48	3.10059
1158.84	13.4033
1163.2	109.394
1167.55	24.6494
1171.91	58.0469
1176.26	149.21
1180.61	233.853
1184.95	192.676
1189.29	297.021
1193.63	265.972
1197.97	222.461
1202.31	254.96
1206.64	259.942
1210.97	341.964
1215.29	280.717
1219.62	223.228
1223.94	235.502
1228.26	220.546
1232.57	290.955
1236.89	238.462
1241.2	161.709
1245.51	201.498
1249.81	6.01562
1254.12	52.0234
1258.42	128.435
1262.72	78.4336
1267.01	34.0117
1271.3	194.552
1275.59	16.4219
1279.88	2.17578
1284.17	139.131
1288.45	72.7275
1292.73	28.5029
1297.01	117.272
1301.28	55.7891
1305.55	186.718
1309.82	117.511
1314.09	91.6992
1318.35	209.138
1322.61	113.794
1326.87	34.8594
1331.13	77.7373
1335.38	185.015
1339.63	212.593
1343.88	172.222
1348.12	289.184
1352.37	164.934
1356.61	56.4473
1360.85	102.636
1365.08	95.5732
1369.31	271.963
1373.54	263.786
1377.77	200.811
1381.99	106.824
1386.22	221.976
1390.43	165.765
1394.65	127.166
1398.87	334.712
1403.08	280.399
1407.29	227.893
1411.49	119.142
1415.69	131.669
1419.89	160.935
1424.09	130.53
1428.29	133.662
1432.48	60.3193
1436.67	177.05
1440.86	107.28
1445.04	51.8838
1449.23	72.9746
1453.4	151.161
1457.58	176.715
1461.76	168.077
1465.93	36.7373
1470.1	102.776
1474.26	132.309
1478.43	31.2021
1482.59	62.5215
1486.75	259.211
1490.9	127.289
1495.06	123.157
1499.21	157.013
1503.35	48.6728
1507.5	58.6943
1511.64	184.287
1515.78	105.952
1519.92	186.749
1524.05	57.0381
1528.18	114.697
1532.31	22.3262
1536.44	126.769
1540.56	254.191
1544.69	26.4023
1548.8	192.502
1552.92	245.587
1557.03	240.483
1561.14	120.138
1565.25	84.8467
1569.36	76.6338
