Measurement: Raman, 514 nm, ccw, Raman Data Processed
Mineral: Andradite
Rruff sample: R050311
Ideal chemistry: Ca_3_Fe^3+^_2_(SiO_4_)_3_
Locality: Calaveras County, California, USA
Source: Eugene Schlepp
Description: Deep red crystals
Measured chemistry: (Ca_2.88_Mn_0.07_Fe^2+^_0.05_)_Σ=3_(Fe^3+^_1.39_Al_0.59_Ti_0.02_)_Σ=2_((Si_0.99_Al_0.01_)_Σ=1_O_4_)_3_
Pin_id: M00304
Orientation: Laser parallel to c* (0 0 1). Fiducial mark perpendicular to laser is parallel to a [1 0 0]
Raman shift (cm-1)	intensity
123.058	0
127.979	1.08252
132.898	201.073
137.814	310.603
142.728	147.631
147.639	106.026
152.549	353.424
157.455	11.4473
162.359	161.775
167.261	973.581
172.161	1439.5
177.058	1560.59
181.952	1021.64
186.845	462.495
191.734	382.066
196.622	428.297
201.507	525.733
206.389	59.73
211.269	30.541
216.147	216.287
221.022	636.312
225.895	1470.81
230.765	2871.84
235.633	3285.44
240.498	3071.59
245.361	1200.3
250.222	274.628
255.08	235.602
259.936	762.673
264.789	700.551
269.64	926.592
274.488	570.405
279.334	463.908
284.178	177.264
289.019	117.489
293.857	322.243
298.693	586.94
303.527	1118.23
308.358	2032
313.187	3001.9
318.013	3511.13
322.837	2911.68
327.659	2550.52
332.478	2716.61
337.294	2890.89
342.108	3990.35
346.92	6604.93
351.729	10799.6
356.535	16761.5
361.34	27846.4
366.141	40082.5
370.94	45586.9
375.737	32568.6
380.531	15214.5
385.323	7215.75
390.113	3848.11
394.9	2112.65
399.684	1029.26
404.466	383.053
409.245	89.1274
414.022	116.35
418.797	32.6357
423.569	131.611
428.338	99.5254
433.105	233.862
437.87	527.377
442.632	527.012
447.391	647.552
452.149	726.992
456.903	671.231
461.655	402.233
466.405	99.9624
471.152	232.388
475.897	833.48
480.639	1476.2
485.378	2186.53
490.116	2686.43
494.85	2789.97
499.582	2586.83
504.312	2154.46
509.039	2730.72
513.764	5209.49
518.486	10797.7
523.206	15430.2
527.923	14061.9
532.638	6893.81
537.35	2922
542.059	1906.71
546.766	1661.95
551.471	1750.84
556.173	1749.75
560.873	1431.91
565.57	861.952
570.264	602.028
574.957	710.53
579.646	814.976
584.333	866.824
589.018	996.811
593.7	1113.03
598.379	1240.9
603.056	1350.36
607.73	1409.4
612.402	1172.99
617.072	900.117
621.739	492.755
626.403	287.885
631.065	213.421
635.724	192.54
640.381	2.97266
645.035	9.16602
649.687	5.28418
654.336	28.5527
658.983	21.5347
663.627	19.1914
668.268	12.2729
672.907	67.2617
677.544	31.063
682.178	7.56738
686.809	4.54639
691.438	81.1489
696.065	49.5625
700.688	74.4751
705.31	24.9365
709.929	48.2837
714.545	21.5464
719.158	71.4336
723.77	163.611
728.378	172.09
732.984	153.917
737.588	287.127
742.189	402.732
746.787	410.745
751.383	528.177
755.976	504.042
760.567	798.354
765.155	634.16
769.741	643.485
774.324	702.319
778.904	658.973
783.482	903.237
788.058	1090.45
792.631	1735.38
797.201	2661.22
801.769	4167.78
806.334	6331.97
810.897	9168.21
815.457	12210.8
820.014	13406.1
824.569	11315
829.122	8495.2
833.671	7354.15
838.219	7481.02
842.763	8545.53
847.306	9027.43
851.845	7771.14
856.382	6758.34
860.917	6689.17
865.448	7665.93
869.978	10166.2
874.505	13671.8
879.029	14607.5
883.55	10918.4
888.069	6334.51
892.586	3842.92
897.1	2414.6
901.611	1618.17
906.12	1318.9
910.626	1047.65
915.129	960.139
919.63	1015.55
924.129	958.97
928.625	1269.76
933.118	1601.85
937.609	1757.22
942.097	1527.9
946.582	1146.22
951.065	863.656
955.546	878.372
960.023	1181.59
964.499	1425.76
968.971	1731.78
973.441	2081.65
977.909	2242.33
982.374	2424.71
986.836	2359.69
991.295	2767.3
995.753	3288.36
1000.21	3142.91
1004.66	1918.83
1009.11	1014.63
1013.55	556.298
1018	588.788
1022.44	507.819
1026.88	263.404
1031.32	62.6123
1035.75	45.6968
1040.18	46.7192
1044.61	29.6079
1049.04	78.188
1053.46	12.728
1057.88	11.3105
1062.3	137.903
1066.71	3.36816
1071.13	19.4229
1075.54	72.1894
1079.94	2.06201
1084.35	43.0981
1088.75	11.6431
1093.15	104.667
1097.55	224.05
1101.94	203.543
1106.34	315.179
1110.73	172.657
1115.11	292.509
1119.5	656.174
1123.88	657.972
1128.26	448.375
1132.63	190.731
1137.01	123.525
1141.38	105.499
1145.75	118.214
1150.12	135.72
1154.48	103.061
1158.84	83.5303
1163.2	55.6304
1167.55	105.556
1171.91	143.367
1176.26	57.4526
1180.61	76.9238
1184.95	186.29
1189.29	229.922
1193.63	152.17
1197.97	216.511
1202.31	301.279
1206.64	142.974
1210.97	181.883
1215.29	242.967
1219.62	136.494
1223.94	263.022
1228.26	93.4907
1232.57	98.3901
1236.89	126.057
1241.2	40.4888
1245.51	4.01465
1249.81	117.701
1254.12	0.869629
1258.42	23.0796
1262.72	55.5845
1267.01	3.24219
1271.3	86.0654
1275.59	43.1352
1279.88	69.8496
1284.17	134.901
1288.45	69.4214
1292.73	20.4678
1297.01	76.7319
1301.28	72.3667
1305.55	58.5347
1309.82	126.544
1314.09	4.82178
1318.35	32.0762
1322.61	67.0435
1326.87	88.5679
1331.13	79.3852
1335.38	45.9287
1339.63	74.3369
1343.88	117.716
1348.12	56.7344
1352.37	237.555
1356.61	156.178
1360.85	163.544
1365.08	161.586
1369.31	151.459
1373.54	212.521
1377.77	178.743
1381.99	97.3496
1386.22	121.643
1390.43	164.2
1394.65	182.079
1398.87	24.3101
1403.08	109.413
1407.29	125.56
1411.49	138.555
1415.69	66.9233
1419.89	193.132
1424.09	126.181
1428.29	54.4644
1432.48	256.427
1436.67	203.879
1440.86	210.555
1445.04	93.2651
1449.23	15.3852
1453.4	116.307
1457.58	181.694
1461.76	33.2188
1465.93	61.335
1470.1	127.582
1474.26	61.2422
1478.43	58.4268
1482.59	191.924
1486.75	68.1475
1490.9	91.7344
1495.06	114.625
1499.21	68.6133
1503.35	108.487
1507.5	67.3633
1511.64	60.2432
1515.78	138.014
1519.92	91.4385
1524.05	41.4492
1528.18	86.8389
1532.31	97.6152
1536.44	133.012
1540.56	112.048
1544.69	94.0566
1548.8	62.3496
1552.92	319.767
1557.03	106.058
1561.14	98.1816
1565.25	47.5185
1569.36	22.1729
