Measurement: Raman, 514 nm, ccw, Raman Data Processed
Mineral: Andradite
Rruff sample: R060449
Ideal chemistry: Ca_3_Fe^3+^_2_(SiO_4_)_3_
Locality: Namibia
Source: Gemological Institute of America
Description: Blue fragment, variety demantoid
Measured chemistry: Ca_3.00_(Fe^3+^_1.93_Al_0.07_)_Î£=2_(Si_1.00_O_4_)_3__
Pin_id: L01084
Orientation: Laser parallel to a* (1 0 0). Fiducial mark perpendicular to laser is parallel to c [0 0 1]
Raman shift (cm-1)	intensity
51.431	0
56.387	4.01831
61.341	4.36853
66.292	2.54785
71.241	37.116
76.187	36.7256
81.131	37.0409
86.072	58.5526
91.012	93.2657
95.948	78.0838
100.883	83.7202
105.815	111.417
110.744	126.106
115.671	89.5185
120.596	76.9974
125.519	71.0071
130.439	87.4438
135.356	77.6643
140.271	92.9808
145.184	75.7878
150.094	79.1961
155.002	102.821
159.908	233.052
164.811	1390.07
169.711	2472.69
174.61	3452.73
179.505	1398.99
184.399	216.466
189.29	47.141
194.178	33.0289
199.064	3.58356
203.948	13.2479
208.829	45.2277
213.708	28.326
218.585	194.434
223.459	741.396
228.33	3433.52
233.199	5397.8
238.066	6401.21
242.93	1259.71
247.792	103.278
252.651	75.9518
257.508	532.737
262.363	879.61
267.215	1135.59
272.064	100.694
276.912	51.2795
281.756	64.8805
286.598	15.4669
291.438	100.985
296.276	348.718
301.111	1128.67
305.943	3505.01
310.773	5435.16
315.601	5400.21
320.426	2385.41
325.248	2554.87
330.068	1522.6
334.886	954.594
339.701	1576.91
344.514	3771.96
349.324	6538.29
354.132	9590.73
358.938	14951.2
363.741	36532.6
368.541	57505.7
373.339	54654.1
378.135	20378.9
382.928	7360.96
387.718	3208.44
392.506	1827.22
397.292	1142.34
402.075	822.832
406.856	558.614
411.634	406.738
416.41	246.523
421.183	127.48
425.954	74.8772
430.722	38.1301
435.488	70.8993
440.251	277.993
445.012	854.414
449.77	1457.14
454.526	1449.2
459.28	348.591
464.03	47.2919
468.779	47.2993
473.525	118.607
478.268	343.015
483.009	1015.73
487.747	2490.23
492.483	4024.03
497.217	3537.63
501.948	2868.25
506.676	7756.24
511.402	17544.3
516.125	24323.6
520.846	13472.7
525.565	4501.14
530.281	2285.35
534.994	1533.41
539.705	1356.88
544.413	1503.69
549.119	1955.94
553.822	2041.43
558.523	1095.45
563.222	505.806
567.917	440.339
572.611	485.166
577.302	536.095
581.99	307.022
586.676	206.215
591.359	253.469
596.04	183.41
600.718	152.185
605.394	81.6849
610.067	39.3967
614.737	5.05371
619.406	26.1397
624.071	11.1181
628.734	8.09711
633.395	2.42413
638.053	14.2769
642.708	6.92816
647.361	0.921387
652.012	14.8002
656.66	13.7559
661.305	12.8498
665.948	17.183
670.588	7.7027
675.226	10.3182
679.861	5.13263
684.494	31.4941
689.124	32.1839
693.752	5.45111
698.377	1.9765
702.999	24.4685
707.619	23.7495
712.237	53.9565
716.852	43.0878
721.464	24.095
726.074	58.9965
730.681	7.79993
735.286	45.4591
739.888	27.0081
744.488	19.4591
749.085	71.8173
753.68	33.9698
758.272	15.3595
762.861	3.29944
767.448	66.3596
772.033	141.942
776.614	203.318
781.194	254.691
785.77	367.099
790.345	572.948
794.916	973.718
799.485	1592.75
804.052	3171.4
808.616	7105.5
813.177	12825.9
817.736	13103.5
822.292	7057.5
826.846	4678.84
831.397	5610.15
835.945	10014.7
840.491	14912.7
845.035	12683.1
849.576	6491.62
854.114	3640.1
858.65	2822.63
863.183	3635.11
867.713	7431.13
872.241	12942.4
876.767	11651.5
881.29	4052.89
885.81	1509.41
890.328	761.998
894.843	407.115
899.356	335.1
903.866	186.532
908.373	205.362
912.878	134.366
917.38	105.54
921.88	99.9211
926.377	71.739
930.872	37.4502
935.364	61.7862
939.853	13.7187
944.34	53.8483
948.824	52.8167
953.306	84.267
957.785	105.126
962.261	153.046
966.735	170.086
971.207	220.232
975.675	267.474
980.141	376.761
984.605	614.096
989.066	1527.5
993.524	3061.03
997.98	2662.65
1002.43	1016.39
1006.88	416.254
1011.33	235.205
1015.78	174.21
1020.22	132.273
1024.66	94.3766
1029.1	80.5433
1033.53	69.7821
1037.97	2.92926
1042.4	20.6794
1046.82	28.5294
1051.25	14.5177
1055.67	13.6517
1060.09	0.113647
1064.51	20.8693
1068.92	80.632
1073.33	120.078
1077.74	184.863
1082.15	238.655
1086.55	257.453
1090.95	300.253
1095.35	320.054
1099.75	354.852
1104.14	367.645
1108.53	355.431
1112.92	274.258
1117.31	293.9
1121.69	222.113
1126.07	165.107
1130.45	135.493
1134.82	84.9673
1139.19	70.0395
1143.57	117.819
1147.93	124.473
1152.3	136.379
1156.66	147.623
1161.02	186.871
1165.38	213.606
1169.73	266.833
1174.08	273.222
1178.43	290.993
1182.78	260.924
1187.12	268.846
1191.46	268.092
1195.8	251.79
1200.14	208.826
1204.47	258.82
1208.8	213.778
1213.13	191.695
1217.46	154.568
1221.78	106.399
1226.1	71.1859
1230.42	51.9285
1234.73	29.6262
1239.04	28.0583
1243.35	4.88593
1247.66	6.57098
1251.97	0.148315
1256.27	4.84839
1260.57	11.7098
1264.86	7.7428
1269.16	18.0768
1273.45	8.44763
1277.74	0.467529
1282.03	41.0613
1286.31	7.3974
1290.59	1.93933
1294.87	30.4661
1299.14	36.8368
1303.42	35.2263
1307.69	26.6449
1311.95	35.1267
1316.22	25.6694
1320.48	4.22675
1324.74	15.7598
1329	36.259
1333.26	37.7227
1337.51	59.1507
1341.76	77.5429
1346	78.8995
1350.25	92.2211
1354.49	117.51
1358.73	134.773
1362.96	144.016
1367.2	146.24
1371.43	138.294
1375.66	149.003
1379.88	95.1345
1384.11	118.764
1388.33	87.8428
1392.54	121.49
1396.76	138.989
1400.97	108.972
1405.18	108.977
1409.39	97.0251
1413.59	77.8907
1417.8	68.7449
1421.99	61.0185
1426.19	65.5212
1430.38	38.9296
1434.58	43.8982
1438.77	66.527
1442.95	34.1093
1447.13	36.3709
1451.32	48.4035
1455.49	35.4009
1459.67	21.3594
1463.84	32.2803
1468.01	51.1643
1472.18	64.0118
1476.35	31.9137
1480.51	55.035
1484.67	38.4706
1488.83	47.0632
1492.98	74.7558
1497.13	70.5703
1501.28	82.4273
1505.43	64.2903
1509.57	68.1563
1513.71	33.1091
1517.85	54.1984
1521.99	59.4718
1526.12	53.9776
1530.25	44.6977
1534.38	31.6173
1538.5	18.7618
1542.62	42.2147
1546.74	30.0682
1550.86	19.3973
1554.98	21.322
1559.09	13.0654
1563.2	28.7741
1567.31	7.64868
