Measurement: Raman, 514 nm, ccw, Raman Data Processed
Mineral: Andradite
Rruff sample: R060326
Ideal chemistry: Ca_3_Fe^3+^_2_(SiO_4_)_3_
Locality: Ultevis, Sweden
Source: Marcus Origlieri
Description: Reddish-brown colored druse of crystals associated with white svabite R050180
Measured chemistry: (Ca_2.98_Mn_0.02_)_Σ=3_(Fe^3+^_1.75_Al_0.21_Ti_0.04_)_Σ=2_(Si_1.00_O_4_)_3_
Pin_id: M00248
Orientation: Laser parallel to (0 -1 -1). Fiducial mark perpendicular to laser is parallel to a [1 0 0]
Raman shift (cm-1)	intensity
99.649	0
104.582	152.428
109.512	361.8
114.44	37.6792
119.365	54.794
124.288	47.5664
129.209	29.9936
134.127	83.7891
139.043	356.933
143.956	233.777
148.867	197.018
153.775	133.94
158.681	149.824
163.585	820.988
168.486	1442.07
173.385	1716.3
178.282	856.973
183.176	268.637
188.067	257.815
192.956	205.378
197.843	139.403
202.727	199.812
207.609	100.461
212.489	38.9277
217.366	64.7822
222.24	424.83
227.112	993.064
231.982	1740.12
236.849	1125.31
241.714	294.848
246.577	49.5566
251.437	106.496
256.294	148.253
261.149	442.694
266.002	539.611
270.852	290.525
275.7	215.883
280.545	173.55
285.388	434.788
290.229	678.243
295.067	916.606
299.902	968.992
304.735	1747.06
309.566	2062.2
314.394	1817.95
319.22	1880.9
324.043	1917.91
328.864	2187.16
333.682	2716.7
338.498	5306.54
343.311	10937.6
348.122	17981
352.931	19971
357.737	21790.2
362.54	35691.9
367.341	44051.4
372.14	30250.1
376.936	13789.2
381.73	6570.57
386.521	3616.28
391.31	1901.16
396.096	1127.47
400.88	707.124
405.661	392.968
410.44	168.227
415.216	98.3291
419.99	50.9551
424.761	89.0273
429.53	46.6123
434.297	117.967
439.061	114.743
443.822	238.717
448.581	442.88
453.337	281.232
458.091	10.2373
462.843	81.6602
467.592	120.793
472.338	538.369
477.082	855.109
481.824	1488
486.563	2309.06
491.3	3233.31
496.034	2603.65
500.765	2434.23
505.494	4526.05
510.221	10951.5
514.945	17110
519.666	13013.8
524.385	5515.55
529.102	2537.27
533.816	1429.21
538.527	1098.44
543.236	1039.83
547.943	1173.58
552.647	1068.01
557.348	854.601
562.047	497.822
566.744	830.239
571.438	1107.72
576.129	1461.68
580.818	1027.6
585.504	841.165
590.188	848.451
594.87	773.526
599.549	737.832
604.225	667.648
608.899	537.834
613.57	500.022
618.239	334.983
622.905	200.714
627.569	223.206
632.23	229.457
636.889	275.468
641.545	175.238
646.198	123.769
650.849	239.047
655.498	159.032
660.144	71.5947
664.787	91.8057
669.428	128.64
674.067	1.89453
678.703	140.214
683.336	64.0439
687.967	11.7754
692.595	97.3379
697.221	17.6426
701.844	36.8047
706.465	22.6104
711.083	81.8848
715.698	263.888
720.311	74.6699
724.922	348.232
729.53	539.593
734.135	402.757
738.738	538.74
743.338	245.642
747.936	385.521
752.531	345.269
757.124	416.865
761.714	509.361
766.302	408.74
770.887	407.221
775.469	454.91
780.049	648.797
784.626	709.921
789.201	824.644
793.773	1312.38
798.343	2162.87
802.91	2957.57
807.475	4433.36
812.037	6200.74
816.596	6108.52
821.153	4629.64
825.707	3852.3
830.259	4194.43
834.808	5262.75
839.355	6012.38
843.899	5960.53
848.441	5365.74
852.98	5496.58
857.516	6873.28
862.05	9936.46
866.581	17546.8
871.11	26667.4
875.636	24831.1
880.159	13395
884.68	6457.77
889.199	3285.22
893.714	1910.08
898.228	1279.94
902.738	875.377
907.246	762.222
911.752	554.75
916.255	583.902
920.755	423.255
925.253	542.828
929.748	547.896
934.241	474.423
938.731	552.306
943.218	441.716
947.703	406.31
952.186	435.402
956.665	396.194
961.142	477.32
965.617	583.965
970.089	725.232
974.558	661.848
979.025	730.928
983.489	938.324
987.951	1168.96
992.41	1572.81
996.866	1307.84
1001.32	635.947
1005.77	364.201
1010.22	286.772
1014.67	59.2812
1019.11	240.789
1023.55	177.227
1027.99	56.207
1032.42	128.945
1036.86	117.047
1041.29	37.1973
1045.72	78.0742
1050.14	181.115
1054.56	141.914
1058.98	5.24805
1063.4	102.111
1067.82	20.8027
1072.23	234.033
1076.64	217.359
1081.05	239.115
1085.45	357.506
1089.85	397.348
1094.25	449.236
1098.65	341.418
1103.04	227.768
1107.43	369.369
1111.82	206.629
1116.21	437.666
1120.59	470.791
1124.97	501.34
1129.35	358.9
1133.73	444.482
1138.1	352.973
1142.47	456.215
1146.84	254.156
1151.21	225.389
1155.57	244.41
1159.93	358.728
1164.29	312.062
1168.64	312.35
1172.99	415.357
1177.34	372.629
1181.69	344.225
1186.04	326.018
1190.38	293.543
1194.72	386.098
1199.05	296.625
1203.39	424.338
1207.72	196.865
1212.05	356.381
1216.37	207.451
1220.7	121.211
1225.02	295.631
1229.34	189.736
1233.65	73.5117
1237.97	64.582
1242.28	26.1289
1246.59	59.0215
1250.89	121.188
1255.19	35.8125
1259.49	220.887
1263.79	131.656
1268.09	56.9863
1272.38	37.2695
1276.67	185.957
1280.95	157.135
1285.24	332.086
1289.52	213.693
1293.8	358.228
1298.08	270.631
1302.35	171.131
1306.62	83.6738
1310.89	267.293
1315.15	236.959
1319.42	286.586
1323.68	331.094
1327.94	260.465
1332.19	117.668
1336.44	320.033
1340.69	269.629
1344.94	332.24
1349.19	356.15
1353.43	178.695
1357.67	336.463
1361.9	360.227
1366.14	295.164
1370.37	253.631
1374.6	383.627
1378.83	257.254
1383.05	406.76
1387.27	283.766
1391.49	317.252
1395.7	196.715
1399.92	224.356
1404.13	406.352
1408.34	320.94
1412.54	81.1387
1416.74	184.891
1420.94	192.471
1425.14	89.3731
1429.34	214.578
1433.53	307.107
1437.72	321.713
1441.9	241.494
1446.09	318.723
1450.27	214.943
1454.45	316.553
1458.63	213.451
1462.8	298.728
1466.97	265.631
1471.14	281.981
1475.31	401.051
1479.47	343.822
1483.63	87.7402
1487.79	266.644
1491.94	360.728
1496.09	352.852
1500.24	219.273
1504.39	17.9414
1508.54	266.777
1512.68	12.0918
1516.82	21.1641
1520.95	380.094
1525.09	204.26
1529.22	169.44
1533.35	285.607
1537.47	191.215
1541.6	301.269
1545.72	213.725
1549.83	226.59
1553.95	356.428
1558.06	116.529
1562.17	98.084
1566.28	256.156
1570.38	0
