Measurement: Raman, 514 nm, ccw, Raman Data Processed
Mineral: Andradite
Rruff sample: R060449
Ideal chemistry: Ca_3_Fe^3+^_2_(SiO_4_)_3_
Locality: Namibia
Source: Gemological Institute of America
Description: Blue fragment, variety demantoid
Measured chemistry: Ca_3.00_(Fe^3+^_1.93_Al_0.07_)_Î£=2_(Si_1.00_O_4_)_3__
Pin_id: L01084
Orientation: Laser parallel to a* (1 0 0). Fiducial mark perpendicular to laser is parallel to c [0 0 1]
Raman shift (cm-1)	intensity
51.431	0
56.387	13.8328
61.341	9.08246
66.292	2.54916
71.241	31.9535
76.187	37.1922
81.131	58.919
86.072	67.3729
91.012	92.0643
95.948	85.1672
100.883	68.7798
105.815	103.255
110.744	133.902
115.671	96.5862
120.596	67.5631
125.519	52.7892
130.439	80.3409
135.356	104.87
140.271	81.0829
145.184	60.5193
150.094	94.1729
155.002	101.032
159.908	222.094
164.811	1146.17
169.711	2841.05
174.61	4488.78
179.505	1178.73
184.399	180.907
189.29	64.2983
194.178	24.923
199.064	2.15088
203.948	4.69428
208.829	78.8112
213.708	26.473
218.585	104.622
223.459	538.9
228.33	2822.33
233.199	5965.9
238.066	6317.61
242.93	1002.39
247.792	70.2398
252.651	20.1903
257.508	372.257
262.363	1091.43
267.215	1027.74
272.064	55.1855
276.912	20.4894
281.756	48.7176
286.598	32.1171
291.438	311.346
296.276	619.629
301.111	1167.75
305.943	2961.9
310.773	6691.84
315.601	4508.72
320.426	2262.83
325.248	2905.19
330.068	1337.82
334.886	1084.71
339.701	2159.89
344.514	6018.99
349.324	13574.8
354.132	15383.5
358.938	14365.4
363.741	31651.3
368.541	55848.2
373.339	44101.5
378.135	16068.1
382.928	6581.02
387.718	2909.32
392.506	1570.96
397.292	1003.91
402.075	631.16
406.856	442.742
411.634	295.707
416.41	162.012
421.183	49.3716
425.954	0.715332
430.722	16.5758
435.488	55.9375
440.251	195.748
445.012	776.856
449.77	1710.28
454.526	1395.99
459.28	312.001
464.03	32.2958
468.779	18.8636
473.525	151.7
478.268	307.062
483.009	1087.81
487.747	2902.05
492.483	5141
497.217	3646.86
501.948	2726.93
506.676	6560.17
511.402	16028.1
516.125	21776.7
520.846	10521.7
525.565	3756.67
530.281	1865.28
534.994	1347.9
539.705	1173.48
544.413	1344.95
549.119	1965.62
553.822	2147.19
558.523	1051.77
563.222	604.661
567.917	572.918
572.611	899.303
577.302	967.943
581.99	486.243
586.676	279.697
591.359	248.743
596.04	188.592
600.718	119.111
605.394	96.9737
610.067	28.842
614.737	43.8614
619.406	24.8201
624.071	30.0042
628.734	8.92017
633.395	4.3905
638.053	8.00812
642.708	17.5488
647.361	0.033203
652.012	12.7169
656.66	19.5356
661.305	10.5633
665.948	35.7769
670.588	8.22406
675.226	2.17694
679.861	8.46124
684.494	12.6141
689.124	15.4242
693.752	1.74353
698.377	9.75934
702.999	29.1014
707.619	22.3575
712.237	39.5408
716.852	22.649
721.464	38.6591
726.074	8.56
730.681	24.5563
735.286	1.99042
739.888	38.5598
744.488	45.0342
749.085	34.4332
753.68	31.7558
758.272	10.7421
762.861	38.9092
767.448	63.0194
772.033	92.0288
776.614	153.475
781.194	251.24
785.77	345.974
790.345	603.692
794.916	948.262
799.485	1627.6
804.052	3045.08
808.616	6852.17
813.177	13419.4
817.736	13788.4
822.292	7126.56
826.846	4814.18
831.397	5606.19
835.945	9891.03
840.491	15994.4
845.035	13250.5
849.576	6868.56
854.114	4289.57
858.65	3899.07
863.183	5495.26
867.713	12194.4
872.241	24874
876.767	19399.3
881.29	6129.7
885.81	2291.17
890.328	1192.56
894.843	714.965
899.356	517.447
903.866	396.372
908.373	337.273
912.878	213.851
917.38	197.361
921.88	120.283
926.377	83.0229
930.872	72.6531
935.364	35.199
939.853	33.8755
944.34	26.6996
948.824	77.6234
953.306	49.6332
957.785	119.747
962.261	99.0005
966.735	125.412
971.207	196.932
975.675	272.554
980.141	339.245
984.605	578.023
989.066	1407.89
993.524	3190.89
997.98	2700.03
1002.43	947.314
1006.88	395.714
1011.33	190.208
1015.78	159.762
1020.22	99.384
1024.66	70.8765
1029.1	53.7701
1033.53	22.4679
1037.97	8.28967
1042.4	16.9191
1046.82	25.2303
1051.25	30.7427
1055.67	21.4393
1060.09	3.30475
1064.51	55.7969
1068.92	77.9141
1073.33	127.044
1077.74	150.182
1082.15	179.326
1086.55	234.472
1090.95	277.62
1095.35	297.672
1099.75	347.902
1104.14	340.03
1108.53	318.145
1112.92	284.816
1117.31	237.286
1121.69	189.247
1126.07	146.502
1130.45	113.318
1134.82	98.2206
1139.19	103.199
1143.57	89.3051
1147.93	119.671
1152.3	144.648
1156.66	153.419
1161.02	172.075
1165.38	202.588
1169.73	216.192
1174.08	275.777
1178.43	252.11
1182.78	268.626
1187.12	255.822
1191.46	229.7
1195.8	255.899
1200.14	240.052
1204.47	210.158
1208.8	180.217
1213.13	176.227
1217.46	133.187
1221.78	132.097
1226.1	66.9572
1230.42	42.3702
1234.73	27.5225
1239.04	1.22778
1243.35	3.15253
1247.66	14.3579
1251.97	28.2499
1256.27	19.0584
1260.57	9.03223
1264.86	5.80078
1269.16	15.4992
1273.45	7.11267
1277.74	3.64642
1282.03	16.1029
1286.31	28.5118
1290.59	51.8781
1294.87	13.2086
1299.14	21.5141
1303.42	12.7874
1307.69	13.1212
1311.95	22.5383
1316.22	45.038
1320.48	21.5898
1324.74	20.119
1329	48.6099
1333.26	45.0625
1337.51	52.477
1341.76	81.8538
1346	98.1932
1350.25	100.496
1354.49	109.769
1358.73	113.016
1362.96	126.245
1367.2	142.157
1371.43	127.517
1375.66	101.852
1379.88	94.0425
1384.11	103.59
1388.33	123.599
1392.54	98.6353
1396.76	100.845
1400.97	114.773
1405.18	103.436
1409.39	110.579
1413.59	83.8413
1417.8	93.1793
1421.99	36.5155
1426.19	57.9185
1430.38	52.4457
1434.58	45.0717
1438.77	32.2653
1442.95	38.1255
1447.13	23.5009
1451.32	32.5454
1455.49	29.5493
1459.67	17.5142
1463.84	29.4968
1468.01	27.3323
1472.18	37.2186
1476.35	61.2291
1480.51	55.5414
1484.67	56.1975
1488.83	87.0076
1492.98	63.9299
1497.13	64.9066
1501.28	69.9346
1505.43	72.1758
1509.57	47.0256
1513.71	40.1698
1517.85	53.477
1521.99	34.0015
1526.12	21.7849
1530.25	60.7936
1534.38	54.0132
1538.5	28.4867
1542.62	25.3077
1546.74	29.5795
1550.86	15.385
1554.98	38.8743
1559.09	5.67505
1563.2	2.86536
1567.31	6.67822
