Measurement: Raman, 514 nm, ccw, Raman Data Processed
Mineral: Andradite
Rruff sample: R050256
Ideal chemistry: Ca_3_Fe^3+^_2_(SiO_4_)_3_
Locality: Franklin, Sussex County, New Jersey, USA
Source: Marcus Origlieri
Description: Reddish brown fragments
Measured chemistry: (Ca_2.27_Mn_0.73_)_Σ=3_(Fe^3+^_1.35_Al_0.65_)_Σ=2_(Si_1.00_O_4_)_3_
Pin_id: M00458
Orientation: Laser parallel to -c* (0 0 -1). Fiducial mark perpendicular to laser is parallel to a [1 0 0]
Raman shift (cm-1)	intensity
123.058	0
127.979	42.2527
132.898	30.3611
137.814	120.269
142.728	106.982
147.639	53.9509
152.549	33.8127
157.455	54.1736
162.359	296.108
167.261	636.682
172.161	816.227
177.058	946.937
181.952	757.388
186.845	521.308
191.734	435.53
196.622	361.933
201.507	459.681
206.389	485.769
211.269	824.402
216.147	1362.35
221.022	2165.08
225.895	3226.75
230.765	4254.45
235.633	4373.22
240.498	3176.07
245.361	1980.02
250.222	1049.12
255.08	706.471
259.936	1313.1
264.789	414.036
269.64	449.278
274.488	309.607
279.334	151.799
284.178	55.1382
289.019	168.568
293.857	491.59
298.693	1100.1
303.527	2059.3
308.358	3075.38
313.187	4038.18
318.013	4093.59
322.837	3744.53
327.659	4083.91
332.478	5067.65
337.294	6137.68
342.108	8103.91
346.92	11216.3
351.729	16694.8
356.535	27287.5
361.34	43142.2
366.141	56169.4
370.94	55700.3
375.737	37064.9
380.531	19143.2
385.323	9666.91
390.113	5028.07
394.9	2663.52
399.684	1259.18
404.466	491.103
409.245	4.26074
414.022	120.471
418.797	231.979
423.569	7.3584
428.338	276.428
433.105	488.353
437.87	727.251
442.632	995.08
447.391	1179.62
452.149	1195.78
456.903	1087.48
461.655	817.642
466.405	453.222
471.152	642.159
475.897	1497.4
480.639	2608.88
485.378	3864.54
490.116	4723.34
494.85	4911.22
499.582	4721.12
504.312	4427.32
509.039	5688.69
513.764	8878.74
518.486	15707.4
523.206	24614.3
527.923	27420.8
532.638	19096.3
537.35	8811.39
542.059	4589.12
546.766	3267.57
551.471	2916.34
556.173	2721.57
560.873	2289.36
565.57	1565.87
570.264	1243.92
574.957	1163.15
579.646	1194.03
584.333	1350.75
589.018	1575.84
593.7	1914.67
598.379	2133.75
603.056	2326.24
607.73	2210.09
612.402	2161.26
617.072	1703.7
621.739	1186.38
626.403	697.263
631.065	358.299
635.724	157.455
640.381	2.69604
645.035	22.2197
649.687	82.9172
654.336	137.972
658.983	102.104
663.627	44.7737
668.268	26.0264
672.907	26.4553
677.544	50.9053
682.178	71.4146
686.809	37.2441
691.438	10.3381
696.065	2.62402
700.688	27.9529
705.31	7.75561
709.929	79.7415
714.545	82.1899
719.158	131.254
723.77	244.037
728.378	232.652
732.984	295.155
737.588	297.586
742.189	291.962
746.787	398.296
751.383	390.606
755.976	414.908
760.567	501.222
765.155	583.568
769.741	603.965
774.324	695.457
778.904	868.023
783.482	1036.78
788.058	1397.18
792.631	1821.67
797.201	2880.63
801.769	4416.08
806.334	6637.94
810.897	9641.55
815.457	12907.2
820.014	15947.4
824.569	16451.2
829.122	14412
833.671	11599.4
838.219	9866
842.763	9820.05
847.306	11031.6
851.845	11760.2
856.382	10718.6
860.917	9248.13
865.448	9333.68
869.978	10609.3
874.505	13928.1
879.029	19355
883.55	21986.1
888.069	17398.4
892.586	10709.9
897.1	6436.73
901.611	4287.8
906.12	3001.34
910.626	2326.45
915.129	1861.64
919.63	1773.72
924.129	1652.57
928.625	1817.24
933.118	2132.56
937.609	2683.55
942.097	2776.78
946.582	2228.16
951.065	1562.47
955.546	1398.65
960.023	1559.83
964.499	1925.94
968.971	2410.01
973.441	2922.99
977.909	3477.81
982.374	3876.88
986.836	4130.47
991.295	4157.92
995.753	4584.56
1000.21	5130.43
1004.66	4482.38
1009.11	2750.86
1013.55	1515.87
1018	909.344
1022.44	589.279
1026.88	296.666
1031.32	60.4507
1035.75	21.5967
1040.18	9.12427
1044.61	10.0889
1049.04	50.2043
1053.46	16.3479
1057.88	50.6624
1062.3	88.385
1066.71	108.56
1071.13	76.281
1075.54	46.3677
1079.94	20.3875
1084.35	75.0461
1088.75	86.7532
1093.15	184.525
1097.55	257.336
1101.94	353.162
1106.34	310.98
1110.73	336.769
1115.11	473.523
1119.5	689.198
1123.88	683.905
1128.26	429.973
1132.63	299.003
1137.01	245.388
1141.38	258.516
1145.75	259.242
1150.12	162.991
1154.48	221.925
1158.84	192.804
1163.2	190.095
1167.55	234.475
1171.91	224.794
1176.26	285.921
1180.61	352.127
1184.95	343.596
1189.29	343.145
1193.63	361.588
1197.97	370.969
1202.31	349.393
1206.64	305.46
1210.97	372.938
1215.29	335.108
1219.62	382
1223.94	325.988
1228.26	321.749
1232.57	324.665
1236.89	249.318
1241.2	144.706
1245.51	108.824
1249.81	69.6706
1254.12	63.2429
1258.42	7.52856
1262.72	3.57251
1267.01	3.13647
1271.3	18.647
1275.59	49.8708
1279.88	25.3801
1284.17	7.15356
1288.45	15.5991
1292.73	38.9751
1297.01	2.9834
1301.28	40.6047
1305.55	6.9751
1309.82	10.1738
1314.09	49.2285
1318.35	51.2654
1322.61	10.3857
1326.87	43.5471
1331.13	66.8272
1335.38	45.062
1339.63	71.1931
1343.88	101.183
1348.12	58.9443
1352.37	81.4712
1356.61	130.768
1360.85	130.841
1365.08	123.707
1369.31	118.377
1373.54	160.852
1377.77	181.109
1381.99	218.108
1386.22	220.671
1390.43	222.571
1394.65	175.831
1398.87	156.432
1403.08	180.575
1407.29	217.153
1411.49	195.526
1415.69	204.351
1419.89	176.699
1424.09	205.595
1428.29	196.532
1432.48	153.693
1436.67	88.3394
1440.86	134.968
1445.04	151.06
1449.23	164.51
1453.4	129.387
1457.58	148.052
1461.76	105.769
1465.93	91.4978
1470.1	101.933
1474.26	96.043
1478.43	33.8284
1482.59	52.4968
1486.75	86.6716
1490.9	68.3521
1495.06	17.4663
1499.21	82.8213
1503.35	72.3225
1507.5	32.9197
1511.64	31.5632
1515.78	32.3552
1519.92	5.2749
1524.05	87.408
1528.18	9.9314
1532.31	91.8752
1536.44	61.1728
1540.56	82.1812
1544.69	37.2422
1548.8	12.9192
1552.92	152.328
1557.03	53.3438
1561.14	2.22046
1565.25	39.1304
1569.36	37.0095
