Measurement: Raman, 514 nm, ccw, Raman Data Processed
Mineral: Andradite
Rruff sample: R050377
Ideal chemistry: Ca_3_Fe^3+^_2_(SiO_4_)_3_
Locality: Zlatoust District, South Urals, Russia
Source: University of Arizona Mineral Museum
Description: Dark red cubes
Measured chemistry: Ca_3.00_(Fe^3+^_1.48_Ti_0.31_Mg_0.14_Zr_0.07_)_Σ=2_(Si_2.73_Al_0.24_Ti_0.03_)_Σ=3_O_12_
Pin_id: M00110
Orientation: Laser parallel to a* (1 0 0). Fiducial mark perpendicular to laser is parallel to c [0 0 1]
Raman shift (cm-1)	intensity
99.649	0
104.582	4.97021
109.512	1013.3
114.44	40.5615
119.365	94.2324
124.288	287.264
129.209	444.852
134.127	481.569
139.043	1003.85
143.956	897.938
148.867	656.352
153.775	449.998
158.681	594.553
163.585	1639.74
168.486	2896.65
173.385	1628.45
178.282	856.2
183.176	441.375
188.067	633.867
192.956	760.157
197.843	935.351
202.727	1108.28
207.609	351.629
212.489	347.366
217.366	735.317
222.24	1020.52
227.112	1397.95
231.982	1938.57
236.849	1953.33
241.714	1770.19
246.577	1961.84
251.437	2059.04
256.294	2472.28
261.149	2896.78
266.002	2781.21
270.852	2495.1
275.7	2070.93
280.545	2229.89
285.388	3085.31
290.229	4129.04
295.067	4571.14
299.902	4746.45
304.735	5116.95
309.566	5405.9
314.394	5684.07
319.22	5732.34
324.043	6696.8
328.864	8492.15
333.682	12588.6
338.498	20085.6
343.311	30692.2
348.122	33141.3
352.931	30917.8
357.737	36735.7
362.54	42575.8
367.341	36878.1
372.14	23953.6
376.936	13998.1
381.73	8504.77
386.521	4686.47
391.31	2477.24
396.096	1382.6
400.88	786.569
405.661	291.324
410.44	105.797
415.216	132.14
419.99	108.394
424.761	62.4746
429.53	33.669
434.297	191.576
439.061	27.585
443.822	332.535
448.581	191.405
453.337	74.8682
458.091	339.984
462.843	443.235
467.592	94.1924
472.338	360.595
477.082	589.006
481.824	1372.06
486.563	2595.72
491.3	3123.97
496.034	2751.75
500.765	3702.05
505.494	8346.85
510.221	17537.1
514.945	20401.8
519.666	12663.9
524.385	6698.44
529.102	3952.33
533.816	2488.58
538.527	1560.15
543.236	1461.25
547.943	1369.13
552.647	1010.37
557.348	602.422
562.047	397.588
566.744	664.97
571.438	1374.94
576.129	1882.05
580.818	1596.53
585.504	1450.2
590.188	1275.47
594.87	1214.44
599.549	989.69
604.225	992.459
608.899	861.041
613.57	892.193
618.239	1219.37
622.905	1636.25
627.569	2438.86
632.23	2893.19
636.889	3128.28
641.545	3231.14
646.198	3218.77
650.849	3258.18
655.498	3156.41
660.144	2898.45
664.787	2228.31
669.428	1363
674.067	873.528
678.703	340.896
683.336	30.9424
687.967	125.017
692.595	488.056
697.221	300
701.844	384.519
706.465	133.317
711.083	35.3711
715.698	515.891
720.311	1167.38
724.922	2105.14
729.53	3395.56
734.135	4763.29
738.738	5253.65
743.338	5057.21
747.936	4919.07
752.531	4865.43
757.124	4446.04
761.714	4102.19
766.302	3537.54
770.887	3466.26
775.469	3522.24
780.049	3728.33
784.626	4042.27
789.201	4443.17
793.773	4955.06
798.343	5507.69
802.91	6418.9
807.475	7240.7
812.037	7850.99
816.596	7667.75
821.153	7029.27
825.707	6669.06
830.259	6979.16
834.808	7680.75
839.355	8207.11
843.899	8791.61
848.441	9832.5
852.98	11426.8
857.516	13524.5
862.05	16029.3
866.581	18767.1
871.11	21013
875.636	20205.8
880.159	15733
884.68	11100.7
889.199	7261.09
893.714	5137.05
898.228	4118.31
902.738	3686.74
907.246	3653.62
911.752	3694.85
916.255	3470.99
920.755	3480.46
925.253	3733.46
929.748	3437.43
934.241	3069.45
938.731	2583.72
943.218	2521.95
947.703	2659.21
952.186	2822.74
956.665	3108.07
961.142	3047.26
965.617	3273.27
970.089	3100.96
974.558	3245.8
979.025	2894.6
983.489	2921.55
987.951	2759.07
992.41	2140.96
996.866	1368.16
1001.32	977.506
1005.77	1429.85
1010.22	1724.24
1014.67	1347.33
1019.11	385.648
1023.55	37.7656
1027.99	68.3945
1032.42	259.539
1036.86	252.292
1041.29	147.392
1045.72	168.52
1050.14	48.3975
1054.56	55.5518
1058.98	98.2725
1063.4	49.585
1067.82	26.373
1072.23	38.3789
1076.64	130.668
1081.05	274.327
1085.45	237.418
1089.85	349.916
1094.25	491.921
1098.65	315.287
1103.04	454.243
1107.43	446.623
1111.82	436.098
1116.21	528.441
1120.59	759.876
1124.97	705.065
1129.35	476.766
1133.73	398.03
1138.1	305.923
1142.47	248.086
1146.84	374.921
1151.21	547.948
1155.57	477.523
1159.93	473.302
1164.29	436.509
1168.64	506.272
1172.99	384.023
1177.34	365.187
1181.69	515.783
1186.04	308.067
1190.38	319.58
1194.72	352.573
1199.05	338.327
1203.39	260.448
1207.72	233.608
1212.05	253.492
1216.37	286.951
1220.7	302.085
1225.02	102.826
1229.34	99.0381
1233.65	33.501
1237.97	111.186
1242.28	103.042
1246.59	43.1914
1250.89	29.3623
1255.19	6.22754
1259.49	28.0518
1263.79	99.3936
1268.09	43.7852
1272.38	9.2002
1276.67	23.5625
1280.95	87.2715
1285.24	86.5478
1289.52	2.46484
1293.8	14.123
1298.08	201.652
1302.35	35.3184
1306.62	61.041
1310.89	104.589
1315.15	21.1475
1319.42	14.0615
1323.68	5.67481
1327.94	126.296
1332.19	71.6894
1336.44	76.749
1340.69	104.551
1344.94	200.036
1349.19	82.2178
1353.43	218.484
1357.67	227.956
1361.9	265.965
1366.14	135.481
1370.37	210.864
1374.6	255.985
1378.83	242.044
1383.05	208.177
1387.27	226.845
1391.49	124.681
1395.7	289.124
1399.92	253.145
1404.13	188.148
1408.34	124.516
1412.54	304.654
1416.74	197.267
1420.94	77.0762
1425.14	255.314
1429.34	79.8711
1433.53	236.705
1437.72	298.309
1441.9	446.626
1446.09	562.72
1450.27	323.991
1454.45	682.253
1458.63	727.051
1462.8	938.553
1466.97	899.293
1471.14	1157.91
1475.31	1189.32
1479.47	1321.61
1483.63	1055.37
1487.79	1279.71
1491.94	1196.82
1496.09	1023.78
1500.24	993.496
1504.39	859.447
1508.54	769.67
1512.68	631.296
1516.82	702.606
1520.95	482.598
1525.09	322.46
1529.22	334.29
1533.35	229.127
1537.47	224.121
1541.6	9.54004
1545.72	246.779
1549.83	184.278
1553.95	154.657
1558.06	44.7412
1562.17	178.102
1566.28	27.3428
1570.38	0
