Measurement: Raman, 514 nm, ccw, Raman Data Processed
Mineral: Andradite
Rruff sample: R050311
Ideal chemistry: Ca_3_Fe^3+^_2_(SiO_4_)_3_
Locality: Calaveras County, California, USA
Source: Eugene Schlepp
Description: Deep red crystals
Measured chemistry: (Ca_2.88_Mn_0.07_Fe^2+^_0.05_)_Σ=3_(Fe^3+^_1.39_Al_0.59_Ti_0.02_)_Σ=2_((Si_0.99_Al_0.01_)_Σ=1_O_4_)_3_
Pin_id: M00304
Orientation: Laser parallel to c* (0 0 1). Fiducial mark perpendicular to laser is parallel to a [1 0 0]
Raman shift (cm-1)	intensity
123.058	0
127.979	11.2549
132.898	108.149
137.814	121.492
142.728	123.783
147.639	4.85986
152.549	291.477
157.455	19.5703
162.359	254.189
167.261	1055.78
172.161	1513.41
177.058	1601.54
181.952	986.945
186.845	443.46
191.734	354.99
196.622	456.466
201.507	488.307
206.389	120.517
211.269	49.7446
216.147	391.143
221.022	678.941
225.895	1856.39
230.765	3471.56
235.633	3860.48
240.498	3420.14
245.361	1384.58
250.222	170.796
255.08	210.822
259.936	914.611
264.789	815.366
269.64	972.868
274.488	718.946
279.334	522.537
284.178	93.2583
289.019	133.243
293.857	247.532
298.693	575.992
303.527	1096.49
308.358	2438.68
313.187	3420.15
318.013	3797.13
322.837	3196.58
327.659	2789.46
332.478	3078.71
337.294	3123.3
342.108	4288.18
346.92	7030.32
351.729	11544.7
356.535	18439
361.34	31713.9
366.141	44786.1
370.94	49696.5
375.737	34633.2
380.531	16061.3
385.323	7553.77
390.113	4081.52
394.9	2121.6
399.684	1068.07
404.466	414.897
409.245	91.1709
414.022	103.166
418.797	75.9922
423.569	22.4004
428.338	121.795
433.105	274.333
437.87	458.655
442.632	618.205
447.391	745.243
452.149	794.309
456.903	720.273
461.655	428.097
466.405	98.7471
471.152	388.187
475.897	857.382
480.639	1602.3
485.378	2266.91
490.116	2925.16
494.85	3252.04
499.582	2735.24
504.312	2357.05
509.039	3251.71
513.764	6092.66
518.486	12420
523.206	17112.4
527.923	14872.1
532.638	7045.16
537.35	3016.99
542.059	1922.55
546.766	1823.83
551.471	1969.59
556.173	1813.63
560.873	1484.01
565.57	1048.28
570.264	665.908
574.957	649.688
579.646	815.56
584.333	923.782
589.018	1138.51
593.7	1212.4
598.379	1474.58
603.056	1562.36
607.73	1401.7
612.402	1163.58
617.072	939.977
621.739	590.864
626.403	237.215
631.065	187.012
635.724	192.232
640.381	103.816
645.035	54.669
649.687	42.8096
654.336	59.8794
658.983	35.2563
663.627	5.64551
668.268	16.6299
672.907	17.1768
677.544	62.2612
682.178	81.1592
686.809	35.5493
691.438	2.59277
696.065	52.3799
700.688	77.9722
705.31	90.3423
709.929	11.5269
714.545	14.2104
719.158	74.7539
723.77	160.404
728.378	142.304
732.984	252.524
737.588	369.29
742.189	375.094
746.787	515.255
751.383	488.899
755.976	626.935
760.567	734.376
765.155	773.241
769.741	754.551
774.324	746.384
778.904	799.111
783.482	967.443
788.058	1350.95
792.631	1911.44
797.201	3063.97
801.769	4659.07
806.334	6976.44
810.897	10258.3
815.457	13552.5
820.014	14532.7
824.569	12389.1
829.122	9345.28
833.671	7974.07
838.219	8264.9
842.763	9461.41
847.306	9632.31
851.845	8462.09
856.382	7045.15
860.917	7105.89
865.448	8324.78
869.978	11079
874.505	14534.4
879.029	15423
883.55	11172.8
888.069	6435.95
892.586	3897.38
897.1	2509.12
901.611	1716.58
906.12	1302.44
910.626	1047.03
915.129	1099.68
919.63	946.091
924.129	1097.56
928.625	1522.68
933.118	1772.62
937.609	1968.72
942.097	1589.22
946.582	1243.15
951.065	918.911
955.546	1083.42
960.023	1298.72
964.499	1516.86
968.971	1905.85
973.441	2282.11
977.909	2439.23
982.374	2693.22
986.836	2798.92
991.295	3104.26
995.753	3561.13
1000.21	3455.45
1004.66	1935.24
1009.11	1074.45
1013.55	725.082
1018	694.486
1022.44	635.224
1026.88	142.6
1031.32	56.6875
1035.75	2.04541
1040.18	53.1304
1044.61	75.1416
1049.04	6.20361
1053.46	76.2598
1057.88	69.3052
1062.3	64.6045
1066.71	175.527
1071.13	51.9849
1075.54	52.6226
1079.94	66.6826
1084.35	47.1392
1088.75	52.7246
1093.15	154.414
1097.55	245.189
1101.94	184.026
1106.34	337.928
1110.73	246.105
1115.11	372.882
1119.5	821.689
1123.88	849.196
1128.26	494.006
1132.63	223.843
1137.01	254.908
1141.38	127.795
1145.75	197.103
1150.12	48.2588
1154.48	97.2959
1158.84	29.2725
1163.2	19.854
1167.55	29.5757
1171.91	93.4673
1176.26	245.111
1180.61	233.443
1184.95	301.921
1189.29	251.998
1193.63	198.835
1197.97	344.123
1202.31	245.635
1206.64	300.029
1210.97	269.408
1215.29	258.221
1219.62	310.523
1223.94	279.625
1228.26	308.309
1232.57	192.761
1236.89	150.959
1241.2	139.907
1245.51	22.5117
1249.81	26.6714
1254.12	6.5415
1258.42	46.8506
1262.72	53.0825
1267.01	43.2969
1271.3	7.91211
1275.59	46.7544
1279.88	14.7935
1284.17	51.3037
1288.45	115.443
1292.73	66.3457
1297.01	88.8955
1301.28	89.3638
1305.55	80.0396
1309.82	14.3999
1314.09	31.0576
1318.35	97.5996
1322.61	146.835
1326.87	50.0454
1331.13	140.439
1335.38	264.597
1339.63	62.603
1343.88	54.3755
1348.12	163.326
1352.37	145.706
1356.61	178.943
1360.85	103.96
1365.08	210.786
1369.31	138.195
1373.54	253.102
1377.77	151.65
1381.99	153.822
1386.22	160.653
1390.43	122.936
1394.65	132.252
1398.87	300.798
1403.08	130.417
1407.29	81.5225
1411.49	215.408
1415.69	114.636
1419.89	193.009
1424.09	170.064
1428.29	90.6211
1432.48	126.432
1436.67	150.935
1440.86	38.2217
1445.04	92.1397
1449.23	90.291
1453.4	102.459
1457.58	17.9004
1461.76	117.404
1465.93	38.9863
1470.1	125.45
1474.26	131.891
1478.43	171.524
1482.59	39.0225
1486.75	74.0576
1490.9	127.268
1495.06	181.127
1499.21	68.0098
1503.35	59.8506
1507.5	5.43652
1511.64	120.583
1515.78	134.388
1519.92	9.93848
1524.05	109.796
1528.18	147.802
1532.31	23.2861
1536.44	60.083
1540.56	123.238
1544.69	38.9766
1548.8	46.7383
1552.92	313.722
1557.03	51.0273
1561.14	93.0811
1565.25	75.6416
1569.36	214.355
