Measurement: Raman, 514 nm, ccw, Raman Data Processed
Mineral: Andradite
Rruff sample: R060326
Ideal chemistry: Ca_3_Fe^3+^_2_(SiO_4_)_3_
Locality: Ultevis, Sweden
Source: Marcus Origlieri
Description: Reddish-brown colored druse of crystals associated with white svabite R050180
Measured chemistry: (Ca_2.98_Mn_0.02_)_Σ=3_(Fe^3+^_1.75_Al_0.21_Ti_0.04_)_Σ=2_(Si_1.00_O_4_)_3_
Pin_id: M00248
Orientation: Laser parallel to (0 -1 -1). Fiducial mark perpendicular to laser is parallel to a [1 0 0]
Raman shift (cm-1)	intensity
99.649	0
104.582	295.519
109.512	382.098
114.44	162.69
119.365	4.64356
124.288	94.2598
129.209	221.257
134.127	197.597
139.043	294.871
143.956	466.556
148.867	254.628
153.775	244.572
158.681	359.38
163.585	966.595
168.486	1662.87
173.385	1742.41
178.282	685.199
183.176	91.0606
188.067	72.8428
192.956	175.191
197.843	70.7051
202.727	158.809
207.609	127.575
212.489	89.6113
217.366	193.37
222.24	477.614
227.112	1644.21
231.982	3503.62
236.849	3117.61
241.714	1152.21
246.577	237.872
251.437	14.4062
256.294	210.217
261.149	777.014
266.002	575.803
270.852	536.621
275.7	0.15625
280.545	11.8115
285.388	126.977
290.229	219.414
295.067	382.17
299.902	892.045
304.735	1862.47
309.566	3396.34
314.394	2774.66
319.22	2233.42
324.043	2030.78
328.864	1520.16
333.682	1304.69
338.498	1810.88
343.311	3155.49
348.122	5630.52
352.931	7800.99
357.737	12819.6
362.54	26545.8
367.341	39532.4
372.14	29506.5
376.936	13293.9
381.73	5750.86
386.521	2889.46
391.31	1574.66
396.096	896.044
400.88	512.618
405.661	292.322
410.44	180.702
415.216	72.7275
419.99	99.8877
424.761	106.272
429.53	192.919
434.297	153.319
439.061	212.035
443.822	267.057
448.581	719.391
453.337	603.032
458.091	413.972
462.843	12.8008
467.592	53.6357
472.338	292.316
477.082	673.007
481.824	1189.52
486.563	1872.67
491.3	2517.35
496.034	2025.33
500.765	2154.84
505.494	3498.56
510.221	8506.69
514.945	14928
519.666	12865.3
524.385	5817.02
529.102	2544.82
533.816	1525.93
538.527	1372.53
543.236	1181.46
547.943	1261.94
552.647	1457.21
557.348	911.867
562.047	572.922
566.744	401.657
571.438	326.912
576.129	511.795
580.818	534.608
585.504	469.345
590.188	634.993
594.87	524.55
599.549	447.001
604.225	487.101
608.899	285.272
613.57	151.373
618.239	120.326
622.905	54.917
627.569	129.523
632.23	200.815
636.889	166.938
641.545	138.887
646.198	54.6797
650.849	130.253
655.498	130.574
660.144	191.653
664.787	13.8105
669.428	62.9404
674.067	84.208
678.703	53.752
683.336	34.6846
687.967	119.261
692.595	43.8389
697.221	11.6885
701.844	137.328
706.465	41.1895
711.083	251.947
715.698	96.835
720.311	255.554
724.922	432.11
729.53	392.508
734.135	313.751
738.738	438.845
743.338	336.795
747.936	370.644
752.531	468.363
757.124	515.222
761.714	469.801
766.302	461.305
770.887	479.813
775.469	543.675
780.049	522.57
784.626	767.499
789.201	966.231
793.773	1271.93
798.343	1977.34
802.91	3190.11
807.475	5416.35
812.037	8096.81
816.596	8905.07
821.153	6406.39
825.707	4574.05
830.259	4567.62
834.808	5818.9
839.355	7992.47
843.899	7324.82
848.441	5266.49
852.98	3843.81
857.516	3477.24
862.05	3886.77
866.581	5349.41
871.11	8274.18
875.636	7837.06
880.159	4607.07
884.68	2380.2
889.199	1182.48
893.714	796.912
898.228	433.603
902.738	288.728
907.246	217.328
911.752	267.836
916.255	299.857
920.755	272.268
925.253	413.303
929.748	283.301
934.241	331.898
938.731	182.764
943.218	4.00195
947.703	292.367
952.186	264.857
956.665	223.621
961.142	572.592
965.617	695.137
970.089	738.949
974.558	682.975
979.025	655.291
983.489	838.811
987.951	1234.44
992.41	2232.19
996.866	2018.1
1001.32	976.231
1005.77	376.352
1010.22	319.473
1014.67	149.092
1019.11	93.3438
1023.55	24.7168
1027.99	42.4844
1032.42	79.5488
1036.86	21.7988
1041.29	73.5625
1045.72	12.1367
1050.14	57.043
1054.56	38.2539
1058.98	153.221
1063.4	49.4492
1067.82	110.307
1072.23	123.023
1076.64	94.6328
1081.05	190.457
1085.45	349.08
1089.85	313.389
1094.25	236.627
1098.65	192.728
1103.04	364.926
1107.43	337.891
1111.82	198.639
1116.21	152.225
1120.59	468.836
1124.97	426.373
1129.35	656.699
1133.73	271.904
1138.1	373.268
1142.47	245.424
1146.84	174.773
1151.21	109.769
1155.57	210.244
1159.93	284.787
1164.29	204.455
1168.64	459.426
1172.99	348.955
1177.34	433.949
1181.69	319.57
1186.04	348.522
1190.38	262.727
1194.72	354.865
1199.05	200.475
1203.39	162.875
1207.72	372.147
1212.05	214.264
1216.37	170.219
1220.7	197.022
1225.02	24.4297
1229.34	67.7344
1233.65	29.7383
1237.97	147.543
1242.28	68.1816
1246.59	45.6172
1250.89	51.2031
1255.19	38.3887
1259.49	31.9062
1263.79	231.176
1268.09	140.147
1272.38	178.961
1276.67	83.2715
1280.95	181.588
1285.24	156.016
1289.52	224.502
1293.8	216.992
1298.08	215.455
1302.35	357.103
1306.62	177.018
1310.89	264.93
1315.15	200.871
1319.42	220.865
1323.68	236.867
1327.94	296.951
1332.19	236.973
1336.44	179.94
1340.69	170.541
1344.94	130.19
1349.19	197.992
1353.43	172.135
1357.67	153.457
1361.9	130.699
1366.14	235.484
1370.37	112.898
1374.6	117.334
1378.83	216.619
1383.05	313.916
1387.27	76.6797
1391.49	275.984
1395.7	202.978
1399.92	96.0039
1404.13	118.232
1408.34	223.162
1412.54	72.4824
1416.74	290.656
1420.94	232.69
1425.14	39.7188
1429.34	70.7285
1433.53	164.08
1437.72	51.4219
1441.9	362.244
1446.09	281.277
1450.27	195.809
1454.45	206.647
1458.63	289.463
1462.8	324.322
1466.97	271.522
1471.14	214.836
1475.31	132.342
1479.47	125.356
1483.63	244.844
1487.79	191.51
1491.94	136.156
1496.09	275.869
1500.24	254.844
1504.39	109.957
1508.54	311.35
1512.68	90.0938
1516.82	82.2109
1520.95	294.773
1525.09	117.365
1529.22	231.877
1533.35	136.137
1537.47	269.07
1541.6	190.482
1545.72	270.191
1549.83	99.2519
1553.95	294.44
1558.06	82.7129
1562.17	86.8398
1566.28	297.557
1570.38	0
