Measurement: Raman, 514 nm, ccw, Raman Data Processed
Mineral: Andradite
Rruff sample: R050377
Ideal chemistry: Ca_3_Fe^3+^_2_(SiO_4_)_3_
Locality: Zlatoust District, South Urals, Russia
Source: University of Arizona Mineral Museum
Description: Dark red cubes
Measured chemistry: Ca_3.00_(Fe^3+^_1.48_Ti_0.31_Mg_0.14_Zr_0.07_)_Σ=2_(Si_2.73_Al_0.24_Ti_0.03_)_Σ=3_O_12_
Pin_id: M00110
Orientation: Laser parallel to a* (1 0 0). Fiducial mark perpendicular to laser is parallel to c [0 0 1]
Raman shift (cm-1)	intensity
99.649	0
104.582	28.5371
109.512	1196.67
114.44	82.3174
119.365	159.132
124.288	386.981
129.209	493.882
134.127	689.61
139.043	1586.12
143.956	1215.37
148.867	682.874
153.775	596.289
158.681	565.938
163.585	1276.48
168.486	2681.03
173.385	1499.79
178.282	846.523
183.176	406.777
188.067	755.457
192.956	937.464
197.843	1191.34
202.727	1312.53
207.609	265.981
212.489	592.462
217.366	929.73
222.24	1317.57
227.112	1926.89
231.982	2663.66
236.849	1936.82
241.714	1385.31
246.577	1257.32
251.437	1413.97
256.294	2859.32
261.149	2970.94
266.002	2566.8
270.852	2138.43
275.7	1816.55
280.545	1725.53
285.388	2432.12
290.229	3193.92
295.067	3802.26
299.902	4576.13
304.735	5381.04
309.566	5554.26
314.394	5116.94
319.22	5047.39
324.043	4872.99
328.864	5591.2
333.682	7737.38
338.498	11916.2
343.311	17784.2
348.122	20538.7
352.931	22627.8
357.737	29907.4
362.54	36215.4
367.341	31357.6
372.14	20555.1
376.936	11714.9
381.73	6689.77
386.521	3588.85
391.31	2051.1
396.096	1125.99
400.88	499.795
405.661	87.4473
410.44	192.467
415.216	49.8633
419.99	27.1719
424.761	8.14453
429.53	78.2715
434.297	73.5352
439.061	290.154
443.822	740.9
448.581	775.656
453.337	351.367
458.091	96.2148
462.843	288.945
467.592	244.18
472.338	112.162
477.082	669.521
481.824	1318.85
486.563	2115.22
491.3	2410.23
496.034	2381.7
500.765	3190.02
505.494	7182.74
510.221	14954
514.945	17873.7
519.666	11466.8
524.385	6145.42
529.102	3769.4
533.816	2215.76
538.527	1552.46
543.236	1462.81
547.943	1552.68
552.647	1184.24
557.348	590.863
562.047	399.543
566.744	406.344
571.438	708.703
576.129	940.559
580.818	1057.86
585.504	1080.78
590.188	1006.29
594.87	999.383
599.549	834.238
604.225	771.516
608.899	830.746
613.57	785.018
618.239	1131.11
622.905	1612.83
627.569	2141.18
632.23	2662.15
636.889	3004.75
641.545	3070.99
646.198	3182.88
650.849	3218.43
655.498	3195.63
660.144	2660.02
664.787	2371.02
669.428	1597.21
674.067	829.076
678.703	431.606
683.336	29.2344
687.967	43.3984
692.595	190.039
697.221	441.977
701.844	290.199
706.465	161.369
711.083	45.627
715.698	339.676
720.311	588.707
724.922	1973.53
729.53	2914.15
734.135	3907.61
738.738	4558.13
743.338	4529.25
747.936	4354.27
752.531	4640.7
757.124	4222.26
761.714	3764.15
766.302	3328.19
770.887	3218.95
775.469	3252.69
780.049	3753.02
784.626	3820.17
789.201	4457.31
793.773	5007.93
798.343	5871.94
802.91	7049.38
807.475	8421.06
812.037	9277.91
816.596	8805.93
821.153	7781.06
825.707	7250.23
830.259	7456.84
834.808	7903.79
839.355	7929.06
843.899	7785.61
848.441	8012.64
852.98	8228.06
857.516	9088.26
862.05	10142.2
866.581	11576.9
871.11	12497.3
875.636	11597.5
880.159	9148.38
884.68	6300.06
889.199	4349.44
893.714	3239.55
898.228	2554.56
902.738	2339.72
907.246	2124.54
911.752	2433.92
916.255	2626.73
920.755	2900.18
925.253	2878.38
929.748	2658.2
934.241	2609.85
938.731	2159.8
943.218	2104.45
947.703	2272.31
952.186	2312.33
956.665	2619.68
961.142	2698.15
965.617	2813.35
970.089	2795.93
974.558	2746.14
979.025	2591.47
983.489	2706.59
987.951	2813.14
992.41	2385.8
996.866	1552.64
1001.32	1052.4
1005.77	1361.77
1010.22	1713.19
1014.67	965.684
1019.11	415.035
1023.55	81.666
1027.99	52.5625
1032.42	13.791
1036.86	88.6856
1041.29	228.533
1045.72	217.488
1050.14	174.932
1054.56	109.996
1058.98	3.27148
1063.4	137.746
1067.82	98.5449
1072.23	138.887
1076.64	162.789
1081.05	283.176
1085.45	361.975
1089.85	380.231
1094.25	309.529
1098.65	274.387
1103.04	317.045
1107.43	466.897
1111.82	406.736
1116.21	417.816
1120.59	588.807
1124.97	603.811
1129.35	533.602
1133.73	277.908
1138.1	309.228
1142.47	258.639
1146.84	416.092
1151.21	499.256
1155.57	297.256
1159.93	202.316
1164.29	419.475
1168.64	419.06
1172.99	381.467
1177.34	302.769
1181.69	329.469
1186.04	298.109
1190.38	376.207
1194.72	357.586
1199.05	229.33
1203.39	71.1426
1207.72	228.281
1212.05	226.106
1216.37	288.918
1220.7	31.0137
1225.02	138.541
1229.34	21.7051
1233.65	148.053
1237.97	221.846
1242.28	91.4824
1246.59	107.004
1250.89	94.6973
1255.19	34.3105
1259.49	14.2832
1263.79	50.6582
1268.09	105.082
1272.38	142.315
1276.67	212.117
1280.95	76.0879
1285.24	138.928
1289.52	48.9785
1293.8	40.707
1298.08	82.9531
1302.35	299.685
1306.62	29.6758
1310.89	203.383
1315.15	88.3828
1319.42	285.133
1323.68	106.232
1327.94	19.9395
1332.19	70.0254
1336.44	142.049
1340.69	219.084
1344.94	222.019
1349.19	182.336
1353.43	111.533
1357.67	236.795
1361.9	278.123
1366.14	291.096
1370.37	188.102
1374.6	262.744
1378.83	122.953
1383.05	204.469
1387.27	547.777
1391.49	317.32
1395.7	321.158
1399.92	195.465
1404.13	221.938
1408.34	324.602
1412.54	195.166
1416.74	243.525
1420.94	114.473
1425.14	339.465
1429.34	78.1699
1433.53	337.772
1437.72	392.219
1441.9	263.602
1446.09	28.4668
1450.27	413.478
1454.45	556.91
1458.63	816.531
1462.8	665.566
1466.97	818.519
1471.14	957.887
1475.31	1235.31
1479.47	1016.17
1483.63	1113.57
1487.79	1021.34
1491.94	939.43
1496.09	1061.29
1500.24	881.219
1504.39	821.064
1508.54	713.547
1512.68	584.404
1516.82	619.029
1520.95	518.152
1525.09	411.869
1529.22	364.195
1533.35	329.027
1537.47	162.15
1541.6	106.363
1545.72	191.164
1549.83	243.81
1553.95	291.707
1558.06	214.498
1562.17	134.932
1566.28	184.012
1570.38	0
