Measurement: Raman, 514 nm, ccw, Raman Data Processed
Mineral: Andradite
Rruff sample: R060350
Ideal chemistry: Ca_3_Fe^3+^_2_(SiO_4_)_3_
Locality: south of the Gem mine, southern San Benito County, California, USA
Source: Michael Scott
Description: Cluster of black vitreous crystals showing well-developed faces
Measured chemistry: (Ca_2.93_Mg_0.07_)_Σ=3_(Fe^3+^_1.18_Ti_0.77_Al_0.05_)_Σ=2_((Si_0.74_Fe^3+^_0.26_)_Σ=1_O_4_)_3_ ; trace amounts of Mn
Pin_id: M00067
Orientation: Laser parallel to a* (1 0 0). Fiducial mark perpendicular to laser is parallel to c [0 0 1]
Raman shift (cm-1)	intensity
114.44	0
119.365	112.408
124.288	1195.51
129.209	2627.78
134.127	6708.41
139.043	18368.7
143.956	34580.6
148.867	20831.6
153.775	7714.38
158.681	2985.86
163.585	3463.01
168.486	3724.6
173.385	2362.25
178.282	1338.06
183.176	1262.5
188.067	1520.69
192.956	2624.85
197.843	3124.87
202.727	2992.88
207.609	483.92
212.489	98.5566
217.366	282.74
222.24	730.744
227.112	818.852
231.982	824.031
236.849	362.391
241.714	277.312
246.577	204.381
251.437	474.49
256.294	791.713
261.149	2427.4
266.002	441.107
270.852	264.797
275.7	20.5605
280.545	233.938
285.388	520.633
290.229	1082.28
295.067	1649.55
299.902	2957.3
304.735	4802.4
309.566	6414.11
314.394	7527.16
319.22	8460.06
324.043	9388.16
328.864	11228
333.682	13414
338.498	15800.9
343.311	17983.5
348.122	21281.5
352.931	24620.5
357.737	25640.5
362.54	23085
367.341	19371.3
372.14	15345.6
376.936	11794.8
381.73	8827.45
386.521	6836.38
391.31	4939.34
396.096	3975.52
400.88	2668.76
405.661	1778.51
410.44	1099.95
415.216	1135.48
419.99	690.002
424.761	730.484
429.53	1297.92
434.297	1963.43
439.061	2164.27
443.822	1603.34
448.581	567.551
453.337	222.18
458.091	551.926
462.843	252.14
467.592	388.917
472.338	1109.64
477.082	1736.35
481.824	2844.82
486.563	3576.68
491.3	4164.84
496.034	5065.39
500.765	7919.56
505.494	11614.3
510.221	12392.2
514.945	11431.2
519.666	9478.95
524.385	8095.79
529.102	7146.24
533.816	6791.38
538.527	7585.04
543.236	6485.16
547.943	5776.25
552.647	4470.86
557.348	2908.11
562.047	1250.69
566.744	472.95
571.438	599.817
576.129	1088.2
580.818	1179.97
585.504	1258.06
590.188	1319.46
594.87	974.085
599.549	661.704
604.225	468.307
608.899	124.872
613.57	130.861
618.239	232.29
622.905	611.57
627.569	1368
632.23	2118.66
636.889	2507.55
641.545	2203.68
646.198	1491.04
650.849	714.666
655.498	390.557
660.144	52.5205
664.787	264.611
669.428	493.802
674.067	288.577
678.703	398.902
683.336	94.9131
687.967	444.708
692.595	384.894
697.221	40.9688
701.844	149.765
706.465	459.7
711.083	825.843
715.698	982.019
720.311	1331.93
724.922	1440.64
729.53	2049.2
734.135	2711.71
738.738	3318.97
743.338	4311.42
747.936	5397.23
752.531	6060.93
757.124	6560.35
761.714	6353.31
766.302	6877.47
770.887	8419.19
775.469	10206.8
780.049	12466.2
784.626	15622.6
789.201	19134.8
793.773	23065.7
798.343	28211.3
802.91	33020.1
807.475	37615.7
812.037	40699.4
816.596	41609.8
821.153	41230.5
825.707	39252.7
830.259	37147.4
834.808	34931.8
839.355	32266.2
843.899	30323.3
848.441	28825
852.98	27316.8
857.516	26707.8
862.05	25761.9
866.581	24544.2
871.11	22946.9
875.636	21629.8
880.159	19101.1
884.68	16369.6
889.199	13117.9
893.714	10344.1
898.228	8224.99
902.738	6763.09
907.246	5524.64
911.752	4613.5
916.255	4205.78
920.755	4001
925.253	4021.49
929.748	3945.36
934.241	3530.18
938.731	3243.53
943.218	2843.41
947.703	2395.88
952.186	2365.19
956.665	2570.64
961.142	2608.64
965.617	2854.89
970.089	2904.6
974.558	2922.75
979.025	3254
983.489	3317.29
987.951	3489.34
992.41	3047.69
996.866	2076.33
1001.32	1498.74
1005.77	2200.2
1010.22	3351.51
1014.67	2944.87
1019.11	1389.67
1023.55	297.966
1027.99	61.169
1032.42	226.385
1036.86	281.51
1041.29	183.075
1045.72	364.238
1050.14	234.176
1054.56	126.231
1058.98	120.379
1063.4	127.574
1067.82	202.126
1072.23	208.609
1076.64	255.276
1081.05	712.415
1085.45	3143.68
1089.85	1278.16
1094.25	506.036
1098.65	490.055
1103.04	471.677
1107.43	434.621
1111.82	505.013
1116.21	647.438
1120.59	524.134
1124.97	689.368
1129.35	504.42
1133.73	294.825
1138.1	633.233
1142.47	439.737
1146.84	472.673
1151.21	373.019
1155.57	506.731
1159.93	463.555
1164.29	426.504
1168.64	380.409
1172.99	383.315
1177.34	444.196
1181.69	557.021
1186.04	473.334
1190.38	159.773
1194.72	250.887
1199.05	78.0439
1203.39	107.251
1207.72	219.654
1212.05	103.832
1216.37	78.9922
1220.7	150.079
1225.02	63.9404
1229.34	64.6152
1233.65	107.974
1237.97	126.339
1242.28	87.9834
1246.59	124.54
1250.89	10.6621
1255.19	149.151
1259.49	165.383
1263.79	282.85
1268.09	192.509
1272.38	320.952
1276.67	358.541
1280.95	285.264
1285.24	300.296
1289.52	332.107
1293.8	265.223
1298.08	589.709
1302.35	581.995
1306.62	473.018
1310.89	519.106
1315.15	624.23
1319.42	800.106
1323.68	592.178
1327.94	642.499
1332.19	722.666
1336.44	652.888
1340.69	688.588
1344.94	668.456
1349.19	746.797
1353.43	696.83
1357.67	595.398
1361.9	571.117
1366.14	643.056
1370.37	635.658
1374.6	482.114
1378.83	439.38
1383.05	500.884
1387.27	454.732
1391.49	474.837
1395.7	319.574
1399.92	437.641
1404.13	212.306
1408.34	344.315
1412.54	68.708
1416.74	248.631
1420.94	74.0088
1425.14	88.8701
1429.34	60.8281
1433.53	182.015
1437.72	271.653
1441.9	241.386
1446.09	187.224
1450.27	180.643
1454.45	334.979
1458.63	177.441
1462.8	303.141
1466.97	322.277
1471.14	80.665
1475.31	29.2295
1479.47	9.37988
1483.63	31.9346
1487.79	49.834
1491.94	25.9277
1496.09	63.6133
1500.24	77.4365
1504.39	26.542
1508.54	72.7959
1512.68	166.662
1516.82	181.363
1520.95	382.002
1525.09	240.349
1529.22	154.387
1533.35	197.176
1537.47	16.8789
1541.6	218.453
1545.72	215.994
1549.83	211.248
1553.95	477.553
1558.06	286.705
1562.17	8.67383
1566.28	170.871
1570.38	0
