Measurement: Raman, 514 nm, ccw, Raman Data Processed
Mineral: Andradite
Rruff sample: R050377
Ideal chemistry: Ca_3_Fe^3+^_2_(SiO_4_)_3_
Locality: Zlatoust District, South Urals, Russia
Source: University of Arizona Mineral Museum
Description: Dark red cubes
Measured chemistry: Ca_3.00_(Fe^3+^_1.48_Ti_0.31_Mg_0.14_Zr_0.07_)_Σ=2_(Si_2.73_Al_0.24_Ti_0.03_)_Σ=3_O_12_
Pin_id: M00110
Orientation: Laser parallel to a* (1 0 0). Fiducial mark perpendicular to laser is parallel to c [0 0 1]
Raman shift (cm-1)	intensity
99.649	0
104.582	90.1631
109.512	1032.88
114.44	50.5571
119.365	42.7373
124.288	229.977
129.209	565.609
134.127	635.468
139.043	1049.88
143.956	1084.93
148.867	656.108
153.775	511.117
158.681	701.454
163.585	1655.98
168.486	2902.81
173.385	1580.15
178.282	801.735
183.176	441.934
188.067	693.634
192.956	901.542
197.843	857.941
202.727	1033.78
207.609	250.073
212.489	615.37
217.366	960.423
222.24	1597.25
227.112	2142.75
231.982	2510.9
236.849	2175.66
241.714	1595.96
246.577	1586.52
251.437	2017.48
256.294	2499.85
261.149	3500.09
266.002	3026.18
270.852	2561.37
275.7	2327.03
280.545	2409.96
285.388	3113.51
290.229	3951.78
295.067	4654.18
299.902	5182.26
304.735	6180.87
309.566	6220.88
314.394	6011.06
319.22	5864.99
324.043	6113.93
328.864	7483.85
333.682	10411.4
338.498	16109.8
343.311	23728.1
348.122	26629.2
352.931	28430
357.737	36120.6
362.54	42086.7
367.341	35319.3
372.14	23174.3
376.936	13638.8
381.73	8036.63
386.521	4371.8
391.31	2468.33
396.096	1248.76
400.88	600.158
405.661	322.627
410.44	143.21
415.216	47.2158
419.99	102.312
424.761	112.815
429.53	52.3721
434.297	90.1377
439.061	86.9961
443.822	753.102
448.581	727.401
453.337	125.842
458.091	327.724
462.843	514.681
467.592	194.304
472.338	112.408
477.082	686.896
481.824	1486.26
486.563	2336.45
491.3	2951.45
496.034	2504.2
500.765	3672.68
505.494	7863.85
510.221	17148.7
514.945	20965.1
519.666	13523.2
524.385	7423.84
529.102	4225.02
533.816	2726.72
538.527	1993.9
543.236	1577.33
547.943	1735.89
552.647	1336.6
557.348	532.41
562.047	172.512
566.744	393.775
571.438	835.907
576.129	1230.5
580.818	1393.42
585.504	1394.94
590.188	1159.64
594.87	1104.96
599.549	1162.12
604.225	1042.09
608.899	921.966
613.57	912.449
618.239	1350.11
622.905	2015.48
627.569	2542.56
632.23	2981.37
636.889	3423.91
641.545	3581.19
646.198	3545.22
650.849	3676.02
655.498	3625.59
660.144	3402.94
664.787	2703.08
669.428	1727.01
674.067	1087.74
678.703	418.267
683.336	211.533
687.967	135.181
692.595	343.455
697.221	412.663
701.844	338.449
706.465	336.116
711.083	49.919
715.698	536.894
720.311	1037.56
724.922	2152.18
729.53	3460.8
734.135	4788.44
738.738	5552.3
743.338	5539.12
747.936	5335.52
752.531	5304.37
757.124	4864.61
761.714	4391.48
766.302	4050.15
770.887	3924.02
775.469	4025.22
780.049	4577.33
784.626	4912.52
789.201	5210.76
793.773	5886.86
798.343	6957.81
802.91	8070.45
807.475	9548.17
812.037	10225.3
816.596	9635.42
821.153	8702.28
825.707	8281.53
830.259	8273.7
834.808	8704.55
839.355	9044.09
843.899	9112.31
848.441	9597.93
852.98	10241.9
857.516	11528.9
862.05	12923.7
866.581	14774.5
871.11	15570.3
875.636	15041.2
880.159	12277
884.68	8750.93
889.199	6057.98
893.714	4385.24
898.228	3724.9
902.738	3380.57
907.246	3366.04
911.752	3557.7
916.255	3489.32
920.755	3687.6
925.253	3684.2
929.748	3788.71
934.241	3481.22
938.731	2947.8
943.218	2767.44
947.703	2831.09
952.186	3097.63
956.665	3267.84
961.142	3435.95
965.617	3552.67
970.089	3779.68
974.558	3497.13
979.025	3544.96
983.489	3208.45
987.951	3314.43
992.41	2617.68
996.866	1630.31
1001.32	1206.33
1005.77	1574.57
1010.22	1866.89
1014.67	1362.93
1019.11	579.082
1023.55	22.8047
1027.99	21.5225
1032.42	11.7812
1036.86	229.713
1041.29	153.487
1045.72	60.5088
1050.14	203.477
1054.56	35.6875
1058.98	137.961
1063.4	67.3916
1067.82	63.3565
1072.23	74.3906
1076.64	174.106
1081.05	152.325
1085.45	430.098
1089.85	507.716
1094.25	444.185
1098.65	529.908
1103.04	450.658
1107.43	578.339
1111.82	379.499
1116.21	462.978
1120.59	413.636
1124.97	606.891
1129.35	591.08
1133.73	463.011
1138.1	470.61
1142.47	499.698
1146.84	462.454
1151.21	436.9
1155.57	639.974
1159.93	470.618
1164.29	603.169
1168.64	426.415
1172.99	510.065
1177.34	469.263
1181.69	393.333
1186.04	430.157
1190.38	332.931
1194.72	382.835
1199.05	309.356
1203.39	116.653
1207.72	427.406
1212.05	239.128
1216.37	9.16504
1220.7	219.389
1225.02	155.569
1229.34	151.016
1233.65	168.602
1237.97	75.2178
1242.28	37.4209
1246.59	46.126
1250.89	50.8291
1255.19	30.7695
1259.49	26.4541
1263.79	41.8877
1268.09	123.601
1272.38	133.826
1276.67	102.573
1280.95	49.4834
1285.24	74.5596
1289.52	81.1894
1293.8	68.915
1298.08	4.72656
1302.35	98.5273
1306.62	63.6553
1310.89	157.212
1315.15	221.878
1319.42	124.983
1323.68	11.8447
1327.94	263.224
1332.19	7.76172
1336.44	20.8525
1340.69	56.417
1344.94	198.115
1349.19	130.515
1353.43	217.583
1357.67	349.638
1361.9	233.726
1366.14	261.358
1370.37	321.755
1374.6	107.588
1378.83	215.315
1383.05	403.085
1387.27	213.9
1391.49	215.309
1395.7	246.667
1399.92	322.028
1404.13	272.269
1408.34	0.645508
1412.54	222.291
1416.74	119.807
1420.94	169.601
1425.14	87.9951
1429.34	181.383
1433.53	104.865
1437.72	347.135
1441.9	199.779
1446.09	341.926
1450.27	502.774
1454.45	422.084
1458.63	653.584
1462.8	760.399
1466.97	983.407
1471.14	1075.49
1475.31	1233.22
1479.47	1207.38
1483.63	1129.07
1487.79	1169.88
1491.94	1060.06
1496.09	930.53
1500.24	881.188
1504.39	1004.04
1508.54	603.178
1512.68	684.559
1516.82	669.039
1520.95	488.356
1525.09	372.633
1529.22	111.936
1533.35	307.266
1537.47	74.8144
1541.6	300.955
1545.72	69.1445
1549.83	220.795
1553.95	224.607
1558.06	124.807
1562.17	160.09
1566.28	200.832
1570.38	0
