Measurement: Raman, 514 nm, ccw, Raman Data Processed
Mineral: Andradite
Rruff sample: R060423
Ideal chemistry: Ca_3_Fe^3+^_2_(SiO_4_)_3_
Locality: Mali
Source: Greg Schmidt
Description: Black dodecahedron
Measured chemistry: (Ca_2.93_Mg_0.04_Mn_0.03_)_Σ=3_(Fe^3+^_0.99_Al_0.95_Ti_0.06_)_Σ=2_((Si_0.98_Fe^3+^_0.02_)_Σ=1_O_4_)_3_
Pin_id: L01089
Orientation: Laser parallel to a* (1 0 0). Fiducial mark perpendicular to laser is parallel to c [0 0 1]
Raman shift (cm-1)	intensity
91.012	0
95.948	12.6357
100.883	57.8676
105.815	220.903
110.744	567.107
115.671	278.087
120.596	10.9609
125.519	84.5603
130.439	25.49
135.356	75.7544
140.271	343.13
145.184	155.57
150.094	93.6894
155.002	127.096
159.908	176.539
164.811	719.806
169.711	1854.27
174.61	3165.12
179.505	2368.45
184.399	1033.31
189.29	773.775
194.178	759.796
199.064	678.709
203.948	609.572
208.829	218.46
213.708	262.429
218.585	566.6
223.459	1342.75
228.33	2961.14
233.199	5090.68
238.066	6602.66
242.93	5293.89
247.792	2196.64
252.651	1109.75
257.508	1072.64
262.363	1471.51
267.215	2449.08
272.064	2937.55
276.912	2471.13
281.756	2024.29
286.598	1410.42
291.438	1252.1
296.276	1345.74
301.111	1633.23
305.943	1917.54
310.773	2848.61
315.601	4439.42
320.426	5674.96
325.248	4560.23
330.068	3888.21
334.886	4158.86
339.701	4058.14
344.514	4823
349.324	7768.44
354.132	14185.4
358.938	22870
363.741	30905
368.541	44492.5
373.339	41484.5
378.135	21814.9
382.928	10797.7
387.718	6148.16
392.506	4288.3
397.292	3424.1
402.075	2748.56
406.856	1375.88
411.634	389.527
416.41	96.0239
421.183	254.026
425.954	198.338
430.722	184.997
435.488	124.228
440.251	500.719
445.012	641.202
449.77	638.245
454.526	613.588
459.28	535.172
464.03	484.959
468.779	338.911
473.525	274.987
478.268	757.15
483.009	1537.36
487.747	2198.58
492.483	2519.77
497.217	2296.9
501.948	1787.91
506.676	1203.79
511.402	1013.49
516.125	1320.96
520.846	2517.18
525.565	5762.1
530.281	11587.7
534.994	12783.9
539.705	5431.7
544.413	1847.77
549.119	1166.38
553.822	1421.22
558.523	1713.72
563.222	1633.68
567.917	1143.3
572.611	710.087
577.302	466.159
581.99	363.371
586.676	389.4
591.359	738.75
596.04	1318.85
600.718	1591.63
605.394	1810.05
610.067	2054.08
614.737	2113.69
619.406	2013.86
624.071	1456.54
628.734	774.723
633.395	307.372
638.053	237.464
642.708	288.98
647.361	1066.9
652.012	610.21
656.66	334.892
661.305	294.934
665.948	185.323
670.588	401.049
675.226	367.101
679.861	270.471
684.494	80.1067
689.124	65.613
693.752	149.714
698.377	206.888
702.999	213.127
707.619	150.154
712.237	175.795
716.852	83.0742
721.464	41.7856
726.074	150.718
730.681	291.215
735.286	501.015
739.888	727.846
744.488	1044.64
749.085	1480.5
753.68	1984.74
758.272	2583.39
762.861	3401.46
767.448	3528.96
772.033	3020.94
776.614	2577.53
781.194	2295.83
785.77	2463.91
790.345	3098.82
794.916	3996.62
799.485	5807.32
804.052	8606.01
808.616	12457.7
813.177	17058.3
817.736	20798.9
822.292	20767.5
826.846	17408.1
831.397	13748.4
835.945	11467.3
840.491	10472
845.035	10217.1
849.576	10106.4
854.114	9597.09
858.65	10274.1
863.183	12441.8
867.713	16368.8
872.241	21170.3
876.767	23036.2
881.29	18838.5
885.81	13369.2
890.328	9111.32
894.843	6636.85
899.356	4905.81
903.866	3803.24
908.373	3117.17
912.878	2686.18
917.38	2659.92
921.88	2609.62
926.377	2583.85
930.872	2922.05
935.364	3332.25
939.853	3387.4
944.34	3052.15
948.824	2336.87
953.306	1633.01
957.785	1527.41
962.261	2015.13
966.735	2587.57
971.207	3152.92
975.675	3699.96
980.141	4035.65
984.605	4136.82
989.066	4029.34
993.524	4184.99
997.98	4092.35
1002.43	3772.1
1006.88	2460.13
1011.33	1239.43
1015.78	717.993
1020.22	760.836
1024.66	885.996
1029.1	545.377
1033.53	150.942
1037.97	29.3276
1042.4	59.4631
1046.82	60.821
1051.25	89.3066
1055.67	96.3372
1060.09	21.9513
1064.51	88.1152
1068.92	88.8949
1073.33	71.4241
1077.74	34.6208
1082.15	42.4597
1086.55	1.08887
1090.95	41.8152
1095.35	4.849
1099.75	127.263
1104.14	183.511
1108.53	194.582
1112.92	286.441
1117.31	381.051
1121.69	475.378
1126.07	583.395
1130.45	396.234
1134.82	284.028
1139.19	358.517
1143.57	342.102
1147.93	323.456
1152.3	260.12
1156.66	300.399
1161.02	252.481
1165.38	238.835
1169.73	226.734
1174.08	261.741
1178.43	239.347
1182.78	206.398
1187.12	277.043
1191.46	266.554
1195.8	269.83
1200.14	230.963
1204.47	257.108
1208.8	273.732
1213.13	288.154
1217.46	267.689
1221.78	286.57
1226.1	268.426
1230.42	273.612
1234.73	237.059
1239.04	215.417
1243.35	163.294
1247.66	139.822
1251.97	106.057
1256.27	111.004
1260.57	61.6656
1264.86	85.0388
1269.16	23.1234
1273.45	4.09131
1277.74	41.358
1282.03	49.3889
1286.31	17.9896
1290.59	30.2969
1294.87	20.3478
1299.14	3.85339
1303.42	1.42834
1307.69	45.8442
1311.95	24.9346
1316.22	14.6069
1320.48	35.161
1324.74	25.2118
1329	23.501
1333.26	2.39185
1337.51	15.4227
1341.76	11.6053
1346	29.4476
1350.25	54.3649
1354.49	14.7533
1358.73	36.0641
1362.96	33.2648
1367.2	26.3541
1371.43	87.1056
1375.66	61.2462
1379.88	96.0715
1384.11	73.8281
1388.33	96.2738
1392.54	73.5518
1396.76	130.821
1400.97	167.651
1405.18	159.481
1409.39	117.224
1413.59	90.6883
1417.8	146.32
1421.99	131.082
1426.19	133.649
1430.38	121.925
1434.58	91.3739
1438.77	110.883
1442.95	104.451
1447.13	100.798
1451.32	75.4706
1455.49	25.5016
1459.67	100.509
1463.84	16.952
1468.01	69.96
1472.18	100.662
1476.35	37.5441
1480.51	55.2986
1484.67	65.9548
1488.83	10.6062
1492.98	67.6486
1497.13	95.8002
1501.28	89.2126
1505.43	156.9
1509.57	86.5113
1513.71	177.498
1517.85	97.7692
1521.99	127.016
1526.12	44.6981
1530.25	109.71
1534.38	49.1255
1538.5	91.9755
1542.62	70.3409
1546.74	23.3259
1550.86	76.1479
1554.98	116.033
1559.09	38.4039
1563.2	42.0494
1567.31	45.9844
