Measurement: Raman, 514 nm, ccw, Raman Data Processed
Mineral: Andradite
Rruff sample: R060423
Ideal chemistry: Ca_3_Fe^3+^_2_(SiO_4_)_3_
Locality: Mali
Source: Greg Schmidt
Description: Black dodecahedron
Measured chemistry: (Ca_2.93_Mg_0.04_Mn_0.03_)_Σ=3_(Fe^3+^_0.99_Al_0.95_Ti_0.06_)_Σ=2_((Si_0.98_Fe^3+^_0.02_)_Σ=1_O_4_)_3_
Pin_id: L01089
Orientation: Laser parallel to a* (1 0 0). Fiducial mark perpendicular to laser is parallel to c [0 0 1]
Raman shift (cm-1)	intensity
91.012	0
95.948	33.0717
100.883	79.6335
105.815	202.035
110.744	480.103
115.671	230.798
120.596	8.78235
125.519	9.86011
130.439	14.0544
135.356	17.114
140.271	81.4856
145.184	24.2373
150.094	33.0046
155.002	29.4343
159.908	32.6404
164.811	296.615
169.711	880.809
174.61	1659.12
179.505	1313.76
184.399	641.119
189.29	653.913
194.178	602.626
199.064	509.861
203.948	464.773
208.829	59.4829
213.708	117.057
218.585	439.543
223.459	1090.97
228.33	2491.37
233.199	4381.75
238.066	5774.85
242.93	4857.57
247.792	1917.4
252.651	670.558
257.508	588.071
262.363	860.216
267.215	1839.59
272.064	2585.66
276.912	2003.59
281.756	1516.5
286.598	829.281
291.438	428.829
296.276	386.921
301.111	544.536
305.943	878.039
310.773	1793.03
315.601	3462.65
320.426	4861.9
325.248	3749.79
330.068	3041.3
334.886	3439.4
339.701	3143.03
344.514	3400.18
349.324	4960.84
354.132	8700
358.938	16272.6
363.741	30912.7
368.541	53346.3
373.339	56297.3
378.135	31658.6
382.928	14718.4
387.718	8041.76
392.506	5032.73
397.292	3447.36
402.075	2175.59
406.856	986.44
411.634	238.251
416.41	94.4365
421.183	276.218
425.954	217.723
430.722	75.9556
435.488	207.003
440.251	692.462
445.012	1013.15
449.77	1218.54
454.526	1233.72
459.28	1219
464.03	1193.53
468.779	826.253
473.525	694.148
478.268	1100.18
483.009	1904.3
487.747	2639.61
492.483	3002.71
497.217	2650.92
501.948	2034.09
506.676	1477.18
511.402	1518.16
516.125	2037.99
520.846	3980.64
525.565	8607.07
530.281	16364.2
534.994	18714.1
539.705	8914.67
544.413	3140.84
549.119	1908.43
553.822	1712.38
558.523	1690.95
563.222	1356.12
567.917	951.608
572.611	560.605
577.302	289.108
581.99	213.365
586.676	368.589
591.359	789.24
596.04	1388.46
600.718	1758.6
605.394	1996.48
610.067	2216.08
614.737	2440.36
619.406	2393.29
624.071	1873.85
628.734	1074.99
633.395	448.706
638.053	324.96
642.708	418.731
647.361	599.998
652.012	782.744
656.66	700.952
661.305	543.606
665.948	444.692
670.588	562.196
675.226	635.107
679.861	414.413
684.494	178.102
689.124	12.9627
693.752	123.707
698.377	160.116
702.999	150.169
707.619	163.8
712.237	175
716.852	161.109
721.464	73.9795
726.074	2.9397
730.681	220.387
735.286	356.043
739.888	587.055
744.488	833.448
749.085	1183.22
753.68	1479.43
758.272	1913.04
762.861	2383.09
767.448	2576.59
772.033	2322.57
776.614	1945.08
781.194	1780.26
785.77	1931.22
790.345	2312.02
794.916	3073.69
799.485	4245.26
804.052	6563.74
808.616	9238.19
813.177	13369.6
817.736	16611.9
822.292	16891.2
826.846	14038.3
831.397	11097.5
835.945	9102.1
840.491	8430.46
845.035	8387.25
849.576	8355.41
854.114	8140.59
858.65	8629.57
863.183	10830.1
867.713	14303.4
872.241	18394.2
876.767	18841.2
881.29	14325.5
885.81	9293.15
890.328	6314.18
894.843	4545.58
899.356	3525.37
903.866	2903.57
908.373	2537.21
912.878	2510.68
917.38	2556.28
921.88	2713.52
926.377	2879.48
930.872	3314.28
935.364	3803.3
939.853	4003.51
944.34	3632.25
948.824	2817.88
953.306	2041.93
957.785	1834.83
962.261	2324.67
966.735	3065.34
971.207	3821.12
975.675	4346.37
980.141	4714.19
984.605	4833.5
989.066	4690.28
993.524	4755.33
997.98	4646.36
1002.43	4231.95
1006.88	2823.84
1011.33	1418.97
1015.78	854.347
1020.22	1049.98
1024.66	1168.83
1029.1	752.935
1033.53	217.287
1037.97	28.1796
1042.4	3.46814
1046.82	63.8591
1051.25	60.4541
1055.67	55.5125
1060.09	91.0535
1064.51	54.2156
1068.92	69.9354
1073.33	81.246
1077.74	27.2841
1082.15	11.9425
1086.55	57.1659
1090.95	1.14233
1095.35	38.5102
1099.75	65.028
1104.14	128.422
1108.53	201.663
1112.92	261.717
1117.31	384.549
1121.69	524.125
1126.07	531.415
1130.45	466.393
1134.82	409.228
1139.19	363.082
1143.57	342.575
1147.93	326.806
1152.3	311.955
1156.66	280.614
1161.02	297.093
1165.38	329.485
1169.73	216.386
1174.08	246.196
1178.43	241.084
1182.78	271.79
1187.12	299.673
1191.46	289.511
1195.8	280.27
1200.14	273.977
1204.47	292.238
1208.8	315.758
1213.13	324.381
1217.46	307.966
1221.78	281.22
1226.1	312.473
1230.42	268.844
1234.73	299.937
1239.04	238.622
1243.35	223.035
1247.66	201.123
1251.97	118.917
1256.27	141.421
1260.57	119.64
1264.86	66.5759
1269.16	35.2253
1273.45	56.5829
1277.74	10.3599
1282.03	42.3203
1286.31	28.2792
1290.59	11.3258
1294.87	45.2419
1299.14	24.5237
1303.42	20.5427
1307.69	8.60071
1311.95	16.1669
1316.22	24.9606
1320.48	38.9271
1324.74	20.0459
1329	14.0183
1333.26	45.0869
1337.51	23.3608
1341.76	26.7374
1346	54.2533
1350.25	12.936
1354.49	3.58447
1358.73	32.1099
1362.96	92.5071
1367.2	33.7815
1371.43	79.943
1375.66	75.0035
1379.88	76.9725
1384.11	42.8575
1388.33	86.6669
1392.54	162.153
1396.76	199.139
1400.97	144.369
1405.18	153.577
1409.39	141.948
1413.59	165.013
1417.8	115.713
1421.99	161.56
1426.19	115.341
1430.38	136.768
1434.58	135.138
1438.77	96.3844
1442.95	92.4194
1447.13	74.0815
1451.32	63.8854
1455.49	57.2471
1459.67	103.828
1463.84	63.3464
1468.01	72.2883
1472.18	48.2675
1476.35	85.1459
1480.51	65.8867
1484.67	46.507
1488.83	49.074
1492.98	54.7445
1497.13	126.794
1501.28	137.018
1505.43	113.388
1509.57	109.815
1513.71	83.6028
1517.85	132.825
1521.99	76.2621
1526.12	51.9283
1530.25	43.9445
1534.38	54.428
1538.5	66.4334
1542.62	74.0912
1546.74	36.5183
1550.86	97.9404
1554.98	139.721
1559.09	60.4263
1563.2	43.0753
1567.31	24.4984
