Measurement: Raman, 514 nm, ccw, Raman Data Processed
Mineral: Andradite
Rruff sample: R060449
Ideal chemistry: Ca_3_Fe^3+^_2_(SiO_4_)_3_
Locality: Namibia
Source: Gemological Institute of America
Description: Blue fragment, variety demantoid
Measured chemistry: Ca_3.00_(Fe^3+^_1.93_Al_0.07_)_Î£=2_(Si_1.00_O_4_)_3__
Pin_id: L01084
Orientation: Laser parallel to a* (1 0 0). Fiducial mark perpendicular to laser is parallel to c [0 0 1]
Raman shift (cm-1)	intensity
51.431	0
56.387	6.83814
61.341	14.748
66.292	8.10892
71.241	44.4401
76.187	56.0809
81.131	87.693
86.072	95.8857
91.012	122.041
95.948	122.344
100.883	126.212
105.815	179.797
110.744	221.57
115.671	132.635
120.596	125.092
125.519	81.4595
130.439	128.557
135.356	113.544
140.271	125.098
145.184	77.9439
150.094	85.0662
155.002	131.553
159.908	221.658
164.811	1145.46
169.711	2345.87
174.61	3889.58
179.505	1379.5
184.399	189.652
189.29	68.0355
194.178	53.682
199.064	69.9449
203.948	19.8199
208.829	36.9689
213.708	60.0509
218.585	23.9368
223.459	313.105
228.33	1501.44
233.199	2831.92
238.066	4468.54
242.93	703.245
247.792	39.0179
252.651	46.1533
257.508	170.676
262.363	445.624
267.215	742.716
272.064	47.9647
276.912	27.8162
281.756	50.8624
286.598	280.075
291.438	724.562
296.276	1023.97
301.111	1047.32
305.943	1665.88
310.773	3309.67
315.601	3547.68
320.426	1604.94
325.248	2096.83
330.068	1552.61
334.886	2021.64
339.701	4918.96
344.514	15957.4
349.324	29573.3
354.132	32689.4
358.938	21183.2
363.741	37276.4
368.541	55075.5
373.339	43130.8
378.135	17079.5
382.928	7565.64
387.718	3737.12
392.506	1811.92
397.292	1180.24
402.075	707.63
406.856	565.452
411.634	297.666
416.41	219.175
421.183	88.1166
425.954	54.5238
430.722	15.0382
435.488	12.3279
440.251	118.749
445.012	339.971
449.77	824.582
454.526	892.484
459.28	187.674
464.03	10.1512
468.779	32.9077
473.525	98.9364
478.268	425.245
483.009	1435.49
487.747	3466.36
492.483	5494.48
497.217	4317.11
501.948	3032.47
506.676	7515.11
511.402	17422
516.125	20722.9
520.846	10636.4
525.565	3801.24
530.281	1918.26
534.994	1307.13
539.705	1081.69
544.413	1081.48
549.119	1353.95
553.822	1511.75
558.523	909.629
563.222	769.517
567.917	1173.7
572.611	2006.02
577.302	2129.87
581.99	911.286
586.676	413.328
591.359	253.219
596.04	210.514
600.718	130.398
605.394	92.9336
610.067	55.8181
614.737	36.5393
619.406	16.5886
624.071	1.48608
628.734	16.3408
633.395	34.7902
638.053	18.705
642.708	5.45422
647.361	46.7125
652.012	8.18054
656.66	17.1871
661.305	49.3726
665.948	14.8563
670.588	6.43994
675.226	17.3496
679.861	4.71826
684.494	21.3875
689.124	8.75525
693.752	10.6656
698.377	1.01166
702.999	13.2292
707.619	28.3434
712.237	48.3951
716.852	20.3848
721.464	29.2954
726.074	0.110229
730.681	40.8171
735.286	20.4535
739.888	29.0072
744.488	31.4807
749.085	35.8691
753.68	5.17438
758.272	0.608948
762.861	16.2922
767.448	32.6574
772.033	73.5606
776.614	121.109
781.194	183.472
785.77	252.797
790.345	449.761
794.916	735.107
799.485	1144.72
804.052	1967.99
808.616	4165.47
813.177	7987.73
817.736	9213.12
822.292	5192.74
826.846	3843.08
831.397	4247.45
835.945	6736.55
840.491	10260.6
845.035	9762.19
849.576	6283.08
854.114	5493.69
858.65	7002.35
863.183	12734.9
867.713	31996.8
872.241	58599.8
876.767	48604.5
881.29	16079.5
885.81	5868.96
890.328	2950.73
894.843	1809.59
899.356	1283.62
903.866	971.16
908.373	805.702
912.878	566.836
917.38	457.487
921.88	384.221
926.377	274.553
930.872	228.371
935.364	91.71
939.853	94.2404
944.34	50.9156
948.824	90.6768
953.306	103.564
957.785	76.5819
962.261	106.792
966.735	123.12
971.207	173.527
975.675	184.044
980.141	254.651
984.605	459.403
989.066	874.281
993.524	1796.27
997.98	1799.4
1002.43	647.676
1006.88	287.081
1011.33	118.689
1015.78	65.2909
1020.22	78.035
1024.66	35.846
1029.1	16.1437
1033.53	6.22235
1037.97	41.141
1042.4	39.1357
1046.82	62.2801
1051.25	27.6574
1055.67	6.1264
1060.09	20.3679
1064.51	33.8507
1068.92	117.355
1073.33	147.883
1077.74	189.431
1082.15	216.997
1086.55	313.577
1090.95	318.167
1095.35	375.765
1099.75	395.365
1104.14	393.978
1108.53	338.597
1112.92	290.515
1117.31	279.031
1121.69	183.212
1126.07	177.614
1130.45	162.183
1134.82	124.199
1139.19	96.9468
1143.57	122.08
1147.93	91.0316
1152.3	137.456
1156.66	169.76
1161.02	210.099
1165.38	224.93
1169.73	252.655
1174.08	243.935
1178.43	317.089
1182.78	309.323
1187.12	300.594
1191.46	271.399
1195.8	288.514
1200.14	229.179
1204.47	246.792
1208.8	180.351
1213.13	184.855
1217.46	174.302
1221.78	103.692
1226.1	68.0239
1230.42	62.2962
1234.73	32.5083
1239.04	21.6591
1243.35	41.28
1247.66	12.8171
1251.97	5.77399
1256.27	6.77051
1260.57	14.1372
1264.86	9.69013
1269.16	7.29132
1273.45	23.0798
1277.74	10.7346
1282.03	22.3227
1286.31	8.85413
1290.59	41.3278
1294.87	60.7519
1299.14	48.171
1303.42	31.5989
1307.69	30.1117
1311.95	69.6885
1316.22	45.2931
1320.48	14.8942
1324.74	64.0864
1329	33.9913
1333.26	63.4646
1337.51	45.6637
1341.76	115.26
1346	58.582
1350.25	125.856
1354.49	142.088
1358.73	127.283
1362.96	154.436
1367.2	153.524
1371.43	142.244
1375.66	158.348
1379.88	125.131
1384.11	96.0228
1388.33	126.152
1392.54	116.716
1396.76	137.407
1400.97	163.904
1405.18	137.345
1409.39	136.442
1413.59	103.478
1417.8	91.6507
1421.99	92.9072
1426.19	63.2192
1430.38	64.8018
1434.58	80.2326
1438.77	67.9064
1442.95	57.8178
1447.13	80.1353
1451.32	25.9756
1455.49	52.7551
1459.67	42.4751
1463.84	41.1369
1468.01	39.7404
1472.18	19.3274
1476.35	46.1549
1480.51	33.1929
1484.67	54.5909
1488.83	57.7729
1492.98	48.1754
1497.13	41.0743
1501.28	33.0167
1505.43	54.9855
1509.57	24.9545
1513.71	11.0211
1517.85	28.2672
1521.99	68.7584
1526.12	30.5372
1530.25	43.5767
1534.38	59.4624
1538.5	23.3757
1542.62	3.28058
1546.74	17.6385
1550.86	17.5784
1554.98	9.21838
1559.09	17.8278
1563.2	10.965
1567.31	40.5819
