Measurement: Raman, 514 nm, ccw, Raman Data Processed
Mineral: Andradite
Rruff sample: R050256
Ideal chemistry: Ca_3_Fe^3+^_2_(SiO_4_)_3_
Locality: Franklin, Sussex County, New Jersey, USA
Source: Marcus Origlieri
Description: Reddish brown fragments
Measured chemistry: (Ca_2.27_Mn_0.73_)_Σ=3_(Fe^3+^_1.35_Al_0.65_)_Σ=2_(Si_1.00_O_4_)_3_
Pin_id: M00458
Orientation: Laser parallel to -c* (0 0 -1). Fiducial mark perpendicular to laser is parallel to a [1 0 0]
Raman shift (cm-1)	intensity
123.058	0
127.979	65.7473
132.898	66.3057
137.814	162.015
142.728	50.9885
147.639	68.8577
152.549	166.251
157.455	26.3945
162.359	230.565
167.261	755
172.161	867.082
177.058	942
181.952	707.298
186.845	702.681
191.734	475.956
196.622	520.995
201.507	605.33
206.389	405.532
211.269	720.273
216.147	1309.21
221.022	1933.68
225.895	2862.28
230.765	3914.64
235.633	4200.25
240.498	3185.64
245.361	1862.79
250.222	986.777
255.08	716.649
259.936	776.324
264.789	400.19
269.64	376.418
274.488	279.211
279.334	163.725
284.178	42.727
289.019	124.981
293.857	391.08
298.693	1046.65
303.527	1849.86
308.358	3022.67
313.187	3842.93
318.013	3859.54
322.837	3558.41
327.659	3914.46
332.478	4512.61
337.294	5533.8
342.108	7111.95
346.92	9971.02
351.729	14842
356.535	23580.8
361.34	37394.5
366.141	48731.4
370.94	50416.7
375.737	34766.2
380.531	17985.2
385.323	9069.4
390.113	4630.74
394.9	2390.04
399.684	1231.21
404.466	409.232
409.245	79.9062
414.022	144.265
418.797	154.645
423.569	43.8809
428.338	192.439
433.105	390.929
437.87	659.252
442.632	746.236
447.391	933.72
452.149	1137.63
456.903	920.251
461.655	789.405
466.405	396.16
471.152	568.09
475.897	1202.14
480.639	2245.26
485.378	3286.41
490.116	4228.52
494.85	4426.55
499.582	4251.46
504.312	4082.84
509.039	4920.73
513.764	7908.1
518.486	14122.9
523.206	21099.3
527.923	23680.2
532.638	17152.3
537.35	8040.6
542.059	4168.09
546.766	2892.07
551.471	2595.99
556.173	2343.37
560.873	2206.36
565.57	1557.99
570.264	1104.36
574.957	1024.26
579.646	1138.56
584.333	1257.25
589.018	1394.24
593.7	1633.18
598.379	1825.69
603.056	1998.11
607.73	1969.88
612.402	1975
617.072	1537.42
621.739	1003.12
626.403	585.063
631.065	269.206
635.724	147.52
640.381	102.974
645.035	27.7224
649.687	92.1536
654.336	85.6462
658.983	86.2959
663.627	93.189
668.268	6.34619
672.907	3.35815
677.544	9.87012
682.178	64.5701
686.809	5.08984
691.438	24.1799
696.065	67.4209
700.688	21.2051
705.31	23.2214
709.929	2.96655
714.545	64.5584
719.158	124.784
723.77	133.815
728.378	149.734
732.984	275.584
737.588	318.43
742.189	256.293
746.787	291.184
751.383	256.122
755.976	402.433
760.567	408.208
765.155	537.392
769.741	498.702
774.324	592.165
778.904	743.8
783.482	908.856
788.058	1146.38
792.631	1634.15
797.201	2595.24
801.769	4144.47
806.334	6120.3
810.897	9002.67
815.457	12154.5
820.014	14981.6
824.569	15510
829.122	13732
833.671	11044.8
838.219	9230.11
842.763	9229.07
847.306	10594.8
851.845	11234.7
856.382	10080.9
860.917	9313.19
865.448	8412.91
869.978	9431.24
874.505	12418
879.029	17103.8
883.55	20030.9
888.069	16485.2
892.586	9974.69
897.1	5891.46
901.611	3883.59
906.12	2651.95
910.626	2141.2
915.129	1610.72
919.63	1484.08
924.129	1410.85
928.625	1577.7
933.118	1819.16
937.609	2229.71
942.097	2219.98
946.582	1865.79
951.065	1284.39
955.546	1093.28
960.023	1289.75
964.499	1667
968.971	1997.86
973.441	2524.35
977.909	3021.44
982.374	3435.29
986.836	3470.82
991.295	3640.92
995.753	4057.62
1000.21	4595.92
1004.66	4086.68
1009.11	2651.92
1013.55	1354.66
1018	771.984
1022.44	547.202
1026.88	320.516
1031.32	55.6633
1035.75	6.89185
1040.18	16.4856
1044.61	7.4939
1049.04	52.1958
1053.46	90.7891
1057.88	79.5439
1062.3	99.5151
1066.71	35.6448
1071.13	63.8367
1075.54	21.2739
1079.94	13.1719
1084.35	3.58081
1088.75	85.0469
1093.15	100.647
1097.55	186.36
1101.94	232.166
1106.34	305.04
1110.73	331.961
1115.11	391.959
1119.5	822.914
1123.88	1062.67
1128.26	369.197
1132.63	203.865
1137.01	204.251
1141.38	273.159
1145.75	108.601
1150.12	133.959
1154.48	150.889
1158.84	100.126
1163.2	102.43
1167.55	158.18
1171.91	213.276
1176.26	154.981
1180.61	156.699
1184.95	305.008
1189.29	330.14
1193.63	303.606
1197.97	299.116
1202.31	259.498
1206.64	297.372
1210.97	255.697
1215.29	347.151
1219.62	290.219
1223.94	309.166
1228.26	317.753
1232.57	286.094
1236.89	306.182
1241.2	140.022
1245.51	154.592
1249.81	188.896
1254.12	61.0776
1258.42	23.3601
1262.72	27.3455
1267.01	24.9863
1271.3	7.24072
1275.59	15.0161
1279.88	25.074
1284.17	29.6602
1288.45	25.4836
1292.73	5.16064
1297.01	124.134
1301.28	16.0989
1305.55	36.7378
1309.82	12.9009
1314.09	57.2571
1318.35	67.3731
1322.61	133.477
1326.87	88.5405
1331.13	85.4197
1335.38	81.2798
1339.63	84.0251
1343.88	149.614
1348.12	81.9805
1352.37	161.094
1356.61	177.96
1360.85	173.588
1365.08	178.983
1369.31	139.162
1373.54	151.085
1377.77	229.863
1381.99	190.107
1386.22	333.871
1390.43	184.714
1394.65	203.27
1398.87	176.332
1403.08	175.992
1407.29	221.801
1411.49	161.117
1415.69	160.394
1419.89	231.397
1424.09	197.583
1428.29	186.174
1432.48	100.143
1436.67	200.835
1440.86	156.75
1445.04	184.123
1449.23	135.498
1453.4	76.6028
1457.58	166.708
1461.76	129.812
1465.93	126.704
1470.1	145.247
1474.26	137.428
1478.43	48.4048
1482.59	122.592
1486.75	75.771
1490.9	119.514
1495.06	41.9273
1499.21	42.1148
1503.35	88.6902
1507.5	60.4763
1511.64	84.1807
1515.78	30.1668
1519.92	87.2551
1524.05	41.5732
1528.18	94.2673
1532.31	0.395752
1536.44	149.907
1540.56	27.8242
1544.69	9.58496
1548.8	95.2419
1552.92	168.671
1557.03	182.623
1561.14	140.554
1565.25	0.429688
1569.36	32.822
