Measurement: Raman, 514 nm, ccw, Raman Data Processed
Mineral: Andradite
Rruff sample: R060326
Ideal chemistry: Ca_3_Fe^3+^_2_(SiO_4_)_3_
Locality: Ultevis, Sweden
Source: Marcus Origlieri
Description: Reddish-brown colored druse of crystals associated with white svabite R050180
Measured chemistry: (Ca_2.98_Mn_0.02_)_Σ=3_(Fe^3+^_1.75_Al_0.21_Ti_0.04_)_Σ=2_(Si_1.00_O_4_)_3_
Pin_id: M00248
Orientation: Laser parallel to (0 -1 -1). Fiducial mark perpendicular to laser is parallel to a [1 0 0]
Raman shift (cm-1)	intensity
99.649	0
104.582	84.2842
109.512	177.593
114.44	191.338
119.365	154.997
124.288	7.66455
129.209	67.6387
134.127	22.2373
139.043	67.0947
143.956	105.321
148.867	2.71387
153.775	207.704
158.681	199.861
163.585	317.508
168.486	1282.01
173.385	2078.89
178.282	1151.98
183.176	425.488
188.067	284.37
192.956	231.375
197.843	189.64
202.727	141.922
207.609	47.3691
212.489	46.1982
217.366	36.7324
222.24	203.264
227.112	508.838
231.982	1133.78
236.849	1233.66
241.714	251.861
246.577	37.2705
251.437	22.9814
256.294	81.2578
261.149	387.82
266.002	388.62
270.852	418.962
275.7	248.51
280.545	333.488
285.388	329.403
290.229	729.349
295.067	926.695
299.902	856.477
304.735	961.372
309.566	1611.95
314.394	1670.94
319.22	1516.05
324.043	1818.05
328.864	1925.85
333.682	2669.88
338.498	4328.06
343.311	9382.41
348.122	19221.1
352.931	22605.9
357.737	18581.2
362.54	27846.9
367.341	44796.6
372.14	32337.6
376.936	14497.2
381.73	7129.16
386.521	4006.36
391.31	2192.01
396.096	1184.34
400.88	441.816
405.661	406.546
410.44	130.611
415.216	102.217
419.99	139.385
424.761	33.9541
429.53	52.2637
434.297	160.718
439.061	113.907
443.822	50.3359
448.581	228.972
453.337	300.794
458.091	31.2031
462.843	17.1396
467.592	42.9688
472.338	288.334
477.082	788.802
481.824	1162.43
486.563	2208.21
491.3	3002.34
496.034	2848.46
500.765	2143.88
505.494	3116.64
510.221	7465.74
514.945	15851.2
519.666	13770.2
524.385	5873.72
529.102	2556.36
533.816	1440.18
538.527	1226
543.236	1048.9
547.943	1003.16
552.647	938.531
557.348	745.791
562.047	588.476
566.744	587.838
571.438	1194.49
576.129	1583.57
580.818	1077.57
585.504	892.438
590.188	693.177
594.87	771.775
599.549	479.403
604.225	673.84
608.899	409.918
613.57	279.932
618.239	197.794
622.905	146.498
627.569	26.0479
632.23	283.745
636.889	203.642
641.545	35.7002
646.198	190.593
650.849	38.167
655.498	72.5361
660.144	196.936
664.787	142.182
669.428	47.7861
674.067	7.33594
678.703	23.4629
683.336	63.1738
687.967	101.694
692.595	15.8418
697.221	41.7881
701.844	26.4775
706.465	57.3877
711.083	88.1494
715.698	235.721
720.311	140.177
724.922	351.525
729.53	377.773
734.135	418.928
738.738	335.999
743.338	427.065
747.936	274.081
752.531	385.088
757.124	417.038
761.714	513.035
766.302	360.969
770.887	526.175
775.469	585.498
780.049	607.136
784.626	633.93
789.201	754.869
793.773	1126.62
798.343	1771.24
802.91	2391.51
807.475	3452.35
812.037	4753.28
816.596	5002.93
821.153	4146.23
825.707	3211.37
830.259	3304.33
834.808	4095.5
839.355	5123.32
843.899	5374.1
848.441	4964.62
852.98	5395.81
857.516	6569.22
862.05	9924.84
866.581	17274.7
871.11	29518.8
875.636	30026.1
880.159	16934.7
884.68	7887.22
889.199	4033.26
893.714	2238.53
898.228	1533.62
902.738	1181.81
907.246	682.22
911.752	402.799
916.255	598.628
920.755	438.102
925.253	522.215
929.748	790.51
934.241	553.537
938.731	462.695
943.218	235.496
947.703	356.681
952.186	343.142
956.665	567.017
961.142	445.255
965.617	616.896
970.089	699.018
974.558	591.549
979.025	714.222
983.489	782.055
987.951	943.153
992.41	1247.32
996.866	1468.68
1001.32	639.196
1005.77	380.555
1010.22	264.148
1014.67	78.7861
1019.11	123
1023.55	102.908
1027.99	74.5059
1032.42	40.7988
1036.86	80.7978
1041.29	80.5107
1045.72	8.61426
1050.14	18.2588
1054.56	73.6465
1058.98	78.3115
1063.4	27.4785
1067.82	4.10059
1072.23	155.498
1076.64	216.634
1081.05	304.677
1085.45	197.728
1089.85	477.435
1094.25	325.081
1098.65	371.239
1103.04	526.16
1107.43	517.666
1111.82	187.277
1116.21	254.232
1120.59	505.306
1124.97	291.282
1129.35	383.39
1133.73	358.891
1138.1	203.748
1142.47	349.307
1146.84	302.092
1151.21	103.978
1155.57	339.978
1159.93	335.353
1164.29	135.939
1168.64	294.967
1172.99	357.333
1177.34	323.08
1181.69	400.512
1186.04	358.82
1190.38	168.287
1194.72	314.031
1199.05	313.193
1203.39	237.82
1207.72	253.334
1212.05	370.986
1216.37	105.352
1220.7	238.285
1225.02	55.0254
1229.34	2.52539
1233.65	60.6504
1237.97	9.74414
1242.28	29.4844
1246.59	68.8731
1250.89	71.8848
1255.19	77.2793
1259.49	4.9668
1263.79	142.938
1268.09	28.9297
1272.38	47.5098
1276.67	81.1426
1280.95	126.262
1285.24	74.2852
1289.52	130.19
1293.8	317.965
1298.08	153.949
1302.35	249.949
1306.62	206.303
1310.89	75.5098
1315.15	264.961
1319.42	229.297
1323.68	243.012
1327.94	157.469
1332.19	333.99
1336.44	132.279
1340.69	25.4258
1344.94	339.557
1349.19	186.51
1353.43	203.273
1357.67	377.371
1361.9	314.781
1366.14	185.715
1370.37	498.965
1374.6	333.756
1378.83	321.793
1383.05	158.426
1387.27	240.035
1391.49	173.473
1395.7	364.438
1399.92	256.738
1404.13	151.791
1408.34	348.592
1412.54	260.777
1416.74	120.99
1420.94	231.742
1425.14	347.922
1429.34	348.406
1433.53	30.4102
1437.72	345.088
1441.9	350.293
1446.09	168.746
1450.27	261.762
1454.45	319.391
1458.63	192.91
1462.8	375.203
1466.97	199.588
1471.14	67.8594
1475.31	221.565
1479.47	331.6
1483.63	253.096
1487.79	300.785
1491.94	129.609
1496.09	180.66
1500.24	74.291
1504.39	223.338
1508.54	112.111
1512.68	106.475
1516.82	287.348
1520.95	147.75
1525.09	143.688
1529.22	168.609
1533.35	130.434
1537.47	45.1289
1541.6	280.67
1545.72	220.478
1549.83	120.672
1553.95	181.315
1558.06	313.133
1562.17	272.781
1566.28	14.9473
1570.38	0
