Measurement: Raman, 514 nm, ccw, Raman Data Processed
Mineral: Andradite
Rruff sample: R060358
Ideal chemistry: Ca_3_Fe^3+^_2_(SiO_4_)_3_
Locality: Soghan, near Jiroft, Kerman, Iran
Source: Herb Obodda
Description: Green dodecahedron
Measured chemistry: Ca_3.00_(Fe^3+^_1.89_Cr_0.11_)_Î£=2_(Si_1.00_O_4_)_3_
Pin_id: L01104
Orientation: Laser parallel to -b* (0 -1 0). Fiducial mark perpendicular to laser is parallel to c [0 0 1]
Raman shift (cm-1)	intensity
51.431	0
56.387	20.0583
61.341	20.4708
66.292	7.06134
71.241	90.1887
76.187	78.5981
81.131	78.6029
86.072	105.774
91.012	146.62
95.948	148.563
100.883	125.238
105.815	181.005
110.744	242.055
115.671	147.194
120.596	86.9932
125.519	96.582
130.439	100.032
135.356	97.4013
140.271	83.8567
145.184	64.4623
150.094	52.1771
155.002	80.5702
159.908	76.7952
164.811	175.695
169.711	610.462
174.61	3234.84
179.505	856.412
184.399	167.172
189.29	157.126
194.178	152.299
199.064	156.762
203.948	129.47
208.829	13.0384
213.708	10.3498
218.585	4.44061
223.459	76.4797
228.33	420.704
233.199	1376.09
238.066	4015.63
242.93	545.299
247.792	65.0888
252.651	35.0261
257.508	20.8307
262.363	258.748
267.215	763.783
272.064	79.9474
276.912	12.7855
281.756	27.027
286.598	4.54132
291.438	141.89
296.276	438.407
301.111	488.916
305.943	528.489
310.773	1773.24
315.601	2936.04
320.426	1063.99
325.248	1747.91
330.068	1141.25
334.886	1005.78
339.701	1401.51
344.514	2899.43
349.324	8097.59
354.132	16987.2
358.938	9084.19
363.741	12575.8
368.541	38647.8
373.339	45970.1
378.135	14977.6
382.928	6298.35
387.718	3100.35
392.506	1522.59
397.292	1015.27
402.075	617.151
406.856	400.14
411.634	296.424
416.41	169.995
421.183	127.684
425.954	71.7629
430.722	31.97
435.488	51.9175
440.251	40.6262
445.012	176.553
449.77	520.687
454.526	852.027
459.28	203.568
464.03	31.3077
468.779	27.2308
473.525	59.3239
478.268	168.602
483.009	378.06
487.747	1063.7
492.483	2798.18
497.217	2747.34
501.948	1616.64
506.676	2137.15
511.402	6399.83
516.125	20463.1
520.846	11245.6
525.565	3578.87
530.281	1649.85
534.994	1056.3
539.705	823.451
544.413	790.156
549.119	852.53
553.822	1131.46
558.523	733.797
563.222	365.692
567.917	373.947
572.611	570.197
577.302	1205.55
581.99	621.809
586.676	317.422
591.359	219.227
596.04	168.691
600.718	127.397
605.394	136.089
610.067	87.7737
614.737	41.8828
619.406	18.2748
624.071	1.18982
628.734	20.2394
633.395	14.8496
638.053	2.37811
642.708	11.4454
647.361	6.64771
652.012	4.31683
656.66	16.3398
661.305	12.498
665.948	5.83643
670.588	9.29529
675.226	12.9041
679.861	11.6964
684.494	15.3657
689.124	18.7102
693.752	8.04938
698.377	10.2305
702.999	6.33618
707.619	20.7454
712.237	21.8462
716.852	22.8339
721.464	10.7373
726.074	11.5462
730.681	15.2756
735.286	3.93024
739.888	9.50812
744.488	33.0142
749.085	29.4614
753.68	31.8505
758.272	21.1771
762.861	0.559021
767.448	2.46588
772.033	21.1736
776.614	70.058
781.194	87.3396
785.77	110.258
790.345	209.849
794.916	383.706
799.485	602.407
804.052	1053.66
808.616	1962.66
813.177	4420.29
817.736	7079.63
822.292	4581.67
826.846	2741.51
831.397	2428.09
835.945	3318.55
840.491	5809.91
845.035	7123.63
849.576	4621.68
854.114	3012.7
858.65	2832.78
863.183	3628.67
867.713	6296.46
872.241	15406.4
876.767	25538.5
881.29	10595.6
885.81	3665.97
890.328	1666.35
894.843	906.785
899.356	562.977
903.866	427.664
908.373	337.795
912.878	278.4
917.38	225.953
921.88	175.85
926.377	180.558
930.872	148.45
935.364	137.197
939.853	96.4707
944.34	63.8396
948.824	92.3283
953.306	77.9349
957.785	115.639
962.261	153.462
966.735	158.448
971.207	207.563
975.675	258.796
980.141	303.117
984.605	386.507
989.066	617.965
993.524	1354.51
997.98	1707.15
1002.43	632.913
1006.88	277.798
1011.33	132.81
1015.78	104.916
1020.22	75.0889
1024.66	46.3171
1029.1	20.6058
1033.53	14.9457
1037.97	9.34125
1042.4	14.2299
1046.82	18.8636
1051.25	26.5902
1055.67	7.42773
1060.09	12.2766
1064.51	11.1847
1068.92	46.9038
1073.33	72.0227
1077.74	97.1689
1082.15	107.124
1086.55	173.533
1090.95	171.745
1095.35	200.973
1099.75	243.215
1104.14	242.466
1108.53	239.725
1112.92	222.229
1117.31	231.043
1121.69	205.398
1126.07	209.553
1130.45	118.061
1134.82	59.4674
1139.19	46.1084
1143.57	53.2006
1147.93	56.8379
1152.3	57.057
1156.66	65.3905
1161.02	102.076
1165.38	119.153
1169.73	125.67
1174.08	159.896
1178.43	158.022
1182.78	166.923
1187.12	152.757
1191.46	163.611
1195.8	160.619
1200.14	169.45
1204.47	121.229
1208.8	171.953
1213.13	120.644
1217.46	97.3018
1221.78	55.7996
1226.1	55.5094
1230.42	36.0579
1234.73	48.5685
1239.04	28.0406
1243.35	24.468
1247.66	15.8413
1251.97	10.1631
1256.27	0.407837
1260.57	4.44922
1264.86	1.52948
1269.16	3.33697
1273.45	9.00391
1277.74	22.55
1282.03	3.05518
1286.31	4.48511
1290.59	4.08466
1294.87	33.2699
1299.14	15.5925
1303.42	1.10339
1307.69	36.2145
1311.95	14.5777
1316.22	20.9769
1320.48	31.3725
1324.74	20.7777
1329	16.1553
1333.26	27.4965
1337.51	41.8013
1341.76	74.0696
1346	47.3012
1350.25	61.496
1354.49	78.6548
1358.73	77.781
1362.96	83.8807
1367.2	92.9578
1371.43	87.5474
1375.66	87.2532
1379.88	66.1466
1384.11	68.9847
1388.33	62.4208
1392.54	98.6166
1396.76	106.263
1400.97	82.6409
1405.18	72.0472
1409.39	80.833
1413.59	85.2268
1417.8	66.701
1421.99	50.7604
1426.19	64.6685
1430.38	45.235
1434.58	35.4914
1438.77	18.8157
1442.95	44.2302
1447.13	31.1364
1451.32	22.9063
1455.49	20.6622
1459.67	25.384
1463.84	23.0572
1468.01	19.6818
1472.18	40.2618
1476.35	39.9841
1480.51	30.4545
1484.67	56.0477
1488.83	37.5523
1492.98	40.7975
1497.13	45.1096
1501.28	31.4653
1505.43	27.6965
1509.57	23.1195
1513.71	31.6683
1517.85	13.1931
1521.99	25.8481
1526.12	12.6809
1530.25	5.69391
1534.38	37.8534
1538.5	24.1794
1542.62	1.27246
1546.74	21.5707
1550.86	21.768
1554.98	58.4023
1559.09	8.24365
1563.2	1.13355
1567.31	7.1087
