Measurement: Raman, 514 nm, ccw, Raman Data Processed
Mineral: Andradite
Rruff sample: R060423
Ideal chemistry: Ca_3_Fe^3+^_2_(SiO_4_)_3_
Locality: Mali
Source: Greg Schmidt
Description: Black dodecahedron
Measured chemistry: (Ca_2.93_Mg_0.04_Mn_0.03_)_Σ=3_(Fe^3+^_0.99_Al_0.95_Ti_0.06_)_Σ=2_((Si_0.98_Fe^3+^_0.02_)_Σ=1_O_4_)_3_
Pin_id: L01089
Orientation: Laser parallel to a* (1 0 0). Fiducial mark perpendicular to laser is parallel to c [0 0 1]
Raman shift (cm-1)	intensity
91.012	0
95.948	117.068
100.883	44.8452
105.815	823.748
110.744	645.113
115.671	309.457
120.596	3.32324
125.519	36.572
130.439	19.4536
135.356	46.5044
140.271	187.088
145.184	60.2612
150.094	16.3867
155.002	114.717
159.908	147.298
164.811	746.131
169.711	2307.38
174.61	4897.94
179.505	2767.19
184.399	1209.29
189.29	842.283
194.178	918.436
199.064	799.692
203.948	765.126
208.829	299.82
213.708	226.839
218.585	527.227
223.459	1348.01
228.33	2773.19
233.199	4448.19
238.066	5627.23
242.93	4385.75
247.792	2153.23
252.651	1396.7
257.508	1300.89
262.363	1731.03
267.215	2615.47
272.064	3140.3
276.912	3016.27
281.756	2497.55
286.598	2058.42
291.438	1955.13
296.276	2165.5
301.111	2375.11
305.943	2515.75
310.773	3270.36
315.601	4919.91
320.426	5741.39
325.248	4940.81
330.068	4684.15
334.886	4969.37
339.701	5287.39
344.514	6587.2
349.324	10822.8
354.132	20602.1
358.938	34790.1
363.741	38268.8
368.541	49945.2
373.339	44817.2
378.135	23310.8
382.928	11437
387.718	6743.96
392.506	4769.86
397.292	4493.68
402.075	3850.35
406.856	1940.09
411.634	571.541
416.41	16.8911
421.183	250.272
425.954	285.634
430.722	184.311
435.488	77.189
440.251	433.206
445.012	577.473
449.77	583.442
454.526	581.85
459.28	548.476
464.03	458.764
468.779	219.183
473.525	231.852
478.268	750.726
483.009	1611.76
487.747	2547.92
492.483	2509.15
497.217	2272.41
501.948	1774.66
506.676	1256.85
511.402	891.951
516.125	1241.91
520.846	2513.69
525.565	5812.24
530.281	12488.5
534.994	13266.5
539.705	5329.09
544.413	1842.49
549.119	1271.85
553.822	1290.5
558.523	1655.05
563.222	1546.3
567.917	1122.99
572.611	865.513
577.302	579.248
581.99	515.619
586.676	629.658
591.359	1025.33
596.04	1656.06
600.718	2075.41
605.394	2390.32
610.067	2537.76
614.737	2669.84
619.406	2453.12
624.071	1668.98
628.734	798.233
633.395	374.867
638.053	256.32
642.708	310.164
647.361	477.787
652.012	488.704
656.66	458.897
661.305	283.353
665.948	262.059
670.588	408.004
675.226	390.177
679.861	350.568
684.494	68.1299
689.124	153.87
693.752	144.827
698.377	199.297
702.999	201.341
707.619	202.517
712.237	224.677
716.852	132.914
721.464	47.8721
726.074	161.127
730.681	344.071
735.286	638.244
739.888	954.674
744.488	1389.38
749.085	1835.38
753.68	2410.7
758.272	3371.35
762.861	4499.36
767.448	4642.74
772.033	3850.55
776.614	3132.95
781.194	2804.14
785.77	2961.17
790.345	3514.98
794.916	4644.69
799.485	6870.41
804.052	9951.77
808.616	13763.7
813.177	17820.3
817.736	20954
822.292	20792.9
826.846	17874.3
831.397	14906.6
835.945	12648
840.491	11708.8
845.035	11416.8
849.576	11175.9
854.114	11084.7
858.65	12530.4
863.183	15729
867.713	20998.1
872.241	28087.1
876.767	31653.6
881.29	26737.5
885.81	18827
890.328	12969.9
894.843	9449.4
899.356	6998.41
903.866	5124.98
908.373	4137.69
912.878	3477.3
917.38	3292.11
921.88	3068.61
926.377	3086.77
930.872	3320.76
935.364	3706.89
939.853	3737.18
944.34	3351.95
948.824	2688.14
953.306	1838.94
957.785	1709.96
962.261	2283.01
966.735	2976.84
971.207	3635.1
975.675	4130.27
980.141	4396.36
984.605	4424.19
989.066	4398.61
993.524	4453.3
997.98	4429.84
1002.43	4093.79
1006.88	2516.1
1011.33	1281.75
1015.78	761.758
1020.22	782.145
1024.66	1004.55
1029.1	523.762
1033.53	92.9392
1037.97	18.3042
1042.4	95.0735
1046.82	102.791
1051.25	120.073
1055.67	46.9273
1060.09	116.274
1064.51	100.401
1068.92	69.3201
1073.33	108.918
1077.74	34.3667
1082.15	47.5032
1086.55	3.34815
1090.95	14.3049
1095.35	60.6763
1099.75	160.737
1104.14	194.615
1108.53	188.287
1112.92	315.709
1117.31	474.839
1121.69	699.641
1126.07	593.081
1130.45	406.168
1134.82	360.979
1139.19	339.334
1143.57	379.53
1147.93	325.664
1152.3	316.663
1156.66	312.509
1161.02	274.368
1165.38	242.611
1169.73	247.443
1174.08	240.732
1178.43	267.405
1182.78	262.77
1187.12	301.924
1191.46	270.984
1195.8	246.814
1200.14	273.569
1204.47	279.836
1208.8	266.667
1213.13	267.624
1217.46	234.816
1221.78	352.127
1226.1	288.273
1230.42	240.636
1234.73	252.953
1239.04	211.813
1243.35	189.414
1247.66	248.566
1251.97	127.37
1256.27	124.83
1260.57	126.953
1264.86	59.7411
1269.16	26.1257
1273.45	41.098
1277.74	42.3766
1282.03	25.5955
1286.31	21.2209
1290.59	35.4736
1294.87	26.3989
1299.14	1.0227
1303.42	16.2035
1307.69	2.401
1311.95	27.6736
1316.22	33.9962
1320.48	2.42664
1324.74	44.0243
1329	60.7554
1333.26	21.6193
1337.51	38.6951
1341.76	19.8992
1346	49.2434
1350.25	58.6036
1354.49	21.8911
1358.73	83.0999
1362.96	52.1637
1367.2	22.0941
1371.43	112.901
1375.66	103.597
1379.88	144.192
1384.11	126.698
1388.33	126.355
1392.54	113.117
1396.76	132.985
1400.97	191.014
1405.18	181.409
1409.39	146.379
1413.59	162.081
1417.8	38.474
1421.99	214.106
1426.19	145.154
1430.38	117.907
1434.58	151.313
1438.77	130.585
1442.95	137.698
1447.13	64.605
1451.32	104.068
1455.49	84.1007
1459.67	59.0786
1463.84	33.1692
1468.01	27.6589
1472.18	47.9751
1476.35	34.2383
1480.51	66.3319
1484.67	83.3374
1488.83	29.5221
1492.98	116.054
1497.13	63.7064
1501.28	111.559
1505.43	95.6725
1509.57	164.816
1513.71	107.198
1517.85	70.839
1521.99	135.637
1526.12	81.6451
1530.25	57.9766
1534.38	114.666
1538.5	7.74377
1542.62	45.2665
1546.74	57.3267
1550.86	24.0727
1554.98	83.3474
1559.09	3.86963
1563.2	23.8501
1567.31	47.6735
