Measurement: Raman, 514 nm, ccw, Raman Data Processed
Mineral: Andradite
Rruff sample: R060358
Ideal chemistry: Ca_3_Fe^3+^_2_(SiO_4_)_3_
Locality: Soghan, near Jiroft, Kerman, Iran
Source: Herb Obodda
Description: Green dodecahedron
Measured chemistry: Ca_3.00_(Fe^3+^_1.89_Cr_0.11_)_Î£=2_(Si_1.00_O_4_)_3_
Pin_id: L01104
Orientation: Laser parallel to -b* (0 -1 0). Fiducial mark perpendicular to laser is parallel to c [0 0 1]
Raman shift (cm-1)	intensity
51.431	0
56.387	6.19357
61.341	2.78159
66.292	4.13141
71.241	70.8984
76.187	76.4275
81.131	77.5771
86.072	107.863
91.012	167.958
95.948	151.19
100.883	100.965
105.815	165.47
110.744	202.309
115.671	130.999
120.596	98.1781
125.519	64.0106
130.439	99.2919
135.356	84.0787
140.271	91.9081
145.184	64.8829
150.094	79.0149
155.002	79.5983
159.908	82.9463
164.811	269.93
169.711	1024.27
174.61	3762.59
179.505	1050.69
184.399	209.001
189.29	177.512
194.178	142.228
199.064	105.344
203.948	108.85
208.829	42.9166
213.708	37.0064
218.585	22.6788
223.459	152.561
228.33	795.629
233.199	2924.86
238.066	6318.26
242.93	869.765
247.792	53.3818
252.651	16.8846
257.508	32.9432
262.363	563.879
267.215	1256.93
272.064	117.123
276.912	5.59613
281.756	21.6318
286.598	34.6951
291.438	33.3381
296.276	274.553
301.111	450.928
305.943	938.488
310.773	3352.24
315.601	4448.94
320.426	1507.71
325.248	2455.7
330.068	1255.91
334.886	833.359
339.701	1056.04
344.514	2087.95
349.324	5002.12
354.132	9143.88
358.938	7772.11
363.741	15918.1
368.541	47432.3
373.339	50360.8
378.135	16467.5
382.928	6393.45
387.718	2944.76
392.506	1574.32
397.292	1028.68
402.075	657.59
406.856	433.991
411.634	307.673
416.41	198.701
421.183	129.157
425.954	55.0543
430.722	16.3871
435.488	31.6123
440.251	119.04
445.012	265.735
449.77	1012.7
454.526	1344.92
459.28	306.394
464.03	55.1084
468.779	19.062
473.525	96.2433
478.268	195.612
483.009	453.234
487.747	1223.09
492.483	3040.7
497.217	3221.69
501.948	1856.18
506.676	2784.45
511.402	8699.92
516.125	23633.4
520.846	12505.5
525.565	4065.36
530.281	1864.2
534.994	1275.24
539.705	983.202
544.413	899.528
549.119	1209.63
553.822	1689.16
558.523	964.486
563.222	415.555
567.917	338.825
572.611	419.119
577.302	665.85
581.99	392.118
586.676	224.18
591.359	224.853
596.04	194.994
600.718	128.435
605.394	147.447
610.067	100.828
614.737	45.1838
619.406	24.5116
624.071	11.1758
628.734	9.9054
633.395	10.2112
638.053	25.855
642.708	35.8644
647.361	13.1907
652.012	0.361267
656.66	1.39087
661.305	38.9166
665.948	3.5517
670.588	10.8176
675.226	0.99762
679.861	3.9223
684.494	7.01715
689.124	23.6678
693.752	6.15338
698.377	4.63806
702.999	2.70795
707.619	13.0535
712.237	0.709167
716.852	20.2622
721.464	14.2695
726.074	18.0404
730.681	16.7656
735.286	40.2801
739.888	35.2373
744.488	20.0947
749.085	47.8654
753.68	77.5589
758.272	58.2123
762.861	27.2658
767.448	3.27283
772.033	48.48
776.614	100.671
781.194	143.13
785.77	215.206
790.345	320.95
794.916	554.23
799.485	887.548
804.052	1555.1
808.616	3063.47
813.177	7135.28
817.736	10667.3
822.292	6594.2
826.846	3729.53
831.397	3353.39
835.945	4892.21
840.491	8705.08
845.035	10077.5
849.576	6068.99
854.114	3388.15
858.65	2594.96
863.183	2731.85
867.713	4418.27
872.241	10396.4
876.767	15640.8
881.29	6725.56
885.81	2287.11
890.328	1076.72
894.843	560.402
899.356	433.149
903.866	283.489
908.373	213.975
912.878	184.143
917.38	177.05
921.88	105.235
926.377	93.928
930.872	101.945
935.364	129.473
939.853	86.0797
944.34	54.8091
948.824	81.6085
953.306	98.4989
957.785	103.518
962.261	143.668
966.735	170.972
971.207	298.437
975.675	330.067
980.141	414.795
984.605	488.602
989.066	906.518
993.524	2044.56
997.98	2391.75
1002.43	866.081
1006.88	363.564
1011.33	180.135
1015.78	169.805
1020.22	72.5402
1024.66	54.3416
1029.1	22.2001
1033.53	19.1092
1037.97	7.0694
1042.4	13.9293
1046.82	3.93365
1051.25	62.9657
1055.67	15.2001
1060.09	19.6079
1064.51	10.8986
1068.92	13.4249
1073.33	66.9776
1077.74	117.555
1082.15	142.155
1086.55	157.775
1090.95	193.412
1095.35	219.064
1099.75	259.725
1104.14	272.394
1108.53	270.121
1112.92	272.813
1117.31	224.273
1121.69	189.837
1126.07	201.574
1130.45	107.356
1134.82	99.5618
1139.19	78.7952
1143.57	58.3408
1147.93	89.4099
1152.3	56.7146
1156.66	104.467
1161.02	135.879
1165.38	126.234
1169.73	178.616
1174.08	195.728
1178.43	205.285
1182.78	209.669
1187.12	206.717
1191.46	182.317
1195.8	170.872
1200.14	175.871
1204.47	173.863
1208.8	140.797
1213.13	154.692
1217.46	131.546
1221.78	75.3584
1226.1	47.1277
1230.42	58.8535
1234.73	26.535
1239.04	19.1701
1243.35	15.7586
1247.66	2.29352
1251.97	0.682251
1256.27	8.06024
1260.57	3.95526
1264.86	17.0265
1269.16	6.75336
1273.45	2.56616
1277.74	7.03003
1282.03	16.5643
1286.31	21.0386
1290.59	28.4664
1294.87	38.8552
1299.14	22.2064
1303.42	12.5324
1307.69	31.8461
1311.95	27.1794
1316.22	0.398193
1320.48	27.0994
1324.74	13.5932
1329	62.0498
1333.26	26.4684
1337.51	67.8489
1341.76	39.1915
1346	81.4959
1350.25	63.7624
1354.49	108.994
1358.73	97.1973
1362.96	112.377
1367.2	96.4802
1371.43	105.585
1375.66	104.694
1379.88	80.8198
1384.11	58.2933
1388.33	79.508
1392.54	87.2006
1396.76	90.9675
1400.97	120.703
1405.18	91.6612
1409.39	72.0365
1413.59	52.9038
1417.8	58.0802
1421.99	43.3245
1426.19	35.5316
1430.38	42.7952
1434.58	25.216
1438.77	19.7274
1442.95	26.2892
1447.13	40.254
1451.32	21.044
1455.49	10.9166
1459.67	18.7638
1463.84	28.5667
1468.01	28.3257
1472.18	54.0433
1476.35	34.8192
1480.51	47.815
1484.67	61.1221
1488.83	27.6144
1492.98	55.1988
1497.13	52.831
1501.28	40.4941
1505.43	30.1849
1509.57	20.8746
1513.71	49.6603
1517.85	19.5748
1521.99	7.66315
1526.12	61.9733
1530.25	49.4837
1534.38	61.1762
1538.5	21.0883
1542.62	39.2987
1546.74	8.89612
1550.86	31.959
1554.98	61.6196
1559.09	17.8379
1563.2	32.4454
1567.31	3.60129
