Measurement: Raman, 514 nm, ccw, Raman Data Processed
Mineral: Andradite
Rruff sample: R060350
Ideal chemistry: Ca_3_Fe^3+^_2_(SiO_4_)_3_
Locality: south of the Gem mine, southern San Benito County, California, USA
Source: Michael Scott
Description: Cluster of black vitreous crystals showing well-developed faces
Measured chemistry: (Ca_2.93_Mg_0.07_)_Σ=3_(Fe^3+^_1.18_Ti_0.77_Al_0.05_)_Σ=2_((Si_0.74_Fe^3+^_0.26_)_Σ=1_O_4_)_3_ ; trace amounts of Mn
Pin_id: M00067
Orientation: Laser parallel to a* (1 0 0). Fiducial mark perpendicular to laser is parallel to c [0 0 1]
Raman shift (cm-1)	intensity
114.44	0
119.365	269.082
124.288	1018.71
129.209	807.974
134.127	1237.54
139.043	3711.82
143.956	2704.79
148.867	775.35
153.775	849.539
158.681	646.378
163.585	3140
168.486	4552.82
173.385	2985.66
178.282	2195.32
183.176	1916.95
188.067	2732.69
192.956	3800.54
197.843	3784.22
202.727	4390.36
207.609	41.21
212.489	419.211
217.366	970.777
222.24	1823.28
227.112	2158.94
231.982	1935.93
236.849	1546.41
241.714	1352.3
246.577	1144.45
251.437	1285.71
256.294	1551.18
261.149	4026.26
266.002	1240.04
270.852	353.185
275.7	22.1738
280.545	28.4727
285.388	565.828
290.229	1280.1
295.067	2141.61
299.902	3438.77
304.735	5918.11
309.566	7899.29
314.394	9385.67
319.22	9792.5
324.043	10539.1
328.864	12113.8
333.682	14745.5
338.498	17630.4
343.311	21203.8
348.122	26102.5
352.931	31955.4
357.737	33390.9
362.54	30308.7
367.341	25255.5
372.14	19810.3
376.936	14468.4
381.73	10255
386.521	6871.77
391.31	4488.29
396.096	2799.76
400.88	1776.82
405.661	1331.63
410.44	1133.93
415.216	1141.54
419.99	908.529
424.761	1231.93
429.53	1689.94
434.297	2625.66
439.061	3208.9
443.822	2385.51
448.581	1010.31
453.337	49.8525
458.091	398.394
462.843	123.375
467.592	472.621
472.338	1413.2
477.082	2423.12
481.824	3504.94
486.563	4531.59
491.3	5327.18
496.034	6656.33
500.765	10258.6
505.494	15003.7
510.221	16135
514.945	14003
519.666	12279.5
524.385	11009.4
529.102	10039.2
533.816	9418.78
538.527	9181.58
543.236	8944.25
547.943	8065.72
552.647	6616.46
557.348	4415.88
562.047	2267.04
566.744	1187.18
571.438	1296.22
576.129	1717.06
580.818	2257.61
585.504	2154.96
590.188	1989.57
594.87	1759.18
599.549	1255.08
604.225	758.106
608.899	327
613.57	113.232
618.239	228.951
622.905	298.22
627.569	157.847
632.23	67.2627
636.889	83.7617
641.545	291.343
646.198	184.582
650.849	82.4795
655.498	20.7012
660.144	76.542
664.787	95.6475
669.428	207.163
674.067	334.704
678.703	302.88
683.336	253.492
687.967	78.1406
692.595	261.869
697.221	433.185
701.844	930.298
706.465	1259.29
711.083	1404.24
715.698	1775.23
720.311	1917.33
724.922	2509.61
729.53	3220.18
734.135	3910.11
738.738	5081.74
743.338	6207.52
747.936	7484.12
752.531	8746.2
757.124	9133.36
761.714	8883.97
766.302	9354.1
770.887	10823
775.469	13013.9
780.049	16065.2
784.626	19689.7
789.201	23716.8
793.773	28947
798.343	34742.2
802.91	40913.3
807.475	47013.9
812.037	50737.7
816.596	52360.2
821.153	52059.9
825.707	49798.5
830.259	46794.1
834.808	43454.5
839.355	40360.2
843.899	37373.4
848.441	34986.2
852.98	33457.8
857.516	32030
862.05	30837.1
866.581	29336
871.11	27938.9
875.636	25934.7
880.159	22674.6
884.68	19638.4
889.199	16051.5
893.714	12828.9
898.228	10143.9
902.738	8090.56
907.246	6766
911.752	5850.63
916.255	5360.51
920.755	4974.22
925.253	5056.35
929.748	5000.89
934.241	4568.59
938.731	4250.32
943.218	3778.71
947.703	3393.01
952.186	3164.91
956.665	3249.97
961.142	3512.02
965.617	3620.13
970.089	4128.67
974.558	4151.53
979.025	4156.63
983.489	4401.85
987.951	4662.2
992.41	4175.71
996.866	2935.45
1001.32	2032.21
1005.77	2942.35
1010.22	5032.73
1014.67	4438.29
1019.11	2200.75
1023.55	443.851
1027.99	77.2568
1032.42	287.073
1036.86	398.696
1041.29	403.698
1045.72	318.999
1050.14	298.67
1054.56	332.239
1058.98	115.465
1063.4	21.792
1067.82	93.7246
1072.23	27.4961
1076.64	169.024
1081.05	193.597
1085.45	405.438
1089.85	325.736
1094.25	541.386
1098.65	527.875
1103.04	538.876
1107.43	676.67
1111.82	453.57
1116.21	585.179
1120.59	701.346
1124.97	725.585
1129.35	513.513
1133.73	499.518
1138.1	508.722
1142.47	464.498
1146.84	540.848
1151.21	570.399
1155.57	747.864
1159.93	816.874
1164.29	629.4
1168.64	676.066
1172.99	659.129
1177.34	531.915
1181.69	468.92
1186.04	399.332
1190.38	363.798
1194.72	250.926
1199.05	363.155
1203.39	335.841
1207.72	233.592
1212.05	199.659
1216.37	331.31
1220.7	36.8164
1225.02	134.893
1229.34	26.3584
1233.65	38.7788
1237.97	230.315
1242.28	31.3809
1246.59	27.9736
1250.89	14.9644
1255.19	1.3457
1259.49	542.774
1263.79	83.6216
1268.09	12.6729
1272.38	17.1489
1276.67	15.1055
1280.95	17.0684
1285.24	23.7344
1289.52	123.4
1293.8	102.098
1298.08	79.0747
1302.35	141.843
1306.62	149.738
1310.89	197.432
1315.15	112.674
1319.42	127.267
1323.68	26.2695
1327.94	146.163
1332.19	166.391
1336.44	314.317
1340.69	133.601
1344.94	250.784
1349.19	177.647
1353.43	266.215
1357.67	325.043
1361.9	358.664
1366.14	248.817
1370.37	214.876
1374.6	239.82
1378.83	135.261
1383.05	140.484
1387.27	73.5488
1391.49	177.389
1395.7	271.162
1399.92	220.082
1404.13	125.465
1408.34	55.9648
1412.54	121.128
1416.74	79.3643
1420.94	172.536
1425.14	21.6621
1429.34	127.943
1433.53	30.2471
1437.72	55.4844
1441.9	46.251
1446.09	46.7949
1450.27	107.844
1454.45	17.6494
1458.63	15.2773
1462.8	152.497
1466.97	153.592
1471.14	117.059
1475.31	226.649
1479.47	274.662
1483.63	449.537
1487.79	434.137
1491.94	436.588
1496.09	403.639
1500.24	595.045
1504.39	572.879
1508.54	684.835
1512.68	524.764
1516.82	581.956
1520.95	552.63
1525.09	505.471
1529.22	414.517
1533.35	413.713
1537.47	421.347
1541.6	254.81
1545.72	117.996
1549.83	253.306
1553.95	680.718
1558.06	133.07
1562.17	214.421
1566.28	49.4072
1570.38	0
