Measurement: Raman, 514 nm, ccw, Raman Data Processed
Mineral: Anglesite
Rruff sample: R050408
Ideal chemistry: PbSO_4_
Locality: Tsumeb mine, Tsumeb, Otavi District, Oshikoto, Namibia
Source: California Institute of Technology
Description: Pale yellow fragment
Measured chemistry: Pb_1.00_S_1.00_O_4_
Pin_id: L01992
Orientation: Laser parallel to b* (0 1 0). Fiducial mark perpendicular to laser is parallel to c [0 0 1]
Raman shift (cm-1)	intensity
51.431	0
56.387	0.36734
61.341	8.07803
66.292	2.69116
71.241	124.696
76.187	370.159
81.131	738.239
86.072	1250.18
91.012	1968.97
95.948	2777.72
100.883	2946.79
105.815	2320.77
110.744	2060.3
115.671	1974.16
120.596	2097.28
125.519	2544.06
130.439	3052.36
135.356	3379.02
140.271	3022.35
145.184	2330.24
150.094	1983.56
155.002	1797.26
159.908	1497.31
164.811	1317.71
169.711	1217.44
174.61	1186.39
179.505	1224.83
184.399	1212.67
189.29	1217.5
194.178	1014.74
199.064	864.478
203.948	707.513
208.829	507.589
213.708	441.94
218.585	409.672
223.459	352.555
228.33	276.836
233.199	243.786
238.066	225.646
242.93	156.831
247.792	140.411
252.651	144.085
257.508	85.9998
262.363	76.5936
267.215	87.4695
272.064	104.975
276.912	72.6194
281.756	53.3962
286.598	46.2947
291.438	30.3049
296.276	36.4164
301.111	2.62164
305.943	31.9136
310.773	25.2855
315.601	9.72943
320.426	14.7764
325.248	17.2618
330.068	20.248
334.886	23.5692
339.701	4.93756
344.514	20.6627
349.324	4.64221
354.132	2.93933
358.938	29.4948
363.741	29.0861
368.541	31.2529
373.339	4.61121
378.135	0.051331
382.928	26.2669
387.718	33.6191
392.506	81.2399
397.292	58.7087
402.075	126.289
406.856	160.538
411.634	151.079
416.41	247.621
421.183	338.185
425.954	612.771
430.722	1386.44
435.488	3480.08
440.251	5721.75
445.012	6383.44
449.77	10913.1
454.526	6452.86
459.28	2046.4
464.03	1214.21
468.779	698.221
473.525	457.291
478.268	385.456
483.009	233.614
487.747	187.706
492.483	156.868
497.217	86.6822
501.948	67.4291
506.676	56.9633
511.402	46.0523
516.125	26.314
520.846	81.4099
525.565	17.7609
530.281	45.7164
534.994	36.5802
539.705	22.7101
544.413	9.901
549.119	32.3472
553.822	16.6102
558.523	23.887
563.222	46.2466
567.917	47.7988
572.611	35.1418
577.302	76.3185
581.99	93.495
586.676	116.991
591.359	232.887
596.04	501.408
600.718	1275.46
605.394	2601.99
610.067	1844.18
614.737	952.232
619.406	745.436
624.071	314.801
628.734	230.363
633.395	365.946
638.053	770.269
642.708	1284.2
647.361	545.815
652.012	191.694
656.66	124.257
661.305	105.647
665.948	98.651
670.588	59.9535
675.226	84.801
679.861	85.5896
684.494	80.0138
689.124	97.4115
693.752	88.015
698.377	91.3144
702.999	58.4878
707.619	29.4388
712.237	87.0361
716.852	123.8
721.464	131.048
726.074	89.7054
730.681	74.2821
735.286	95.5474
739.888	98.5584
744.488	86.307
749.085	44.4001
753.68	72.9706
758.272	86.8821
762.861	60.5435
767.448	49.2502
772.033	100.269
776.614	75.1019
781.194	58.6393
785.77	10.9108
790.345	60.8602
794.916	51.5194
799.485	4.78064
804.052	30.7258
808.616	15.4161
813.177	7.81982
817.736	1.20972
822.292	7.19617
826.846	19.5491
831.397	5.33862
835.945	18.1086
840.491	4.87561
845.035	78.1031
849.576	1.10632
854.114	20.5098
858.65	3.62927
863.183	45.235
867.713	29.12
872.241	1.43518
876.767	35.919
881.29	25.7849
885.81	7.36377
890.328	25.92
894.843	55.833
899.356	18.3007
903.866	16.4674
908.373	25.9311
912.878	19.1793
917.38	0.025024
921.88	77.8043
926.377	82.6597
930.872	86.5894
935.364	168.455
939.853	176.985
944.34	240.754
948.824	533.824
953.306	858.926
957.785	1561.54
962.261	2838.9
966.735	6069.21
971.207	16141.9
975.675	43897.5
980.141	55889.9
984.605	22136.5
989.066	8518.02
993.524	4432.21
997.98	2630.93
1002.43	1792.79
1006.88	1309.02
1011.33	975.578
1015.78	687.483
1020.22	527.737
1024.66	431.371
1029.1	297.372
1033.53	251.743
1037.97	233.897
1042.4	138.52
1046.82	150.689
1051.25	152.587
1055.67	120.351
1060.09	123.707
1064.51	94.5879
1068.92	72.0041
1073.33	115.908
1077.74	227.274
1082.15	249.137
1086.55	207.528
1090.95	303.412
1095.35	302.758
1099.75	369.669
1104.14	398.086
1108.53	489.032
1112.92	605.49
1117.31	708.502
1121.69	817.967
1126.07	917.85
1130.45	1105.15
1134.82	1295.85
1139.19	1589.92
1143.57	2008.22
1147.93	2469.28
1152.3	3270.43
1156.66	3730.13
1161.02	3497.95
1165.38	2625.22
1169.73	1783.76
1174.08	1250.41
1178.43	925.189
1182.78	775.255
1187.12	569.073
1191.46	483.505
1195.8	341.827
1200.14	301.92
1204.47	234.135
1208.8	234.222
1213.13	164.483
1217.46	185.564
1221.78	137.917
1226.1	153.643
1230.42	118.986
1234.73	72.4224
1239.04	40.1039
1243.35	82.5929
1247.66	78.5306
1251.97	14.2478
1256.27	59.2709
1260.57	88.1898
1264.86	5.59192
1269.16	73.925
1273.45	0.590698
1277.74	31.349
1282.03	47.009
1286.31	66.6682
1290.59	38.1051
1294.87	12.8744
1299.14	55.0844
1303.42	1.97534
1307.69	35.499
1311.95	25.2036
1316.22	27.0138
1320.48	24.7537
1324.74	28.9539
1329	5.39551
1333.26	0.993774
1337.51	34.2437
1341.76	36.2709
1346	27.7223
1350.25	49.5879
1354.49	60.8678
1358.73	17.8789
1362.96	54.7824
1367.2	42.5039
1371.43	66.757
1375.66	71.2797
1379.88	77.1505
1384.11	109.616
1388.33	101.813
1392.54	114.808
1396.76	96.5704
1400.97	64.6663
1405.18	71.6486
1409.39	89.5803
1413.59	106.125
1417.8	104.541
1421.99	110.585
1426.19	90.134
1430.38	69.3877
1434.58	68.9628
1438.77	60.8518
1442.95	74.2421
1447.13	78.9828
1451.32	85.4117
1455.49	102.439
1459.67	92.9675
1463.84	109.078
1468.01	99.3352
1472.18	59.7961
1476.35	110.493
1480.51	97.2926
1484.67	30.6923
1488.83	71.4277
1492.98	85.3275
1497.13	2.99292
1501.28	30.6775
1505.43	52.7765
1509.57	76.2936
1513.71	65.1631
1517.85	41.3415
1521.99	19.4451
1526.12	33.3323
1530.25	88.6034
1534.38	52.7123
1538.5	44.6483
1542.62	46.1732
1546.74	19.6852
1550.86	2.90747
1554.98	33.3623
1559.09	18.6306
1563.2	29.1943
1567.31	21.8402
