Measurement: Raman, 514 nm, ccw, Raman Data Processed
Mineral: Anglesite
Rruff sample: R050052
Ideal chemistry: PbSO_4_
Locality: Touissite, Oujela, Morocco
Source: Eugene Schlepp
Description: Yellow prismatic single crystal
Measured chemistry: Pb_1.00_S_1.00_O_4_
Pin_id: L00472
Orientation: Laser parallel to b* (0 1 0). Fiducial mark perpendicular to laser is parallel to -c [0 0 -1]
Raman shift (cm-1)	intensity
49.365	0
53.566	47.299
57.765	142.608
61.962	177.287
66.157	266.25
70.349	142.898
74.54	29.474
78.729	28.979
82.916	11.832
87.101	151.657
91.284	537.327
95.465	1428.08
99.644	3173.72
103.82	4159.07
107.995	4029.02
112.168	3748.53
116.339	3533.56
120.508	3243.08
124.675	3429.08
128.84	3942.6
133.003	4419.78
137.164	4395.39
141.323	3791.24
145.48	3221.2
149.635	3078.06
153.788	3240.92
157.939	3161
162.088	3010.31
166.235	2771.85
170.38	2342.62
174.523	1867.63
178.664	1415.87
182.803	1297.33
186.94	1215.01
191.076	1132.92
195.209	1045.17
199.34	941.076
203.47	942.234
207.597	839.186
211.722	802.002
215.846	760.96
219.967	688.768
224.087	628.978
228.204	564.524
232.32	572.19
236.434	490.668
240.545	426.869
244.655	344.534
248.763	366.117
252.869	347.539
256.973	269.341
261.075	256.353
265.175	279.562
269.273	227.958
273.369	173.534
277.463	158.281
281.556	172.193
285.646	151.263
289.734	106.486
293.821	105.855
297.905	110.36
301.988	112.997
306.069	88.76
310.147	71.648
314.224	57.662
318.299	26.804
322.372	33.07
326.443	28.46
330.512	55.97
334.579	20.615
338.645	7.613
342.708	26.293
346.769	2.444
350.829	4.043
354.887	3.824
358.942	20.501
362.996	14.296
367.048	27.96
371.098	30.573
375.146	23.074
379.192	6.041
383.236	4.147
387.279	15.109
391.319	54.909
395.358	53.246
399.394	33.523
403.429	53.947
407.462	95.516
411.493	131.273
415.522	163.175
419.549	236.189
423.575	419.309
427.598	770.528
431.619	1753.84
435.639	5758.24
439.657	12456.7
443.673	7444.28
447.687	2634.9
451.699	1125.57
455.709	619.299
459.717	433.07
463.724	318.883
467.728	236.735
471.731	237.622
475.732	182.568
479.731	201.529
483.728	106.525
487.723	104.568
491.716	112.797
495.708	61.055
499.697	6.72
503.685	1.901
507.671	71.316
511.655	49.471
515.637	32.369
519.617	21.851
523.596	6.174
527.572	41.42
531.547	5.025
535.52	20.345
539.491	17.789
543.46	12.179
547.427	46.281
551.393	5.15
555.356	33.129
559.318	23.035
563.278	74.134
567.236	95.301
571.192	92.813
575.147	119.27
579.099	111.15
583.05	224.502
586.999	233.193
590.946	305.654
594.891	482.786
598.834	861.581
602.776	2025.31
606.715	3601.89
610.653	3184.03
614.589	1440.98
618.523	623.821
622.456	293.517
626.386	152.144
630.315	75.525
634.242	65.99
638.167	87.822
642.09	65.523
646.012	34.056
649.931	9.403
653.849	58.557
657.765	83.373
661.679	82.163
665.592	74.246
669.502	34.154
673.411	65.407
677.318	92.528
681.223	70.585
685.126	81.618
689.028	64.626
692.927	50.388
696.825	81.099
700.721	90.227
704.616	34.963
708.508	40.719
712.399	42.896
716.288	72.807
720.175	79.451
724.06	43.859
727.944	32.555
731.825	45.417
735.705	63.02
739.584	83.366
743.46	57.455
747.334	27.3
751.207	47.897
755.078	76.263
758.947	84.404
762.815	120.331
766.68	102.053
770.544	111.578
774.406	103.907
778.267	119.042
782.125	103.986
785.982	45.742
789.837	23.281
793.69	53.638
797.542	51.799
801.391	75.606
805.239	20.314
809.085	24.339
812.93	18.704
816.772	18.966
820.613	6.271
824.452	48.015
828.29	40.304
832.125	79.768
835.959	14.231
839.791	8.857
843.621	10.974
847.45	9.265
851.277	24.67
855.102	3.116
858.925	39.201
862.746	66.041
866.566	73.477
870.384	64.448
874.2	36.504
878.015	8.587
881.828	44.472
885.639	59.119
889.448	91.2
893.256	11.522
897.061	85.808
900.865	76.704
904.668	86.322
908.468	141.933
912.267	140.09
916.064	118.314
919.86	147.81
923.653	156.402
927.445	234.004
931.236	275.661
935.024	317.298
938.811	358.931
942.596	376.099
946.379	522.866
950.161	803.137
953.94	1188.53
957.719	1659.47
961.495	2510.86
965.27	4053.16
969.043	7599.97
972.814	18134.1
976.583	46633.8
980.351	59320.9
984.117	30527.5
987.882	13328.6
991.644	7165.29
995.405	4623.18
999.165	3309.15
1002.92	2586.68
1006.68	1952.97
1010.43	1587.37
1014.18	1240.11
1017.93	1046.23
1021.68	914.699
1025.43	911.433
1029.18	856.455
1032.92	868.249
1036.66	788.911
1040.4	958.847
1044.14	1053.12
1047.88	1273.74
1051.62	1770.65
1055.35	2107.81
1059.08	2237.23
1062.81	2243.94
1066.54	2045.93
1070.27	1691.18
1073.99	1458.67
1077.72	1224.4
1081.44	969.383
1085.16	821.618
1088.88	650.155
1092.59	623.981
1096.31	539.443
1100.02	579.844
1103.73	610.422
1107.44	480.272
1111.15	359.68
1114.86	273.151
1118.57	396.919
1122.27	538.852
1125.97	639.192
1129.67	612.943
1133.37	711.033
1137.07	656.458
1140.76	636.919
1144.45	558.967
1148.15	513.44
1151.84	483.144
1155.53	437.702
1159.21	283.513
1162.9	301.255
1166.58	236.169
1170.26	139.959
1173.94	99.297
1177.62	103.878
1181.3	170.46
1184.97	192.217
1188.65	206.218
1192.32	164.203
1195.99	129.401
1199.66	99.391
1203.33	50.517
1206.99	122.61
1210.65	149.205
1214.32	225.959
1217.98	260.109
1221.64	226.838
1225.29	145.674
1228.95	118.887
1232.6	8.765
1236.26	16.288
1239.91	0.499
1243.56	81.582
1247.2	109.094
1250.85	183.602
1254.49	84.681
1258.13	31.87
1261.78	42.88
1265.41	27.177
1269.05	8.215
1272.69	123.702
1276.32	164.567
1279.95	133.555
1283.59	130.454
1287.21	49.182
1290.84	0.686
1294.47	64.01
1298.09	54.592
1301.72	22.479
1305.34	75.648
1308.96	96.048
1312.58	120.14
1316.19	101.882
1319.81	6.52
1323.42	20.981
1327.03	59.534
1330.64	0.304
1334.25	78.265
1337.86	5.271
1341.46	126.425
1345.07	171.029
1348.67	113.501
1352.27	70.126
1355.87	36.4
1359.46	17.495
1363.06	54.514
1366.65	94.621
1370.25	74.931
1373.84	20.076
1377.43	105.757
1381.02	184.09
1384.6	161.263
1388.18	152.228
1391.77	99.368
1395.35	45.72
1398.93	48.837
1402.51	67.241
1406.08	132.329
1409.66	137.33
1413.23	214.097
1416.8	259.123
1420.37	236.742
1423.94	182.466
1427.51	201.665
1431.08	52.735
1434.64	92.738
1438.2	33.438
1441.76	69.588
1445.32	107.484
1448.88	151.065
1452.43	182.475
1455.99	236.675
1459.54	250.228
1463.09	205.14
1466.64	166.647
1470.19	110.818
1473.74	73.493
1477.28	31.108
1480.83	71.2
1484.37	96.179
1487.91	104.492
1491.45	141.947
1494.98	167.823
1498.52	175.251
1502.05	191.077
1505.59	199.936
1509.12	176.64
1512.65	198.64
1516.17	132.029
1519.7	53.006
1523.23	0.438
