Measurement: Raman, 514 nm, ccw, Raman Data Processed
Mineral: Anglesite
Rruff sample: R040004
Ideal chemistry: PbSO_4_
Locality: Erupcion mine, Los Lamentos, Chihuahua, Mexico
Source: University of Arizona Mineral Museum
Description: Tan colored tabular crystal
Measured chemistry: Pb_1.00_S_1.00_O_4_
Pin_id: m00050
Orientation: Laser parallel to b* (0 1 0). Fiducial mark perpendicular to laser is parallel to c [0 0 1]
Raman shift (cm-1)	intensity
78.729	0
82.916	20.483
87.101	622.856
91.284	1317.67
95.465	1725.77
99.644	1212.34
103.82	674.321
107.995	323.13
112.168	477.584
116.339	524.315
120.508	390.098
124.675	602.432
128.84	1236.24
133.003	1421.01
137.164	1083.1
141.323	795.933
145.48	1122.45
149.635	1265.55
153.788	929.148
157.939	519.766
162.088	204.374
166.235	152.783
170.38	49.783
174.523	12.796
178.664	68.919
182.803	38.359
186.94	109.669
191.076	53.338
195.209	133.177
199.34	81.382
203.47	9.674
207.597	56.97
211.722	48.213
215.846	28.003
219.967	26.52
224.087	44.379
228.204	57.534
232.32	26.983
236.434	72.886
240.545	37.125
244.655	61.02
248.763	10.39
252.869	20.777
256.973	16.749
261.075	9.36
265.175	44.488
269.273	47.108
273.369	112.638
277.463	24.009
281.556	7.103
285.646	15.137
289.734	45.25
293.821	11.382
297.905	1.668
301.988	115.941
306.069	64.527
310.147	107.528
314.224	90.911
318.299	84.056
322.372	73.29
326.443	14.778
330.512	159.9
334.579	167.783
338.645	127.673
342.708	119.963
346.769	326.22
350.829	254.072
354.887	217.542
358.942	139.304
362.996	178.479
367.048	206.948
371.098	62.833
375.146	210.571
379.192	256.288
383.236	365.146
387.279	275.602
391.319	335.037
395.358	298.86
399.394	207.375
403.429	280.496
407.462	207.729
411.493	266.553
415.522	217.718
419.549	387.051
423.575	361.967
427.598	707.514
431.619	1887.03
435.639	4900.72
439.657	1844.06
443.673	1075.33
447.687	863.845
451.699	553.729
455.709	301.729
459.717	336.299
463.724	359.704
467.728	279.229
471.731	347.047
475.732	363.877
479.731	296.802
483.728	234.733
487.723	118.962
491.716	58.703
495.708	122.873
499.697	125.296
503.685	207.257
507.671	296.817
511.655	299.209
515.637	278.52
519.617	255.042
523.596	212.559
527.572	295.918
531.547	238.818
535.52	344.184
539.491	164.11
543.46	223.854
547.427	262.704
551.393	216.411
555.356	194.97
559.318	199.139
563.278	208.945
567.236	206.527
571.192	299.621
575.147	206.766
579.099	256.672
583.05	474.097
586.999	521.414
590.946	529.861
594.891	666.993
598.834	1264.24
602.776	1885.35
606.715	962.71
610.653	370.062
614.589	609.364
618.523	831.146
622.456	1298.51
626.386	1076.52
630.315	473.732
634.242	420.714
638.167	597.254
642.09	804.049
646.012	860.453
649.931	746.414
653.849	472.629
657.765	249.051
661.679	175.369
665.592	241.603
669.502	67.732
673.411	86.317
677.318	109.422
681.223	4.85
685.126	10.167
689.028	75.272
692.927	49.961
696.825	4.644
700.721	149.202
704.616	23.663
708.508	2.091
712.399	60.576
716.288	65.499
720.175	59.085
724.06	92.558
727.944	45.879
731.825	30.896
735.705	92.216
739.584	125.283
743.46	218.326
747.334	131.322
751.207	14.277
755.078	62.796
758.947	200
762.815	22.767
766.68	185.508
770.544	81.813
774.406	20.708
778.267	83.21
782.125	4.398
785.982	237.791
789.837	189.974
793.69	102.158
797.542	54.345
801.391	26.548
805.239	188.77
809.085	81.011
812.93	73.268
816.772	105.545
820.613	177.142
824.452	329.172
828.29	314.26
832.125	164.548
835.959	102.025
839.791	177.482
843.621	485.944
847.45	541.193
851.277	541.562
855.102	744.337
858.925	926.441
862.746	663.127
866.566	581.752
870.384	433.508
874.2	333.856
878.015	277.49
881.828	185.377
885.639	286.949
889.448	431.121
893.256	475.453
897.061	231.67
900.865	205.782
904.668	250.792
908.468	452.043
912.267	457.213
916.064	282.55
919.86	258.056
923.653	87.283
927.445	113.14
931.236	289.123
935.024	334.407
938.811	330.824
942.596	387.435
946.379	534.244
950.161	761.254
953.94	979.335
957.719	1686.75
961.495	2394.37
965.27	4471.88
969.043	10169.9
972.814	28828.2
976.583	37986.6
980.351	16165.4
984.117	6944.36
987.882	3663.62
991.644	2203.21
995.405	1773.08
999.165	2343.27
1002.92	1313.7
1006.68	895.332
1010.43	741.896
1014.18	573.572
1017.93	725.286
1021.68	557.099
1025.43	586.397
1029.18	471.152
1032.92	384.939
1036.66	338.056
1040.4	61.093
1044.14	75.189
1047.88	40.981
1051.62	62.895
1055.35	68.02
1059.08	96.477
1062.81	291.472
1066.54	106.541
1070.27	91.826
1073.99	127.358
1077.72	293.124
1081.44	759.092
1085.16	505.336
1088.88	211.811
1092.59	248.463
1096.31	65.283
1100.02	37.739
1103.73	159.357
1107.44	266.588
1111.15	223.941
1114.86	311.426
1118.57	489.014
1122.27	406.7
1125.97	384.479
1129.67	332.338
1133.37	450.277
1137.07	488.275
1140.76	416.836
1144.45	235.105
1148.15	233.48
1151.84	62.031
1155.53	49.395
1159.21	10.842
1162.9	47.637
1166.58	126.229
1170.26	125.021
1173.94	123.68
1177.62	92.385
1181.3	188.693
1184.97	131.406
1188.65	5.303
1192.32	11.717
1195.99	190.703
1199.66	68.537
1203.33	207.172
1206.99	3.539
1210.65	85.145
1214.32	116.324
1217.98	196.697
1221.64	376.326
1225.29	417.236
1228.95	346.738
1232.6	316.32
1236.26	385.875
1239.91	345.01
1243.56	133.502
1247.2	290.566
1250.85	437.434
1254.49	453.896
1258.13	550.553
1261.78	636.025
1265.41	590.941
1269.05	625.541
1272.69	599.963
1276.32	354.377
1279.95	508.148
1283.59	431.576
1287.21	442.955
1290.84	413.414
1294.47	478.244
1298.09	349.559
1301.72	209.971
1305.34	257.646
1308.96	388.141
1312.58	417.938
1316.19	471.623
1319.81	430.822
1323.42	559.932
1327.03	238.885
1330.64	117.701
1334.25	26.396
1337.86	4.953
1341.46	26.213
1345.07	2.66
1348.67	211.807
1352.27	291.324
1355.87	411.322
1359.46	280.332
1363.06	460.217
1366.65	290.982
1370.25	502.287
1373.84	373.834
1377.43	404.855
1381.02	338.67
1384.6	392.014
1388.18	579.924
1391.77	556.529
1395.35	420.424
1398.93	461.824
1402.51	429.758
1406.08	231.533
1409.66	197.412
1413.23	44.461
1416.8	90.6
1420.37	196.574
1423.94	103.52
