Measurement: Raman, 514 nm, ccw, Raman Data Processed
Mineral: Anglesite
Rruff sample: R050408
Ideal chemistry: PbSO_4_
Locality: Tsumeb mine, Tsumeb, Otavi District, Oshikoto, Namibia
Source: California Institute of Technology
Description: Pale yellow fragment
Measured chemistry: Pb_1.00_S_1.00_O_4_
Pin_id: L01992
Orientation: Laser parallel to b* (0 1 0). Fiducial mark perpendicular to laser is parallel to c [0 0 1]
Raman shift (cm-1)	intensity
51.431	0
56.387	38.3874
61.341	13.0337
66.292	0.169434
71.241	126.576
76.187	303.079
81.131	554.446
86.072	945.492
91.012	1635.42
95.948	2918.57
100.883	3134.54
105.815	2106.06
110.744	1637.88
115.671	1436.82
120.596	1572.74
125.519	1892.58
130.439	2498.86
135.356	2977.44
140.271	2761.76
145.184	2487.74
150.094	2552.27
155.002	2705.18
159.908	1949.42
164.811	1279.97
169.711	1084.82
174.61	893.96
179.505	850.377
184.399	721.49
189.29	660.397
194.178	653.952
199.064	595.584
203.948	552.143
208.829	512.715
213.708	395.076
218.585	405.471
223.459	288.264
228.33	322.89
233.199	249.783
238.066	202.765
242.93	192.754
247.792	175.555
252.651	130.231
257.508	96.1354
262.363	123.247
267.215	84.5376
272.064	98.9899
276.912	82.5903
281.756	81.3336
286.598	46.2092
291.438	38.2037
296.276	15.306
301.111	20.5071
305.943	21.8004
310.773	25.1797
315.601	2.63678
320.426	1.16174
325.248	8.75494
330.068	7.24939
334.886	6.88568
339.701	3.85406
344.514	38.6031
349.324	0.569641
354.132	4.3493
358.938	4.32568
363.741	22.4983
368.541	14.1132
373.339	16.5901
378.135	7.22748
382.928	16.9479
387.718	1.88684
392.506	44.1731
397.292	25.914
402.075	42.2382
406.856	42.113
411.634	76.0127
416.41	125.953
421.183	162.887
425.954	371.84
430.722	964.82
435.488	2911.82
440.251	5015.84
445.012	2220.88
449.77	1782.93
454.526	1030.99
459.28	417.659
464.03	269.739
468.779	200.836
473.525	178.951
478.268	155.658
483.009	127.934
487.747	99.4121
492.483	74.4777
497.217	80.1349
501.948	12.7985
506.676	74.0434
511.402	34.028
516.125	20.6323
520.846	25.4949
525.565	4.19818
530.281	31.1545
534.994	23.2169
539.705	36.2621
544.413	26.3785
549.119	9.56488
553.822	36.697
558.523	31.8087
563.222	36.9769
567.917	63.1816
572.611	77.1389
577.302	55.6219
581.99	70.2419
586.676	127.612
591.359	209.898
596.04	400.072
600.718	937.318
605.394	1750.03
610.067	954.335
614.737	323.44
619.406	203.84
624.071	94.639
628.734	31.0068
633.395	54.0073
638.053	83.8586
642.708	67.1332
647.361	42.2648
652.012	9.88818
656.66	60.3903
661.305	59.4674
665.948	35.1299
670.588	69.9923
675.226	29.0846
679.861	24.4356
684.494	40.8991
689.124	38.0759
693.752	61.3008
698.377	59.6194
702.999	55.4299
707.619	20.9053
712.237	40.4017
716.852	44.7508
721.464	39.4541
726.074	60.4172
730.681	52.2415
735.286	62.9257
739.888	20.4702
744.488	39.8326
749.085	2.03833
753.68	40.0619
758.272	52.9397
762.861	27.6733
767.448	20.2579
772.033	46.4896
776.614	0.78894
781.194	50.918
785.77	34.9121
790.345	3.37549
794.916	39.2084
799.485	19.5098
804.052	14.1366
808.616	21.0049
813.177	14.0098
817.736	18.7545
822.292	31.641
826.846	22.6112
831.397	6.77747
835.945	1.22925
840.491	8.49463
845.035	34.6648
849.576	17.4962
854.114	6.57068
858.65	10.9573
863.183	34.8363
867.713	85.551
872.241	92.2749
876.767	81.3751
881.29	69.7253
885.81	9.99683
890.328	76.4681
894.843	49.5601
899.356	36.9358
903.866	92.7519
908.373	41.3184
912.878	91.6853
917.38	53.9255
921.88	101.466
926.377	115.245
930.872	123.661
935.364	142.707
939.853	210.242
944.34	290.566
948.824	557.346
953.306	764.353
957.785	1362.14
962.261	2387.63
966.735	5021.55
971.207	13146.1
975.675	36554.1
980.141	46772.6
984.605	18140.2
989.066	7002.81
993.524	3596.71
997.98	2298.02
1002.43	1621.49
1006.88	1095.15
1011.33	748.987
1015.78	587.04
1020.22	425.305
1024.66	310.797
1029.1	278.523
1033.53	215.451
1037.97	97.5967
1042.4	94.9917
1046.82	73.647
1051.25	109.578
1055.67	84.8214
1060.09	102.314
1064.51	59.0566
1068.92	55.047
1073.33	40.3202
1077.74	16.8852
1082.15	87.3538
1086.55	5.53857
1090.95	12.9154
1095.35	56.6011
1099.75	67.5452
1104.14	158.05
1108.53	139.671
1112.92	237.512
1117.31	252.682
1121.69	342.185
1126.07	435.875
1130.45	541.777
1134.82	629.883
1139.19	700.288
1143.57	644.799
1147.93	595.529
1152.3	427.427
1156.66	410.169
1161.02	218.42
1165.38	203.954
1169.73	128.987
1174.08	60.1187
1178.43	52.0137
1182.78	77.5957
1187.12	57.3209
1191.46	48.2722
1195.8	58.1688
1200.14	54.3175
1204.47	24.9307
1208.8	7.12915
1213.13	37.9728
1217.46	5.10168
1221.78	32.8208
1226.1	36.731
1230.42	28.0987
1234.73	3.90747
1239.04	0.455811
1243.35	23.5945
1247.66	28.052
1251.97	28.0109
1256.27	18.832
1260.57	12.3251
1264.86	9.87769
1269.16	58.267
1273.45	78.9329
1277.74	30.2965
1282.03	18.5776
1286.31	5.69141
1290.59	5.7019
1294.87	14.1122
1299.14	5.83728
1303.42	24.9099
1307.69	61.709
1311.95	8.12866
1316.22	1.96716
1320.48	36.1946
1324.74	0.917358
1329	14.221
1333.26	27.5001
1337.51	22.1525
1341.76	50.5795
1346	2.61279
1350.25	81.9388
1354.49	21.0231
1358.73	24.0935
1362.96	49.529
1367.2	70.1323
1371.43	67.6444
1375.66	11.037
1379.88	23.4441
1384.11	29.5373
1388.33	27.4268
1392.54	61.1957
1396.76	57.6918
1400.97	71.0768
1405.18	69.4182
1409.39	60.5558
1413.59	112.047
1417.8	97.0591
1421.99	64.7665
1426.19	85.0961
1430.38	33.6835
1434.58	86.9416
1438.77	78.3151
1442.95	38.9535
1447.13	7.42505
1451.32	103.545
1455.49	62.9791
1459.67	57.3519
1463.84	65.0195
1468.01	65.2998
1472.18	40.9106
1476.35	119.139
1480.51	89.9127
1484.67	83.1849
1488.83	78.068
1492.98	75.7872
1497.13	17.7798
1501.28	21.0236
1505.43	33.4932
1509.57	77.4474
1513.71	55.4827
1517.85	23.6008
1521.99	62.7437
1526.12	17.6603
1530.25	24.3271
1534.38	34.8475
1538.5	52.6163
1542.62	47.9915
1546.74	25.3724
1550.86	50.5742
1554.98	52.2417
1559.09	69.7632
1563.2	35.7683
1567.31	22.9131
