Measurement: Raman, 514 nm, ccw, Raman Data Processed
Mineral: Anglesite
Rruff sample: R050052
Ideal chemistry: PbSO_4_
Locality: Touissite, Oujela, Morocco
Source: Eugene Schlepp
Description: Yellow prismatic single crystal
Measured chemistry: Pb_1.00_S_1.00_O_4_
Pin_id: L00248
Orientation: Laser parallel to c* (0 0 1). Fiducial mark perpendicular to laser is parallel to a [1 0 0]
Raman shift (cm-1)	intensity
46.637	0
50.856	69.879
55.072	154.753
59.287	224.49
63.499	292.369
67.709	170.021
71.917	90.643
76.123	11.091
80.327	24.851
84.529	36.734
88.728	149.823
92.926	319.31
97.121	529.088
101.314	547.035
105.505	465.099
109.694	500.295
113.881	541.716
118.066	531.421
122.249	554.528
126.43	604.88
130.608	583.221
134.785	482.606
138.959	472.998
143.131	499.297
147.301	659.419
151.469	1070.24
155.635	1210.01
159.799	892.839
163.961	638.854
168.121	504.97
172.278	494.323
176.434	437.562
180.587	414.159
184.739	435.353
188.888	402.263
193.035	377.925
197.18	338.648
201.324	305.741
205.465	286.113
209.603	236.816
213.74	259.128
217.875	242.47
222.008	222.434
226.139	190.794
230.267	179.514
234.394	150.616
238.518	119.753
242.641	94.991
246.761	116.922
250.879	95.918
254.996	82.097
259.11	65.286
263.222	53.466
267.332	59.632
271.44	39.783
275.546	51.914
279.65	45.023
283.752	30.105
287.852	27.155
291.95	27.167
296.046	28.139
300.14	14.065
304.231	14.945
308.321	9.779
312.409	13.566
316.495	7.69
320.578	0.996
324.66	9.652
328.739	18.748
332.817	12.223
336.892	13.76
340.966	9.624
345.037	3.937
349.107	6.834
353.174	1.306
357.24	3.344
361.303	5.698
365.365	3.822
369.424	2
373.481	10.784
377.537	20.597
381.59	12.395
385.642	22.128
389.691	52.807
393.738	98.548
397.784	122.333
401.827	136.024
405.868	171.61
409.908	203.219
413.945	254.843
417.98	375.457
422.014	617.057
426.045	1135.63
430.075	2274.19
434.102	6902.67
438.127	24368.1
442.151	13268.4
446.172	3749.68
450.192	1589.02
454.209	943.153
458.225	629.852
462.238	482.692
466.25	402.616
470.259	353.937
474.267	328.446
478.273	290.632
482.276	253.499
486.278	229.178
490.278	204.631
494.276	167.668
498.271	114.845
502.265	84.619
506.257	80.652
510.247	87.4
514.235	66.161
518.221	44.77
522.205	24.2
526.187	31.98
530.167	44.956
534.145	7.23
538.122	11.588
542.096	10.07
546.068	21.756
550.039	21.634
554.007	0.401
557.973	13.555
561.938	23.513
565.901	48.531
569.861	32.737
573.82	37.853
577.777	65.202
581.732	104.602
585.685	119.603
589.636	186.896
593.585	279.496
597.532	555.079
601.477	1397.64
605.42	2937.98
609.361	1527.11
613.301	589.046
617.238	364.707
621.174	265.365
625.108	169.247
629.039	123.6
632.969	124.873
636.897	159.078
640.823	316.223
644.747	249.519
648.669	122.588
652.589	70.093
656.508	76.481
660.424	93.225
664.339	86.027
668.251	77.614
672.162	81.617
676.071	101.926
679.978	89.996
683.883	76.17
687.786	87.318
691.687	57.617
695.586	75.48
699.484	80.305
703.379	62.383
707.273	58.935
711.165	56.145
715.055	63.316
718.943	53.4
722.829	47.4
726.713	43.249
730.595	37.985
734.476	64.555
738.354	60.986
742.231	76.281
746.106	41.434
749.978	31.449
753.849	48.325
757.719	35.069
761.586	39.671
765.451	45.146
769.315	64.496
773.177	40.731
777.036	64.851
780.894	38.851
784.75	71.74
788.605	82.526
792.457	55.212
796.307	41.798
800.156	17.225
804.003	6.651
807.848	18.139
811.691	13.127
815.532	16.329
819.371	16.751
823.209	20.407
827.045	30.304
830.878	40.428
834.71	35.787
838.54	11.363
842.369	32.166
846.195	34.446
850.02	31.981
853.842	29.512
857.663	0.605
861.482	34.681
865.299	23.602
869.115	37.577
872.928	15.274
876.74	31.867
880.55	7.234
884.358	45.593
888.164	40.206
891.969	18.279
895.771	29.766
899.572	59.584
903.371	40.117
907.168	72.261
910.963	67.772
914.757	67.849
918.548	61.096
922.338	86.458
926.126	120.977
929.912	146.601
933.697	169.938
937.479	237.839
941.26	239.82
945.039	386.886
948.816	644.041
952.591	891.824
956.365	1336.73
960.136	1968.21
963.906	3197.69
967.674	6172.36
971.441	14909.2
975.205	40986.1
978.968	59913.3
982.729	28800.3
986.488	12128.4
990.245	6806.72
994	4440.43
997.754	3429.11
1001.51	2693.62
1005.26	2029.21
1009	1556.87
1012.75	1271.81
1016.5	1187.02
1020.24	1131.5
1023.98	1129.24
1027.72	1130.24
1031.46	1176.52
1035.19	1171.08
1038.93	1423.92
1042.66	1791.03
1046.39	2388.39
1050.12	3232
1053.85	3977.88
1057.57	4272.02
1061.29	4137.43
1065.02	3802.08
1068.74	3228.99
1072.45	2698.14
1076.17	2231.53
1079.88	1762.17
1083.6	1370.06
1087.31	1142.18
1091.02	1002.54
1094.72	873.122
1098.43	775.936
1102.13	702.98
1105.84	597.264
1109.54	465.815
1113.24	417.642
1116.93	362.758
1120.63	388.162
1124.32	388.862
1128.01	477.855
1131.7	489.136
1135.39	516.757
1139.08	582.281
1142.76	750.578
1146.45	930.579
1150.13	1304.13
1153.81	1671.26
1157.48	1859.9
1161.16	1755.49
1164.84	1345.42
1168.51	1003.77
1172.18	731.646
1175.85	601.518
1179.52	529.186
1183.18	433.099
1186.85	408.351
1190.51	342.669
1194.17	243.334
1197.83	194.872
1201.48	146.504
1205.14	163.063
1208.79	120.591
1212.44	132.596
1216.09	176.597
1219.74	158.52
1223.39	107.533
1227.03	68.412
1230.68	56.617
1234.32	16.464
1237.96	34.611
1241.6	48.633
1245.23	39.522
1248.87	66.299
1252.5	35.173
1256.13	32.07
1259.76	40.037
1263.39	36.033
1267.02	33.962
1270.64	32.782
1274.26	37.472
1277.88	34.066
1281.5	9.501
1285.12	0.207
1288.74	18.012
1292.35	41.959
1295.96	55.013
1299.57	37.29
1303.18	4.761
1306.79	26.408
1310.4	10.224
1314	10.2
1317.6	14.321
1321.2	27.616
1324.8	26.101
1328.4	4.781
1331.99	0.23
1335.59	10.355
1339.18	2.2
1342.77	13.895
1346.36	13.426
1349.95	21.8
1353.53	17.023
1357.12	5.344
1360.7	21.289
1364.28	8.106
1367.86	32.783
1371.44	19.305
1375.01	61.697
1378.59	39.457
1382.16	51.007
1385.73	99.466
1389.3	72.831
1392.87	79.088
1396.43	103.23
1399.99	112.192
1403.56	111.26
1407.12	141.78
1410.68	125.466
1414.23	105.028
1417.79	108.188
1421.34	106.351
1424.9	90.229
1428.45	90.584
1431.99	55.719
1435.54	64.477
1439.09	47.812
1442.63	80.748
1446.17	86.075
1449.71	85.599
1453.26	80.014
1456.79	59.393
1460.33	55.823
1463.86	56.266
1467.39	40.794
1470.92	42.668
1474.45	33.033
1477.98	44.372
1481.51	19.012
1485.03	17.88
1488.56	45.68
1492.08	31.551
1495.6	13.786
1499.11	21.332
1502.63	22.158
1506.14	35.504
1509.66	12.837
1513.17	18.563
1516.68	0.185
