Measurement: Raman, 514 nm, ccw, Raman Data Processed
Mineral: Anglesite
Rruff sample: R050052
Ideal chemistry: PbSO_4_
Locality: Touissite, Oujela, Morocco
Source: Eugene Schlepp
Description: Yellow prismatic single crystal
Measured chemistry: Pb_1.00_S_1.00_O_4_
Pin_id: L00472
Orientation: Laser parallel to b* (0 1 0). Fiducial mark perpendicular to laser is parallel to -c [0 0 -1]
Raman shift (cm-1)	intensity
98.251	0
102.428	99.835
106.604	147.318
110.777	159.825
114.949	132.295
119.119	253.856
123.286	251.922
127.452	229.882
131.615	284.381
135.777	233.227
139.937	176.496
144.094	201.417
148.25	452.583
152.403	805.294
156.555	926.773
160.705	843.651
164.853	572.521
168.998	418.92
173.142	243.647
177.284	289.699
181.424	204.759
185.562	176.589
189.698	207.559
193.831	252.605
197.963	189.474
202.093	133.757
206.221	204.66
210.347	200.428
214.472	129.502
218.594	116.897
222.714	184.187
226.832	121.529
230.948	60.946
235.063	58.947
239.175	95.396
243.286	45.755
247.394	22.799
251.501	86.669
255.605	68.442
259.708	3.119
263.808	7.969
267.907	1.599
272.004	25.409
276.099	28.71
280.192	37.616
284.283	26.69
288.372	26.899
292.459	38.473
296.544	2.085
300.627	36.253
304.709	5.512
308.788	43.402
312.865	7.458
316.941	38.314
321.015	12.912
325.086	47.664
329.156	17.537
333.224	59.548
337.29	6.382
341.354	9.961
345.416	16.514
349.476	51.764
353.534	37.754
357.591	14.448
361.645	23.87
365.698	66.039
369.748	36.996
373.797	23.708
377.844	96.212
381.889	142.531
385.932	104.805
389.973	66.049
394.012	195.294
398.049	230.346
402.084	232.305
406.118	274.152
410.15	288.01
414.179	389.631
418.207	532.292
422.233	715.799
426.257	1264.96
430.279	2668.9
434.299	7681.57
438.318	20812.5
442.334	18407.1
446.349	6331.9
450.361	2581.57
454.372	1302.05
458.381	824.132
462.388	676.186
466.394	563.689
470.397	503.569
474.398	402.685
478.398	418.003
482.396	380.828
486.391	303.355
490.385	193.606
494.377	199.055
498.368	184.053
502.356	229.254
506.342	101.296
510.327	132.894
514.31	121.188
518.291	100.938
522.27	82.184
526.247	47.074
530.222	89.795
534.196	108.736
538.167	72.501
542.137	31.632
546.105	20.983
550.071	74.928
554.035	51.123
557.998	39.486
561.958	35.982
565.917	70.714
569.874	111.072
573.829	109.145
577.782	103.026
581.733	107.913
585.683	213.256
589.63	286.522
593.576	316.892
597.52	582.595
601.462	1476.63
605.402	3163.76
609.341	2530.36
613.277	1079.89
617.212	450.435
621.145	316.207
625.076	216.458
629.006	160.595
632.933	121.662
636.859	107.675
640.783	123.621
644.705	171.483
648.625	85.084
652.543	68.972
656.46	34.069
660.375	92.386
664.288	158.776
668.199	135.552
672.108	60.724
676.016	82.531
679.921	117.639
683.825	134.804
687.727	97.51
691.628	49.516
695.526	70.352
699.423	96.097
703.318	130.338
707.211	26.831
711.102	3.118
714.992	88.419
718.879	72.886
722.765	96.378
726.649	115.903
730.532	32.953
734.412	46.928
738.291	47.85
742.168	97.61
746.043	83.233
749.916	57.719
753.788	22.078
757.658	55.292
761.526	105.368
765.392	113.316
769.257	31.146
773.119	19.857
776.98	0.555
780.839	109.854
784.697	132.095
788.552	76.214
792.406	44.223
796.258	16.134
800.108	25.918
803.957	83.543
807.804	17.98
811.649	14.956
815.492	49.919
819.333	7.944
823.173	45.694
827.011	19.213
830.847	41.396
834.681	57.298
838.514	69.528
842.345	32.864
846.174	6.746
850.001	5.584
853.827	21.215
857.651	51.504
861.473	10.12
865.293	36.055
869.112	141.362
872.928	94.095
876.744	50.654
880.557	30.616
884.369	54.646
888.178	129.997
891.987	123.982
895.793	79.668
899.598	64.108
903.401	51.313
907.202	105.622
911.001	80.852
914.799	205.398
918.595	148.424
922.389	123.277
926.182	181.133
929.972	232.094
933.761	354.945
937.549	428.524
941.334	406.21
945.118	485.976
948.9	676.64
952.681	962.889
956.459	1439.28
960.236	2229.38
964.012	3734.76
967.785	6520.46
971.557	13838.9
975.327	35804.4
979.095	62971.6
982.862	41962.4
986.627	19073.8
990.39	9898.49
994.152	5936.77
997.912	4119.88
1001.67	3198.86
1005.43	2574.06
1009.18	2246.13
1012.93	1845.83
1016.68	1508.42
1020.43	1311.63
1024.18	1251.09
1027.93	1328.78
1031.67	1392.57
1035.42	1584.85
1039.16	1793.43
1042.9	2088.34
1046.63	2520.58
1050.37	3251.05
1054.11	4292.76
1057.84	5049.68
1061.57	5427.86
1065.3	5106.31
1069.03	4138
1072.75	3123.91
1076.47	2538.06
1080.2	2105.45
1083.92	1784.12
1087.64	1618.05
1091.36	1260.21
1095.07	977.276
1098.79	784.542
1102.5	693.119
1106.21	764.158
1109.92	519.457
1113.62	256.008
1117.33	287.801
1121.04	333.64
1124.74	284.832
1128.44	207.557
1132.14	231.316
1135.83	263.904
1139.53	321.217
1143.22	263.25
1146.92	190.992
1150.61	161.25
1154.3	121.402
1157.98	121.908
1161.67	63.746
1165.35	219.381
1169.04	147.25
1172.72	89.827
1176.4	105.547
1180.07	41.066
1183.75	30.478
1187.42	135.695
1191.1	88.463
1194.77	115.489
1198.44	186.226
1202.1	154.866
1205.77	139.266
1209.43	57.91
1213.1	82.509
1216.76	120.798
1220.42	226.225
1224.07	236.262
1227.73	192.234
1231.38	149.567
1235.04	81.376
1238.69	29.229
1242.34	88.624
1245.99	44.392
1249.63	106.786
1253.28	133.065
1256.92	143.918
1260.56	139.137
1264.2	53.312
1267.84	23.534
1271.48	6.437
1275.11	14.7
1278.74	27.538
1282.38	86.243
1286.01	98.661
1289.63	44.909
1293.26	105.958
1296.89	57.243
1300.51	25.087
1304.13	25.594
1307.75	18.323
1311.37	45.157
1314.99	3.195
1318.6	17.96
1322.22	72.535
1325.83	19.866
1329.44	27.031
1333.05	5.202
1336.66	32.579
1340.26	38.346
1343.87	72.715
1347.47	123.601
1351.07	124.359
1354.67	145.883
1358.27	110.204
1361.86	151.345
1365.46	53.474
1369.05	91.357
1372.64	23.041
1376.23	12.177
1379.82	84.075
1383.41	90.075
1386.99	168.517
1390.57	222.663
1394.16	232.773
1397.74	263.272
1401.32	212.942
1404.89	174.862
1408.47	136.302
1412.04	133.385
1415.61	106.217
1419.18	125.704
1422.75	216.683
1426.32	238.611
1429.89	205.645
1433.45	195.398
1437.01	171.908
1440.58	164.008
1444.13	74.13
1447.69	57.335
1451.25	17.84
1454.81	39.847
1458.36	87.698
1461.91	143.614
1465.46	194.233
1469.01	231.631
1472.56	204.2
1476.1	211.1
1479.64	163.135
1483.19	150.989
1486.73	63.506
1490.27	14.089
1493.81	25.041
1497.34	40.72
1500.88	28.01
1504.41	116.627
1507.94	151.856
1511.47	154.103
1515	175.17
1518.53	170.438
