Measurement: Raman, 514 nm, ccw, Raman Data Processed
Mineral: Anglesite
Rruff sample: R050408
Ideal chemistry: PbSO_4_
Locality: Tsumeb mine, Tsumeb, Otavi District, Oshikoto, Namibia
Source: California Institute of Technology
Description: Pale yellow fragment
Measured chemistry: Pb_1.00_S_1.00_O_4_
Pin_id: L01528
Orientation: Laser parallel to a* (1 0 0). Fiducial mark perpendicular to laser is parallel to -b [0 -1 0]
Raman shift (cm-1)	intensity
51.431	0
56.387	0.635101
61.341	18.3788
66.292	1.07599
71.241	188.069
76.187	521.472
81.131	971.041
86.072	1624.87
91.012	2559.85
95.948	3740.02
100.883	4240.68
105.815	3615.37
110.744	2963.72
115.671	2584.49
120.596	2391.7
125.519	2681.48
130.439	3093.82
135.356	3385.81
140.271	3004.28
145.184	2120.31
150.094	1768.82
155.002	1714.73
159.908	1666
164.811	1648.63
169.711	1463.61
174.61	1193.9
179.505	1100.26
184.399	1097.91
189.29	1051.16
194.178	926.984
199.064	785.185
203.948	642.477
208.829	485.722
213.708	438.055
218.585	389.105
223.459	326.438
228.33	274.45
233.199	233.987
238.066	178.99
242.93	183.295
247.792	148.581
252.651	108.468
257.508	134.596
262.363	78.9379
267.215	75.4759
272.064	63.1931
276.912	34.0434
281.756	32.0167
286.598	50.103
291.438	42.2918
296.276	28.5724
301.111	3.93512
305.943	13.6303
310.773	8.14032
315.601	4.59936
320.426	29.0169
325.248	42.4332
330.068	3.87897
334.886	16.392
339.701	9.0033
344.514	20.3394
349.324	23.2583
354.132	32.8956
358.938	13.3427
363.741	10.6099
368.541	5.11896
373.339	7.87817
378.135	5.65973
382.928	20.9016
387.718	4.10181
392.506	51.3058
397.292	76.5363
402.075	107.838
406.856	159.579
411.634	212.673
416.41	308.994
421.183	452.296
425.954	774.609
430.722	1722.93
435.488	6018.26
440.251	12958.6
445.012	6014.85
449.77	8734.62
454.526	5149.52
459.28	1665.6
464.03	1016.1
468.779	659.42
473.525	533.363
478.268	390.536
483.009	319.751
487.747	193.526
492.483	168.965
497.217	136.207
501.948	91.637
506.676	117.396
511.402	60.9994
516.125	1.91492
520.846	61.0225
525.565	50.5756
530.281	21.5559
534.994	16.7324
539.705	20.6586
544.413	7.14551
549.119	38.8643
553.822	7.56836
558.523	66.892
563.222	83.3321
567.917	59.3075
572.611	72.4937
577.302	86.8457
581.99	92.1282
586.676	111.308
591.359	211.377
596.04	301.495
600.718	681.658
605.394	1649.35
610.067	1797.35
614.737	713.296
619.406	270.798
624.071	194.141
628.734	100.917
633.395	188.78
638.053	431.555
642.708	961.482
647.361	407.24
652.012	163.434
656.66	111.433
661.305	72.8203
665.948	74.4834
670.588	70.7079
675.226	17.9471
679.861	77.7433
684.494	27.0851
689.124	43.1454
693.752	56.5132
698.377	47.3335
702.999	63.4121
707.619	101.187
712.237	98.9935
716.852	95.1593
721.464	52.4136
726.074	103.892
730.681	109.745
735.286	88.869
739.888	45.744
744.488	106.868
749.085	103.526
753.68	64.7496
758.272	78.86
762.861	95.4315
767.448	72.7404
772.033	81.7903
776.614	71.588
781.194	67.3958
785.77	73.8956
790.345	42.9219
794.916	48.67
799.485	9.14514
804.052	70.4226
808.616	38.1863
813.177	29.405
817.736	3.54211
822.292	6.8562
826.846	15.4211
831.397	13.5413
835.945	0.356079
840.491	12.0861
845.035	33.4383
849.576	46.4856
854.114	16.0612
858.65	5.44397
863.183	26.2715
867.713	24.2949
872.241	27.0378
876.767	61.965
881.29	10.9348
885.81	49.0453
890.328	13.1621
894.843	0.094971
899.356	45.9554
903.866	50.1138
908.373	17.2964
912.878	14.4066
917.38	3.25159
921.88	22.5868
926.377	52.8738
930.872	36.5005
935.364	87.6853
939.853	187.069
944.34	244.336
948.824	419.638
953.306	673.087
957.785	1136.58
962.261	2077.84
966.735	4503.99
971.207	11454.2
975.675	35116.2
980.141	49982.8
984.605	18764
989.066	7555.69
993.524	3947.98
997.98	2463.18
1002.43	1682.79
1006.88	1256.62
1011.33	883.807
1015.78	753.549
1020.22	571.446
1024.66	524.619
1029.1	468.036
1033.53	467.178
1037.97	479.794
1042.4	613.91
1046.82	805.553
1051.25	1138.32
1055.67	1547.68
1060.09	1692.75
1064.51	1611.31
1068.92	1286.4
1073.33	999.018
1077.74	821.097
1082.15	604.688
1086.55	560.836
1090.95	485.498
1095.35	382.728
1099.75	301.556
1104.14	309.916
1108.53	273.658
1112.92	275.647
1117.31	253.747
1121.69	276.365
1126.07	309.239
1130.45	260.742
1134.82	370.646
1139.19	531.239
1143.57	738.812
1147.93	1123.74
1152.3	1550.54
1156.66	1971.16
1161.02	1857.91
1165.38	1422.66
1169.73	978.073
1174.08	724.864
1178.43	498.312
1182.78	363.508
1187.12	275.219
1191.46	281.434
1195.8	160.999
1200.14	141.924
1204.47	99.8937
1208.8	25.1821
1213.13	77.8084
1217.46	65.8413
1221.78	94.2573
1226.1	84.7988
1230.42	55.3345
1234.73	29.2936
1239.04	42.0305
1243.35	17.9571
1247.66	12.636
1251.97	25.7773
1256.27	14.9176
1260.57	46.8823
1264.86	32.5448
1269.16	13.828
1273.45	25.2766
1277.74	29.4789
1282.03	55.0154
1286.31	0.148193
1290.59	17
1294.87	18.8746
1299.14	52.5199
1303.42	12.2505
1307.69	3.22913
1311.95	14.35
1316.22	22.0696
1320.48	18.8564
1324.74	20.0663
1329	13.3295
1333.26	44.5027
1337.51	25.4929
1341.76	5.17017
1346	19.6666
1350.25	49.7485
1354.49	17.5233
1358.73	52.0942
1362.96	64.5468
1367.2	74.7913
1371.43	89.8704
1375.66	67.553
1379.88	51.9357
1384.11	64.2914
1388.33	93.2301
1392.54	87.6146
1396.76	108.7
1400.97	92.4134
1405.18	83.3153
1409.39	66.8372
1413.59	121.291
1417.8	139.05
1421.99	164.661
1426.19	89.2649
1430.38	88.2954
1434.58	59.8523
1438.77	90.5337
1442.95	86.2531
1447.13	55.8074
1451.32	117.733
1455.49	68.5316
1459.67	46.9471
1463.84	47.2288
1468.01	30.4009
1472.18	33.051
1476.35	86.0326
1480.51	35.8296
1484.67	57.7623
1488.83	54.7971
1492.98	25.7817
1497.13	57.5087
1501.28	30.3622
1505.43	14.8566
1509.57	23.8906
1513.71	76.3945
1517.85	11.6272
1521.99	17.4727
1526.12	29.1166
1530.25	63.3877
1534.38	18.4699
1538.5	0.077271
1542.62	28.4176
1546.74	71.021
1550.86	45.7988
1554.98	45.033
1559.09	62.4851
1563.2	9.80408
1567.31	71.6981
