Measurement: Raman, 514 nm, ccw, Raman Data Processed
Mineral: Anglesite
Rruff sample: R050052
Ideal chemistry: PbSO_4_
Locality: Touissite, Oujela, Morocco
Source: Eugene Schlepp
Description: Yellow prismatic single crystal
Measured chemistry: Pb_1.00_S_1.00_O_4_
Pin_id: L00248
Orientation: Laser parallel to c* (0 0 1). Fiducial mark perpendicular to laser is parallel to a [1 0 0]
Raman shift (cm-1)	intensity
46.637	0
50.856	50.885
55.072	118.68
59.287	186.218
63.499	233.118
67.709	120.939
71.917	40.741
76.123	3.803
80.327	0.825
84.529	34.329
88.728	145.407
92.926	375.489
97.121	704.776
101.314	761.221
105.505	702.869
109.694	776.705
113.881	950.787
118.066	1141.05
122.249	1661.42
126.43	2235.83
130.608	2196.19
134.785	1902.66
138.959	1633.17
143.131	1315.54
147.301	1158.6
151.469	1268.21
155.635	1301
159.799	987.038
163.961	812.938
168.121	859.878
172.278	921.156
176.434	1023.95
180.587	1113.44
184.739	1227.08
188.888	1141.92
193.035	918.774
197.18	702.606
201.324	540.837
205.465	425.487
209.603	301.639
213.74	288.629
217.875	222.319
222.008	194.225
226.139	172.917
230.267	144.225
234.394	141.85
238.518	99.551
242.641	79.634
246.761	78.756
250.879	51.677
254.996	27.894
259.11	31.393
263.222	24.848
267.332	21.254
271.44	17.607
275.546	23.904
279.65	28.141
283.752	6.314
287.852	13.42
291.95	15.456
296.046	16.416
300.14	1.706
304.231	3.907
308.321	1.183
312.409	3.471
316.495	12.952
320.578	9.527
324.66	8.921
328.739	8.767
332.817	16.546
336.892	14.429
340.966	26.574
345.037	5.495
349.107	15.686
353.174	3.933
357.24	4.272
361.303	13.333
365.365	3.854
369.424	19.684
373.481	16.684
377.537	14.05
381.59	16.382
385.642	24.663
389.691	36.903
393.738	51.907
397.784	87.975
401.827	96.885
405.868	143.804
409.908	161.744
413.945	203.486
417.98	256.928
422.014	422.348
426.045	718.732
430.075	1363.9
434.102	3981.1
438.127	12907.2
442.151	6780.28
446.172	1945.19
450.192	881.129
454.209	530.894
458.225	360.661
462.238	256.871
466.25	217.18
470.259	213.799
474.267	209.372
478.273	156.663
482.276	131.461
486.278	121.986
490.278	102.674
494.276	101.19
498.271	66.774
502.265	62.003
506.257	63.524
510.247	51.466
514.235	15.892
518.221	10.972
522.205	20.687
526.187	16.323
530.167	16.061
534.145	13.159
538.122	3.241
542.096	15.663
546.068	4.915
550.039	24.453
554.007	18.014
557.973	26.625
561.938	32.215
565.901	42.855
569.861	27.221
573.82	52.854
577.777	64.412
581.732	90.919
585.685	104.503
589.636	135
593.585	200.085
597.532	403.376
601.477	956.694
605.42	2052.72
609.361	1266.48
613.301	789.562
617.238	977.145
621.174	763.677
625.108	328.151
629.039	276.566
632.969	358.918
636.897	700.217
640.823	1631.48
644.747	1172.24
648.669	404.155
652.589	193.626
656.508	110.33
660.424	87.898
664.339	97.724
668.251	61.39
672.162	90.104
676.071	73.645
679.978	84.483
683.883	67.308
687.786	66.393
691.687	86.455
695.586	70.66
699.484	71.806
703.379	73.932
707.273	81.038
711.165	83.992
715.055	72.408
718.943	70.789
722.829	81.028
726.713	52.093
730.595	49.104
734.476	68.981
738.354	63.728
742.231	39.343
746.106	55.82
749.978	43.175
753.849	48.401
757.719	44.501
761.586	57.475
765.451	34.334
769.315	64.068
773.177	66.692
777.036	72.208
780.894	80.616
784.75	86.92
788.605	93.12
792.457	79.219
796.307	42.219
800.156	21.108
804.003	1.867
807.848	7.449
811.691	2.154
815.532	10.968
819.371	9.993
823.209	14.212
827.045	24.65
830.878	29.332
834.71	41.254
838.54	12.488
842.369	17.963
846.195	24.623
850.02	22.561
853.842	18.84
857.663	7.18
861.482	0.399
865.299	23.964
869.115	7.376
872.928	2.772
876.74	22.096
880.55	4.329
884.358	20.433
888.164	22.852
891.969	23.995
895.771	29.636
899.572	21.059
903.371	29.314
907.168	34.652
910.963	56.759
914.757	31.352
918.548	38.665
922.338	94.358
926.126	121.172
929.912	150.038
933.697	133.959
937.479	197.94
941.26	205.987
945.039	351.102
948.816	534.278
952.591	766.69
956.365	1089.47
960.136	1694.89
963.906	2643.26
967.674	5127.81
971.441	11947.8
975.205	32226.6
978.968	46623
982.729	22160
986.488	8968.27
990.245	4803.17
994	3101.74
997.754	2311.34
1001.51	1766.32
1005.26	1345.55
1009	1007.12
1012.75	836.514
1016.5	784.045
1020.24	719.187
1023.98	718.569
1027.72	681.189
1031.46	626.042
1035.19	625.14
1038.93	754.482
1042.66	869.075
1046.39	1126.93
1050.12	1532.02
1053.85	1830.36
1057.57	1994.93
1061.29	1988.75
1065.02	1825.8
1068.74	1608.11
1072.45	1363.67
1076.17	1226.47
1079.88	1093.51
1083.6	935.763
1087.31	821.247
1091.02	808.945
1094.72	744.859
1098.43	807.992
1102.13	782.353
1105.84	784.954
1109.54	757.814
1113.24	759.941
1116.93	825.347
1120.63	967.022
1124.32	1119.96
1128.01	1292.19
1131.7	1443.71
1135.39	1625.98
1139.08	1821.58
1142.76	2175.43
1146.45	2681.26
1150.13	3642.22
1153.81	4620.3
1157.48	4939.64
1161.16	4419.23
1164.84	3328.34
1168.51	2394.07
1172.18	1777.32
1175.85	1414.46
1179.52	1223.73
1183.18	1007.98
1186.85	843.571
1190.51	706.788
1194.17	550.828
1197.83	443.683
1201.48	337.346
1205.14	302.027
1208.79	231.296
1212.44	260.036
1216.09	243.701
1219.74	222.347
1223.39	178.171
1227.03	114.17
1230.68	109.797
1234.32	65.656
1237.96	60.576
1241.6	69.82
1245.23	83.197
1248.87	83.398
1252.5	32.745
1256.13	21.083
1259.76	41.472
1263.39	16.918
1267.02	23.347
1270.64	26.672
1274.26	32.86
1277.88	12.987
1281.5	10.021
1285.12	14.958
1288.74	9.208
1292.35	23.456
1295.96	18.876
1299.57	29.5
1303.18	37.299
1306.79	36.359
1310.4	15.356
1314	21.602
1317.6	7.992
1321.2	17.527
1324.8	3.217
1328.4	5.067
1331.99	0.035
1335.59	2.795
1339.18	6.47
1342.77	12.007
1346.36	8.414
1349.95	7.671
1353.53	10.814
1357.12	1.897
1360.7	16.778
1364.28	10.465
1367.86	21.035
1371.44	38.464
1375.01	49.733
1378.59	61.037
1382.16	64.285
1385.73	62.463
1389.3	85.56
1392.87	86.565
1396.43	100.474
1399.99	95.715
1403.56	94.932
1407.12	109.93
1410.68	89.012
1414.23	79.496
1417.79	97.323
1421.34	71.928
1424.9	63.351
1428.45	66.32
1431.99	57.328
1435.54	58.239
1439.09	59.528
1442.63	57.794
1446.17	61.61
1449.71	58.281
1453.26	77.523
1456.79	59.673
1460.33	62.037
1463.86	59.581
1467.39	53.486
1470.92	20.364
1474.45	26.45
1477.98	25.777
1481.51	41.86
1485.03	23.204
1488.56	24.538
1492.08	23.805
1495.6	16.531
1499.11	7.051
1502.63	21.944
1506.14	13.992
1509.66	8.667
1513.17	25.711
