Measurement: Raman, 514 nm, ccw, Raman Data Processed
Mineral: Anglesite
Rruff sample: R040004
Ideal chemistry: PbSO_4_
Locality: Erupcion mine, Los Lamentos, Chihuahua, Mexico
Source: University of Arizona Mineral Museum
Description: Tan colored tabular crystal
Measured chemistry: Pb_1.00_S_1.00_O_4_
Pin_id: m00050
Orientation: Laser parallel to b* (0 1 0). Fiducial mark perpendicular to laser is parallel to c [0 0 1]
Raman shift (cm-1)	intensity
75.937	0
80.125	207.191
84.311	392.164
88.496	497.762
92.678	723.655
96.858	660.185
101.036	540.614
105.212	426.514
109.387	311.768
113.559	549.209
117.729	418.104
121.897	113.65
126.063	226.632
130.228	84.886
134.39	23.844
138.55	67.292
142.709	204.734
146.865	184.867
151.019	412.513
155.171	386.077
159.322	305.215
163.47	93.564
167.617	35.682
171.761	187.716
175.904	47.754
180.044	75.139
184.183	149.328
188.319	102.327
192.454	12.704
196.586	17.999
200.717	24.855
204.846	14.317
208.972	4.358
213.097	58.149
217.22	167.738
221.341	75.121
225.46	13.126
229.577	67.646
233.692	113.285
237.805	15.432
241.916	108.339
246.025	88.975
250.132	71.712
254.237	60.69
258.34	153.116
262.442	171.916
266.541	23.939
270.639	11.917
274.734	74.209
278.828	6.838
282.919	7.937
287.009	8.584
291.097	41.044
295.183	49.213
299.266	2.178
303.348	6.812
307.428	174.127
311.507	146.237
315.583	16.124
319.657	102.845
323.729	114.412
327.8	143.894
331.868	25.162
335.935	46.005
339.999	159.942
344.062	220.296
348.123	92.503
352.182	114.21
356.239	107.593
360.294	85.608
364.347	92.226
368.398	161.172
372.448	130.79
376.495	107.658
380.54	106.1
384.584	66.746
388.626	263.391
392.666	190.931
396.704	179.487
400.74	186.639
404.774	144.259
408.806	191.788
412.836	99.313
416.865	256.719
420.891	393.992
424.916	941.12
428.939	1758.1
432.959	7473.68
436.978	10313.4
440.996	2597.89
445.011	1039.59
449.024	512.928
453.036	446.367
457.045	348.354
461.053	421.042
465.059	245.39
469.063	296.805
473.065	282.251
477.065	204.11
481.063	229.275
485.06	94.301
489.054	206.587
493.047	258.768
497.038	172.753
501.027	155.671
505.014	70.146
508.999	224.425
512.982	73.052
516.964	127.162
520.944	177.576
524.921	215.251
528.897	241.19
532.871	143.255
536.844	56.034
540.814	160.858
544.783	154.454
548.749	248.188
552.714	41.612
556.677	242.543
560.638	300.275
564.597	183.559
568.555	293.221
572.511	191.39
576.464	183.702
580.416	405.588
584.366	427.381
588.315	388.962
592.261	450.4
596.206	754.439
600.148	1445.81
604.089	1440.84
608.028	642.048
611.965	553.228
615.901	764.37
619.834	945.45
623.766	1186.38
627.696	621.047
631.624	531.768
635.551	592.388
639.475	782.886
643.398	783.204
647.318	783.455
651.237	683.619
655.155	603.295
659.07	233.764
662.984	93.445
666.895	29.824
670.805	169.497
674.713	178.764
678.62	197.65
682.524	16.323
686.427	44.654
690.328	6.93
694.227	60.707
698.124	157.686
702.02	145.434
705.913	36.927
709.805	50.517
713.695	186.431
717.584	153.05
721.47	100.399
725.355	84.023
729.238	162.111
733.119	198.2
736.998	174.224
740.876	170.19
744.752	6.11
748.626	121.983
752.498	277.795
756.368	183.521
760.237	129.146
764.104	84.71
767.969	60.255
771.832	96.936
775.693	222.435
779.553	107.916
783.411	33.318
787.267	172.412
791.122	164.044
794.974	179.409
798.825	174.785
802.674	140.174
806.522	24.42
810.367	121.003
814.211	236.448
818.053	261.753
821.893	252.816
825.732	168.05
829.568	83.337
833.403	182.278
837.236	481.377
841.068	365.22
844.898	457.277
848.726	386.168
852.552	546.237
856.376	1011.7
860.199	903.634
864.02	758.951
867.839	392.101
871.656	323.926
875.472	352.917
879.286	264.078
883.098	501.603
886.909	439.073
890.717	256.974
894.524	364.98
898.33	313.221
902.133	381.635
905.935	497.559
909.735	156.352
913.533	181.621
917.33	110.799
921.124	210.17
924.918	419.734
928.709	339.449
932.499	369.4
936.286	115.736
940.073	186.113
943.857	426.705
947.64	807.516
951.421	908.545
955.2	1109.8
958.978	1190.72
962.753	1972.42
966.527	4083.81
970.3	10666
974.071	28121.3
977.84	21559.4
981.607	8202.4
985.372	4038
989.136	2441.65
992.898	1949.07
996.659	1914.17
1000.42	1796.1
1004.17	1081.63
1007.93	659.271
1011.68	505.188
1015.43	664.258
1019.18	964.865
1022.93	851.879
1026.68	823.5
1030.42	719.092
1034.17	471.035
1037.91	868.406
1041.65	1066.03
1045.39	1514.24
1049.12	2052.54
1052.86	2301.07
1056.59	2141.14
1060.33	2010.36
1064.06	1709.9
1067.78	1419.73
1071.51	1409.74
1075.23	1268.78
1078.96	1309.17
1082.68	819.732
1086.4	720.525
1090.12	481.48
1093.83	402.57
1097.55	443.787
1101.26	615.115
1104.97	476.543
1108.68	528.061
1112.39	209.656
1116.1	301.322
1119.8	363.039
1123.5	244.895
1127.2	196.758
1130.9	288.695
1134.6	270.715
1138.3	86.584
1141.99	29.527
1145.69	51.701
1149.38	53.875
1153.07	86.562
1156.76	369.43
1160.44	71.572
1164.13	193.777
1167.81	14
1171.49	91.729
1175.17	109.453
1178.85	132.793
1182.52	366.688
1186.2	281.365
1189.87	231.426
1193.54	20.004
1197.21	295.373
1200.88	5.926
1204.55	139.543
1208.21	216.357
1211.88	360.502
1215.54	483.029
1219.2	426.283
1222.86	309.012
1226.51	292.057
1230.17	274.771
1233.82	226.699
1237.47	387.346
1241.12	616.967
1244.77	585.914
1248.42	793.957
1252.06	551.209
1255.71	427.623
1259.35	283.65
1262.99	348.691
1266.63	363.113
1270.26	567.357
1273.9	676.93
1277.53	705.973
1281.16	509.992
1284.8	526.043
1288.42	337.369
1292.05	322.027
1295.68	102.854
1299.3	108.111
1302.92	271.959
1306.55	694.85
1310.16	605.934
1313.78	577.883
1317.4	469.389
1321.01	330.703
1324.62	81.83
1328.24	62.871
1331.85	13.99
1335.45	4.654
1339.06	337.107
1342.66	339.473
1346.27	492.314
1349.87	353.947
1353.47	327.854
1357.07	348.652
1360.66	272.15
1364.26	336.441
1367.85	280.994
1371.44	613.074
1375.04	718.373
1378.62	842.197
1382.21	618.244
1385.8	706.844
1389.38	623.523
1392.96	416.383
1396.54	237.506
1400.12	8.545
1403.7	54.941
1407.28	51.705
1410.85	116.791
