Measurement: Raman, 514 nm, ccw, Raman Data Processed
Mineral: Anglesite
Rruff sample: R050408
Ideal chemistry: PbSO_4_
Locality: Tsumeb mine, Tsumeb, Otavi District, Oshikoto, Namibia
Source: California Institute of Technology
Description: Pale yellow fragment
Measured chemistry: Pb_1.00_S_1.00_O_4_
Pin_id: L00529
Orientation: Laser parallel to c* (0 0 1). Fiducial mark perpendicular to laser is parallel to a [1 0 0]
Raman shift (cm-1)	intensity
51.431	0
56.387	16.352
61.341	5.37341
66.292	20.362
71.241	197.95
76.187	457.216
81.131	779.412
86.072	1239.24
91.012	1953.85
95.948	2678.84
100.883	2641.56
105.815	2165.65
110.744	1997.84
115.671	1918.22
120.596	2049.93
125.519	2622.88
130.439	3313.24
135.356	3715.66
140.271	3305.46
145.184	2598.9
150.094	2514.82
155.002	2179.96
159.908	1687.32
164.811	1161.89
169.711	973.657
174.61	897.735
179.505	863.553
184.399	776.189
189.29	684.764
194.178	562.702
199.064	519.731
203.948	476.733
208.829	413.429
213.708	348.947
218.585	293.69
223.459	243.949
228.33	192.696
233.199	165.603
238.066	128.545
242.93	107.207
247.792	70.8119
252.651	78.5803
257.508	67.4866
262.363	56.5038
267.215	64.6057
272.064	54.7654
276.912	38.9678
281.756	32.2107
286.598	27.4916
291.438	8.80652
296.276	21.8607
301.111	19.5373
305.943	9.24463
310.773	13.0424
315.601	10.6733
320.426	12.4498
325.248	4.63654
330.068	23.3545
334.886	14.4967
339.701	3.77734
344.514	11.195
349.324	7.31793
354.132	6.14166
358.938	4.36621
363.741	4.88812
368.541	15.4266
373.339	25.9748
378.135	30.5081
382.928	16.1331
387.718	48.6806
392.506	52.4363
397.292	134.376
402.075	157.911
406.856	237.467
411.634	333.972
416.41	414.468
421.183	532.952
425.954	1023.42
430.722	2303.88
435.488	5009.32
440.251	8416.99
445.012	13123.9
449.77	17822.7
454.526	8534.07
459.28	3028.1
464.03	1675.37
468.779	1080.64
473.525	696.101
478.268	517.649
483.009	344.882
487.747	251.424
492.483	198.512
497.217	138.907
501.948	113.846
506.676	86.0721
511.402	59.4738
516.125	33.6883
520.846	52.1605
525.565	9.63068
530.281	20.1104
534.994	26.6217
539.705	19.2053
544.413	9.98419
549.119	24.2745
553.822	13.4135
558.523	35.4922
563.222	43.5578
567.917	35.6737
572.611	43.4023
577.302	57.752
581.99	71.1061
586.676	116.382
591.359	194.053
596.04	466.488
600.718	1097.82
605.394	1673.54
610.067	1015.02
614.737	703.555
619.406	498.106
624.071	189.086
628.734	97.0751
633.395	98.9478
638.053	243.772
642.708	200.672
647.361	88.4797
652.012	54.2467
656.66	39.2131
661.305	55.8051
665.948	59.4315
670.588	43.0604
675.226	36.2082
679.861	25.9079
684.494	37.5389
689.124	37.0613
693.752	27.1178
698.377	50.7212
702.999	64.8016
707.619	66.8278
712.237	79.748
716.852	91.9169
721.464	76.7909
726.074	67.5846
730.681	93.1455
735.286	86.4709
739.888	47.5637
744.488	82.5816
749.085	62.3018
753.68	65.6604
758.272	78.7757
762.861	58.6548
767.448	89.3032
772.033	83.7252
776.614	88.9212
781.194	51.8892
785.77	54.6278
790.345	35.1395
794.916	11.9627
799.485	8.31586
804.052	11.9672
808.616	2.34735
813.177	0.409363
817.736	11.0267
822.292	18.6826
826.846	15.3618
831.397	16.3172
835.945	21.129
840.491	10.404
845.035	31.1071
849.576	29.73
854.114	21.2606
858.65	6.05225
863.183	34.0356
867.713	18.7916
872.241	52.5243
876.767	51.8872
881.29	36.4467
885.81	43.7008
890.328	12.9567
894.843	30.1229
899.356	24.6475
903.866	13.2612
908.373	58.8669
912.878	63.4483
917.38	46.8617
921.88	82.3795
926.377	98.6482
930.872	138.234
935.364	165.662
939.853	214.278
944.34	339.286
948.824	585.89
953.306	913.379
957.785	1588.06
962.261	2970.76
966.735	6694.71
971.207	18614.9
975.675	45401.6
980.141	44381.4
984.605	16598.7
989.066	6643.3
993.524	3636.41
997.98	2302.98
1002.43	1600.62
1006.88	1145.57
1011.33	904.824
1015.78	649.225
1020.22	554.029
1024.66	456.293
1029.1	359.911
1033.53	342.899
1037.97	268.337
1042.4	225.22
1046.82	280.567
1051.25	334.332
1055.67	402.549
1060.09	402.212
1064.51	358.32
1068.92	295.899
1073.33	250.953
1077.74	182.486
1082.15	189.496
1086.55	171.962
1090.95	186.919
1095.35	191.408
1099.75	242.393
1104.14	294.854
1108.53	334.873
1112.92	392.384
1117.31	524.471
1121.69	586.935
1126.07	707.807
1130.45	840.054
1134.82	953.645
1139.19	1043.57
1143.57	1013.84
1147.93	921.507
1152.3	930.745
1156.66	908.535
1161.02	665.667
1165.38	468.094
1169.73	354.449
1174.08	209.479
1178.43	185.335
1182.78	166.973
1187.12	155.301
1191.46	156.052
1195.8	132.434
1200.14	80.8793
1204.47	52.7819
1208.8	51.8916
1213.13	68.665
1217.46	99.913
1221.78	105.966
1226.1	90.1076
1230.42	47.7308
1234.73	28.8962
1239.04	2.85077
1243.35	11.0341
1247.66	24.9838
1251.97	35.9119
1256.27	38.895
1260.57	5.01831
1264.86	11.7015
1269.16	32.6547
1273.45	2.41174
1277.74	31.5421
1282.03	5.99243
1286.31	12.6296
1290.59	4.76477
1294.87	24.1694
1299.14	29.3664
1303.42	0.916138
1307.69	21.7791
1311.95	13.769
1316.22	3.93487
1320.48	3.63531
1324.74	2.58649
1329	6.46698
1333.26	14.907
1337.51	1.46332
1341.76	40.5148
1346	4.32697
1350.25	41.7987
1354.49	17.0804
1358.73	54.8765
1362.96	32.0478
1367.2	46.6258
1371.43	30.9479
1375.66	88.9879
1379.88	62.8083
1384.11	51.4096
1388.33	87.8048
1392.54	60.9899
1396.76	56.0487
1400.97	75.7827
1405.18	79.0917
1409.39	106.314
1413.59	79.3791
1417.8	95.2176
1421.99	95.9096
1426.19	82.6277
1430.38	90.6856
1434.58	54.3986
1438.77	81.8602
1442.95	51.2056
1447.13	68.5936
1451.32	27.9861
1455.49	46.1844
1459.67	47.9507
1463.84	69.6565
1468.01	46.8117
1472.18	84.4218
1476.35	54.9085
1480.51	43.509
1484.67	63.4056
1488.83	33.0632
1492.98	39.7869
1497.13	29.163
1501.28	47.7612
1505.43	45.379
1509.57	50.8724
1513.71	23.2871
1517.85	36.9445
1521.99	14.8405
1526.12	20.9521
1530.25	17.6235
1534.38	59.3865
1538.5	27.6815
1542.62	53.9179
1546.74	29.6481
1550.86	37.6681
1554.98	11.8856
1559.09	29.9557
1563.2	39.9898
1567.31	27.4733
