Measurement: Raman, 514 nm, ccw, Raman Data Processed
Mineral: Anglesite
Rruff sample: R050052
Ideal chemistry: PbSO_4_
Locality: Touissite, Oujela, Morocco
Source: Eugene Schlepp
Description: Yellow prismatic single crystal
Measured chemistry: Pb_1.00_S_1.00_O_4_
Pin_id: L00472
Orientation: Laser parallel to b* (0 1 0). Fiducial mark perpendicular to laser is parallel to -c [0 0 -1]
Raman shift (cm-1)	intensity
101.036	0
105.212	20.584
109.387	68.047
113.559	63.857
117.729	58.536
121.897	349.914
126.063	708.863
130.228	1137.15
134.39	1637.58
138.55	1909.32
142.709	1734.85
146.865	1539.09
151.019	1829.9
155.171	1862.53
159.322	1362.04
163.47	823.653
167.617	608.747
171.761	420.07
175.904	288.776
180.044	309.352
184.183	392.09
188.319	317.532
192.454	228.267
196.586	297.713
200.717	345.027
204.846	186.481
208.972	215.575
213.097	357.964
217.22	313.785
221.341	80.663
225.46	155.479
229.577	180.531
233.692	82.903
237.805	34.05
241.916	97.428
246.025	130.946
250.132	32.969
254.237	0.057
258.34	54.17
262.442	57.66
266.541	56.996
270.639	29.899
274.734	109.112
278.828	44.05
282.919	38.875
287.009	34.702
291.097	130.008
295.183	49.991
299.266	68.354
303.348	95.9
307.428	111.797
311.507	26.305
315.583	3.578
319.657	99.142
323.729	149.483
327.8	30.443
331.868	23.202
335.935	134.519
339.999	149.27
344.062	55.855
348.123	29.899
352.182	176.358
356.239	190.699
360.294	106.596
364.347	74.834
368.398	166.748
372.448	170.311
376.495	59.732
380.54	65.811
384.584	193.395
388.626	236.943
392.666	76.145
396.704	55.682
400.74	174.929
404.774	287.632
408.806	181.143
412.836	146.552
416.865	267.482
420.891	399.021
424.916	397.264
428.939	484.665
432.959	1263.07
436.978	3779.64
440.996	5150.42
445.011	2024.67
449.024	857.815
453.036	684.135
457.045	417.724
461.053	200.977
465.059	203.781
469.063	304.115
473.065	354.215
477.065	199.299
481.063	134.681
485.06	220.144
489.054	237.062
493.047	94.021
497.038	74.165
501.027	117.095
505.014	241.764
508.999	142.813
512.982	11.807
516.964	35.925
520.944	185.708
524.921	170.294
528.897	45.891
532.871	20.052
536.844	104.828
540.814	203.131
544.783	133.178
548.749	76.555
552.714	59.405
556.677	173.213
560.638	190.341
564.597	101.432
568.555	22.793
572.511	129.269
576.464	245.925
580.416	144.622
584.366	64.148
588.315	149.524
592.261	293.421
596.206	524.375
600.148	758.963
604.089	1404.34
608.028	1572.5
611.965	838.873
615.901	519.253
619.834	243.722
623.766	28.189
627.696	108.978
631.624	150.993
635.551	115.47
639.475	38.932
643.398	7.525
647.318	141.697
651.237	249.696
655.155	189.35
659.07	44.389
662.984	24.134
666.895	167.527
670.805	238.475
674.713	222.837
678.62	2.822
682.524	18.315
686.427	171.157
690.328	227.412
694.227	132.087
698.124	5.484
702.02	50.676
705.913	119.722
709.805	188.745
713.695	139.395
717.584	66.183
721.47	17.345
725.355	165.024
729.238	229.044
733.119	234.48
736.998	29.801
740.876	5.973
744.752	154.044
748.626	276.031
752.498	227.921
756.368	111.707
760.237	6.406
764.104	139.02
767.969	289.56
771.832	285.027
775.693	131.418
779.553	11.661
783.411	15.892
787.267	238.857
791.122	268.897
794.974	176.124
798.825	49.147
802.674	18.585
806.522	107.887
810.367	210.403
814.211	173.865
818.053	0.165
821.893	63.508
825.732	22.481
829.568	152.985
833.403	154.216
837.236	116.72
841.068	42.791
844.898	60.57
848.726	6.482
852.552	194.773
856.376	237.746
860.199	133.045
864.02	0.998
867.839	4.715
871.656	126.208
875.472	268.028
879.286	218.007
883.098	22.803
886.909	2.6
890.717	75.76
894.524	234.748
898.33	301.499
902.133	248.876
905.935	127.211
909.735	54.927
913.533	108.986
917.33	251.972
921.124	346.99
924.918	350.043
928.709	275.048
932.499	225.689
936.286	261.615
940.073	512.425
943.857	497.537
947.64	797.713
951.421	927.875
955.2	1093.43
958.978	1605.08
962.753	2640.15
966.527	4619.45
970.3	8973.72
974.071	20997.1
977.84	46335.2
981.607	39229.7
985.372	18041.6
989.136	8236.85
992.898	4954.97
996.659	3298.67
1000.42	2313.14
1004.17	1569.02
1007.93	1191.12
1011.68	1108.38
1015.43	1118.73
1019.18	906.102
1022.93	629.87
1026.68	415.811
1030.42	250.884
1034.17	320.507
1037.91	370.692
1041.65	471.313
1045.39	291.519
1049.12	172.49
1052.86	137.592
1056.59	150.83
1060.33	55.212
1064.06	276.772
1067.78	419.484
1071.51	384.321
1075.23	240.303
1078.96	48.41
1082.68	38.664
1086.4	233.11
1090.12	364.742
1093.83	424.638
1097.55	393.254
1101.26	254.307
1104.97	105.956
1108.68	185.308
1112.39	34.238
1116.1	75.399
1119.8	571.128
1123.5	761.873
1127.2	702.859
1130.9	477.887
1134.6	601.097
1138.3	617.537
1141.99	760.21
1145.69	895.301
1149.38	801.531
1153.07	670.791
1156.76	403.196
1160.44	127.877
1164.13	67.824
1167.81	193.195
1171.49	194.596
1175.17	290.381
1178.85	361.843
1182.52	290.694
1186.2	184.039
1189.87	21.205
1193.54	0.001
1197.21	213.701
1200.88	247.41
1204.55	418.146
1208.21	461.096
1211.88	370.153
1215.54	190.009
1219.2	156.331
1222.86	199.106
1226.51	292.866
1230.17	314.32
1233.82	448.541
1237.47	391.464
1241.12	201.418
1244.77	121.577
1248.42	39.505
1252.06	63.459
1255.71	46.549
1259.35	177.326
1262.99	208.315
1266.63	297.217
1270.26	270.627
1273.9	217.987
1277.53	59.387
1281.16	40.021
1284.8	54.014
1288.42	23.252
1292.05	120.646
1295.68	288.512
1299.3	369.739
1302.92	364.843
1306.55	202.043
1310.16	142.779
1313.78	76.359
1317.4	14.245
1321.01	23.913
1324.62	82.915
1328.24	297.741
1331.85	319.494
1335.45	320.594
1339.06	274.8
1342.66	217.745
1346.27	197.515
1349.87	80.822
1353.47	72.136
1357.07	146.094
1360.66	235.065
1364.26	378.903
1367.85	462.27
1371.44	478.26
1375.04	291.344
1378.62	119.701
1382.21	73.542
1385.8	13.331
1389.38	79.282
1392.96	152.967
1396.54	260.436
1400.12	362.463
1403.7	408.397
1407.28	488.502
1410.85	441.602
1414.42	341.106
1417.99	92.32
1421.56	62.427
1425.13	164.85
1428.7	151.765
1432.26	268.068
1435.83	319.941
1439.39	443.279
1442.95	476.405
1446.51	483.55
1450.06	381.272
1453.62	279.314
1457.17	126.837
1460.73	144.324
1464.28	120.122
1467.83	115.71
1471.37	171.917
1474.92	339.276
1478.46	416.24
1482.01	417.099
1485.55	464.397
1489.09	439.765
1492.63	490.808
1496.16	378.654
1499.7	163.683
1503.23	42.229
1506.76	84.125
1510.29	31.811
1513.82	35.321
1517.35	109.029
1520.88	243.527
