Measurement: Raman, 514 nm, ccw, Raman Data Processed
Mineral: Anglesite
Rruff sample: R050052
Ideal chemistry: PbSO_4_
Locality: Touissite, Oujela, Morocco
Source: Eugene Schlepp
Description: Yellow prismatic single crystal
Measured chemistry: Pb_1.00_S_1.00_O_4_
Pin_id: L00248
Orientation: Laser parallel to c* (0 0 1). Fiducial mark perpendicular to laser is parallel to a [1 0 0]
Raman shift (cm-1)	intensity
46.637	0
50.856	61.188
55.072	125.47
59.287	130.458
63.499	171.039
67.709	81.216
71.917	45.204
76.123	1.069
80.327	3.612
84.529	89.716
88.728	234.321
92.926	643.344
97.121	1277.67
101.314	1239.19
105.505	1022.9
109.694	1037.85
113.881	1204.99
118.066	1348.32
122.249	1802.91
126.43	2565.74
130.608	3327.64
134.785	3530.67
138.959	3205.75
143.131	2497.68
147.301	2114.24
151.469	2098.76
155.635	1886.47
159.799	1331.54
163.961	953.977
168.121	868.696
172.278	786.073
176.434	666.176
180.587	603.438
184.739	597.9
188.888	527.707
193.035	443.744
197.18	409.091
201.324	369.282
205.465	307.017
209.603	272.213
213.74	265.251
217.875	256.349
222.008	199.087
226.139	155.354
230.267	171.143
234.394	157.237
238.518	104.604
242.641	96.649
246.761	102.718
250.879	73.178
254.996	59.494
259.11	53.791
263.222	50.06
267.332	52.295
271.44	24.493
275.546	18.649
279.65	20.451
283.752	3.816
287.852	24.816
291.95	32.756
296.046	10.635
300.14	19.468
304.231	8.194
308.321	10.872
312.409	12.481
316.495	1.023
320.578	6.498
324.66	0.899
328.739	8.777
332.817	14.456
336.892	13.395
340.966	7.614
345.037	5.397
349.107	8.453
353.174	4.787
357.24	0.095
361.303	2.558
365.365	12.007
369.424	9.437
373.481	1.834
377.537	24.26
381.59	8.255
385.642	12.996
389.691	50.231
393.738	73.239
397.784	78.227
401.827	100.152
405.868	147.996
409.908	166.87
413.945	206.636
417.98	251.425
422.014	335.101
426.045	530.666
430.075	927.127
434.102	2587.43
438.127	8683.6
442.151	4630.69
446.172	1310.57
450.192	657.458
454.209	396.444
458.225	256.157
462.238	227.996
466.25	199.748
470.259	195.982
474.267	175.084
478.273	148.632
482.276	109.704
486.278	104.86
490.278	82.68
494.276	88.643
498.271	48.224
502.265	45.532
506.257	56.152
510.247	52.781
514.235	18.863
518.221	14.789
522.205	20.025
526.187	17.475
530.167	17.743
534.145	6.362
538.122	3.671
542.096	9.183
546.068	11.491
550.039	10.748
554.007	8.454
557.973	6.144
561.938	27.717
565.901	29.081
569.861	38.048
573.82	35.077
577.777	65.83
581.732	82.368
585.685	96.693
589.636	129.661
593.585	278.829
597.532	546.416
601.477	1401.28
605.42	3036.64
609.361	1850.09
613.301	1085.3
617.238	1951.45
621.174	1504.54
625.108	448.554
629.039	207.511
632.969	167.41
636.897	205.244
640.823	300.017
644.747	273.728
648.669	106.457
652.589	76.856
656.508	60.626
660.424	58.75
664.339	56.185
668.251	54.427
672.162	67.909
676.071	60.908
679.978	63.204
683.883	49.53
687.786	58.962
691.687	62.966
695.586	64.198
699.484	49.614
703.379	63.907
707.273	51.068
711.165	47.104
715.055	48.342
718.943	62.412
722.829	37.358
726.713	34.957
730.595	34.842
734.476	50.376
738.354	37.783
742.231	50.061
746.106	42.222
749.978	48.263
753.849	45.182
757.719	44.975
761.586	33.662
765.451	44.247
769.315	64.737
773.177	90.133
777.036	83.438
780.894	88.653
784.75	122.78
788.605	152.822
792.457	107.781
796.307	61.658
800.156	33.456
804.003	22.175
807.848	4.802
811.691	1.686
815.532	2.304
819.371	16.07
823.209	33.034
827.045	11.242
830.878	42.618
834.71	35.232
838.54	40.126
842.369	34.335
846.195	30.848
850.02	17.55
853.842	23.843
857.663	14.052
861.482	28.905
865.299	36.415
869.115	33.962
872.928	23.681
876.74	31.043
880.55	21.058
884.358	58.021
888.164	43.518
891.969	39.661
895.771	54.409
899.572	48.166
903.371	57.882
907.168	59.046
910.963	75.941
914.757	107.158
918.548	71.602
922.338	157.106
926.126	165.673
929.912	221.307
933.697	224.013
937.479	280.794
941.26	356.656
945.039	543.602
948.816	842.638
952.591	1184.77
956.365	1710.9
960.136	2510.89
963.906	4039.61
967.674	7552.72
971.441	17386.6
975.205	45953.5
978.968	63782.7
982.729	29221.1
986.488	11648.6
990.245	6148.51
994	3856.98
997.754	2867.7
1001.51	2197.68
1005.26	1605.55
1009	1292.06
1012.75	1061.63
1016.5	975.485
1020.24	894.599
1023.98	871.947
1027.72	774.543
1031.46	698.414
1035.19	591.553
1038.93	608.949
1042.66	695.593
1046.39	763.51
1050.12	969.676
1053.85	1130.09
1057.57	1183.74
1061.29	1182.62
1065.02	1050.74
1068.74	969.095
1072.45	899.674
1076.17	733.475
1079.88	621.485
1083.6	553.708
1087.31	505.142
1091.02	502.783
1094.72	532.681
1098.43	624.731
1102.13	621.986
1105.84	676.446
1109.54	717.125
1113.24	739.03
1116.93	848.17
1120.63	1052.56
1124.32	1259.22
1128.01	1424.16
1131.7	1589.35
1135.39	1625.93
1139.08	1645.44
1142.76	1696.28
1146.45	1710.87
1150.13	1948.18
1153.81	2155.59
1157.48	2106.24
1161.16	1891.5
1164.84	1396.66
1168.51	1058.86
1172.18	779.944
1175.85	594.902
1179.52	502.625
1183.18	444.944
1186.85	381.456
1190.51	292.138
1194.17	248.07
1197.83	215.826
1201.48	175.278
1205.14	114.713
1208.79	150.11
1212.44	147.781
1216.09	177.251
1219.74	158.404
1223.39	97.038
1227.03	99.214
1230.68	49.782
1234.32	35.118
1237.96	19.175
1241.6	22.405
1245.23	3.592
1248.87	31.983
1252.5	21.374
1256.13	35.901
1259.76	26.433
1263.39	25.007
1267.02	21.567
1270.64	19.007
1274.26	30.262
1277.88	11.451
1281.5	29.566
1285.12	1.488
1288.74	12.748
1292.35	17.821
1295.96	20.777
1299.57	26.543
1303.18	28.359
1306.79	37.4
1310.4	16.606
1314	10.953
1317.6	12.442
1321.2	7.096
1324.8	14.962
1328.4	11.014
1331.99	13.24
1335.59	14.589
1339.18	2.839
1342.77	5.887
1346.36	33.227
1349.95	8.202
1353.53	4.029
1357.12	15.704
1360.7	16.232
1364.28	21.623
1367.86	49.05
1371.44	27.188
1375.01	45.172
1378.59	66.8
1382.16	73.757
1385.73	78.689
1389.3	61.526
1392.87	74.253
1396.43	76.864
1399.99	83.232
1403.56	90.671
1407.12	86.669
1410.68	93.539
1414.23	95.031
1417.79	81.427
1421.34	66.469
1424.9	61.412
1428.45	46.761
1431.99	57.098
1435.54	46.529
1439.09	54.465
1442.63	32.513
1446.17	80.325
1449.71	52.686
1453.26	67.811
1456.79	80.812
1460.33	59.641
1463.86	75.528
1467.39	42.636
1470.92	27.771
1474.45	16.497
1477.98	32.016
1481.51	20.598
1485.03	30.191
1488.56	16.714
1492.08	19.79
1495.6	37.589
1499.11	13.28
1502.63	16.37
1506.14	1.174
1509.66	8.776
1513.17	0.089
1516.68	0
