Measurement: Raman, 514 nm, ccw, Raman Data Processed
Mineral: Anglesite
Rruff sample: R040004
Ideal chemistry: PbSO_4_
Locality: Erupcion mine, Los Lamentos, Chihuahua, Mexico
Source: University of Arizona Mineral Museum
Description: Tan colored tabular crystal
Measured chemistry: Pb_1.00_S_1.00_O_4_
Pin_id: m00050
Orientation: Laser parallel to b* (0 1 0). Fiducial mark perpendicular to laser is parallel to c [0 0 1]
Raman shift (cm-1)	intensity
81.521	0
85.706	321.458
89.89	1201.94
94.071	1856.8
98.251	1416.11
102.428	1197.63
106.604	785.956
110.777	411.001
114.949	253.072
119.119	280.219
123.286	306.127
127.452	443.575
131.615	671.847
135.777	571.122
139.937	314.035
144.094	227.083
148.25	640.62
152.403	658.565
156.555	482.077
160.705	577.628
164.853	455.756
168.998	242.693
173.142	50.629
177.284	93.401
181.424	96.981
185.562	8.489
189.698	13.377
193.831	110.312
197.963	88.335
202.093	85.025
206.221	5.316
210.347	13.649
214.472	16.977
218.594	52.718
222.714	5.925
226.832	18.361
230.948	30.044
235.063	63.293
239.175	5.864
243.286	8.199
247.394	55.305
251.501	85.141
255.605	105.073
259.708	80.887
263.808	87.322
267.907	0.237
272.004	26.077
276.099	5.623
280.192	2.272
284.283	82.051
288.372	114.009
292.459	28.133
296.544	56.446
300.627	138.905
304.709	143.08
308.788	124.746
312.865	214.153
316.941	303.271
321.015	241.763
325.086	169.711
329.156	196.907
333.224	273.913
337.29	289.819
341.354	234.998
345.416	278.846
349.476	231.532
353.534	362.065
357.591	219.878
361.645	220.45
365.698	263.881
369.748	143.896
373.797	154.614
377.844	108.438
381.889	235.342
385.932	311.825
389.973	213.945
394.012	232.932
398.049	304.233
402.084	322.125
406.118	326.244
410.15	188.276
414.179	423.168
418.207	377.574
422.233	495.621
426.257	673.302
430.279	1667.05
434.299	6127.32
438.318	4086.59
442.334	1119.21
446.349	623.621
450.361	517.615
454.372	316.975
458.381	260.096
462.388	222.996
466.394	306.832
470.397	239.72
474.398	233.248
478.398	107.729
482.396	130.547
486.391	203.667
490.385	146.487
494.377	99.544
498.368	122.765
502.356	185.463
506.342	269.367
510.327	201.939
514.31	105.831
518.291	236.429
522.27	241.127
526.247	96.619
530.222	89.019
534.196	221.884
538.167	261.853
542.137	220.275
546.105	122.947
550.071	102.06
554.035	265.325
557.998	139.256
561.958	157.656
565.917	147.229
569.874	170.34
573.829	361.977
577.782	449.063
581.733	250.603
585.683	363.917
589.63	496.83
593.576	568.104
597.52	803.948
601.462	1516.3
605.402	1710.54
609.341	1031.73
613.277	622.873
617.212	603.886
621.145	554.793
625.076	785.6
629.006	533.706
632.933	437.106
636.859	357.276
640.783	467.43
644.705	347.22
648.625	446.614
652.543	431.937
656.46	251.654
660.375	74
664.288	203.512
668.199	272.786
672.108	111.859
676.016	21.305
679.921	9.968
683.825	57.956
687.727	75.611
691.628	93.86
695.526	58.593
699.423	207.532
703.318	74.606
707.211	191.622
711.102	118.653
714.992	74.707
718.879	88.529
722.765	207.236
726.649	343.174
730.532	318.948
734.412	83.397
738.291	10.769
742.168	64.569
746.043	109.804
749.916	154.923
753.788	219.881
757.658	32.759
761.526	141.889
765.392	116.463
769.257	340.965
773.119	176.047
776.98	20.414
780.839	115.281
784.697	48.771
788.552	242.744
792.406	176.615
796.258	80.439
800.108	4.229
803.957	48.01
807.804	141.727
811.649	185.301
815.492	48.443
819.333	31.631
823.173	35.02
827.011	167.043
830.847	281.381
834.681	270.254
838.514	212.867
842.345	155.498
846.174	157.582
850.001	487.125
853.827	640.271
857.651	633.371
861.473	570.299
865.293	322.697
869.112	308.006
872.928	264.672
876.744	348.318
880.557	430.684
884.369	154.98
888.178	25.92
891.987	206.738
895.793	381.428
899.598	374.645
903.401	339.619
907.202	99.594
911.001	51.885
914.799	337.365
918.595	82.984
922.389	208.727
926.182	144.633
929.972	280.666
933.761	210.436
937.549	345.809
941.334	343.393
945.118	406.203
948.9	553.088
952.681	660.111
956.459	640.193
960.236	1400.97
964.012	2348.36
967.785	4943.34
971.557	13091.3
975.327	25079.5
979.095	13078.1
982.862	5476.28
986.627	3285.19
990.39	1724.34
994.152	1523.71
997.912	1643.3
1001.67	1043.55
1005.43	583.91
1009.18	496.758
1012.93	779.6
1016.68	711.602
1020.43	703.266
1024.18	699.254
1027.93	398.582
1031.67	255.43
1035.42	567.896
1039.16	841.012
1042.9	884.225
1046.63	820.029
1050.37	953.918
1054.11	1001.39
1057.84	1133.28
1061.57	1118.27
1065.3	1183.25
1069.03	1188.46
1072.75	783.85
1076.47	628.801
1080.2	514.527
1083.92	520.447
1087.64	386.6
1091.36	302.908
1095.07	539.357
1098.79	265.934
1102.5	97.387
1106.21	69.316
1109.92	116.162
1113.62	313.117
1117.33	220.184
1121.04	527.309
1124.74	384.49
1128.44	151.713
1132.14	159.033
1135.83	276.357
1139.53	205.156
1143.22	313.863
1146.92	242.248
1150.61	283.729
1154.3	232.369
1157.98	57.375
1161.67	29.123
1165.35	79.322
1169.04	187.93
1172.72	268.775
1176.4	442.451
1180.07	342.658
1183.75	46.205
1187.42	110.979
1191.1	41.105
1194.77	116.781
1198.44	260.223
1202.1	442.24
1205.77	522.623
1209.43	435.664
1213.1	352.264
1216.76	171.434
1220.42	119.521
1224.07	137.283
1227.73	344.996
1231.38	542.396
1235.04	529.314
1238.69	605.297
1242.34	590.6
1245.99	305.205
1249.63	306.174
1253.28	339.357
1256.92	281.926
1260.56	454.068
1264.2	775.402
1267.84	636.742
1271.48	577.947
1275.11	717.688
1278.74	466.348
1282.38	37.07
1286.01	67.867
1289.63	448.176
1293.26	463.004
1296.89	473.268
1300.51	370.23
1304.13	584.676
1307.75	670.596
1311.37	249.246
1314.99	9.758
1318.6	33.402
1322.22	283.451
1325.83	300.211
1329.44	216.826
1333.05	433.412
1336.66	440.092
1340.26	297.09
1343.87	174.438
1347.47	72.266
1351.07	0.631
1354.67	45.5
1358.27	221.037
1361.86	385.361
1365.46	565.365
1369.05	861.658
1372.64	770.686
1376.23	819.848
1379.82	727.711
1383.41	494.885
1386.99	281.307
1390.57	247.74
1394.16	313.852
1397.74	333.855
1401.32	567.568
1404.89	684.977
1408.47	537.697
1412.04	704.328
1415.61	335.053
1419.18	2.588
