Measurement: Raman, 514 nm, ccw, Raman Data Processed
Mineral: Anglesite
Rruff sample: R050052
Ideal chemistry: PbSO_4_
Locality: Touissite, Oujela, Morocco
Source: Eugene Schlepp
Description: Yellow prismatic single crystal
Measured chemistry: Pb_1.00_S_1.00_O_4_
Pin_id: L00231
Orientation: Laser parallel to -a* (-1 0 0). Fiducial mark perpendicular to laser is parallel to -b [0 -1 0]
Raman shift (cm-1)	intensity
46.637	0
50.856	49.921
55.072	166.996
59.287	176.896
63.499	204.474
67.709	92.798
71.917	40.34
76.123	11.185
80.327	17.026
84.529	66.731
88.728	209.034
92.926	803.781
97.121	1897.86
101.314	1774.12
105.505	1216.48
109.694	1104.01
113.881	1106.78
118.066	1133.95
122.249	1349.42
126.43	1891.1
130.608	2366.79
134.785	2676.64
138.959	2573.56
143.131	2333.34
147.301	2288.77
151.469	2617.84
155.635	2400.82
159.799	1563.98
163.961	1070.27
168.121	907.96
172.278	755.99
176.434	671.49
180.587	622.823
184.739	614.588
188.888	550.93
193.035	527.653
197.18	513.656
201.324	507.23
205.465	460.453
209.603	417.449
213.74	390.333
217.875	361.598
222.008	301.094
226.139	250.358
230.267	248.224
234.394	211.314
238.518	187.312
242.641	158.178
246.761	126.681
250.879	115.249
254.996	104.018
259.11	87.882
263.222	82.712
267.332	63.504
271.44	60.253
275.546	47.957
279.65	66.61
283.752	42.207
287.852	29.741
291.95	40.205
296.046	16.598
300.14	12.916
304.231	0.155
308.321	5.688
312.409	2.615
316.495	6.379
320.578	14.708
324.66	5.888
328.739	5.156
332.817	0.514
336.892	0.961
340.966	1.513
345.037	11.818
349.107	4.975
353.174	9.9
357.24	6.94
361.303	4.9
365.365	0.301
369.424	1.345
373.481	3.916
377.537	12.459
381.59	4.16
385.642	6.129
389.691	18.332
393.738	14.458
397.784	43.531
401.827	44.561
405.868	64.57
409.908	81.593
413.945	106.607
417.98	187.58
422.014	250.506
426.045	355.381
430.075	610.153
434.102	1844.81
438.127	6399.4
442.151	3632.86
446.172	1555.14
450.192	1694.33
454.209	949.369
458.225	457.228
462.238	313.921
466.25	265.423
470.259	234.388
474.267	204.583
478.273	168.222
482.276	131.148
486.278	121.448
490.278	103.663
494.276	87.949
498.271	71.297
502.265	43.2
506.257	54.635
510.247	52.089
514.235	28.015
518.221	41.391
522.205	29.46
526.187	22.531
530.167	27.273
534.145	27.311
538.122	21.994
542.096	35.639
546.068	33.358
550.039	21.213
554.007	34.428
557.973	28.461
561.938	29.468
565.901	58.551
569.861	43.596
573.82	49.761
577.777	80.128
581.732	94.117
585.685	110.014
589.636	141.842
593.585	248.655
597.532	438.304
601.477	1040.91
605.42	1967.48
609.361	945.017
613.301	361.512
617.238	248.971
621.174	127.394
625.108	33.784
629.039	48.144
632.969	22.477
636.897	19.785
640.823	21.057
644.747	29.404
648.669	25.686
652.589	18.92
656.508	43.874
660.424	35.773
664.339	49.026
668.251	34.599
672.162	32.311
676.071	45.685
679.978	35.406
683.883	34.895
687.786	39.633
691.687	34.26
695.586	31.87
699.484	37.541
703.379	33.131
707.273	23.711
711.165	41.163
715.055	39.542
718.943	35.848
722.829	37.079
726.713	24.237
730.595	22.318
734.476	39.317
738.354	31.241
742.231	45.093
746.106	24.875
749.978	42.586
753.849	45.231
757.719	41.811
761.586	56.327
765.451	81.78
769.315	102.171
773.177	96.5
777.036	129.769
780.894	61.979
784.75	34.131
788.605	40.225
792.457	17.262
796.307	5.226
800.156	7.086
804.003	10.135
807.848	14.521
811.691	22.991
815.532	27.728
819.371	21.492
823.209	8.425
827.045	24.536
830.878	15.79
834.71	8.22
838.54	15.854
842.369	3.69
846.195	28.618
850.02	2.818
853.842	6.488
857.663	20.329
861.482	57.987
865.299	86.709
869.115	63.482
872.928	56.287
876.74	70.054
880.55	74.744
884.358	60.37
888.164	75.967
891.969	70.69
895.771	69.543
899.572	74.292
903.371	89.217
907.168	106.185
910.963	125.694
914.757	142.976
918.548	150.205
922.338	163.262
926.126	214.348
929.912	255.468
933.697	259.622
937.479	335.815
941.26	333.049
945.039	495.317
948.816	735.307
952.591	1014.73
956.365	1401.15
960.136	2051.39
963.906	3378.69
967.674	6210.33
971.441	14511.3
975.205	38972.5
978.968	55073.8
982.729	25696
986.488	10388.8
990.245	5674.87
994	3614.95
997.754	2642.09
1001.51	1963.23
1005.26	1487.81
1009	1090.53
1012.75	829.337
1016.5	724.368
1020.24	615.548
1023.98	588.869
1027.72	484.336
1031.46	431.947
1035.19	284.712
1038.93	243.625
1042.66	224.708
1046.39	199.948
1050.12	208.345
1053.85	214.893
1057.57	158.574
1061.29	103.406
1065.02	111.404
1068.74	135.553
1072.45	144.848
1076.17	146.275
1079.88	141.834
1083.6	113.526
1087.31	90.351
1091.02	93.316
1094.72	121.418
1098.43	150.672
1102.13	180.078
1105.84	201.65
1109.54	211.386
1113.24	241.295
1116.93	309.385
1120.63	415.661
1124.32	488.135
1128.01	583.794
1131.7	635.637
1135.39	684.654
1139.08	691.833
1142.76	638.179
1146.45	570.697
1150.13	500.262
1153.81	391.298
1157.48	283.725
1161.16	233.742
1164.84	139.555
1168.51	111.114
1172.18	61.894
1175.85	87.793
1179.52	112.673
1183.18	101.721
1186.85	120.18
1190.51	124.422
1194.17	112.103
1197.83	90.886
1201.48	104.147
1205.14	123.149
1208.79	124.051
1212.44	128.039
1216.09	141.604
1219.74	135.883
1223.39	99.224
1227.03	76.612
1230.68	69.074
1234.32	60.858
1237.96	57.96
1241.6	62.653
1245.23	63.907
1248.87	62.831
1252.5	39.612
1256.13	56.522
1259.76	51.45
1263.39	32.358
1267.02	52.27
1270.64	43.225
1274.26	27.06
1277.88	59.008
1281.5	36.744
1285.12	5.288
1288.74	19.247
1292.35	16.844
1295.96	7.315
1299.57	9.126
1303.18	14.979
1306.79	20.912
1310.4	11.944
1314	2.067
1317.6	14.272
1321.2	2.57
1324.8	1.079
1328.4	15.426
1331.99	27.041
1335.59	3.227
1339.18	11.395
1342.77	8.465
1346.36	23.445
1349.95	9.42
1353.53	10.208
1357.12	22.897
1360.7	16.491
1364.28	19.003
1367.86	20.533
1371.44	21.893
1375.01	19.16
1378.59	14.117
1382.16	26.894
1385.73	24.619
1389.3	30.296
1392.87	44.917
1396.43	48.476
1399.99	40.971
1403.56	46.41
1407.12	55.354
1410.68	37.597
1414.23	55.798
1417.79	37.552
1421.34	33.226
1424.9	43.407
1428.45	36.79
1431.99	39.598
1435.54	12.23
1439.09	28.196
1442.63	37.375
1446.17	50.257
1449.71	50.094
1453.26	43.651
1456.79	49.541
1460.33	38.855
1463.86	46.828
1467.39	36.36
1470.92	32.517
1474.45	24.003
1477.98	13.849
1481.51	24.661
1485.03	35.176
1488.56	27.647
1492.08	22.866
1495.6	30.634
1499.11	18.604
1502.63	14.728
1506.14	1.775
1509.66	12.71
1513.17	13.826
1516.68	0
