Measurement: Raman, 514 nm, ccw, Raman Data Processed
Mineral: Anglesite
Rruff sample: R050408
Ideal chemistry: PbSO_4_
Locality: Tsumeb mine, Tsumeb, Otavi District, Oshikoto, Namibia
Source: California Institute of Technology
Description: Pale yellow fragment
Measured chemistry: Pb_1.00_S_1.00_O_4_
Pin_id: L01992
Orientation: Laser parallel to b* (0 1 0). Fiducial mark perpendicular to laser is parallel to c [0 0 1]
Raman shift (cm-1)	intensity
51.431	0
56.387	4.59317
61.341	22.9815
66.292	3.82437
71.241	130.983
76.187	235.62
81.131	514.975
86.072	796.771
91.012	1076.24
95.948	1422.76
100.883	1480.9
105.815	1136.35
110.744	1036.86
115.671	1039.31
120.596	1341.62
125.519	1904.88
130.439	2208.49
135.356	2199.46
140.271	1852.84
145.184	1396.69
150.094	1143.79
155.002	1032.11
159.908	861.658
164.811	807.417
169.711	811.379
174.61	958.593
179.505	1047.69
184.399	1135.49
189.29	1132.87
194.178	943.504
199.064	705.803
203.948	528.392
208.829	389.352
213.708	303.012
218.585	283.875
223.459	227.268
228.33	164.502
233.199	163.814
238.066	119.872
242.93	84.5807
247.792	68.4852
252.651	83.5496
257.508	72.7715
262.363	62.1287
267.215	53.5934
272.064	38.1431
276.912	37.7689
281.756	43.4553
286.598	14.2433
291.438	35.0608
296.276	25.9213
301.111	9.81421
305.943	2.26453
310.773	10.6849
315.601	8.34094
320.426	6.78015
325.248	9.60266
330.068	15.4456
334.886	20.4531
339.701	4.70612
344.514	2.90552
349.324	39.0894
354.132	4.31836
358.938	4.41492
363.741	1.12335
368.541	11.1852
373.339	1.3963
378.135	4.93585
382.928	12.3474
387.718	27.9576
392.506	56.4545
397.292	58.2794
402.075	51.7332
406.856	117.895
411.634	109.367
416.41	142.829
421.183	222.015
425.954	343.657
430.722	863.089
435.488	2111.51
440.251	3331.87
445.012	1643.65
449.77	1923.99
454.526	1288.38
459.28	466.434
464.03	278.783
468.779	183.446
473.525	147.755
478.268	141.18
483.009	90.797
487.747	67.7035
492.483	77.9734
497.217	45.5815
501.948	36.4579
506.676	27.9539
511.402	41.5319
516.125	9.05548
520.846	18.2866
525.565	25.0659
530.281	36.296
534.994	18.5449
539.705	29.7998
544.413	6.93896
549.119	18.2903
553.822	20.6146
558.523	0.064148
563.222	12.4942
567.917	64.9269
572.611	51.5767
577.302	53.4295
581.99	88.051
586.676	118.684
591.359	199.767
596.04	452.51
600.718	1131.97
605.394	2387.64
610.067	1636
614.737	938.445
619.406	919.641
624.071	380.029
628.734	270.753
633.395	409.823
638.053	849.261
642.708	1502.49
647.361	619.197
652.012	201.633
656.66	119.052
661.305	110.535
665.948	88.8456
670.588	67.9326
675.226	74.3358
679.861	34.7532
684.494	49.2274
689.124	62.2526
693.752	45.523
698.377	69.322
702.999	38.3112
707.619	51.7239
712.237	66.7701
716.852	71.8127
721.464	73.422
726.074	55.3812
730.681	60.9023
735.286	52.2878
739.888	65.4308
744.488	52.3901
749.085	61.1643
753.68	76.9655
758.272	56.3776
762.861	59.9694
767.448	46.0582
772.033	32.9062
776.614	63.6847
781.194	29.1645
785.77	42.4434
790.345	31.5298
794.916	23.4247
799.485	31.0795
804.052	0.516113
808.616	1.7146
813.177	12.6547
817.736	3.36255
822.292	2.1272
826.846	2.86945
831.397	2.94781
835.945	36.3714
840.491	36.1516
845.035	13.0233
849.576	34.3867
854.114	8.25476
858.65	26.8885
863.183	50.7452
867.713	1.80835
872.241	37.7053
876.767	12.5769
881.29	25.9122
885.81	15.6315
890.328	6.09888
894.843	4.29834
899.356	19.0598
903.866	7.90118
908.373	8.7384
912.878	23.6488
917.38	21.7105
921.88	27.7366
926.377	66.6779
930.872	107.62
935.364	97.7982
939.853	163.972
944.34	272.418
948.824	455.999
953.306	759.721
957.785	1341.42
962.261	2342.72
966.735	5141.93
971.207	13698.3
975.675	36680.2
980.141	48806.7
984.605	18790
989.066	7184.11
993.524	3681.51
997.98	2282.14
1002.43	1506.19
1006.88	1081.56
1011.33	814.181
1015.78	564.057
1020.22	404.194
1024.66	306.421
1029.1	248.115
1033.53	189.849
1037.97	129.136
1042.4	78.6764
1046.82	102.733
1051.25	114.176
1055.67	95.007
1060.09	64.2224
1064.51	102.79
1068.92	92.7737
1073.33	127.177
1077.74	185.983
1082.15	236.181
1086.55	286.748
1090.95	338.689
1095.35	339.019
1099.75	337.725
1104.14	392.847
1108.53	491.378
1112.92	514.312
1117.31	598.659
1121.69	709.394
1126.07	846.496
1130.45	992.916
1134.82	1188.75
1139.19	1531.74
1143.57	1886.01
1147.93	2490.54
1152.3	3348.33
1156.66	4006.6
1161.02	3664.01
1165.38	2749.11
1169.73	1951.07
1174.08	1249.71
1178.43	967.085
1182.78	810.124
1187.12	567.753
1191.46	515.4
1195.8	392.068
1200.14	313.527
1204.47	213.58
1208.8	139.98
1213.13	210.132
1217.46	140.691
1221.78	150.584
1226.1	97.7141
1230.42	71.5151
1234.73	65.8826
1239.04	7.14722
1243.35	18.0048
1247.66	28.5344
1251.97	42.7444
1256.27	33.8978
1260.57	26.8621
1264.86	33.0618
1269.16	0.870728
1273.45	1.23218
1277.74	13.251
1282.03	7.75842
1286.31	23.95
1290.59	1.26575
1294.87	4.45227
1299.14	10.0463
1303.42	32.5758
1307.69	8.45642
1311.95	3.26013
1316.22	7.14246
1320.48	20.125
1324.74	10.6289
1329	4.81262
1333.26	9.32019
1337.51	34.9635
1341.76	30.3052
1346	21.4446
1350.25	28.1104
1354.49	67.7753
1358.73	43.1084
1362.96	37.3981
1367.2	76.6056
1371.43	34.3828
1375.66	46.0411
1379.88	62.4949
1384.11	51.7862
1388.33	88.7993
1392.54	79.485
1396.76	106.102
1400.97	72.5759
1405.18	87.9871
1409.39	84.958
1413.59	93.9624
1417.8	76.9039
1421.99	64.1684
1426.19	74.4357
1430.38	94.858
1434.58	110.172
1438.77	55.1923
1442.95	84.3129
1447.13	57.0133
1451.32	108.371
1455.49	82.55
1459.67	65.1268
1463.84	63.0059
1468.01	42.5741
1472.18	69.4351
1476.35	68.0231
1480.51	59.3942
1484.67	75.4292
1488.83	32.1117
1492.98	80.5692
1497.13	52.5128
1501.28	22.4165
1505.43	41.4125
1509.57	33.6793
1513.71	42.8795
1517.85	37.6654
1521.99	43.2722
1526.12	16.7378
1530.25	55.7806
1534.38	40.6273
1538.5	14.5458
1542.62	51.6429
1546.74	19.2759
1550.86	61.9857
1554.98	47.8384
1559.09	61.8499
1563.2	0.754028
1567.31	1.94983
