Measurement: Raman, 514 nm, ccw, Raman Data Processed
Mineral: Anglesite
Rruff sample: R050408
Ideal chemistry: PbSO_4_
Locality: Tsumeb mine, Tsumeb, Otavi District, Oshikoto, Namibia
Source: California Institute of Technology
Description: Pale yellow fragment
Measured chemistry: Pb_1.00_S_1.00_O_4_
Pin_id: L00529
Orientation: Laser parallel to c* (0 0 1). Fiducial mark perpendicular to laser is parallel to a [1 0 0]
Raman shift (cm-1)	intensity
51.431	0
56.387	17.2915
61.341	3.75955
66.292	16.8015
71.241	169.528
76.187	424.442
81.131	794.14
86.072	1535.12
91.012	2779.48
95.948	3992.39
100.883	3624.33
105.815	2635.94
110.744	2047.93
115.671	1930.08
120.596	2035.37
125.519	2595.34
130.439	3276.78
135.356	3502.91
140.271	3123.58
145.184	3039.92
150.094	3314.77
155.002	3005.93
159.908	2171.32
164.811	1541.93
169.711	1198.74
174.61	989.827
179.505	854.967
184.399	794.626
189.29	718.698
194.178	670.302
199.064	625.343
203.948	531.339
208.829	504.056
213.708	478.512
218.585	412.913
223.459	340.843
228.33	269.959
233.199	207.969
238.066	202.631
242.93	170.646
247.792	146.489
252.651	114.24
257.508	142.139
262.363	89.16
267.215	88.2796
272.064	75.4719
276.912	39.7207
281.756	39.0217
286.598	42.3652
291.438	7.73798
296.276	4.87219
301.111	19.52
305.943	2.09515
310.773	17.279
315.601	10.3566
320.426	1.02716
325.248	24.7592
330.068	5.57996
334.886	2.50311
339.701	12.4517
344.514	2.70312
349.324	2.89319
354.132	2.92248
358.938	1.69318
363.741	11.6112
368.541	4.02667
373.339	20.5521
378.135	5.71136
382.928	4.1247
387.718	6.30624
392.506	42.8177
397.292	45.6912
402.075	61.5075
406.856	85.281
411.634	131.01
416.41	142.695
421.183	258.333
425.954	515.927
430.722	1584.37
435.488	3588.97
440.251	3861.35
445.012	2144.43
449.77	1755.25
454.526	884.559
459.28	431.47
464.03	300.48
468.779	248.44
473.525	197.487
478.268	149.417
483.009	114.676
487.747	123.312
492.483	92.5474
497.217	91.6542
501.948	45.9451
506.676	52.7437
511.402	44.8389
516.125	35.6674
520.846	32.7841
525.565	34.3994
530.281	25.129
534.994	12.6968
539.705	30.5413
544.413	30.5269
549.119	38.5523
553.822	39.7404
558.523	45.8373
563.222	38.1968
567.917	71.392
572.611	86.6868
577.302	84.8694
581.99	122.113
586.676	169.361
591.359	293.761
596.04	638.859
600.718	1308.26
605.394	1779.52
610.067	954.563
614.737	335.528
619.406	166.734
624.071	48.6309
628.734	21.506
633.395	20.3627
638.053	54.1314
642.708	43.8758
647.361	22.846
652.012	35.0126
656.66	39.5803
661.305	43.6591
665.948	39.6041
670.588	35.8954
675.226	53.8563
679.861	37.9062
684.494	50.4817
689.124	31.529
693.752	42.6266
698.377	36.9229
702.999	59.8318
707.619	45.4583
712.237	62.0999
716.852	56.8499
721.464	50.2171
726.074	49.4394
730.681	63.5105
735.286	27.4344
739.888	61.2028
744.488	40.8231
749.085	44.29
753.68	32.6116
758.272	47.7824
762.861	48.8055
767.448	65.684
772.033	70.4183
776.614	54.0104
781.194	35.4616
785.77	34.7675
790.345	16.9211
794.916	3.13403
799.485	14.6246
804.052	18.1683
808.616	15.4695
813.177	12.3956
817.736	2.6687
822.292	17.3532
826.846	13.3555
831.397	7.68378
835.945	6.02545
840.491	30.129
845.035	10.768
849.576	12.4783
854.114	15.1503
858.65	42.5632
863.183	57.8911
867.713	89.0068
872.241	81.9312
876.767	70.119
881.29	71.9369
885.81	76.05
890.328	78.0198
894.843	79.9875
899.356	82.0352
903.866	61.066
908.373	86.0768
912.878	69.1523
917.38	124.201
921.88	142.077
926.377	195.471
930.872	194.885
935.364	260.638
939.853	348.778
944.34	503.995
948.824	818.082
953.306	1217.9
957.785	2038.48
962.261	3763.77
966.735	8362.14
971.207	24586.1
975.675	56688.8
980.141	50725.4
984.605	19185.1
989.066	8023.35
993.524	4255.2
997.98	2795.24
1002.43	1927.48
1006.88	1349.94
1011.33	934.61
1015.78	704.5
1020.22	528.613
1024.66	424.955
1029.1	296.535
1033.53	259.375
1037.97	140.511
1042.4	153.931
1046.82	117.649
1051.25	141.724
1055.67	62.1204
1060.09	5.83234
1064.51	1.88226
1068.92	1.69818
1073.33	12.9542
1077.74	36.1174
1082.15	27.5777
1086.55	30.4282
1090.95	59.6784
1095.35	76.2387
1099.75	83.1658
1104.14	122.418
1108.53	200.022
1112.92	250.96
1117.31	352.21
1121.69	476.729
1126.07	576.494
1130.45	684.505
1134.82	722.756
1139.19	801.246
1143.57	735.968
1147.93	715.913
1152.3	550.077
1156.66	500.778
1161.02	360.055
1165.38	237.931
1169.73	164.529
1174.08	116.6
1178.43	117.84
1182.78	122.003
1187.12	124.284
1191.46	133.339
1195.8	96.4689
1200.14	109.7
1204.47	79.9293
1208.8	73.0917
1213.13	76.5206
1217.46	93.1378
1221.78	125.697
1226.1	43.4915
1230.42	50.196
1234.73	38.0134
1239.04	17.354
1243.35	29.2483
1247.66	30.554
1251.97	47.4421
1256.27	32.4382
1260.57	53.8243
1264.86	55.9547
1269.16	43.1542
1273.45	20.0845
1277.74	25.9002
1282.03	29.9541
1286.31	13.7133
1290.59	11.317
1294.87	14.1549
1299.14	14.0983
1303.42	25.7662
1307.69	9.84442
1311.95	12.2038
1316.22	7.71411
1320.48	4.92322
1324.74	1.50543
1329	8.27222
1333.26	13.7961
1337.51	7.25458
1341.76	24.5243
1346	28.8246
1350.25	31.0748
1354.49	38.1525
1358.73	46.8941
1362.96	19.3765
1367.2	37.831
1371.43	19.0185
1375.66	41.0668
1379.88	51.0007
1384.11	37.67
1388.33	43.158
1392.54	32.476
1396.76	45.6618
1400.97	68.652
1405.18	60.6511
1409.39	58.2989
1413.59	60.4958
1417.8	71.1959
1421.99	85.4659
1426.19	66.0779
1430.38	63.2511
1434.58	46.9347
1438.77	40.6579
1442.95	64.5907
1447.13	38.3781
1451.32	42.5886
1455.49	36.7295
1459.67	28.0745
1463.84	32.8141
1468.01	30.644
1472.18	62.9731
1476.35	46.8607
1480.51	23.406
1484.67	49.0416
1488.83	18.354
1492.98	20.1549
1497.13	27.2789
1501.28	61.4868
1505.43	32.6885
1509.57	28.0043
1513.71	49.7437
1517.85	26.467
1521.99	37.2805
1526.12	19.255
1530.25	32.19
1534.38	32.0216
1538.5	5.59375
1542.62	31.6668
1546.74	2.651
1550.86	17.7827
1554.98	47.2572
1559.09	35.6434
1563.2	36.272
1567.31	14.5061
