Measurement: Raman, 514 nm, ccw, Raman Data Processed
Mineral: Anglesite
Rruff sample: R050408
Ideal chemistry: PbSO_4_
Locality: Tsumeb mine, Tsumeb, Otavi District, Oshikoto, Namibia
Source: California Institute of Technology
Description: Pale yellow fragment
Measured chemistry: Pb_1.00_S_1.00_O_4_
Pin_id: L00529
Orientation: Laser parallel to c* (0 0 1). Fiducial mark perpendicular to laser is parallel to a [1 0 0]
Raman shift (cm-1)	intensity
51.431	0
56.387	5.9614
61.341	1.26874
66.292	32.5037
71.241	213.169
76.187	474.463
81.131	815.045
86.072	1316.52
91.012	1950.19
95.948	2674.2
100.883	2571.95
105.815	2149.08
110.744	2018.34
115.671	2022.44
120.596	2304.7
125.519	2989.85
130.439	3882.11
135.356	4268.42
140.271	3625.03
145.184	2890.86
150.094	2530.89
155.002	2276.16
159.908	1636.65
164.811	1224.36
169.711	1056.28
174.61	975.17
179.505	864.381
184.399	776.876
189.29	698.908
194.178	580.133
199.064	492.444
203.948	490.619
208.829	374.323
213.708	346.514
218.585	271.486
223.459	263.305
228.33	203.528
233.199	151.64
238.066	134.982
242.93	90.5549
247.792	83.3203
252.651	81.2469
257.508	85.3141
262.363	63.5085
267.215	46.7936
272.064	28.1388
276.912	17.5314
281.756	18.9711
286.598	25.4528
291.438	27.9705
296.276	23.4847
301.111	0.946838
305.943	3.56348
310.773	2.95227
315.601	7.4823
320.426	15.0491
325.248	14.7658
330.068	0.638367
334.886	7.64142
339.701	14.2224
344.514	8.03516
349.324	3.12006
354.132	5.25818
358.938	3.3786
363.741	2.51526
368.541	0.999512
373.339	20.0986
378.135	31.897
382.928	34.6954
387.718	63.4907
392.506	79.2794
397.292	169.059
402.075	227.558
406.856	291.736
411.634	378.589
416.41	517.975
421.183	660.077
425.954	1214.81
430.722	2703.52
435.488	6419.24
440.251	10117.4
445.012	15495.5
449.77	19827.5
454.526	8764.07
459.28	3252.84
464.03	1829.99
468.779	1105.83
473.525	768.565
478.268	553.107
483.009	414.623
487.747	286.203
492.483	194.053
497.217	179.581
501.948	109.778
506.676	99.1986
511.402	85.4888
516.125	53.9257
520.846	33.6713
525.565	42.3602
530.281	6.09375
534.994	0.834351
539.705	1.20404
544.413	4.10675
549.119	9.26465
553.822	14.686
558.523	16.1966
563.222	32.6636
567.917	27.2929
572.611	64.03
577.302	59.0314
581.99	68.4039
586.676	120.114
591.359	239.016
596.04	558.21
600.718	1429.69
605.394	2195.45
610.067	1389.19
614.737	1032.96
619.406	1060.16
624.071	372.456
628.734	162.648
633.395	141.602
638.053	208.473
642.708	224.254
647.361	140.352
652.012	55.3148
656.66	16.9524
661.305	45.2856
665.948	65.8979
670.588	53.2321
675.226	43.4333
679.861	45.2537
684.494	28.8665
689.124	40.3711
693.752	55.7888
698.377	52.8495
702.999	63.9405
707.619	77.4117
712.237	71.9969
716.852	73.8735
721.464	103.105
726.074	84.6131
730.681	56.5973
735.286	86.2854
739.888	99.7007
744.488	80.8408
749.085	90.697
753.68	81.5595
758.272	78.8395
762.861	72.9554
767.448	94.668
772.033	100.113
776.614	98.2944
781.194	55.2133
785.77	51.8592
790.345	62.2357
794.916	63.2019
799.485	14.0093
804.052	17.4811
808.616	29.5856
813.177	21.3842
817.736	2.63361
822.292	29.78
826.846	8.64551
831.397	36.9512
835.945	27.8763
840.491	13.9588
845.035	23.6424
849.576	36.8761
854.114	20.707
858.65	4.68396
863.183	8.95068
867.713	21.254
872.241	41.9352
876.767	39.8152
881.29	41.1191
885.81	24.5215
890.328	4.68384
894.843	9.68274
899.356	44.699
903.866	9.18463
908.373	55.721
912.878	51.2658
917.38	66.6664
921.88	78.8388
926.377	94.233
930.872	142.759
935.364	142.134
939.853	211.25
944.34	395.399
948.824	682.043
953.306	1088.44
957.785	1828.07
962.261	3464.66
966.735	7480.46
971.207	20880.1
975.675	52246.3
980.141	52319.2
984.605	19921
989.066	7909.41
993.524	4068.29
997.98	2579.24
1002.43	1734.57
1006.88	1333.27
1011.33	1028.34
1015.78	768.796
1020.22	664.647
1024.66	631.614
1029.1	504.197
1033.53	453.365
1037.97	427.053
1042.4	394.299
1046.82	477.093
1051.25	587.414
1055.67	689.235
1060.09	737.596
1064.51	712.534
1068.92	553.016
1073.33	417.09
1077.74	311.727
1082.15	281.901
1086.55	279.654
1090.95	271.013
1095.35	281.983
1099.75	300.767
1104.14	381.869
1108.53	462.696
1112.92	566.236
1117.31	684.387
1121.69	807.928
1126.07	919.005
1130.45	1047.53
1134.82	1213.51
1139.19	1200.92
1143.57	1194.79
1147.93	1047
1152.3	973.932
1156.66	838.876
1161.02	707.544
1165.38	484.582
1169.73	313.167
1174.08	217.513
1178.43	166.266
1182.78	154.762
1187.12	129.046
1191.46	125.133
1195.8	84.4221
1200.14	78.3668
1204.47	51.4722
1208.8	54.1172
1213.13	62.0778
1217.46	96.3904
1221.78	96.2753
1226.1	76.1641
1230.42	52.4513
1234.73	8.86066
1239.04	3.43396
1243.35	14.9087
1247.66	14.5561
1251.97	12.5129
1256.27	4.93915
1260.57	34.2038
1264.86	4.74042
1269.16	22.5801
1273.45	21.3108
1277.74	12.1574
1282.03	4.92468
1286.31	12.2626
1290.59	6.1991
1294.87	21.5072
1299.14	34.6028
1303.42	15.0911
1307.69	0.037537
1311.95	19.8873
1316.22	22.4829
1320.48	5.2464
1324.74	1.39709
1329	0.940369
1333.26	21.1744
1337.51	31.9145
1341.76	23.5672
1346	20.9949
1350.25	49.9573
1354.49	56.7623
1358.73	28.3012
1362.96	76.4962
1367.2	53.2249
1371.43	62.3685
1375.66	88.6967
1379.88	90.5807
1384.11	90.2455
1388.33	84.5664
1392.54	80.6215
1396.76	89.4743
1400.97	102.802
1405.18	109.986
1409.39	102.897
1413.59	115.564
1417.8	106.162
1421.99	111.609
1426.19	112.067
1430.38	92.5228
1434.58	81.3986
1438.77	81.3619
1442.95	87.7619
1447.13	71.1034
1451.32	68.6118
1455.49	58.7223
1459.67	93.3649
1463.84	34.7941
1468.01	74.2902
1472.18	55.9395
1476.35	73.2092
1480.51	46.5517
1484.67	42.6185
1488.83	46.5088
1492.98	40.671
1497.13	26.667
1501.28	52.831
1505.43	35.0714
1509.57	30.1433
1513.71	27.5511
1517.85	62.9757
1521.99	33.0311
1526.12	49.3053
1530.25	27.8218
1534.38	40.7434
1538.5	16.6426
1542.62	20.4346
1546.74	1.58771
1550.86	22.226
1554.98	27.0059
1559.09	1.66327
1563.2	14.0149
1567.31	8.34906
