Measurement: Raman, 514 nm, ccw, Raman Data Processed
Mineral: Anglesite
Rruff sample: R050052
Ideal chemistry: PbSO_4_
Locality: Touissite, Oujela, Morocco
Source: Eugene Schlepp
Description: Yellow prismatic single crystal
Measured chemistry: Pb_1.00_S_1.00_O_4_
Pin_id: L00231
Orientation: Laser parallel to -a* (-1 0 0). Fiducial mark perpendicular to laser is parallel to -b [0 -1 0]
Raman shift (cm-1)	intensity
46.637	0
50.856	26.002
55.072	124.116
59.287	166.919
63.499	220.751
67.709	121.99
71.917	29.387
76.123	16.406
80.327	8.586
84.529	80.779
88.728	217.608
92.926	557.797
97.121	1180.25
101.314	1122.86
105.505	919.613
109.694	941.536
113.881	1093.76
118.066	1325.3
122.249	1671.04
126.43	2385.82
130.608	3052.61
134.785	3312.5
138.959	2922.42
143.131	2348.22
147.301	1885.75
151.469	1920.16
155.635	1709.6
159.799	1229.43
163.961	910.163
168.121	753.398
172.278	689.662
176.434	616.882
180.587	555.915
184.739	460.327
188.888	439.826
193.035	356.477
197.18	322.742
201.324	344.947
205.465	263.301
209.603	238.509
213.74	226.403
217.875	248.004
222.008	176.767
226.139	160.752
230.267	144.687
234.394	120.222
238.518	106.102
242.641	80.173
246.761	87.597
250.879	64.572
254.996	52.16
259.11	41.735
263.222	49.289
267.332	37.82
271.44	38.076
275.546	36.796
279.65	34.235
283.752	15.634
287.852	11.986
291.95	14.291
296.046	5.546
300.14	6.234
304.231	3.124
308.321	10.95
312.409	9.969
316.495	14.071
320.578	8.176
324.66	1.657
328.739	4.572
332.817	5.126
336.892	5.243
340.966	1.294
345.037	2.753
349.107	2.879
353.174	5.405
357.24	9.612
361.303	3.247
365.365	0.891
369.424	5.994
373.481	12.094
377.537	23.49
381.59	5.672
385.642	13.594
389.691	58.501
393.738	68.274
397.784	70.147
401.827	100.822
405.868	130.531
409.908	189.199
413.945	190.844
417.98	248.432
422.014	338.994
426.045	485.488
430.075	862.745
434.102	2415.11
438.127	7709.42
442.151	4131.61
446.172	1680.6
450.192	1656.55
454.209	947.437
458.225	468.209
462.238	309.702
466.25	241.078
470.259	219.514
474.267	198.214
478.273	159.543
482.276	113.534
486.278	110.789
490.278	91.927
494.276	73.136
498.271	58.821
502.265	56.53
506.257	29.995
510.247	43.939
514.235	42.156
518.221	20.6
522.205	19.062
526.187	14.828
530.167	14.322
534.145	9.041
538.122	2.797
542.096	17.156
546.068	8.109
550.039	11.503
554.007	10.874
557.973	16.304
561.938	14.007
565.901	38.714
569.861	45.948
573.82	32.471
577.777	60.865
581.732	55.052
585.685	100.375
589.636	142.526
593.585	242.495
597.532	505.69
601.477	1303.26
605.42	2944.05
609.361	1685.46
613.301	1002.7
617.238	1789.89
621.174	1306.03
625.108	361.121
629.039	170.164
632.969	130.159
636.897	113.112
640.823	126.02
644.747	92.877
648.669	48.469
652.589	42.427
656.508	43.776
660.424	37.624
664.339	67.611
668.251	76.848
672.162	70.165
676.071	69.642
679.978	60.433
683.883	34.172
687.786	46.817
691.687	43.806
695.586	42.557
699.484	60.635
703.379	34.794
707.273	44.323
711.165	42.831
715.055	40.131
718.943	31.465
722.829	36.705
726.713	39.861
730.595	30.912
734.476	36.852
738.354	41.688
742.231	47.42
746.106	31.049
749.978	33.573
753.849	37.998
757.719	28.327
761.586	28.561
765.451	55.708
769.315	63.776
773.177	88.766
777.036	113.681
780.894	84.521
784.75	111.289
788.605	112.986
792.457	77.613
796.307	57.173
800.156	31.667
804.003	1.914
807.848	8.629
811.691	12.625
815.532	16.571
819.371	22.787
823.209	15.198
827.045	15.782
830.878	11.806
834.71	17.389
838.54	17.637
842.369	23.917
846.195	30.511
850.02	15.408
853.842	5.295
857.663	5.71
861.482	17.785
865.299	39.854
869.115	56.975
872.928	51.11
876.74	28.752
880.55	50.757
884.358	61.203
888.164	42.043
891.969	42.996
895.771	43.735
899.572	53.409
903.371	90.489
907.168	89.326
910.963	119.559
914.757	95.725
918.548	120.348
922.338	156.02
926.126	164.745
929.912	225.528
933.697	234.371
937.479	263.279
941.26	350.255
945.039	543.302
948.816	812.424
952.591	1087.63
956.365	1553.32
960.136	2307.15
963.906	3699.8
967.674	7088
971.441	16474
975.205	43003.6
978.968	58704.7
982.729	26726.9
986.488	10828.3
990.245	5701.11
994	3585.66
997.754	2637.86
1001.51	2057.17
1005.26	1555.21
1009	1197.97
1012.75	1014.31
1016.5	927.898
1020.24	891.719
1023.98	848.751
1027.72	782.99
1031.46	704.432
1035.19	648.084
1038.93	623.932
1042.66	689.98
1046.39	761.221
1050.12	897.659
1053.85	1059.31
1057.57	1066.16
1061.29	1114.21
1065.02	1024.44
1068.74	903.844
1072.45	776.431
1076.17	669.2
1079.88	560.15
1083.6	467.279
1087.31	389.585
1091.02	373.062
1094.72	412.741
1098.43	457.063
1102.13	539.106
1105.84	567.299
1109.54	555.682
1113.24	595.282
1116.93	699.111
1120.63	816.168
1124.32	974.461
1128.01	1108.01
1131.7	1219.72
1135.39	1224.62
1139.08	1124.74
1142.76	996.064
1146.45	864.595
1150.13	787.083
1153.81	646.747
1157.48	471.164
1161.16	364.916
1164.84	237.368
1168.51	153.77
1172.18	94.288
1175.85	78.249
1179.52	97.087
1183.18	106.047
1186.85	107.375
1190.51	111.808
1194.17	63.086
1197.83	59.336
1201.48	73.871
1205.14	65.895
1208.79	73.582
1212.44	100.469
1216.09	114.732
1219.74	150.011
1223.39	62.203
1227.03	56.811
1230.68	32.099
1234.32	20.008
1237.96	20.895
1241.6	27.675
1245.23	19.791
1248.87	46.885
1252.5	7.876
1256.13	9.047
1259.76	11.509
1263.39	21.918
1267.02	17.056
1270.64	0.024
1274.26	35.816
1277.88	44.514
1281.5	10.136
1285.12	7.676
1288.74	6.862
1292.35	14.463
1295.96	28.215
1299.57	22.102
1303.18	29.123
1306.79	35.294
1310.4	19.612
1314	4.069
1317.6	8.644
1321.2	6.534
1324.8	4.232
1328.4	15.226
1331.99	4.659
1335.59	9.429
1339.18	1.092
1342.77	8.362
1346.36	22.073
1349.95	25.374
1353.53	13.572
1357.12	11.676
1360.7	19.686
1364.28	19.612
1367.86	10.447
1371.44	22.211
1375.01	30.137
1378.59	35.647
1382.16	66.365
1385.73	62.426
1389.3	63.017
1392.87	58.511
1396.43	50.898
1399.99	53.171
1403.56	57.408
1407.12	67.913
1410.68	77.169
1414.23	67.203
1417.79	98.534
1421.34	76.789
1424.9	44.468
1428.45	59.065
1431.99	31.49
1435.54	32.982
1439.09	37.849
1442.63	45.97
1446.17	51.895
1449.71	51.187
1453.26	59.523
1456.79	58.061
1460.33	49.362
1463.86	68.423
1467.39	36.899
1470.92	42.019
1474.45	25.219
1477.98	25.526
1481.51	22.089
1485.03	21.659
1488.56	39.049
1492.08	25.701
1495.6	35.753
1499.11	40.067
1502.63	54.673
1506.14	18.61
1509.66	12.404
1513.17	20.259
1516.68	6.246
