Measurement: Raman, 514 nm, ccw, Raman Data Processed
Mineral: Anglesite
Rruff sample: R050052
Ideal chemistry: PbSO_4_
Locality: Touissite, Oujela, Morocco
Source: Eugene Schlepp
Description: Yellow prismatic single crystal
Measured chemistry: Pb_1.00_S_1.00_O_4_
Pin_id: L00231
Orientation: Laser parallel to -a* (-1 0 0). Fiducial mark perpendicular to laser is parallel to -b [0 -1 0]
Raman shift (cm-1)	intensity
46.637	0
50.856	69.354
55.072	136.673
59.287	167.655
63.499	251.957
67.709	137.905
71.917	42.18
76.123	16.196
80.327	4.56
84.529	64.736
88.728	258.505
92.926	677.602
97.121	1491.97
101.314	1523.61
105.505	1293.54
109.694	1359.74
113.881	1394
118.066	1452.32
122.249	1669.22
126.43	2209.96
130.608	2818.49
134.785	3210.21
138.959	3122.03
143.131	2489.75
147.301	2077.84
151.469	2096.25
155.635	1810.69
159.799	1306.72
163.961	908.278
168.121	758.19
172.278	670.679
176.434	636.17
180.587	553.426
184.739	554.037
188.888	438.625
193.035	380.16
197.18	376.785
201.324	376.102
205.465	316.8
209.603	249.151
213.74	263.544
217.875	255.096
222.008	212.955
226.139	178.278
230.267	160.74
234.394	147
238.518	95.715
242.641	82.006
246.761	71.82
250.879	60.947
254.996	41.984
259.11	47.365
263.222	26.651
267.332	18.956
271.44	4.154
275.546	19.28
279.65	22.328
283.752	9.292
287.852	5.83
291.95	18.957
296.046	15.645
300.14	13.759
304.231	5.262
308.321	18.864
312.409	10.587
316.495	5.429
320.578	7.615
324.66	7.553
328.739	8.378
332.817	10.095
336.892	17.688
340.966	10.167
345.037	8.504
349.107	7.706
353.174	15.81
357.24	16.829
361.303	7.777
365.365	4.658
369.424	17.481
373.481	34.613
377.537	17.544
381.59	45.556
385.642	51.604
389.691	76.406
393.738	89.919
397.784	123.576
401.827	165.843
405.868	210.962
409.908	278.913
413.945	315.754
417.98	394.414
422.014	551.114
426.045	753.514
430.075	1156.75
434.102	2541.86
438.127	5610.64
442.151	6317.13
446.172	10034.2
450.192	19483.8
454.209	10003.3
458.225	3893.8
462.238	2215.77
466.25	1429.12
470.259	974.3
474.267	757.762
478.273	563.573
482.276	421.017
486.278	336.122
490.278	254.747
494.276	209.392
498.271	177.036
502.265	120.644
506.257	127.206
510.247	99.775
514.235	98.369
518.221	77.208
522.205	47.255
526.187	36.443
530.167	31.805
534.145	27.255
538.122	8.778
542.096	2.338
546.068	6.353
550.039	3.134
554.007	1.955
557.973	9.826
561.938	8.517
565.901	35.703
569.861	15.698
573.82	24.227
577.777	48.969
581.732	65.347
585.685	68.731
589.636	98.082
593.585	184.176
597.532	381.347
601.477	965.499
605.42	1946.45
609.361	1070.35
613.301	515.217
617.238	739.051
621.174	542.841
625.108	142.59
629.039	73.311
632.969	60.005
636.897	53.675
640.823	41.3
644.747	35.925
648.669	16.189
652.589	28.68
656.508	15.666
660.424	23.18
664.339	28.756
668.251	32.748
672.162	45.741
676.071	36.649
679.978	30.46
683.883	31.525
687.786	42.896
691.687	50.544
695.586	57.622
699.484	73.613
703.379	59.639
707.273	55.868
711.165	58.843
715.055	53.651
718.943	40.548
722.829	39.028
726.713	45.065
730.595	38.668
734.476	49.172
738.354	59.567
742.231	62.857
746.106	58.041
749.978	63.124
753.849	39.107
757.719	71.986
761.586	71.769
765.451	100.458
769.315	135.052
773.177	140.554
777.036	182.965
780.894	94.285
784.75	91.516
788.605	72.66
792.457	56.717
796.307	38.689
800.156	29.577
804.003	1.286
807.848	4.122
811.691	8.272
815.532	4.497
819.371	5.422
823.209	2.426
827.045	27.673
830.878	36.208
834.71	35.086
838.54	27.262
842.369	43.638
846.195	25.281
850.02	23.019
853.842	22.045
857.663	8.958
861.482	19.997
865.299	29.787
869.115	15.594
872.928	31.261
876.74	24.522
880.55	47.064
884.358	55.778
888.164	45.517
891.969	47.444
895.771	53.285
899.572	35.104
903.371	77.159
907.168	91.99
910.963	83.043
914.757	108.163
918.548	125.313
922.338	134.497
926.126	176.719
929.912	198.983
933.697	229.294
937.479	277.655
941.26	325.07
945.039	473.542
948.816	713.077
952.591	985.629
956.365	1345.68
960.136	2014.15
963.906	3225.19
967.674	6082.29
971.441	13976
975.205	37115.6
978.968	52984.5
982.729	24901.6
986.488	10089.4
990.245	5381.38
994	3433.61
997.754	2553.45
1001.51	1959.01
1005.26	1515.38
1009	1095.43
1012.75	926.972
1016.5	856.697
1020.24	794.656
1023.98	793.846
1027.72	741.271
1031.46	654.933
1035.19	564.811
1038.93	499.898
1042.66	473.183
1046.39	511.661
1050.12	583.362
1053.85	642.272
1057.57	621.397
1061.29	583.735
1065.02	569.281
1068.74	543.015
1072.45	512.946
1076.17	438.072
1079.88	373.385
1083.6	308.884
1087.31	291.571
1091.02	309.439
1094.72	339.489
1098.43	375.717
1102.13	430.125
1105.84	447.728
1109.54	448.552
1113.24	461.594
1116.93	537.858
1120.63	677.337
1124.32	781.048
1128.01	895.999
1131.7	930.207
1135.39	993.675
1139.08	950.396
1142.76	861.461
1146.45	781.877
1150.13	689.115
1153.81	559.487
1157.48	423.007
1161.16	325.809
1164.84	224.724
1168.51	169.545
1172.18	140.849
1175.85	101.365
1179.52	158.924
1183.18	169.005
1186.85	186.549
1190.51	162.733
1194.17	166.353
1197.83	156.043
1201.48	158.174
1205.14	179.629
1208.79	159.557
1212.44	199.546
1216.09	212.938
1219.74	197.065
1223.39	145.187
1227.03	139.787
1230.68	105.839
1234.32	88.164
1237.96	79.234
1241.6	65.138
1245.23	79.097
1248.87	92.299
1252.5	70.546
1256.13	55.963
1259.76	54.447
1263.39	57.771
1267.02	33.07
1270.64	31.322
1274.26	35.483
1277.88	33.5
1281.5	27.393
1285.12	11.791
1288.74	9.092
1292.35	0.531
1295.96	24.1
1299.57	12.799
1303.18	7.605
1306.79	27.515
1310.4	20.539
1314	26.688
1317.6	26.994
1321.2	6.474
1324.8	11.116
1328.4	10.91
1331.99	14.155
1335.59	19.83
1339.18	12.009
1342.77	6.326
1346.36	2.271
1349.95	7.36
1353.53	4.084
1357.12	23.068
1360.7	5.117
1364.28	12.054
1367.86	12.895
1371.44	36.707
1375.01	17.399
1378.59	41.317
1382.16	64.36
1385.73	64.348
1389.3	66.257
1392.87	69.079
1396.43	60.812
1399.99	53.458
1403.56	72.675
1407.12	92.562
1410.68	99.932
1414.23	93.163
1417.79	85.974
1421.34	89.591
1424.9	97.306
1428.45	73.219
1431.99	47.764
1435.54	67.685
1439.09	49.797
1442.63	70.993
1446.17	69.161
1449.71	75.7
1453.26	64.229
1456.79	56.277
1460.33	64.846
1463.86	55.491
1467.39	47.967
1470.92	28.04
1474.45	6.364
1477.98	47.265
1481.51	13.402
1485.03	6.44
1488.56	32.271
1492.08	38.349
1495.6	30.833
1499.11	36.128
1502.63	29.982
1506.14	33.378
1509.66	20.522
1513.17	18.971
1516.68	0
