Measurement: Raman, 514 nm, ccw, Raman Data Processed
Mineral: Anglesite
Rruff sample: R050408
Ideal chemistry: PbSO_4_
Locality: Tsumeb mine, Tsumeb, Otavi District, Oshikoto, Namibia
Source: California Institute of Technology
Description: Pale yellow fragment
Measured chemistry: Pb_1.00_S_1.00_O_4_
Pin_id: L01528
Orientation: Laser parallel to a* (1 0 0). Fiducial mark perpendicular to laser is parallel to -b [0 -1 0]
Raman shift (cm-1)	intensity
51.431	0
56.387	18.2026
61.341	11.9364
66.292	25.65
71.241	146.302
76.187	367.754
81.131	567.011
86.072	821.835
91.012	1232.53
95.948	1693.42
100.883	1895.02
105.815	1603
110.744	1521.12
115.671	1600.24
120.596	1697.54
125.519	2184.93
130.439	3015.77
135.356	3745.76
140.271	3419.21
145.184	2524.04
150.094	1924.15
155.002	1673.53
159.908	1283.19
164.811	1047.13
169.711	869.32
174.61	820.983
179.505	765.854
184.399	732.16
189.29	669.298
194.178	595.18
199.064	562.038
203.948	542.404
208.829	436.909
213.708	404.737
218.585	363.088
223.459	295.215
228.33	271.908
233.199	211.139
238.066	202.369
242.93	164.616
247.792	119.101
252.651	121.399
257.508	101.701
262.363	91.7915
267.215	70.0496
272.064	75.4289
276.912	61.915
281.756	61.5046
286.598	17.1918
291.438	36.9683
296.276	8.17188
301.111	1.75952
305.943	26.7613
310.773	1.8125
315.601	18.1015
320.426	1.00946
325.248	24.8463
330.068	11.2511
334.886	11.6788
339.701	33.3341
344.514	34.6518
349.324	4.64221
354.132	15.4212
358.938	13.4582
363.741	22.3011
368.541	16.811
373.339	11.0632
378.135	3.05768
382.928	23.2078
387.718	36.3988
392.506	32.6304
397.292	61.7499
402.075	109.352
406.856	182.47
411.634	229.895
416.41	329.292
421.183	472.715
425.954	777.161
430.722	1672.64
435.488	4439.14
440.251	8686.47
445.012	7954.83
449.77	15707.4
454.526	9096.35
459.28	2989.54
464.03	1618.04
468.779	1054.7
473.525	698.957
478.268	536.239
483.009	402.815
487.747	271.108
492.483	220.511
497.217	162.186
501.948	107.478
506.676	106.76
511.402	76.3408
516.125	66.7684
520.846	41.931
525.565	31.6145
530.281	30.47
534.994	1.49457
539.705	16.4623
544.413	15.7497
549.119	8.76727
553.822	16.9251
558.523	18.6623
563.222	20.8943
567.917	13.657
572.611	49.1616
577.302	44.7294
581.99	46.0839
586.676	48.7949
591.359	59.2393
596.04	87.8419
600.718	190.358
605.394	324.194
610.067	222.443
614.737	104.562
619.406	71.7751
624.071	68.8484
628.734	38.6342
633.395	38.381
638.053	43.066
642.708	109.703
647.361	53.6074
652.012	50.6644
656.66	39.0565
661.305	47.2236
665.948	58.3918
670.588	27.0741
675.226	48.4581
679.861	84.0233
684.494	40.1788
689.124	58.1117
693.752	43.0949
698.377	39.0342
702.999	69.2964
707.619	70.2901
712.237	56.9494
716.852	77.847
721.464	49.3079
726.074	84.3824
730.681	69.2608
735.286	39.9411
739.888	42.4065
744.488	49.6586
749.085	56.7098
753.68	43.5657
758.272	53.2208
762.861	60.6809
767.448	107.596
772.033	72.6489
776.614	72.5486
781.194	73.2649
785.77	24.7632
790.345	25.0523
794.916	28.1329
799.485	7.29492
804.052	7.25342
808.616	14.4477
813.177	11.6287
817.736	6.99933
822.292	4.03253
826.846	6.18646
831.397	0.799194
835.945	43.4518
840.491	7.20874
845.035	40.8987
849.576	34.7221
854.114	12.3947
858.65	4.20508
863.183	22.0285
867.713	41.7186
872.241	63.7863
876.767	38.2799
881.29	15.418
885.81	44.0091
890.328	40.4218
894.843	62.9363
899.356	41.4447
903.866	64.0941
908.373	61.7466
912.878	65.4082
917.38	101.076
921.88	115.086
926.377	151.35
930.872	169.297
935.364	187.885
939.853	263.817
944.34	396.63
948.824	618.856
953.306	896.095
957.785	1598.49
962.261	2831.04
966.735	5954.89
971.207	15449.4
975.675	42306.6
980.141	53753.7
984.605	20354.7
989.066	7944.07
993.524	4179.81
997.98	2612.97
1002.43	1764.4
1006.88	1332.1
1011.33	958.063
1015.78	739.304
1020.22	584.818
1024.66	488.635
1029.1	411.75
1033.53	284.176
1037.97	294.973
1042.4	210.127
1046.82	153.582
1051.25	235.404
1055.67	279.683
1060.09	253.32
1064.51	262.342
1068.92	181.723
1073.33	167.511
1077.74	165.7
1082.15	148.331
1086.55	117.449
1090.95	75.9631
1095.35	60.8261
1099.75	92.125
1104.14	66.1443
1108.53	45.3159
1112.92	13.0425
1117.31	91.0795
1121.69	108.508
1126.07	113.234
1130.45	54.4818
1134.82	67.8077
1139.19	132.419
1143.57	214.31
1147.93	274.477
1152.3	391.99
1156.66	432.018
1161.02	441.448
1165.38	294.694
1169.73	167.973
1174.08	125.754
1178.43	112.831
1182.78	109.415
1187.12	65.8385
1191.46	81.3098
1195.8	97.5277
1200.14	43.5654
1204.47	57.7111
1208.8	39.6477
1213.13	38.3804
1217.46	49.9117
1221.78	105.028
1226.1	53.7096
1230.42	15.8173
1234.73	0.202881
1239.04	8.37146
1243.35	17.2885
1247.66	20.3922
1251.97	27.2279
1256.27	66.3315
1260.57	30.2947
1264.86	17.0201
1269.16	34.1831
1273.45	39.3531
1277.74	21.436
1282.03	2.74731
1286.31	1.12927
1290.59	24.793
1294.87	33.7319
1299.14	2.41357
1303.42	52.4648
1307.69	18.3616
1311.95	26.9315
1316.22	5.47046
1320.48	7.4104
1324.74	30.6495
1329	7.58691
1333.26	8.86273
1337.51	8.72601
1341.76	11.8908
1346	14.1845
1350.25	36.8907
1354.49	14.4069
1358.73	20.7336
1362.96	70.0471
1367.2	4.12134
1371.43	93.192
1375.66	69.8472
1379.88	64.553
1384.11	52.8013
1388.33	43.7761
1392.54	63.5511
1396.76	86.4994
1400.97	61.9317
1405.18	59.1872
1409.39	82.0815
1413.59	54.6747
1417.8	93.8945
1421.99	66.3811
1426.19	80.4293
1430.38	95.5905
1434.58	92.6768
1438.77	92.0203
1442.95	82.8354
1447.13	65.4139
1451.32	49.9818
1455.49	68.8014
1459.67	43.4523
1463.84	38.7253
1468.01	27.0586
1472.18	43.9123
1476.35	57.6266
1480.51	64.9982
1484.67	15.4375
1488.83	39.1351
1492.98	97.3675
1497.13	20.1594
1501.28	24.2989
1505.43	65.3087
1509.57	31.5494
1513.71	38.2611
1517.85	73.9547
1521.99	33.4085
1526.12	37.7836
1530.25	42.6546
1534.38	43.36
1538.5	36.8565
1542.62	16.1006
1546.74	28.5327
1550.86	8.20874
1554.98	47.8336
1559.09	27.2872
1563.2	2.82861
1567.31	8.22315
