Measurement: Raman, 514 nm, ccw, Raman Data Processed
Mineral: Anglesite
Rruff sample: R050408
Ideal chemistry: PbSO_4_
Locality: Tsumeb mine, Tsumeb, Otavi District, Oshikoto, Namibia
Source: California Institute of Technology
Description: Pale yellow fragment
Measured chemistry: Pb_1.00_S_1.00_O_4_
Pin_id: L01528
Orientation: Laser parallel to a* (1 0 0). Fiducial mark perpendicular to laser is parallel to -b [0 -1 0]
Raman shift (cm-1)	intensity
51.431	0
56.387	3.44327
61.341	10.0447
66.292	8.2858
71.241	104.347
76.187	331.831
81.131	665.495
86.072	1017.17
91.012	1297.22
95.948	1535.13
100.883	1434.61
105.815	1247.4
110.744	1072.32
115.671	932.214
120.596	921.985
125.519	902.575
130.439	924.526
135.356	842.803
140.271	820.787
145.184	796.481
150.094	1040.51
155.002	1519.87
159.908	1342.56
164.811	1013.58
169.711	815.94
174.61	732.626
179.505	628.627
184.399	638.933
189.29	638.532
194.178	586.619
199.064	546.08
203.948	467.741
208.829	441.817
213.708	371.853
218.585	356.948
223.459	317.579
228.33	302.95
233.199	244.617
238.066	232.345
242.93	190.279
247.792	178.513
252.651	187.02
257.508	184.781
262.363	126.791
267.215	117.05
272.064	101.548
276.912	94.2547
281.756	90.154
286.598	75.2393
291.438	74.49
296.276	56.8973
301.111	31.4561
305.943	35.1614
310.773	51.0079
315.601	61.9906
320.426	5.10413
325.248	25.3436
330.068	11.7042
334.886	5.8197
339.701	2.75793
344.514	1.422
349.324	11.4886
354.132	9.77612
358.938	21.6844
363.741	30.5146
368.541	20.2918
373.339	30.1443
378.135	0.66748
382.928	39.541
387.718	27.2003
392.506	66.0205
397.292	67.575
402.075	117.348
406.856	126.826
411.634	172.773
416.41	292.597
421.183	447.631
425.954	988.971
430.722	2759.48
435.488	9525.77
440.251	23236.1
445.012	6116.59
449.77	1944.11
454.526	1008.72
459.28	586.399
464.03	435.161
468.779	370.99
473.525	311.874
478.268	269.612
483.009	221.225
487.747	143.308
492.483	173.396
497.217	97.2297
501.948	82.0424
506.676	21.449
511.402	35.8823
516.125	28.0894
520.846	14.3577
525.565	21.696
530.281	32.0675
534.994	12.4723
539.705	42.0133
544.413	10.5977
549.119	3.2981
553.822	5.57227
558.523	4.8634
563.222	41.866
567.917	1.98547
572.611	39.002
577.302	39.1708
581.99	137.492
586.676	151.784
591.359	172.103
596.04	423.715
600.718	1043.01
605.394	2852.32
610.067	1605
614.737	510.958
619.406	272.947
624.071	179.311
628.734	125.364
633.395	119.437
638.053	147.567
642.708	172.35
647.361	150.477
652.012	87.3521
656.66	75.3765
661.305	61.349
665.948	88.3602
670.588	81.1099
675.226	41.3871
679.861	74.5386
684.494	59.6085
689.124	51.5244
693.752	84.6799
698.377	91.864
702.999	63.827
707.619	76.2733
712.237	61.3252
716.852	83.6137
721.464	63.4017
726.074	58.8875
730.681	68.8065
735.286	56.4665
739.888	115.034
744.488	68.3772
749.085	58.394
753.68	75.0764
758.272	92.5869
762.861	46.7725
767.448	66.7499
772.033	88.7545
776.614	36.8658
781.194	61.2986
785.77	41.7221
790.345	58.4421
794.916	35.9716
799.485	32.2037
804.052	12.218
808.616	14.9929
813.177	22.5303
817.736	9.44604
822.292	12.3036
826.846	6.58508
831.397	13.1915
835.945	18.8231
840.491	19.9185
845.035	31.2649
849.576	8.00085
854.114	9.6615
858.65	4.11108
863.183	2.45044
867.713	9.06738
872.241	49.9111
876.767	26.4115
881.29	4.8302
885.81	33.7581
890.328	11.0938
894.843	33.0863
899.356	9.2456
903.866	36.7211
908.373	40.8809
912.878	7.15247
917.38	49.0481
921.88	15.1658
926.377	4.98596
930.872	96.2577
935.364	61.4605
939.853	104.37
944.34	229.497
948.824	393.408
953.306	635.915
957.785	1185.48
962.261	2109.97
966.735	4501.1
971.207	11901.7
975.675	37018.1
980.141	56090.5
984.605	21894.1
989.066	8674.79
993.524	4796.19
997.98	3052.84
1002.43	2180.82
1006.88	1656.13
1011.33	1234.62
1015.78	967.287
1020.22	877.627
1024.66	791.205
1029.1	780.27
1033.53	941.705
1037.97	1116.52
1042.4	1413.75
1046.82	2025.95
1051.25	2897.17
1055.67	3800.51
1060.09	4342.73
1064.51	3941.43
1068.92	3046.57
1073.33	2268.13
1077.74	1683.16
1082.15	1341.68
1086.55	974.727
1090.95	841.231
1095.35	605.243
1099.75	531.201
1104.14	418.481
1108.53	339.815
1112.92	249.769
1117.31	288.791
1121.69	191.863
1126.07	233.356
1130.45	191.561
1134.82	184.068
1139.19	206.405
1143.57	284.07
1147.93	351.895
1152.3	629.423
1156.66	666.243
1161.02	618.308
1165.38	450.845
1169.73	336.471
1174.08	244.819
1178.43	200.147
1182.78	89.678
1187.12	168.893
1191.46	128.705
1195.8	95.3098
1200.14	17.9597
1204.47	25.1218
1208.8	52.3389
1213.13	15.5779
1217.46	43.323
1221.78	50.6532
1226.1	5.53528
1230.42	7.13818
1234.73	15.0487
1239.04	17.6514
1243.35	32.6602
1247.66	3.16174
1251.97	8.57703
1256.27	71.016
1260.57	48.7894
1264.86	21.9486
1269.16	3.3125
1273.45	16.0263
1277.74	22.5254
1282.03	0.996216
1286.31	2.36658
1290.59	43.6298
1294.87	31.9332
1299.14	39.5133
1303.42	10.8561
1307.69	4.0343
1311.95	8.04285
1316.22	0.500366
1320.48	46.7477
1324.74	2.14502
1329	45.0863
1333.26	58.6083
1337.51	18.3353
1341.76	67.9934
1346	29.7793
1350.25	28.7671
1354.49	26.8815
1358.73	79.5819
1362.96	33.5942
1367.2	50.3862
1371.43	91.2308
1375.66	65.9407
1379.88	186.729
1384.11	106.615
1388.33	95.2745
1392.54	36.8291
1396.76	109.95
1400.97	112.314
1405.18	150.042
1409.39	94.0015
1413.59	105.256
1417.8	101.413
1421.99	123.55
1426.19	136.313
1430.38	97.0821
1434.58	125.109
1438.77	49.4249
1442.95	97.5176
1447.13	72.8046
1451.32	91.2197
1455.49	112.391
1459.67	41.1934
1463.84	28.3758
1468.01	112.233
1472.18	97.9673
1476.35	14.9281
1480.51	76.6011
1484.67	77.3606
1488.83	46.1846
1492.98	21.6664
1497.13	102.824
1501.28	78.1513
1505.43	79.2917
1509.57	94.1379
1513.71	38.9962
1517.85	70.7385
1521.99	54.3661
1526.12	28.8449
1530.25	52.9949
1534.38	21.4597
1538.5	54.3972
1542.62	34.8247
1546.74	51.8241
1550.86	59.8357
1554.98	1.52087
1559.09	57.4096
1563.2	62.5564
1567.31	18.2929
