Measurement: Raman, 514 nm, ccw, Raman Data Processed
Mineral: Anhydrite
Rruff sample: R040061
Ideal chemistry: CaSO_4_
Locality: Chester County, Pennsylvania, USA
Source: University of Arizona Mineral Museum
Description: Pale purple fractured single crystal
Measured chemistry: Ca_0.98_S_1.01_O_4_
Pin_id: M00369
Orientation: Laser parallel to a* (1 0 0). Fiducial mark perpendicular to laser is parallel to b [0 1 0]
Raman shift (cm-1)	intensity
87.798	0
91.981	13.024
96.161	10.196
100.34	53.542
104.516	52.617
108.691	113.82
112.864	165.403
117.034	664.573
121.203	1135.13
125.369	744.01
129.534	1175.1
133.696	809.236
137.857	168.516
142.016	44.853
146.172	71.02
150.327	59.806
154.48	39.715
158.63	54.849
162.779	75.936
166.926	116.858
171.07	82.638
175.213	59.302
179.354	9.907
183.493	19.484
187.63	0.628
191.765	3.099
195.898	7.417
200.029	20.916
204.158	1.416
208.285	4.254
212.41	0.874
216.533	8.765
220.654	46.825
224.773	108.296
228.891	124.001
233.006	115.753
237.119	69.35
241.231	42.94
245.34	22.522
249.448	26.094
253.553	57.581
257.657	49.298
261.758	25.276
265.858	52.445
269.956	45.711
274.052	72.036
278.146	70.398
282.237	53.775
286.327	40.156
290.416	57.534
294.502	48.909
298.586	45.271
302.668	40.622
306.749	26.924
310.827	21.152
314.903	6.398
318.978	16.375
323.051	11.81
327.121	13.043
331.19	17.064
335.257	6.862
339.322	14.183
343.385	18.049
347.446	18.063
351.505	15.847
355.563	16.074
359.618	20.039
363.672	3.378
367.723	24.193
371.773	41.92
375.821	38.461
379.866	29.053
383.91	22.615
387.952	47.128
391.992	34.602
396.031	75.067
400.067	77.531
404.101	106.996
408.134	107.467
412.165	161.97
416.193	363.566
420.22	125.113
424.245	120.655
428.268	120.219
432.289	143.817
436.309	130.4
440.326	90.984
444.342	94.592
448.355	114.022
452.367	148.667
456.377	157.345
460.385	187.021
464.391	224.7
468.395	196.373
472.398	275.035
476.398	383.643
480.397	487.926
484.394	817.96
488.389	1522.85
492.382	3420.26
496.373	7444.27
500.362	7016.86
504.349	2605.75
508.335	1049.65
512.319	502.286
516.3	306.36
520.28	186.386
524.259	154.852
528.235	147.789
532.209	125.23
536.182	74.795
540.152	76.356
544.121	50.913
548.088	100.465
552.053	56.014
556.017	41.61
559.978	53.151
563.938	3.712
567.895	43.092
571.851	4.634
575.805	40.309
579.758	3.337
583.708	6.561
587.657	16.582
591.603	10.311
595.548	54.291
599.491	177.8
603.432	1127.58
607.372	6809.38
611.309	2084.11
615.245	230.327
619.179	73.516
623.111	161.64
627.041	223.158
630.97	116.569
634.896	16.992
638.821	7.463
642.744	51.837
646.665	50.204
650.584	61.568
654.502	71.927
658.418	71.27
662.331	97.597
666.244	209.935
670.154	692.274
674.062	2994.61
677.969	1171.92
681.874	244.234
685.777	135.532
689.678	54.807
693.577	76.057
697.475	38.279
701.371	42.474
705.265	92.643
709.157	49.785
713.047	36.9
716.936	19.987
720.823	6.302
724.708	13.691
728.591	13.536
732.472	15.316
736.352	2.467
740.23	30.823
744.106	23.968
747.98	22.533
751.853	12.069
755.723	16.463
759.592	39.217
763.459	1.505
767.325	17.324
771.188	51.752
775.05	2.21
778.91	32.768
782.768	31.717
786.625	22.636
790.479	8.506
794.332	73.299
798.183	75.539
802.033	73.346
805.88	81.126
809.726	49.88
813.57	83.61
817.413	98.314
821.253	61.994
825.092	95.082
828.929	58.282
832.764	46.893
836.598	93.481
840.429	107.048
844.259	76.594
848.088	87.123
851.914	31.637
855.739	67.161
859.562	72.673
863.383	17.17
867.203	11.603
871.02	14.062
874.836	14.786
878.65	54.444
882.463	17.762
886.274	1.441
890.083	20.912
893.89	9.091
897.695	16.097
901.499	28.181
905.301	58.948
909.102	30.238
912.9	64.309
916.697	71.605
920.492	109.638
924.285	125.789
928.077	87.661
931.867	104.91
935.655	104.124
939.442	88.35
943.226	128.547
947.009	86.852
950.791	111.182
954.57	129.528
958.348	120.892
962.124	127.471
965.899	156.691
969.671	173.136
973.442	165.601
977.211	215.116
980.979	223.668
984.745	267.246
988.509	310.867
992.271	370.577
996.032	598.356
999.791	1107.18
1003.55	1266.26
1007.3	2303.37
1011.06	6116.36
1014.81	29440.4
1018.56	44812.3
1022.31	8241.47
1026.06	2711.99
1029.8	1375.96
1033.55	826.181
1037.29	565.16
1041.03	329.403
1044.77	287.601
1048.5	247.2
1052.24	226.636
1055.97	191.099
1059.7	133.296
1063.43	146.867
1067.16	121.488
1070.89	155.173
1074.61	113.899
1078.34	172.656
1082.06	149.442
1085.78	121.248
1089.5	122.072
1093.21	84.917
1096.93	101.78
1100.64	164.67
1104.35	392.577
1108.06	1678.88
1111.77	3875.92
1115.48	1596.33
1119.18	619.482
1122.89	704.051
1126.59	2193.86
1130.29	4994.28
1133.99	821.842
1137.68	244.41
1141.38	94.094
1145.07	37.285
1148.76	40.109
1152.45	45.905
1156.14	0.087
1159.83	266.668
1163.51	129.53
1167.19	59.019
1170.88	61.089
1174.56	30.032
1178.23	22.101
1181.91	24.895
1185.59	7.781
1189.26	21.573
1192.93	19.359
1196.6	37.259
1200.27	83.874
1203.94	80.583
1207.6	116.262
1211.27	166.918
1214.93	135.538
1218.59	136.125
1222.25	131.854
1225.9	72.173
1229.56	111.631
1233.21	98.042
1236.86	111.519
1240.51	105.854
1244.16	52.168
1247.81	44.845
1251.45	24.083
1255.1	57.469
1258.74	18.609
1262.38	43.616
1266.02	52.845
1269.66	19.515
1273.29	21.224
1276.93	43.752
1280.56	4.145
1284.19	2.089
1287.82	8.666
1291.45	4.016
1295.07	17.029
1298.7	10.15
1302.32	8.638
1305.94	5.389
1309.56	54.256
1313.18	24.989
1316.8	111.431
1320.41	33.801
1324.02	99.33
1327.63	48.473
1331.24	120.473
1334.85	71.43
1338.46	87.278
1342.06	113.058
1345.67	68.754
1349.27	90.366
1352.87	166.892
1356.47	199.337
1360.07	119.433
1363.66	206.738
1367.25	186.992
1370.85	160.157
1374.44	132.154
1378.03	99.047
1381.61	105.676
1385.2	119.732
1388.78	13.6
1392.37	78.535
1395.95	52.974
1399.53	55.323
1403.1	62.229
1406.68	10.518
1410.26	20.084
1413.83	6.757
1417.4	33.351
1420.97	59.165
1424.54	27.423
1428.1	0.388
1431.67	3.808
1435.23	70.41
1438.8	67.911
1442.36	17.294
1445.91	94.555
1449.47	71.711
1453.03	95.518
1456.58	74.393
1460.13	121.452
1463.68	128.673
1467.23	111.066
1470.78	83.526
1474.33	146.334
1477.87	103.469
1481.42	90.355
1484.96	75.228
1488.5	83.328
1492.04	132.126
1495.57	92.096
1499.11	35.715
1502.64	28.718
1506.17	61.166
1509.71	5.367
1513.23	38.119
1516.76	7.123
1520.29	9.482
