Measurement: Raman, 514 nm, ccw, Raman Data Processed
Mineral: Anhydrite
Rruff sample: R040012
Ideal chemistry: CaSO_4_
Locality: Moundhouse, Nevada, USA
Source: University of Arizona Mineral Museum
Description: White massive
Measured chemistry: Ca_1.00_S_1.00_O_4_
Pin_id: M00042
Orientation: Laser parallel to -c* (0 0 -1). Fiducial mark perpendicular to laser is parallel to a [1 0 0]
Raman shift (cm-1)	intensity
71.917	0
76.123	585.33
80.327	1378.93
84.529	1713.46
88.728	1697.74
92.926	1368.07
97.121	1253.9
101.314	1123.68
105.505	1008.69
109.694	991.038
113.881	1008.77
118.066	786.349
122.249	666.945
126.43	427.801
130.608	418.828
134.785	403.003
138.959	326.099
143.131	301.674
147.301	220.978
151.469	173.978
155.635	175.669
159.799	38.457
163.961	151.978
168.121	49.925
172.278	9.715
176.434	5.423
180.587	22.444
184.739	32.832
188.888	6.462
193.035	59.432
197.18	68.569
201.324	78.686
205.465	38.906
209.603	16.244
213.74	16.119
217.875	89.448
222.008	177.738
226.139	301.182
230.267	715.615
234.394	560.833
238.518	346.699
242.641	110.505
246.761	92.045
250.879	124.627
254.996	30.478
259.11	24.148
263.222	120.409
267.332	88.155
271.44	55.814
275.546	86.617
279.65	91.084
283.752	64.318
287.852	1.372
291.95	60.71
296.046	55.636
300.14	64.802
304.231	34.121
308.321	80.733
312.409	95.893
316.495	101.542
320.578	103.93
324.66	126.065
328.739	155.928
332.817	120.463
336.892	85.242
340.966	166.088
345.037	188.581
349.107	121.353
353.174	73.043
357.24	47.984
361.303	31.551
365.365	33.053
369.424	51.311
373.481	26.083
377.537	5.735
381.59	16.852
385.642	74.803
389.691	108.801
393.738	183.472
397.784	132.032
401.827	57.226
405.868	212.54
409.908	1699.43
413.945	11760.6
417.98	5725
422.014	793.365
426.045	225.303
430.075	65.696
434.102	89.59
438.127	43.772
442.151	80.104
446.172	80.321
450.192	88.342
454.209	48.106
458.225	92.78
462.238	119.035
466.25	121.006
470.259	94.062
474.267	120.908
478.273	140.813
482.276	257.695
486.278	370.88
490.278	626.481
494.276	1723.39
498.271	2437.16
502.265	1252.35
506.257	517.829
510.247	244.134
514.235	141.654
518.221	219.357
522.205	130.883
526.187	103.253
530.167	128.781
534.145	125.053
538.122	105.628
542.096	57.667
546.068	51.649
550.039	60.195
554.007	184.87
557.973	168.052
561.938	118.281
565.901	101.689
569.861	156.886
573.82	111.785
577.777	130.169
581.732	280.381
585.685	323.773
589.636	272.876
593.585	197.46
597.532	203.137
601.477	315.623
605.42	281.44
609.361	382.391
613.301	263.077
617.238	455.804
621.174	703.966
625.108	1110.97
629.039	618.584
632.969	394.79
636.897	406.37
640.823	425.02
644.747	620.465
648.669	517.787
652.589	417.993
656.508	352.084
660.424	268.059
664.339	354.914
668.251	870.644
672.162	5524.26
676.071	5349.77
679.978	811.181
683.883	281.442
687.786	75.639
691.687	10.704
695.586	69.445
699.484	60.675
703.379	58.895
707.273	8.199
711.165	5.465
715.055	0.336
718.943	35.938
722.829	83.206
726.713	95.524
730.595	13.414
734.476	36.434
738.354	72.329
742.231	28.067
746.106	130.696
749.978	81.201
753.849	95.567
757.719	140.838
761.586	116.008
765.451	129.071
769.315	111.061
773.177	48.018
777.036	123.745
780.894	150.435
784.75	59.021
788.605	118.512
792.457	105.933
796.307	141.527
800.156	97.594
804.003	85.841
807.848	97.311
811.691	106.182
815.532	100.281
819.371	117.285
823.209	152.355
827.045	110.44
830.878	203.87
834.71	184.788
838.54	260.679
842.369	349.928
846.195	481.67
850.02	476.157
853.842	609.198
857.663	747.159
861.482	642.989
865.299	535.887
869.115	407.047
872.928	211.286
876.74	206.182
880.55	288.814
884.358	192.725
888.164	129.573
891.969	286.002
895.771	318.867
899.572	246.982
903.371	184.272
907.168	208.796
910.963	182.745
914.757	255.25
918.548	72.332
922.338	103.67
926.126	73.694
929.912	141.004
933.697	74.473
937.479	146.014
941.26	97.106
945.039	211.875
948.816	148.747
952.591	224.729
956.365	140.818
960.136	166.021
963.906	191.338
967.674	124.771
971.441	12.322
975.205	18.994
978.968	67.215
982.729	208.659
986.488	244.658
990.245	381.784
994	497.045
997.754	1324.48
1001.51	1923.12
1005.26	2437.03
1009	5901.21
1012.75	27505.7
1016.5	52520.4
1020.24	13986.6
1023.98	4121.69
1027.72	1887.03
1031.46	1020.51
1035.19	641.276
1038.93	319.057
1042.66	296.999
1046.39	272.997
1050.12	115.055
1053.85	78.346
1057.57	23.728
1061.29	25.553
1065.02	55.282
1068.74	8.704
1072.45	60.436
1076.17	141.729
1079.88	439.196
1083.6	405.78
1087.31	250.51
1091.02	227.112
1094.72	167.334
1098.43	144.221
1102.13	76.606
1105.84	349.906
1109.54	428.319
1113.24	612.839
1116.93	981.46
1120.63	2630.2
1124.32	11529
1128.01	26976.4
1131.7	6125.44
1135.39	1624.56
1139.08	703.769
1142.76	396.027
1146.45	193.368
1150.13	11.818
1153.81	70.375
1157.48	257.022
1161.16	274.762
1164.84	179.555
1168.51	210.397
1172.18	151.238
1175.85	123.913
1179.52	63.46
1183.18	55.193
1186.85	71.209
1190.51	56.973
1194.17	22.948
1197.83	114.59
1201.48	121.729
1205.14	88.442
1208.79	29.662
1212.44	101.802
1216.09	78.048
1219.74	106.941
1223.39	179.641
1227.03	159.733
1230.68	229.678
1234.32	249.763
1237.96	349.802
1241.6	149.806
1245.23	259.613
1248.87	399.525
1252.5	299.859
1256.13	359.991
1259.76	379.72
1263.39	419.293
1267.02	461.295
1270.64	450.748
1274.26	320.453
1277.88	339.429
1281.5	239.375
1285.12	306.525
1288.74	353.605
1292.35	408.697
1295.96	336.605
1299.57	178.216
1303.18	248.419
1306.79	336.525
1310.4	488.229
1314	483.606
1317.6	552.341
1321.2	405.216
1324.8	385.707
1328.4	236.104
1331.99	66.431
1335.59	33.267
1339.18	52.985
1342.77	37.271
1346.36	127.489
1349.95	127.624
1353.53	17.718
1357.12	187.826
1360.7	38.084
1364.28	108.249
1367.86	98.227
1371.44	128.169
1375.01	118.689
1378.59	300.795
1382.16	242.067
1385.73	189.392
1389.3	338.495
1392.87	303.959
1396.43	153.509
1399.99	234.707
1403.56	179.139
1407.12	17.867
1410.68	105.79
1414.23	70.226
1417.79	97.462
1421.34	93.312
1424.9	207.686
1428.45	50.386
