Measurement: Raman, 514 nm, ccw, Raman Data Processed
Mineral: Anhydrite
Rruff sample: R040061
Ideal chemistry: CaSO_4_
Locality: Chester County, Pennsylvania, USA
Source: University of Arizona Mineral Museum
Description: Pale purple fractured single crystal
Measured chemistry: Ca_0.98_S_1.01_O_4_
Pin_id: S00304
Orientation: Laser parallel to -c* (0 0 -1). Fiducial mark perpendicular to laser is parallel to a [1 0 0]
Raman shift (cm-1)	intensity
51.466	0
55.666	17.135
59.863	13.947
64.059	0.541
68.253	1.883
72.445	21.674
76.635	73.661
80.823	85.726
85.009	117.631
89.193	149.217
93.375	150.376
97.554	139.026
101.732	167.072
105.908	172.888
110.082	182.114
114.254	252.04
118.424	425.204
122.592	558.593
126.758	393.191
130.922	235.989
135.083	184.013
139.243	141.176
143.401	134.368
147.557	145.628
151.711	126.736
155.863	128.377
160.013	148.884
164.161	119.485
168.308	136.183
172.452	101.978
176.594	109.876
180.734	100.868
184.872	111.952
189.008	87.129
193.143	90.425
197.275	98.846
201.405	70.277
205.534	104.791
209.66	82.673
213.784	70.115
217.907	85.96
222.027	140.613
226.146	212.028
230.263	278.657
234.377	270.437
238.49	203.735
242.601	119.88
246.709	56.147
250.816	36.521
254.921	55.995
259.024	65.566
263.125	62.235
267.224	8.988
271.321	30.821
275.416	55.734
279.51	27.733
283.601	36.81
287.69	45.947
291.778	10.142
295.863	13.539
299.947	12.841
304.029	37.192
308.108	44.594
312.186	46.044
316.262	11.543
320.336	4.095
324.408	16.696
328.478	4.653
332.546	42.041
336.612	19.78
340.677	11.684
344.739	13.386
348.799	13.25
352.858	4.154
356.915	19.883
360.969	17.073
365.022	0.085
369.073	16.129
373.122	9.799
377.169	5.706
381.215	16.004
385.258	13.541
389.299	32.236
393.339	10.479
397.376	8.235
401.412	7.89
405.446	19.337
409.478	187.731
413.508	722.171
417.536	905.922
421.562	249.631
425.586	69.749
429.609	12.694
433.629	12.895
437.648	18.808
441.665	26.106
445.68	32.794
449.693	35.505
453.704	1.752
457.713	33.01
461.721	22.794
465.726	42.605
469.73	43.43
473.731	59.277
477.731	109.264
481.729	149.503
485.725	251.797
489.72	457.758
493.712	1218.75
497.703	2254.8
501.691	1731.86
505.678	762.938
509.663	294.027
513.646	154.133
517.627	66.25
521.607	48.104
525.584	24.242
529.56	58.988
533.534	38.78
537.506	45.776
541.476	23.76
545.444	39.001
549.41	6.813
553.375	31.354
557.337	5.736
561.298	2.271
565.257	14.39
569.214	14.566
573.17	11.712
577.123	1.653
581.075	5.393
585.024	10.619
588.972	15.775
592.918	2.853
596.863	8.101
600.805	24.048
604.746	103.025
608.685	330.221
612.621	58.469
616.557	36.427
620.49	17.793
624.421	26.316
628.351	45.245
632.279	15.466
636.205	15.348
640.129	29.582
644.051	9.319
647.972	44.059
651.89	53.359
655.807	64.803
659.722	115.605
663.636	192.418
667.547	541.714
671.457	3077.51
675.365	8791.31
679.271	2692.43
683.175	539.116
687.077	181.787
690.978	117.44
694.877	71.426
698.774	54.701
702.669	55.324
706.562	57.381
710.454	37.964
714.344	32.007
718.232	17.128
722.118	38.637
726.002	36.118
729.885	13.568
733.766	18.65
737.645	13.515
741.522	38.387
745.397	59.566
749.271	41.158
753.143	21.59
757.013	18.03
760.881	28.633
764.748	0.051
768.613	40.186
772.476	31.409
776.337	22.668
780.196	21.852
784.054	2.027
787.91	14.179
791.764	9.842
795.616	17.931
799.467	17.479
803.316	30.511
807.163	5.559
811.008	15.295
814.851	14.137
818.693	8.967
822.533	32.78
826.371	18.572
830.208	30.353
834.042	23.116
837.875	61.867
841.706	47.611
845.536	17.348
849.363	55.078
853.189	44.803
857.013	33.522
860.836	4.23
864.656	53.948
868.475	21.613
872.292	3.203
876.108	7.229
879.922	20.923
883.733	7.553
887.544	1.045
891.352	16.596
895.159	23.319
898.964	18.008
902.767	30.769
906.568	25.552
910.368	5.796
914.166	2.707
917.962	16.169
921.757	19.986
925.55	3.19
929.341	38.64
933.13	13.479
936.918	50.062
940.703	36.878
944.488	27.739
948.27	45.317
952.051	36.94
955.83	71.376
959.607	55.222
963.383	66.19
967.156	121.171
970.928	143.132
974.699	148.63
978.468	191.635
982.234	231.644
986	224.352
989.763	265.493
993.525	411.669
997.285	771.873
1001.04	1218.1
1004.8	1465.36
1008.55	3183.65
1012.31	9783.97
1016.06	47581.3
1019.81	35288.7
1023.56	8616.17
1027.31	2873.65
1031.05	1389.15
1034.79	797.707
1038.53	519.152
1042.27	363.535
1046.01	268.146
1049.75	212.6
1053.48	184.267
1057.22	131.957
1060.95	134.529
1064.68	94.042
1068.4	53.801
1072.13	65.587
1075.86	58.341
1079.58	25.169
1083.3	34.022
1087.02	33.893
1090.74	56.79
1094.45	22.718
1098.17	11.509
1101.88	80.745
1105.59	75.782
1109.3	226.044
1113.01	247.179
1116.71	327.334
1120.42	505.632
1124.12	1644.88
1127.82	8592.1
1131.52	8787.99
1135.22	1797.24
1138.91	527.542
1142.61	249.366
1146.3	165.707
1149.99	94.885
1153.68	53.253
1157.37	63.297
1161.06	110.705
1164.74	42.291
1168.42	15.11
1172.1	2.408
1175.78	8.95
1179.46	28.38
1183.14	0.043
1186.81	20.594
1190.48	46.785
1194.15	14.477
1197.83	1.46
1201.49	24.779
1205.16	19.096
1208.82	16.12
1212.49	21.727
1216.15	39.04
1219.81	38.354
1223.46	3.663
1227.12	29.968
1230.78	9.27
1234.43	27.566
1238.08	28.113
1241.73	42.471
1245.38	40.771
1249.03	26.044
1252.67	16.766
1256.31	13.463
1259.95	27.763
1263.6	15.984
1267.23	13.146
1270.87	57.402
1274.51	21.454
1278.14	19.592
1281.77	30.567
1285.4	20.323
1289.03	6.641
1292.66	2.476
1296.28	8.384
1299.91	6.776
1303.53	48.036
1307.15	7.822
1310.77	10.557
1314.38	5.258
1318	2.917
1321.61	9.524
1325.23	4.125
1328.84	19.646
1332.45	11.157
1336.06	15.33
1339.66	15.8
1343.27	53.242
1346.87	56.673
1350.47	48.07
1354.07	70.45
1357.67	61.814
1361.26	60.459
1364.86	80.803
1368.45	48.144
1372.04	48.505
1375.63	49.942
1379.22	2.085
1382.81	60.745
1386.39	19.644
1389.98	54.337
1393.56	31.203
1397.14	50.713
1400.72	67.538
1404.3	14.189
1407.87	27.872
1411.45	32.249
1415.02	6.524
1418.59	13.047
1422.16	31.67
1425.73	49.249
1429.29	15.29
1432.86	45.789
1436.42	55.827
1439.98	28.824
1443.54	77.771
1447.1	76.661
1450.66	73.489
1454.21	52.564
1457.77	81.153
1461.32	60.57
1464.87	43.697
1468.42	17.798
1471.96	40.107
1475.51	44.36
1479.06	49.914
1482.6	21.593
1486.14	43.2
1489.68	18.803
1493.22	46.593
1496.75	46.499
1500.29	49.707
1503.82	56.135
1507.35	16.753
1510.88	31.924
1514.41	0.645
1517.94	53.036
1521.46	0
