Measurement: Raman, 514 nm, ccw, Raman Data Processed
Mineral: Anhydrite
Rruff sample: R040061
Ideal chemistry: CaSO_4_
Locality: Chester County, Pennsylvania, USA
Source: University of Arizona Mineral Museum
Description: Pale purple fractured single crystal
Measured chemistry: Ca_0.98_S_1.01_O_4_
Pin_id: M00472
Orientation: Laser parallel to b* (0 1 0). Fiducial mark perpendicular to laser is parallel to c [0 0 1]
Raman shift (cm-1)	intensity
83.614	0
87.798	18.436
91.981	75.63
96.161	85.325
100.34	120.155
104.516	89.284
108.691	45.485
112.864	64.02
117.034	261.128
121.203	183.559
125.369	51.538
129.534	92.195
133.696	6.198
137.857	59.702
142.016	40.325
146.172	47.361
150.327	43.332
154.48	56.412
158.63	58.54
162.779	74.72
166.926	158.066
171.07	57.112
175.213	27.351
179.354	28.446
183.493	23.07
187.63	6.957
191.765	22.385
195.898	33.843
200.029	57.795
204.158	41.926
208.285	16.037
212.41	24.226
216.533	63.712
220.654	80.669
224.773	271.475
228.891	681.808
233.006	823.515
237.119	388.125
241.231	225.639
245.34	125.219
249.448	56.922
253.553	40.347
257.657	73.018
261.758	41.845
265.858	68.593
269.956	63.314
274.052	1.993
278.146	12.549
282.237	33.062
286.327	3.486
290.416	34.027
294.502	29.228
298.586	35.975
302.668	40.813
306.749	41.732
310.827	7.288
314.903	1.663
318.978	34.595
323.051	82.516
327.121	83.425
331.19	51.322
335.257	37.873
339.322	31.077
343.385	12.882
347.446	8.935
351.505	23.723
355.563	10.178
359.618	27.922
363.672	11.605
367.723	32.241
371.773	15.141
375.821	19.47
379.866	17.073
383.91	58.652
387.952	25.258
391.992	3.931
396.031	38.516
400.067	36.052
404.101	51.605
408.134	46.117
412.165	75.628
416.193	163.127
420.22	58.603
424.245	34.054
428.268	71.51
432.289	59.107
436.309	36.306
440.326	45.972
444.342	30.996
448.355	41.197
452.367	20.554
456.377	4.292
460.385	8.025
464.391	39.338
468.395	42.637
472.398	94.754
476.398	119.265
480.397	123.495
484.394	206.74
488.389	383.941
492.382	969.141
496.373	2350.32
500.362	2087.46
504.349	789.234
508.335	360.479
512.319	154.656
516.3	97.012
520.28	95.225
524.259	88.403
528.235	53.522
532.209	57.242
536.182	66.466
540.152	37.704
544.121	22.99
548.088	64.66
552.053	38.591
556.017	30.718
559.978	42.714
563.938	52.964
567.895	90.187
571.851	95.665
575.805	64.51
579.758	81.389
583.708	63.196
587.657	21.588
591.603	23.09
595.548	52.526
599.491	80.575
603.432	71.807
607.372	48.901
611.309	51.315
615.245	80.637
619.179	95.79
623.111	454.166
627.041	1454.1
630.97	338.547
634.896	105.118
638.821	144.489
642.744	174.347
646.665	205.384
650.584	143.534
654.502	121.47
658.418	126.761
662.331	151.38
666.244	313.706
670.154	1343.67
674.062	7625.36
677.969	2208.02
681.874	388.649
685.777	208.178
689.678	62.657
693.577	79.079
697.475	14.424
701.371	5.666
705.265	62.846
709.157	24.851
713.047	1.155
716.936	4.795
720.823	26.629
724.708	3.727
728.591	43.498
732.472	68.366
736.352	43.765
740.23	7.316
744.106	44.721
747.98	47.968
751.853	28.097
755.723	41.677
759.592	14.647
763.459	44.904
767.325	10.167
771.188	26.702
775.05	29.525
778.91	48.272
782.768	9.47
786.625	3.797
790.479	12.82
794.332	7.674
798.183	49.769
802.033	14.171
805.88	45.531
809.726	16.853
813.57	8.67
817.413	22.652
821.253	25.536
825.092	30.431
828.929	43.323
832.764	13.184
836.598	148.015
840.429	119.819
844.259	153.595
848.088	66.335
851.914	56.71
855.739	180.926
859.562	176.574
863.383	154.128
867.203	93.26
871.02	109.178
874.836	31.802
878.65	57.719
882.463	42.13
886.274	45.84
890.083	81.435
893.89	115.765
897.695	121.421
901.499	104.816
905.301	69.795
909.102	26.001
912.9	27.751
916.697	44.339
920.492	72
924.285	83.758
928.077	19.623
931.867	24.568
935.655	9.375
939.442	34.048
943.226	32.591
947.009	26.579
950.791	51.502
954.57	86.365
958.348	34.25
962.124	71.19
965.899	83.271
969.671	127.82
973.442	102.337
977.211	177.011
980.979	72.259
984.745	221.486
988.509	340.801
992.271	393.143
996.032	621.529
999.791	1184.99
1003.55	1348.49
1007.3	2308.06
1011.06	5760.69
1014.81	28429.4
1018.56	42551.1
1022.31	7563.99
1026.06	2651.88
1029.8	1393.65
1033.55	795.826
1037.29	478.566
1041.03	311.725
1044.77	244.113
1048.5	191.74
1052.24	225.91
1055.97	178.705
1059.7	82.141
1063.43	54.24
1067.16	117.591
1070.89	78.187
1074.61	97.538
1078.34	114.081
1082.06	106.141
1085.78	111.811
1089.5	51.358
1093.21	16.061
1096.93	124.692
1100.64	106.47
1104.35	191.896
1108.06	151.058
1111.77	206.126
1115.48	415
1119.18	934.795
1122.89	2601.37
1126.59	12653
1130.29	28854.8
1133.99	4615.17
1137.68	1369.71
1141.38	562.457
1145.07	358.569
1148.76	224.783
1152.45	292.349
1156.14	453.617
1159.83	2405.72
1163.51	1168.43
1167.19	263.503
1170.88	97.974
1174.56	125.961
1178.23	72.851
1181.91	26.361
1185.59	24.281
1189.26	1.111
1192.93	25.219
1196.6	79.282
1200.27	19.474
1203.94	46.743
1207.6	2.158
1211.27	124.422
1214.93	136.306
1218.59	67.057
1222.25	34.796
1225.9	89.649
1229.56	67.277
1233.21	139.213
1236.86	67.939
1240.51	122.852
1244.16	9.845
1247.81	77.327
1251.45	44.318
1255.1	26.234
1258.74	23.603
1262.38	27.651
1266.02	76.152
1269.66	88.472
1273.29	84.648
1276.93	1.23
1280.56	116.64
1284.19	139.42
1287.82	85.14
1291.45	11.643
1295.07	89.009
1298.7	56.258
1302.32	12.394
1305.94	38.587
1309.56	130.272
1313.18	17.997
1316.8	192.576
1320.41	176.339
1324.02	115.577
1327.63	96.358
1331.24	72.909
1334.85	30.674
1338.46	24.513
1342.06	16.984
1345.67	88.35
1349.27	13.919
1352.87	65.158
1356.47	159.289
1360.07	164.989
1363.66	184.305
1367.25	114.822
1370.85	134.351
1374.44	25.39
1378.03	29.013
1381.61	6.406
1385.2	114.766
1388.78	115.778
1392.37	124.186
1395.95	204.774
1399.53	171.267
1403.1	115.812
1406.68	66.405
1410.26	93.75
1413.83	144.348
1417.4	197.639
1420.97	84.461
1424.54	210.873
1428.1	156.091
1431.67	210.923
1435.23	261.82
1438.8	237.829
1442.36	246.387
1445.91	328.285
1449.47	292.021
1453.03	343.675
1456.58	344.734
1460.13	188.062
1463.68	139.163
1467.23	149.344
1470.78	371.788
1474.33	240.855
1477.87	207.949
1481.42	116.517
1484.96	205.242
1488.5	166.435
1492.04	149.756
1495.57	146.901
1499.11	37.771
1502.64	155.496
1506.17	33.642
1509.71	14.134
1513.23	119.487
1516.76	66.954
1520.29	0
