Measurement: Raman, 514 nm, ccw, Raman Data Processed
Mineral: Anhydrite
Rruff sample: R040012
Ideal chemistry: CaSO_4_
Locality: Moundhouse, Nevada, USA
Source: University of Arizona Mineral Museum
Description: White massive
Measured chemistry: Ca_1.00_S_1.00_O_4_
Pin_id: S00004
Orientation: Laser parallel to -a* (-1 0 0). Fiducial mark perpendicular to laser is parallel to b [0 1 0]
Raman shift (cm-1)	intensity
91.981	0
96.161	46.638
100.34	56.657
104.516	34.622
108.691	59.82
112.864	20.35
117.034	254.152
121.203	501.972
125.369	294.853
129.534	304.75
133.696	164.078
137.857	76.466
142.016	17.906
146.172	63.582
150.327	40.128
154.48	47.627
158.63	6.91
162.779	51.678
166.926	70.325
171.07	35.341
175.213	26.636
179.354	12.76
183.493	5.99
187.63	8.084
191.765	1.157
195.898	28.314
200.029	5.381
204.158	41.069
208.285	20.457
212.41	37.783
216.533	57.804
220.654	80.886
224.773	147.13
228.891	239.016
233.006	251.964
237.119	164.769
241.231	123.67
245.34	104.016
249.448	78.189
253.553	96.906
257.657	109.977
261.758	153.256
265.858	137.82
269.956	144.088
274.052	142.438
278.146	106.105
282.237	80.483
286.327	89.603
290.416	71.463
294.502	105.868
298.586	105.116
302.668	105.998
306.749	133.687
310.827	170.698
314.903	123.249
318.978	119.685
323.051	149.865
327.121	110.063
331.19	95.987
335.257	84.38
339.322	112.786
343.385	147.553
347.446	124.234
351.505	101.691
355.563	58.112
359.618	35.302
363.672	8.525
367.723	35.606
371.773	51.566
375.821	29.241
379.866	4.448
383.91	39.747
387.952	62.888
391.992	100.77
396.031	119.548
400.067	62.261
404.101	34.623
408.134	77.619
412.165	246.191
416.193	916.014
420.22	132.034
424.245	21.144
428.268	14.148
432.289	12.662
436.309	15.393
440.326	14.178
444.342	3.253
448.355	18.133
452.367	54.739
456.377	68.535
460.385	107.334
464.391	120.166
468.395	85.126
472.398	123.281
476.398	98.199
480.397	113.003
484.394	227.89
488.389	391.417
492.382	897.04
496.373	2162.37
500.362	2165.83
504.349	900.733
508.335	402.559
512.319	247.346
516.3	160.665
520.28	114.807
524.259	112.731
528.235	132.715
532.209	102.238
536.182	65.979
540.152	74.23
544.121	50.963
548.088	56.154
552.053	74.483
556.017	133.364
559.978	122.035
563.938	88.71
567.895	147.944
571.851	136.247
575.805	162.453
579.758	169.527
583.708	188.774
587.657	235.324
591.603	193.356
595.548	252.21
599.491	296.742
603.432	486.52
607.372	1768.42
611.309	819.288
615.245	368.278
619.179	529.424
623.111	720.606
627.041	896.694
630.97	552.798
634.896	303.817
638.821	372.783
642.744	463.68
646.665	620.511
650.584	585.275
654.502	529.976
658.418	363.613
662.331	267.182
666.244	451.681
670.154	1551.11
674.062	8097.48
677.969	3880.78
681.874	542.022
685.777	149.209
689.678	25.333
693.577	36.348
697.475	26.781
701.371	57.276
705.265	26.894
709.157	60
713.047	64.127
716.936	26.548
720.823	21.298
724.708	53.08
728.591	42.93
732.472	81.966
736.352	51.742
740.23	50.579
744.106	18.394
747.98	72.185
751.853	53.948
755.723	44.684
759.592	88.393
763.459	79.071
767.325	77.728
771.188	40.367
775.05	103.978
778.91	48.562
782.768	29.122
786.625	73.658
790.479	75.172
794.332	117.666
798.183	96.142
802.033	70.602
805.88	148.048
809.726	72.482
813.57	109.905
817.413	116.668
821.253	160.729
825.092	195.133
828.929	221.535
832.764	238.937
836.598	323.34
840.429	354.746
844.259	377.212
848.088	406.166
851.914	445.058
855.739	585.062
859.562	719.957
863.383	748.228
867.203	483.304
871.02	308.837
874.836	255.593
878.65	295.438
882.463	284.25
886.274	248.159
890.083	211.14
893.89	250.202
897.695	298.238
901.499	233.45
905.301	245.756
909.102	195.174
912.9	179.608
916.697	72.313
920.492	41.785
924.285	80.609
928.077	89.502
931.867	56.467
935.655	59.506
939.442	54.62
943.226	70.809
947.009	60.073
950.791	97.416
954.57	115.836
958.348	79.334
962.124	11.913
965.899	118.572
969.671	96.311
973.442	103.133
977.211	112.037
980.979	117.024
984.745	209.094
988.509	314.247
992.271	328.485
996.032	579.809
999.791	1421.25
1003.55	1967.31
1007.3	2303.77
1011.06	5707.29
1014.81	26852.4
1018.56	53281.9
1022.31	11080.4
1026.06	3546.22
1029.8	1683.99
1033.55	945.985
1037.29	543.971
1041.03	322.081
1044.77	182.773
1048.5	241.005
1052.24	167.938
1055.97	111.87
1059.7	47.391
1063.43	2.53
1067.16	58.279
1070.89	70.898
1074.61	104.566
1078.34	165.315
1082.06	220.094
1085.78	294.926
1089.5	193.811
1093.21	79.746
1096.93	95.732
1100.64	118.41
1104.35	194.844
1108.06	564.97
1111.77	1438.14
1115.48	791.371
1119.18	531.649
1122.89	1069.97
1126.59	4321.32
1130.29	12282.7
1133.99	2481.14
1137.68	648.588
1141.38	183.061
1145.07	57.561
1148.76	15.916
1152.45	21.398
1156.14	11.902
1159.83	139.594
1163.51	186.11
1167.19	40.6
1170.88	0.954
1174.56	73.431
1178.23	76.695
1181.91	5.912
1185.59	23.875
1189.26	5.678
1192.93	7.466
1196.6	1.993
1200.27	5.605
1203.94	48.764
1207.6	46.157
1211.27	1.138
1214.93	51.781
1218.59	29.948
1222.25	102.894
1225.9	18.807
1229.56	105.683
1233.21	73.547
1236.86	189.408
1240.51	239.269
1244.16	125.03
1247.81	216.72
1251.45	252.689
1255.1	256.337
1258.74	220.467
1262.38	166.776
1266.02	271.354
1269.66	313.248
1273.29	371.751
1276.93	397.963
1280.56	331.989
1284.19	241.132
1287.82	195.371
1291.45	237.479
1295.07	362.048
1298.7	347.749
1302.32	291.545
1305.94	262.086
1309.56	358.477
1313.18	323.825
1316.8	368.22
1320.41	394.481
1324.02	363.675
1327.63	234.148
1331.24	140.525
1334.85	91.874
1338.46	23.155
1342.06	7.364
1345.67	31.488
1349.27	51.089
1352.87	85.306
1356.47	68.077
1360.07	40.796
1363.66	64.436
1367.25	92.086
1370.85	99.674
1374.44	107.327
1378.03	105.753
1381.61	70.578
1385.2	176.129
1388.78	99.475
1392.37	4.277
1395.95	97.369
1399.53	24.792
1403.1	12.809
1406.68	71.389
1410.26	64.938
1413.83	73.071
1417.4	49.299
1420.97	36.186
1424.54	53.044
1428.1	53.267
