Measurement: Raman, 514 nm, ccw, Raman Data Processed
Mineral: Anhydrite
Rruff sample: R040012
Ideal chemistry: CaSO_4_
Locality: Moundhouse, Nevada, USA
Source: University of Arizona Mineral Museum
Description: White massive
Measured chemistry: Ca_1.00_S_1.00_O_4_
Pin_id: S00004
Orientation: Laser parallel to -a* (-1 0 0). Fiducial mark perpendicular to laser is parallel to b [0 1 0]
Raman shift (cm-1)	intensity
93.375	0
97.554	50.488
101.732	75.029
105.908	144.806
110.082	172.429
114.254	210.544
118.424	711.929
122.592	1615.58
126.758	681.179
130.922	401.979
135.083	142.063
139.243	70.139
143.401	78.688
147.557	55.305
151.711	115.547
155.863	79.788
160.013	58.792
164.161	83.338
168.308	69.354
172.452	23.341
176.594	26.874
180.734	21.298
184.872	3.87
189.008	24.984
193.143	33.266
197.275	23.951
201.405	8.327
205.534	6.973
209.66	21.86
213.784	15.278
217.907	21.132
222.027	41.497
226.146	88.911
230.263	72.062
234.377	84.797
238.49	109.609
242.601	93.743
246.709	60.497
250.816	93.366
254.921	151.353
259.024	141.205
263.125	137.628
267.224	174.255
271.321	174.51
275.416	167.644
279.51	147.594
283.601	150.305
287.69	72.681
291.778	66.855
295.863	101.015
299.947	99.213
304.029	111.193
308.108	156.651
312.186	132.263
316.262	159.099
320.336	163.649
324.408	122.608
328.478	111.882
332.546	102.781
336.612	96.038
340.677	104.315
344.739	139.631
348.799	90.055
352.858	68.453
356.915	24.499
360.969	25.311
365.022	11.84
369.073	12.837
373.122	12.543
377.169	18.114
381.215	8.468
385.258	97.332
389.299	129.156
393.339	153.216
397.376	127.635
401.412	53.052
405.446	60.534
409.478	7.873
413.508	50.475
417.536	22.546
421.562	12.395
425.586	67.382
429.609	65.136
433.629	59.816
437.648	96.043
441.665	176.991
445.68	166.835
449.693	177.704
453.704	227.345
457.713	353.977
461.721	388.394
465.726	481.039
469.73	558.079
473.731	654.989
477.731	859.265
481.729	1128.53
485.725	1731.45
489.72	3115.16
493.712	7397.74
497.703	14423.3
501.691	11017.9
505.678	4601.82
509.663	1995.76
513.646	1023.59
517.627	632.035
521.607	432.323
525.584	323.737
529.56	269.142
533.534	224.439
537.506	163.79
541.476	144.71
545.444	117.96
549.41	112.632
553.375	182.097
557.337	134.313
561.298	163.08
565.257	202.859
569.214	186.747
573.17	220.888
577.123	127.788
581.075	254.511
585.024	280.705
588.972	322.56
592.918	340.647
596.863	344.677
600.805	432.61
604.746	828.452
608.685	1986.2
612.621	787.871
616.557	603.457
620.49	709.964
624.421	1191.39
628.351	1245.73
632.279	716.979
636.205	520.139
640.129	548.207
644.051	721.186
647.972	894.077
651.89	798.883
655.807	640.604
659.722	401.24
663.636	159.789
667.547	113.246
671.457	154.615
675.365	267.897
679.271	93.098
683.175	11.789
687.077	25.846
690.978	18.164
694.877	54.802
698.774	25.797
702.669	73.106
706.562	16.774
710.454	21.72
714.344	0.988
718.232	16.568
722.118	4.391
726.002	51.62
729.885	92.555
733.766	139.424
737.645	77.233
741.522	80.981
745.397	101.669
749.271	111.298
753.143	53.869
757.013	66.384
760.881	100.845
764.748	106.258
768.613	91.632
772.476	109.223
776.337	142.248
780.196	105.494
784.054	108.702
787.91	113.874
791.764	198.013
795.616	231.123
799.467	198.204
803.316	222.26
807.163	206.293
811.008	193.307
814.851	196.303
818.693	238.285
822.533	321.254
826.371	319.215
830.208	364.742
834.042	375.097
837.875	414.629
841.706	496.111
845.536	578.984
849.363	642.381
853.189	684.538
857.013	881.892
860.836	1071.58
864.656	851.612
868.475	624.211
872.292	513.389
876.108	405.029
879.922	393.082
883.733	454.914
887.544	425.954
891.352	400.071
895.159	443.267
898.964	419.543
902.767	408.903
906.568	388.346
910.368	294.877
914.166	319.536
917.962	213
921.757	136.874
925.55	140.831
929.341	142.882
933.13	116.03
936.918	188.275
940.703	181.619
944.488	101.063
948.27	120.608
952.051	181.256
955.83	195.008
959.607	206.864
963.383	195.826
967.156	181.896
970.928	177.072
974.699	170.357
978.468	204.751
982.234	228.256
986	294.871
989.763	399.611
993.525	419.504
997.285	889.316
1001.04	2027.17
1004.8	2254
1008.55	3177.63
1012.31	8850.65
1016.06	44000.9
1019.81	35243.3
1023.56	8817.98
1027.31	3084.79
1031.05	1506.71
1034.79	815.723
1038.53	580.823
1042.27	310.007
1046.01	261.274
1049.75	193.625
1053.48	135.057
1057.22	93.573
1060.95	23.367
1064.68	19.502
1068.4	36.238
1072.13	85.048
1075.86	162.949
1079.58	243.92
1083.3	409.96
1087.02	390.067
1090.74	219.24
1094.45	173.478
1098.17	130.778
1101.88	149.141
1105.59	223.563
1109.3	1054.04
1113.01	1329.58
1116.71	616.166
1120.42	260.807
1124.12	169.397
1127.82	261.239
1131.52	299.029
1135.22	90.868
1138.91	33.256
1142.61	85.617
1146.3	45.316
1149.99	46.187
1153.68	19.121
1157.37	19.907
1161.06	261.946
1164.74	83.01
1168.42	32.097
1172.1	73.203
1175.78	98.244
1179.46	93.287
1183.14	66.337
1186.81	66.39
1190.48	26.445
1194.15	35.498
1197.83	45.547
1201.49	81.976
1205.16	54.007
1208.82	8.986
1212.49	75.956
1216.15	134.693
1219.81	143.822
1223.46	93.809
1227.12	96.753
1230.78	69.7
1234.43	186.653
1238.08	311.614
1241.73	323.576
1245.38	305.535
1249.03	268.499
1252.67	343.367
1256.31	270.188
1259.95	308.327
1263.6	318.821
1267.23	435.612
1270.87	530.407
1274.51	577.273
1278.14	593.235
1281.77	455.015
1285.4	345.909
1289.03	317.16
1292.66	359.196
1296.28	377.241
1299.91	326.25
1303.53	295.221
1307.15	381.151
1310.77	502.035
1314.38	500.865
1318	532.964
1321.61	536.908
1325.23	530.274
1328.84	334.535
1332.45	128.698
1336.06	108.748
1339.66	73.671
1343.27	11.463
1346.87	84.106
1350.47	86.581
1354.07	50.849
1357.67	10.695
1361.26	3.8
1364.86	0.099
1368.45	60.946
1372.04	100.992
1375.63	78.456
1379.22	168.013
1382.81	137.726
1386.39	143.265
1389.98	165.476
1393.56	148.886
1397.14	18.077
1400.72	4.284
1404.3	14.171
1407.87	88.656
1411.45	57.845
1415.02	31.363
1418.59	20.415
1422.16	0.384
