Measurement: Raman, 514 nm, ccw, Raman Data Processed
Mineral: Anhydrite
Rruff sample: R040012
Ideal chemistry: CaSO_4_
Locality: Moundhouse, Nevada, USA
Source: University of Arizona Mineral Museum
Description: White massive
Measured chemistry: Ca_1.00_S_1.00_O_4_
Pin_id: S00008
Orientation: Laser parallel to b* (0 1 0). Fiducial mark perpendicular to laser is parallel to -c [0 0 -1]
Raman shift (cm-1)	intensity
97.554	0
101.732	12.547
105.908	57.062
110.082	89.084
114.254	140.467
118.424	391.05
122.592	833.795
126.758	957.019
130.922	1285.07
135.083	1141.28
139.243	253.68
143.401	117.228
147.557	103.602
151.711	55.735
155.863	27.861
160.013	12.81
164.161	67.391
168.308	68.933
172.452	47.126
176.594	12.589
180.734	16.25
184.872	3.947
189.008	9.992
193.143	10.829
197.275	34.417
201.405	7.77
205.534	3.018
209.66	22.807
213.784	20.644
217.907	26.062
222.027	116.58
226.146	207.861
230.263	190.223
234.377	115.56
238.49	99.369
242.601	40.11
246.709	52.189
250.816	24.151
254.921	5.213
259.024	49.049
263.125	5.799
267.224	32.541
271.321	29.575
275.416	33.646
279.51	17.52
283.601	1.826
287.69	14.58
291.778	20.709
295.863	14.567
299.947	14.945
304.029	16.634
308.108	28.766
312.186	5.624
316.262	39.066
320.336	42.22
324.408	22.898
328.478	23.985
332.546	40.017
336.612	33.082
340.677	37.19
344.739	19.624
348.799	33.943
352.858	6.48
356.915	25.066
360.969	5.329
365.022	12.237
369.073	0.725
373.122	18.079
377.169	12.387
381.215	27.576
385.258	10.193
389.299	51.823
393.339	59.917
397.376	15.522
401.412	56.132
405.446	23.609
409.478	55.978
413.508	159.087
417.536	290.156
421.562	58.407
425.586	65.853
429.609	28.236
433.629	60.42
437.648	83.694
441.665	91.74
445.68	102.686
449.693	68.023
453.704	104.013
457.713	132.613
461.721	170.36
465.726	225.092
469.73	269.926
473.731	309.856
477.731	362.797
481.729	542.758
485.725	834.689
489.72	1600.51
493.712	3617.49
497.703	6666.45
501.691	6082.38
505.678	2552.2
509.663	1083.1
513.646	513.972
517.627	296.624
521.607	193.721
525.584	120.51
529.56	88.276
533.534	105.353
537.506	66.178
541.476	53.057
545.444	46.319
549.41	14.139
553.375	37.229
557.337	24.415
561.298	66.058
565.257	82.526
569.214	63.222
573.17	58.333
577.123	40.143
581.075	40.547
585.024	67.301
588.972	95.183
592.918	109.842
596.863	157.679
600.805	486.491
604.746	2558.45
608.685	5948.1
612.621	2914.02
616.557	642.728
620.49	275.36
624.421	317.969
628.351	366.69
632.279	162.33
636.205	124.284
640.129	139.898
644.051	103.224
647.972	142.078
651.89	155.725
655.807	114.169
659.722	119.543
663.636	118.488
667.547	266.732
671.457	1317.96
675.365	4184.11
679.271	1552.22
683.175	375.318
687.077	63.376
690.978	59.398
694.877	13.386
698.774	14.332
702.669	14.174
706.562	34.398
710.454	46.929
714.344	10.453
718.232	17.922
722.118	51.212
726.002	14.423
729.885	4.553
733.766	29.602
737.645	45.583
741.522	24.478
745.397	8.706
749.271	72.03
753.143	37.832
757.013	40.482
760.881	21.09
764.748	51.657
768.613	25.427
772.476	31.921
776.337	44.395
780.196	26.226
784.054	22.616
787.91	13.971
791.764	41.288
795.616	22.268
799.467	34.929
803.316	40.086
807.163	22.167
811.008	75.198
814.851	4.198
818.693	53.157
822.533	55.084
826.371	45.984
830.208	40.86
834.042	70.711
837.875	89.54
841.706	102.346
845.536	89.094
849.363	63.311
853.189	86.215
857.013	117.529
860.836	142.788
864.656	121.661
868.475	82.434
872.292	65.586
876.108	9.838
879.922	63.554
883.733	34.969
887.544	87.063
891.352	39.384
895.159	79.229
898.964	62.04
902.767	17.014
906.568	20.796
910.368	38.606
914.166	71.238
917.962	12.875
921.757	44.017
925.55	3.969
929.341	1.962
933.13	61.93
936.918	30.781
940.703	37.675
944.488	10.665
948.27	20.583
952.051	54.432
955.83	38.273
959.607	79.887
963.383	133.915
967.156	121.906
970.928	153.466
974.699	153.633
978.468	127.804
982.234	210.038
986	255.296
989.763	313.578
993.525	394.884
997.285	749.214
1001.04	1238.57
1004.8	1616.95
1008.55	3118.94
1012.31	9201.42
1016.06	43158
1019.81	38436.6
1023.56	9932.7
1027.31	3161.51
1031.05	1486.92
1034.79	851.545
1038.53	518.798
1042.27	408.643
1046.01	306.708
1049.75	229.784
1053.48	185.67
1057.22	181.768
1060.95	114.51
1064.68	121.728
1068.4	1.317
1072.13	48.986
1075.86	95.474
1079.58	86.757
1083.3	83.73
1087.02	112.25
1090.74	61.512
1094.45	109.769
1098.17	161.062
1101.88	160.381
1105.59	496.839
1109.3	2512.33
1113.01	3334.78
1116.71	1605.23
1120.42	796.716
1124.12	1138.16
1127.82	4465.62
1131.52	5157.18
1135.22	1164.65
1138.91	347.124
1142.61	135.663
1146.3	91.142
1149.99	46.608
1153.68	10.844
1157.37	49.596
1161.06	270.029
1164.74	71.608
1168.42	21.977
1172.1	7.437
1175.78	3.21
1179.46	9.947
1183.14	27.21
1186.81	14.421
1190.48	13.946
1194.15	27.241
1197.83	5.474
1201.49	55.32
1205.16	24.814
1208.82	31.943
1212.49	76.395
1216.15	57.183
1219.81	61.926
1223.46	19.614
1227.12	60.504
1230.78	70.929
1234.43	50.448
1238.08	23.93
1241.73	85.389
1245.38	40.829
1249.03	27.74
1252.67	29.635
1256.31	26.998
1259.95	57.423
1263.6	33.9
1267.23	73.977
1270.87	102.918
1274.51	108.684
1278.14	98.975
1281.77	79.123
1285.4	45.212
1289.03	52.224
1292.66	96.159
1296.28	58.032
1299.91	73.302
1303.53	65.079
1307.15	57.822
1310.77	108.531
1314.38	50.84
1318	80.452
1321.61	59.76
1325.23	108.212
1328.84	55.456
1332.45	7.645
1336.06	10.343
1339.66	24.797
1343.27	26.802
1346.87	70.152
1350.47	57.177
1354.07	32.451
1357.67	14.436
1361.26	49.367
1364.86	30.647
1368.45	62.902
1372.04	33.819
1375.63	60.691
1379.22	80.29
1382.81	84.825
1386.39	75.398
1389.98	85.699
1393.56	84.096
1397.14	96.444
1400.72	98.601
1404.3	42.747
1407.87	12.002
1411.45	16.781
1415.02	67.807
1418.59	89.535
1422.16	72.463
1425.73	93.101
1429.29	73.895
1432.86	136.288
1436.42	140.693
1439.98	201.447
1443.54	292.07
1447.1	311.855
1450.66	372.159
1454.21	406.408
1457.77	476.214
1461.32	414.942
1464.87	342.357
1468.42	261.407
1471.96	216.099
1475.51	200.481
1479.06	149.116
1482.6	172.955
1486.14	199.642
1489.68	115.032
1493.22	128.06
1496.75	56.436
1500.29	39.415
1503.82	36.8
1507.35	57.017
1510.88	65.921
1514.41	0.53
1517.94	27.66
