Measurement: Raman, 514 nm, ccw, Raman Data Processed
Mineral: Anhydrite
Rruff sample: R040061
Ideal chemistry: CaSO_4_
Locality: Chester County, Pennsylvania, USA
Source: University of Arizona Mineral Museum
Description: Pale purple fractured single crystal
Measured chemistry: Ca_0.98_S_1.01_O_4_
Pin_id: M00369
Orientation: Laser parallel to a* (1 0 0). Fiducial mark perpendicular to laser is parallel to b [0 1 0]
Raman shift (cm-1)	intensity
90.587	0
94.768	33.783
98.947	13.517
103.124	34.87
107.3	55.585
111.473	75.187
115.644	329.399
119.813	451.908
123.981	399.597
128.146	124.385
132.309	161.647
136.47	43.127
140.63	51.372
144.787	15.692
148.942	4.07
153.096	18.331
157.247	24.51
161.396	62.686
165.544	11.844
169.689	15.907
173.833	33.248
177.974	3.526
182.114	25.715
186.251	23.289
190.387	31.877
194.52	32.707
198.652	26.045
202.782	7.146
206.909	48.576
211.035	21.173
215.159	48.661
219.281	75.115
223.4	84.806
227.518	187.427
231.634	268.976
235.748	157.805
239.86	56.1
243.97	43.391
248.079	46.675
252.185	7.057
256.289	16.379
260.391	6.085
264.492	6.425
268.59	12.167
272.687	8.876
276.781	7.599
280.874	52.32
284.964	27.036
289.053	7.253
293.14	28.444
297.225	34.111
301.308	2.243
305.389	11.616
309.468	31.984
313.545	2.568
317.62	35.136
321.693	24.694
325.765	20.24
329.834	40.773
333.902	47.934
337.967	6.441
342.031	1.784
346.093	9.222
350.153	0.378
354.21	4.001
358.267	0.353
362.321	38.679
366.373	12.98
370.423	2.729
374.471	22.548
378.518	29.818
382.563	12.083
386.605	19.026
390.646	40.578
394.685	28.807
398.722	29.021
402.757	29.238
406.79	50.453
410.821	124.666
414.851	655.875
418.878	184.599
422.904	43.801
426.927	10.262
430.949	29.6
434.969	36.351
438.987	24.959
443.003	38.433
447.018	42.625
451.03	33.201
455.041	12.377
459.049	43.737
463.056	19.592
467.061	57.848
471.064	62.809
475.065	85.891
479.064	82.042
483.062	142.455
487.057	310.548
491.051	654.711
495.043	1678.89
499.032	2408.08
503.02	995.211
507.007	418.42
510.991	175.393
514.973	109.919
518.954	61.942
522.933	57.168
526.91	50.387
530.885	43.575
534.858	64.342
538.829	54.526
542.799	20.717
546.766	8.906
550.732	43.084
554.696	40.255
558.658	50.78
562.618	38.991
566.576	11.055
570.533	23.219
574.488	20.4
578.44	40.543
582.391	4.666
586.341	2.229
590.288	15.602
594.233	9.194
598.177	38.52
602.119	76.555
606.059	637.592
609.997	702.71
613.933	79.723
617.868	25.792
621.801	62.795
625.731	1.206
629.66	9.065
633.588	36.05
637.513	0.863
641.437	27.304
645.358	26.892
649.278	32.835
653.196	46.091
657.113	79.505
661.027	127.471
664.94	200.191
668.851	932.213
672.76	5639.06
676.667	6507.88
680.572	750.696
684.476	212.491
688.378	97.278
692.278	30.056
696.176	90.818
700.072	43.562
703.967	44.289
707.86	21.999
711.751	57.692
715.64	12.652
719.527	40.299
723.413	49.252
727.297	13.867
731.179	44.485
735.059	25.399
738.937	56.036
742.814	47.711
746.689	11.767
750.562	38.484
754.433	35.702
758.303	26.127
762.17	5.073
766.036	36.011
769.901	59.481
773.763	42.768
777.624	55.128
781.482	14.276
785.339	29.605
789.195	20.075
793.048	19.988
796.9	31.122
800.75	4.274
804.598	2.625
808.445	37.541
812.289	17.47
816.132	9.474
819.973	0.455
823.813	6.384
827.65	42.29
831.486	27.191
835.32	61.09
839.152	35.985
842.983	25.877
846.812	48.768
850.639	30.658
854.464	39.548
858.288	25.434
862.11	11.324
865.93	23.783
869.748	27.698
873.564	51.573
877.379	4.461
881.192	41.326
885.004	26.235
888.813	3.842
892.621	29.093
896.427	16.057
900.232	23.136
904.034	13.269
907.835	17.483
911.634	56.531
915.432	4.478
919.227	20.607
923.021	56.726
926.813	42.803
930.604	50.956
934.393	34.129
938.18	37.046
941.965	26.745
945.749	78.155
949.53	91.409
953.311	8.025
957.089	51.981
960.866	22.793
964.641	94.149
968.414	90.449
972.185	130.922
975.955	145.267
979.723	220.726
983.49	191.218
987.254	222.737
991.017	359.281
994.779	473.852
998.538	972.47
1002.3	1140.12
1006.05	1756.8
1009.81	4089.51
1013.56	16082.3
1017.31	60833.8
1021.06	14755.4
1024.81	3973.8
1028.55	1717.13
1032.3	943.942
1036.04	596.939
1039.78	404.014
1043.52	285.661
1047.26	181.805
1050.99	217.97
1054.73	140.167
1058.46	127.39
1062.19	123.706
1065.92	95.004
1069.65	54.745
1073.37	30.299
1077.1	19.815
1080.82	80.193
1084.54	42.018
1088.26	60.387
1091.97	40.835
1095.69	37.484
1099.4	74.716
1103.12	94.223
1106.83	301.755
1110.54	1156.3
1114.24	839.221
1117.95	525.896
1121.65	778.684
1125.35	2599.34
1129.06	12406.5
1132.75	3707.36
1136.45	724.052
1140.15	320.803
1143.84	174.094
1147.53	118.903
1151.22	31.622
1154.91	43.975
1158.6	52.603
1162.28	101.478
1165.97	20.579
1169.65	47.377
1173.33	14.575
1177.01	13.553
1180.69	38.209
1184.36	11.447
1188.04	11.523
1191.71	44.169
1195.38	34.822
1199.05	66.296
1202.71	34.736
1206.38	2.152
1210.04	15.573
1213.71	5.134
1217.37	42.124
1221.03	6.354
1224.68	28.556
1228.34	4.269
1231.99	55.872
1235.65	25.068
1239.3	21.166
1242.95	36.298
1246.59	61.38
1250.24	53.455
1253.88	8.479
1257.53	58.552
1261.17	63.456
1264.81	13.45
1268.45	37.321
1272.08	20.181
1275.72	8.296
1279.35	38.56
1282.98	17.083
1286.61	55.536
1290.24	21.913
1293.87	11.235
1297.49	26.508
1301.11	19.791
1304.73	1.143
1308.36	11.279
1311.97	68.52
1315.59	43.439
1319.2	63.304
1322.82	56.164
1326.43	33.146
1330.04	53.891
1333.65	17.898
1337.26	15.615
1340.86	34.112
1344.47	37.675
1348.07	44.199
1351.67	91.628
1355.27	63.077
1358.87	86.992
1362.46	72.394
1366.06	62.55
1369.65	59.828
1373.24	83.78
1376.83	23.829
1380.42	76.211
1384	34.146
1387.59	83.37
1391.17	65.578
1394.75	15.124
1398.33	60.822
1401.91	91.003
1405.49	41.65
1409.06	23.874
1412.64	57.589
1416.21	62.792
1419.78	53.877
1423.35	99.989
1426.91	61.156
1430.48	65.34
1434.05	51.664
1437.61	65.374
1441.17	8.947
1444.73	64.658
1448.29	102.319
1451.84	112.806
1455.4	37.224
1458.95	49.388
1462.5	55.267
1466.05	76.129
1469.6	57.683
1473.15	53.412
1476.69	67.765
1480.24	78.583
1483.78	82.284
1487.32	65.567
1490.86	67.434
1494.39	79.426
1497.93	64.693
1501.46	53.355
1505	9.327
1508.53	71.791
1512.06	65.965
1515.59	20.352
1519.11	54.568
1522.64	28.796
