Measurement: Raman, 514 nm, ccw, Raman Data Processed
Mineral: Anhydrite
Rruff sample: R040061
Ideal chemistry: CaSO_4_
Locality: Chester County, Pennsylvania, USA
Source: University of Arizona Mineral Museum
Description: Pale purple fractured single crystal
Measured chemistry: Ca_0.98_S_1.01_O_4_
Pin_id: M00472
Orientation: Laser parallel to b* (0 1 0). Fiducial mark perpendicular to laser is parallel to c [0 0 1]
Raman shift (cm-1)	intensity
87.798	0
91.981	26.751
96.161	52.733
100.34	46.76
104.516	61.033
108.691	65.403
112.864	95.314
117.034	662.065
121.203	2053
125.369	497.678
129.534	113.766
133.696	3.793
137.857	32.61
142.016	35.309
146.172	39.164
150.327	31.022
154.48	46.748
158.63	16.517
162.779	67.765
166.926	269.3
171.07	91.195
175.213	36.305
179.354	19.406
183.493	26.435
187.63	17.096
191.765	8.38
195.898	0.162
200.029	22.096
204.158	28.97
208.285	10.091
212.41	15.138
216.533	17.485
220.654	32.258
224.773	16.734
228.891	48.377
233.006	40.667
237.119	3.369
241.231	18.661
245.34	67.56
249.448	35.408
253.553	28.61
257.657	19.283
261.758	42.09
265.858	64.963
269.956	59.833
274.052	24.663
278.146	1.573
282.237	23.106
286.327	52.688
290.416	61.167
294.502	36.551
298.586	6.845
302.668	21.052
306.749	49.954
310.827	14.829
314.903	32.542
318.978	29.105
323.051	26.392
327.121	24.014
331.19	53.266
335.257	43.523
339.322	16.761
343.385	62.69
347.446	35.276
351.505	38.415
355.563	43.467
359.618	38.491
363.672	4.891
367.723	49.969
371.773	2.493
375.821	70.185
379.866	40.817
383.91	51.889
387.952	8.126
391.992	52.134
396.031	116.58
400.067	65.545
404.101	73.656
408.134	117.843
412.165	61.269
416.193	102.593
420.22	82
424.245	121.233
428.268	73.459
432.289	128.561
436.309	143.617
440.326	81.27
444.342	173.344
448.355	141.07
452.367	258.965
456.377	243.993
460.385	303.865
464.391	418.755
468.395	506.535
472.398	574.777
476.398	708.673
480.397	960.58
484.394	1481.75
488.389	2653.2
492.382	5903.05
496.373	13466.9
500.362	11846.6
504.349	4400.44
508.335	1698.15
512.319	870.025
516.3	509.907
520.28	323.57
524.259	212.031
528.235	130.761
532.209	146.88
536.182	91.618
540.152	55.331
544.121	83.801
548.088	55.498
552.053	73.32
556.017	106.902
559.978	41.306
563.938	59.076
567.895	15.933
571.851	28.873
575.805	5.651
579.758	28.504
583.708	73.461
587.657	115.79
591.603	70.282
595.548	82.725
599.491	123.131
603.432	76.707
607.372	125.003
611.309	120.38
615.245	94.935
619.179	156.699
623.111	429.189
627.041	1461.33
630.97	301.512
634.896	156.865
638.821	91.897
642.744	147.799
646.665	144.857
650.584	145.508
654.502	129.428
658.418	76.508
662.331	36.213
666.244	54.007
670.154	37.758
674.062	138.463
677.969	69.127
681.874	15.749
685.777	2.676
689.678	41.828
693.577	55.254
697.475	46.532
701.371	2.56
705.265	46.05
709.157	8.782
713.047	31.483
716.936	21.065
720.823	62.493
724.708	28.758
728.591	33.906
732.472	10.961
736.352	14.981
740.23	4.884
744.106	96.155
747.98	64.154
751.853	63.117
755.723	5.043
759.592	52.931
763.459	46.784
767.325	1.398
771.188	46.378
775.05	32.108
778.91	66.773
782.768	8.405
786.625	13.004
790.479	60.579
794.332	117.143
798.183	26.729
802.033	12.694
805.88	42.862
809.726	24.392
813.57	100.899
817.413	55.327
821.253	68.234
825.092	62.01
828.929	63.433
832.764	56.835
836.598	110.061
840.429	183.402
844.259	166.57
848.088	24.131
851.914	86.205
855.739	130.756
859.562	170.925
863.383	144.125
867.203	89.82
871.02	24.536
874.836	42.024
878.65	121.219
882.463	51.395
886.274	50.583
890.083	114.643
893.89	61.422
897.695	99.804
901.499	55.342
905.301	69.902
909.102	97.333
912.9	43.858
916.697	26.523
920.492	37.823
924.285	104.441
928.077	68.556
931.867	32.945
935.655	31.576
939.442	89.274
943.226	57.724
947.009	112.64
950.791	61.561
954.57	91.577
958.348	132.12
962.124	138.469
965.899	142.591
969.671	149.69
973.442	217.645
977.211	220.613
980.979	266.592
984.745	324.63
988.509	384.897
992.271	531.467
996.032	660.433
999.791	1335.95
1003.55	1446.48
1007.3	2448.77
1011.06	5863.09
1014.81	28845.4
1018.56	45335.8
1022.31	8175.31
1026.06	2795.86
1029.8	1408.4
1033.55	839.053
1037.29	550.411
1041.03	459.482
1044.77	256.392
1048.5	315.637
1052.24	229.439
1055.97	206.127
1059.7	107.979
1063.43	38.712
1067.16	174.516
1070.89	94.225
1074.61	131.888
1078.34	182.532
1082.06	117.267
1085.78	96.229
1089.5	23.934
1093.21	8.294
1096.93	45.551
1100.64	29.941
1104.35	14.39
1108.06	55.964
1111.77	61.997
1115.48	45.77
1119.18	45.981
1122.89	121.205
1126.59	190.268
1130.29	266.293
1133.99	30.395
1137.68	86.385
1141.38	39.356
1145.07	30.367
1148.76	22.068
1152.45	70.597
1156.14	351.472
1159.83	2264.65
1163.51	1234.93
1167.19	240.252
1170.88	112.679
1174.56	160.017
1178.23	93.111
1181.91	42.139
1185.59	8.622
1189.26	62.227
1192.93	8.278
1196.6	115.783
1200.27	80.809
1203.94	133.935
1207.6	52.359
1211.27	63.698
1214.93	90.073
1218.59	80.442
1222.25	105.441
1225.9	83.416
1229.56	47.259
1233.21	75.163
1236.86	172.911
1240.51	126.206
1244.16	49.147
1247.81	108.964
1251.45	34.336
1255.1	24.135
1258.74	47.298
1262.38	82.063
1266.02	54.87
1269.66	114.832
1273.29	108.667
1276.93	57.384
1280.56	126.833
1284.19	59.223
1287.82	91.015
1291.45	15.126
1295.07	91.863
1298.7	83.664
1302.32	13.558
1305.94	77.364
1309.56	124.087
1313.18	21.293
1316.8	110.203
1320.41	115.601
1324.02	117.913
1327.63	60.947
1331.24	16.28
1334.85	15.051
1338.46	8.194
1342.06	55.907
1345.67	25.553
1349.27	50.239
1352.87	46.582
1356.47	69.002
1360.07	159.819
1363.66	128.41
1367.25	195.075
1370.85	165.464
1374.44	74.336
1378.03	41.987
1381.61	90.812
1385.2	85.748
1388.78	26.044
1392.37	17.236
1395.95	24.487
1399.53	88.423
1403.1	151.251
1406.68	150.899
1410.26	46.107
1413.83	130.466
1417.4	55.034
1420.97	142.93
1424.54	76.102
1428.1	124.649
1431.67	218.613
1435.23	217.801
1438.8	216.721
1442.36	259.867
1445.91	331.916
1449.47	368.609
1453.03	358.135
1456.58	415.04
1460.13	438.078
1463.68	357.529
1467.23	222.247
1470.78	349.514
1474.33	270.086
1477.87	180.478
1481.42	196.799
1484.96	75.38
1488.5	101.007
1492.04	233.755
1495.57	65.91
1499.11	32.496
1502.64	12.32
1506.17	21.476
1509.71	76.11
1513.23	88.971
1516.76	43.973
1520.29	107.707
1523.81	0
