Measurement: Raman, 514 nm, ccw, Raman Data Processed
Mineral: Anhydrite
Rruff sample: R040061
Ideal chemistry: CaSO_4_
Locality: Chester County, Pennsylvania, USA
Source: University of Arizona Mineral Museum
Description: Pale purple fractured single crystal
Measured chemistry: Ca_0.98_S_1.01_O_4_
Pin_id: S00304
Orientation: Laser parallel to -c* (0 0 -1). Fiducial mark perpendicular to laser is parallel to a [1 0 0]
Raman shift (cm-1)	intensity
51.466	0
55.666	8.9
59.863	4.915
64.059	11.351
68.253	13.716
72.445	28.54
76.635	47.064
80.823	52.828
85.009	83.528
89.193	80.968
93.375	81.023
97.554	84.599
101.732	77.581
105.908	109.893
110.082	100.482
114.254	151.315
118.424	179.143
122.592	153.675
126.758	93.15
130.922	87.852
135.083	68.838
139.243	63.866
143.401	47.927
147.557	63.018
151.711	60.154
155.863	49.342
160.013	56.589
164.161	88.896
168.308	77.282
172.452	56.735
176.594	35.249
180.734	48.306
184.872	34.918
189.008	22.746
193.143	31.606
197.275	47.622
201.405	26.799
205.534	47.402
209.66	73.008
213.784	68.612
217.907	118.065
222.027	211.641
226.146	481.128
230.263	889.542
234.377	904.808
238.49	566.282
242.601	260.813
246.709	145.782
250.816	84.164
254.921	68.959
259.024	56.82
263.125	34.739
267.224	40.713
271.321	20.737
275.416	18.919
279.51	13.416
283.601	9.715
287.69	3.936
291.778	27.197
295.863	3.488
299.947	8.808
304.029	2.149
308.108	37.511
312.186	5.897
316.262	13.756
320.336	13.736
324.408	7.189
328.478	7.671
332.546	5.173
336.612	9.692
340.677	9.229
344.739	2.774
348.799	7.335
352.858	8.908
356.915	8.507
360.969	9.922
365.022	4.66
369.073	0.757
373.122	2.195
377.169	13.348
381.215	2.879
385.258	2.433
389.299	20.008
393.339	13.592
397.376	2.195
401.412	31.818
405.446	38.458
409.478	215.116
413.508	832.79
417.536	831.479
421.562	250.185
425.586	81.902
429.609	26.726
433.629	14.885
437.648	26.804
441.665	25.727
445.68	39.811
449.693	15.147
453.704	15.003
457.713	37.033
461.721	38.875
465.726	50.299
469.73	75.084
473.731	96.898
477.731	147.717
481.729	200.722
485.725	321.279
489.72	653.015
493.712	1615.89
497.703	2903.54
501.691	2156.42
505.678	890.15
509.663	382.866
513.646	171.687
517.627	121.988
521.607	72.65
525.584	40.19
529.56	77.742
533.534	85.36
537.506	79.548
541.476	53
545.444	29.774
549.41	34.056
553.375	12.648
557.337	16.56
561.298	27.477
565.257	61.397
569.214	66.362
573.17	32.281
577.123	38.197
581.075	11.16
585.024	22.137
588.972	24.053
592.918	3.839
596.863	10.942
600.805	1.558
604.746	12.35
608.685	21.204
612.621	15.055
616.557	6.826
620.49	30.585
624.421	86.707
628.351	135.121
632.279	31.252
636.205	6.485
640.129	39.198
644.051	25.71
647.972	30.556
651.89	46.371
655.807	59.146
659.722	69.418
663.636	183.559
667.547	549.439
671.457	3333.81
675.365	8764.22
679.271	2315.45
683.175	476.096
687.077	162.239
690.978	79.74
694.877	66.201
698.774	39.645
702.669	31.072
706.562	29.481
710.454	24.875
714.344	16.245
718.232	27.592
722.118	29.988
726.002	22.575
729.885	28.062
733.766	14.317
737.645	19.541
741.522	26.867
745.397	12.777
749.271	21.009
753.143	35.307
757.013	13.244
760.881	14.562
764.748	28.189
768.613	20.991
772.476	17.871
776.337	1.857
780.196	7.813
784.054	0.737
787.91	30.619
791.764	16.382
795.616	10.114
799.467	27.04
803.316	26.761
807.163	6.449
811.008	1.885
814.851	8.747
818.693	2.646
822.533	6.915
826.371	8.562
830.208	8.088
834.042	0.352
837.875	8.226
841.706	2.167
845.536	18.548
849.363	40.921
853.189	16.284
857.013	50.64
860.836	25.989
864.656	10.333
868.475	38.622
872.292	2.044
876.108	10.721
879.922	5.533
883.733	0.821
887.544	9.049
891.352	4.327
895.159	18.469
898.964	0.64
902.767	11.227
906.568	5.993
910.368	7.862
914.166	36.203
917.962	33.449
921.757	7.359
925.55	19.903
929.341	36.805
933.13	23.966
936.918	48.303
940.703	36.617
944.488	31.42
948.27	46.7
952.051	72.266
955.83	53.451
959.607	105.609
963.383	131.515
967.156	142.72
970.928	167.247
974.699	202.905
978.468	244.928
982.234	262.721
986	286.218
989.763	378.268
993.525	497.983
997.285	906.775
1001.04	1436.62
1004.8	1849.51
1008.55	3810.44
1012.31	11547.4
1016.06	54838.5
1019.81	35471.5
1023.56	8454.58
1027.31	2975.21
1031.05	1551.68
1034.79	957.719
1038.53	684.018
1042.27	476.357
1046.01	365.219
1049.75	282.197
1053.48	227.265
1057.22	198.308
1060.95	193.279
1064.68	96.859
1068.4	57.48
1072.13	108.98
1075.86	93.661
1079.58	84.406
1083.3	98.193
1087.02	88.03
1090.74	81.914
1094.45	129.842
1098.17	104.827
1101.88	166.86
1105.59	161.952
1109.3	328.373
1113.01	531.204
1116.71	813.274
1120.42	1684.36
1124.12	5072.01
1127.82	26815.4
1131.52	23704.3
1135.22	4599.15
1138.91	1460.65
1142.61	731.179
1146.3	476.139
1149.99	344.725
1153.68	235.173
1157.37	228.692
1161.06	309.868
1164.74	176.558
1168.42	101.622
1172.1	104.673
1175.78	72.431
1179.46	64.589
1183.14	70.134
1186.81	54.971
1190.48	56.828
1194.15	56.714
1197.83	52.642
1201.49	56.588
1205.16	47.562
1208.82	21.557
1212.49	84.568
1216.15	49.59
1219.81	60.625
1223.46	45.674
1227.12	52.734
1230.78	37.802
1234.43	25.877
1238.08	32.961
1241.73	19.062
1245.38	21.635
1249.03	17.358
1252.67	25.442
1256.31	1.519
1259.95	14.428
1263.6	10.384
1267.23	5.28
1270.87	0.668
1274.51	15.547
1278.14	5.991
1281.77	13.195
1285.4	20.969
1289.03	33.263
1292.66	6.464
1296.28	4.172
1299.91	19.863
1303.53	10.472
1307.15	21.152
1310.77	1.248
1314.38	15.671
1318	2.13
1321.61	10.382
1325.23	31.885
1328.84	19.344
1332.45	10.783
1336.06	41.211
1339.66	56.735
1343.27	21.137
1346.87	52.696
1350.47	66.231
1354.07	88.597
1357.67	74.958
1361.26	44.303
1364.86	44.617
1368.45	87.132
1372.04	72.391
1375.63	58.577
1379.22	21.646
1382.81	65.685
1386.39	44.706
1389.98	14.4
1393.56	37.022
1397.14	67.007
1400.72	57.659
1404.3	49.271
1407.87	32.698
1411.45	10.155
1415.02	20.103
1418.59	60.159
1422.16	31.839
1425.73	19.299
1429.29	9.269
1432.86	29.185
1436.42	47.032
1439.98	35.809
1443.54	20.514
1447.1	50.13
1450.66	55.667
1454.21	51.06
1457.77	42.167
1461.32	33.483
1464.87	2.776
1468.42	17.845
1471.96	26.577
1475.51	39.476
1479.06	13.371
1482.6	67.252
1486.14	16.148
1489.68	0.878
1493.22	35.152
1496.75	7.488
1500.29	43.942
1503.82	47.653
1507.35	2.13
1510.88	62.388
1514.41	0.802
1517.94	13.053
