Measurement: Raman, 514 nm, ccw, Raman Data Processed
Mineral: Anhydrite
Rruff sample: R040012
Ideal chemistry: CaSO_4_
Locality: Moundhouse, Nevada, USA
Source: University of Arizona Mineral Museum
Description: White massive
Measured chemistry: Ca_1.00_S_1.00_O_4_
Pin_id: S00008
Orientation: Laser parallel to b* (0 1 0). Fiducial mark perpendicular to laser is parallel to -c [0 0 -1]
Raman shift (cm-1)	intensity
91.981	0
96.161	30.916
100.34	12.828
104.516	44.886
108.691	76.513
112.864	116.249
117.034	490.547
121.203	1111.66
125.369	1272.69
129.534	212.321
133.696	144.472
137.857	63.312
142.016	22.458
146.172	36.939
150.327	22.01
154.48	22.086
158.63	18.325
162.779	18.527
166.926	46.937
171.07	32.953
175.213	13.49
179.354	0.055
183.493	6.304
187.63	2.93
191.765	21.592
195.898	15.489
200.029	5.113
204.158	33.315
208.285	17.23
212.41	11.621
216.533	14.246
220.654	15.928
224.773	36.541
228.891	25.143
233.006	31.695
237.119	1.769
241.231	9.798
245.34	6.196
249.448	23.776
253.553	9.283
257.657	6.859
261.758	6.716
265.858	9.463
269.956	6.072
274.052	6.39
278.146	30.023
282.237	4.436
286.327	22.609
290.416	21.5
294.502	47.156
298.586	32.651
302.668	11.942
306.749	15.827
310.827	20.556
314.903	32.968
318.978	35.846
323.051	31.294
327.121	21.105
331.19	9.045
335.257	22.368
339.322	26.966
343.385	42.123
347.446	8.765
351.505	3.632
355.563	11.123
359.618	24.928
363.672	4.4
367.723	28.031
371.773	11.397
375.821	30.406
379.866	11.99
383.91	53.764
387.952	65.172
391.992	53.998
396.031	79.1
400.067	48.014
404.101	77.588
408.134	76.921
412.165	95.975
416.193	79.336
420.22	83.483
424.245	93.897
428.268	107.395
432.289	104.348
436.309	155.274
440.326	122.964
444.342	170.879
448.355	200.906
452.367	240.548
456.377	280.396
460.385	373.507
464.391	448.588
468.395	516.596
472.398	646.673
476.398	771.9
480.397	1087.12
484.394	1656.35
488.389	2925.53
492.382	6174.58
496.373	12843.7
500.362	14804
504.349	6606.21
508.335	2589.86
512.319	1183.07
516.3	666.366
520.28	410.654
524.259	279.467
528.235	216.724
532.209	161.739
536.182	129.283
540.152	66.804
544.121	69.937
548.088	84.472
552.053	64.704
556.017	72.918
559.978	50.21
563.938	33.237
567.895	24.627
571.851	21.837
575.805	66.124
579.758	39.984
583.708	35.387
587.657	74.227
591.603	46.563
595.548	80.213
599.491	128.699
603.432	305.417
607.372	852.209
611.309	727.472
615.245	146.51
619.179	123.725
623.111	237.917
627.041	434.783
630.97	174.932
634.896	76.056
638.821	111.155
642.744	138.229
646.665	159.277
650.584	91.302
654.502	131.303
658.418	93.278
662.331	17.227
666.244	24.145
670.154	55.029
674.062	144.887
677.969	102.718
681.874	5.518
685.777	18.278
689.678	2.991
693.577	16.381
697.475	2.858
701.371	19.395
705.265	17.956
709.157	27.247
713.047	15.563
716.936	2.5
720.823	6.512
724.708	7.478
728.591	8.422
732.472	17.221
736.352	28.026
740.23	5.203
744.106	30.532
747.98	9.754
751.853	17.093
755.723	21.488
759.592	48.059
763.459	24.578
767.325	12.927
771.188	33.529
775.05	38.968
778.91	12.608
782.768	0.781
786.625	15.155
790.479	30.517
794.332	55.865
798.183	27.203
802.033	24.529
805.88	45.845
809.726	46.153
813.57	17.453
817.413	56.731
821.253	49.629
825.092	73.91
828.929	51.688
832.764	45.461
836.598	118.036
840.429	156.21
844.259	125.703
848.088	131.71
851.914	106.838
855.739	157.507
859.562	202.349
863.383	150.978
867.203	151.364
871.02	91.788
874.836	90.061
878.65	99.61
882.463	82.635
886.274	114.072
890.083	87.233
893.89	97.399
897.695	80.136
901.499	69.171
905.301	92.195
909.102	77.582
912.9	70.421
916.697	28.779
920.492	21.881
924.285	86.825
928.077	67.809
931.867	57.13
935.655	71.181
939.442	68.267
943.226	104.389
947.009	94.547
950.791	115.741
954.57	143.979
958.348	98.26
962.124	125.578
965.899	156.933
969.671	222.327
973.442	211.763
977.211	176.239
980.979	231.755
984.745	294.31
988.509	368.91
992.271	457.555
996.032	681.61
999.791	1319.47
1003.55	1627.85
1007.3	2661.68
1011.06	6632.72
1014.81	29628.7
1018.56	55201.2
1022.31	12797.7
1026.06	3928.3
1029.8	1763.06
1033.55	1012.65
1037.29	640.174
1041.03	475.325
1044.77	346.708
1048.5	284.773
1052.24	204.317
1055.97	201.906
1059.7	143.539
1063.43	121.208
1067.16	92.215
1070.89	119.634
1074.61	107.82
1078.34	113.599
1082.06	128.408
1085.78	95.239
1089.5	83.09
1093.21	45.96
1096.93	54.848
1100.64	47.754
1104.35	155.573
1108.06	552.52
1111.77	1291.47
1115.48	690.444
1119.18	256.429
1122.89	161.426
1126.59	137.436
1130.29	190.472
1133.99	62.521
1137.68	36.579
1141.38	10.645
1145.07	4.338
1148.76	22.603
1152.45	13.519
1156.14	0.694
1159.83	233.127
1163.51	99.228
1167.19	23.047
1170.88	21.149
1174.56	1.388
1178.23	2.724
1181.91	2.913
1185.59	29.208
1189.26	1.582
1192.93	6.009
1196.6	20.451
1200.27	19.009
1203.94	50.594
1207.6	46.094
1211.27	25.582
1214.93	64.071
1218.59	53.631
1222.25	43.13
1225.9	15.59
1229.56	28.031
1233.21	52.484
1236.86	60.892
1240.51	70.279
1244.16	45.649
1247.81	3.987
1251.45	44.331
1255.1	42.665
1258.74	70.724
1262.38	62.552
1266.02	96.805
1269.66	61.051
1273.29	81.327
1276.93	75.871
1280.56	72.488
1284.19	72.242
1287.82	38.395
1291.45	43.343
1295.07	52.1
1298.7	80.845
1302.32	44.624
1305.94	81.634
1309.56	115.629
1313.18	70.285
1316.8	86.527
1320.41	60.311
1324.02	63.996
1327.63	62.275
1331.24	67.33
1334.85	23.147
1338.46	44.255
1342.06	32.543
1345.67	19.328
1349.27	20.108
1352.87	58.883
1356.47	36.656
1360.07	90.905
1363.66	83.903
1367.25	75.645
1370.85	79.461
1374.44	17.049
1378.03	31.512
1381.61	41.888
1385.2	48.081
1388.78	34.121
1392.37	59.855
1395.95	42.639
1399.53	44.385
1403.1	1.062
1406.68	34.689
1410.26	22.36
1413.83	23.184
1417.4	0.049
1420.97	67.53
1424.54	71.422
1428.1	38.344
1431.67	95.4
1435.23	120.368
1438.8	115.196
1442.36	169.133
1445.91	227.83
1449.47	257.685
1453.03	287.504
1456.58	319.409
1460.13	303.323
1463.68	231.218
1467.23	176.397
1470.78	173.286
1474.33	173.426
1477.87	132.043
1481.42	145.945
1484.96	68.02
1488.5	76.116
1492.04	103.226
1495.57	67.357
1499.11	17.334
1502.64	6.578
1506.17	12.785
1509.71	38.379
1513.23	54.843
1516.76	12.02
1520.29	24.487
1523.81	31.44
