Measurement: Raman, 514 nm, ccw, Raman Data Processed
Mineral: Anhydrite
Rruff sample: R040061
Ideal chemistry: CaSO_4_
Locality: Chester County, Pennsylvania, USA
Source: University of Arizona Mineral Museum
Description: Pale purple fractured single crystal
Measured chemistry: Ca_0.98_S_1.01_O_4_
Pin_id: M00472
Orientation: Laser parallel to b* (0 1 0). Fiducial mark perpendicular to laser is parallel to c [0 0 1]
Raman shift (cm-1)	intensity
87.798	0
91.981	60.618
96.161	74.111
100.34	51.84
104.516	54.707
108.691	89.406
112.864	95.634
117.034	374.579
121.203	934.768
125.369	160.68
129.534	50.222
133.696	0.211
137.857	13.624
142.016	38.196
146.172	111.296
150.327	312.164
154.48	69.232
158.63	103.428
162.779	577.226
166.926	3577.14
171.07	992.512
175.213	122.329
179.354	39.212
183.493	42.294
187.63	7.739
191.765	25.019
195.898	18.522
200.029	20.995
204.158	38.901
208.285	48.801
212.41	23.36
216.533	12.498
220.654	46.222
224.773	138.057
228.891	277.095
233.006	410.864
237.119	236.196
241.231	85.145
245.34	51.779
249.448	38.26
253.553	34.07
257.657	17.891
261.758	72.634
265.858	91.178
269.956	31.471
274.052	5.526
278.146	8.816
282.237	1.551
286.327	7.693
290.416	0.594
294.502	10.269
298.586	6.56
302.668	8.559
306.749	10.102
310.827	21.279
314.903	16.164
318.978	1.582
323.051	42.546
327.121	10.426
331.19	14.487
335.257	3.72
339.322	34.944
343.385	31.427
347.446	23.488
351.505	13.348
355.563	13.373
359.618	10.525
363.672	22.366
367.723	0.223
371.773	4.585
375.821	1.053
379.866	15.997
383.91	69.76
387.952	46.067
391.992	18.315
396.031	95.508
400.067	27.669
404.101	54.803
408.134	30.612
412.165	115.254
416.193	175.452
420.22	54.642
424.245	70.161
428.268	60.021
432.289	69.332
436.309	78.593
440.326	61.205
444.342	108.711
448.355	124.543
452.367	157.813
456.377	104.669
460.385	185.669
464.391	176.408
468.395	195.196
472.398	245.487
476.398	323.144
480.397	411.679
484.394	677.731
488.389	1184.62
492.382	2612.68
496.373	6005.88
500.362	5217.83
504.349	1933.84
508.335	803.976
512.319	419.056
516.3	301.498
520.28	250.571
524.259	143.978
528.235	146.075
532.209	80.442
536.182	111.844
540.152	111.217
544.121	115.691
548.088	70.237
552.053	100.759
556.017	49.463
559.978	37.208
563.938	101.858
567.895	102.555
571.851	71.293
575.805	108.053
579.758	86.084
583.708	140.011
587.657	129.917
591.603	113.217
595.548	98.867
599.491	105.964
603.432	156.243
607.372	215.611
611.309	217.07
615.245	251.804
619.179	547.198
623.111	2262.29
627.041	9012.22
630.97	1330.7
634.896	304.116
638.821	201.779
642.744	221.021
646.665	235.305
650.584	199.871
654.502	176.635
658.418	115.325
662.331	132.543
666.244	218.802
670.154	736.462
674.062	3919.99
677.969	1260.36
681.874	213.926
685.777	61.783
689.678	35.578
693.577	51.341
697.475	20.06
701.371	23.741
705.265	63.384
709.157	41.984
713.047	0.458
716.936	57.114
720.823	27.634
724.708	31.487
728.591	8.994
732.472	2.45
736.352	46.073
740.23	16.406
744.106	28.777
747.98	24.472
751.853	10.305
755.723	0.274
759.592	1.829
763.459	30.074
767.325	4.192
771.188	12.552
775.05	8.009
778.91	8.442
782.768	16.19
786.625	1.069
790.479	4.234
794.332	57.315
798.183	16.322
802.033	24.762
805.88	15
809.726	7.646
813.57	1.168
817.413	0.532
821.253	3.225
825.092	13.087
828.929	3.948
832.764	29.096
836.598	74.729
840.429	72.484
844.259	59.178
848.088	53.759
851.914	74.355
855.739	102.826
859.562	134.266
863.383	151.669
867.203	69.84
871.02	11.094
874.836	1.669
878.65	1.417
882.463	56.348
886.274	34.798
890.083	23.151
893.89	1.687
897.695	37.884
901.499	11.278
905.301	22.567
909.102	36.557
912.9	1.582
916.697	36.78
920.492	2.99
924.285	39.025
928.077	22.193
931.867	39.174
935.655	7.134
939.442	53.949
943.226	42.895
947.009	54.686
950.791	64.517
954.57	67.426
958.348	114.118
962.124	70.261
965.899	75.137
969.671	123.269
973.442	130.865
977.211	133.659
980.979	200.23
984.745	264.889
988.509	292.633
992.271	352.802
996.032	563.044
999.791	1240.31
1003.55	1306.59
1007.3	2259.9
1011.06	5766.23
1014.81	28140.6
1018.56	43326
1022.31	7849.33
1026.06	2740.47
1029.8	1340.72
1033.55	849.248
1037.29	596.363
1041.03	352.385
1044.77	296.435
1048.5	261.279
1052.24	200.065
1055.97	168.743
1059.7	130.741
1063.43	84.676
1067.16	80.81
1070.89	126.994
1074.61	102.258
1078.34	107.637
1082.06	94.082
1085.78	137.592
1089.5	86.165
1093.21	68.802
1096.93	81.492
1100.64	88.242
1104.35	129.102
1108.06	167.089
1111.77	281.174
1115.48	362.065
1119.18	597.334
1122.89	1524.69
1126.59	7265.12
1130.29	17208.6
1133.99	2859.19
1137.68	842.834
1141.38	435.142
1145.07	333.691
1148.76	304.57
1152.45	536.391
1156.14	1155.41
1159.83	6877.39
1163.51	3441.01
1167.19	690.764
1170.88	270.781
1174.56	215.816
1178.23	87.935
1181.91	63.059
1185.59	49.995
1189.26	11.027
1192.93	34.993
1196.6	10.311
1200.27	30.612
1203.94	87.398
1207.6	34.148
1211.27	73.272
1214.93	94.809
1218.59	56.676
1222.25	93.374
1225.9	29.152
1229.56	48.738
1233.21	61.044
1236.86	114.567
1240.51	84.925
1244.16	40.686
1247.81	8.221
1251.45	50.89
1255.1	106.132
1258.74	35.096
1262.38	65.757
1266.02	106.33
1269.66	65.013
1273.29	90.719
1276.93	64.896
1280.56	35.067
1284.19	20.068
1287.82	10.648
1291.45	18.512
1295.07	59.55
1298.7	24.822
1302.32	47.404
1305.94	20.832
1309.56	42.872
1313.18	81.535
1316.8	76.081
1320.41	127.399
1324.02	48.639
1327.63	4.759
1331.24	3.247
1334.85	24.474
1338.46	30.807
1342.06	18.562
1345.67	29.958
1349.27	7.368
1352.87	1.403
1356.47	26.684
1360.07	19.682
1363.66	25.599
1367.25	2.586
1370.85	63.253
1374.44	65.938
1378.03	32.769
1381.61	98.085
1385.2	51.323
1388.78	22.44
1392.37	73.379
1395.95	40.545
1399.53	14.218
1403.1	54.895
1406.68	78.755
1410.26	2.127
1413.83	82.363
1417.4	15.363
1420.97	48.515
1424.54	84.682
1428.1	93.571
1431.67	128.358
1435.23	129.266
1438.8	167.676
1442.36	226.876
1445.91	283.213
1449.47	340.225
1453.03	333.863
1456.58	376.994
1460.13	393.358
1463.68	330.934
1467.23	232.885
1470.78	264.412
1474.33	213.42
1477.87	131.9
1481.42	82.549
1484.96	148.092
1488.5	73.227
1492.04	94.337
1495.57	86.202
1499.11	40.595
1502.64	49.405
1506.17	80.829
1509.71	22.016
1513.23	87.569
1516.76	58.414
1520.29	9.005
