Measurement: Raman, 514 nm, ccw, Raman Data Processed
Mineral: Anhydrite
Rruff sample: R040061
Ideal chemistry: CaSO_4_
Locality: Chester County, Pennsylvania, USA
Source: University of Arizona Mineral Museum
Description: Pale purple fractured single crystal
Measured chemistry: Ca_0.98_S_1.01_O_4_
Pin_id: S00304
Orientation: Laser parallel to -c* (0 0 -1). Fiducial mark perpendicular to laser is parallel to a [1 0 0]
Raman shift (cm-1)	intensity
51.466	0
55.666	27.333
59.863	23.526
64.059	6.509
68.253	4.437
72.445	14.569
76.635	15.515
80.823	23.013
85.009	41.937
89.193	48.283
93.375	40.908
97.554	47.695
101.732	43.6
105.908	67.594
110.082	51.77
114.254	92.084
118.424	186.515
122.592	250.922
126.758	114.656
130.922	34.192
135.083	39.74
139.243	36.257
143.401	28.75
147.557	11.237
151.711	29.725
155.863	55.219
160.013	58.719
164.161	42.572
168.308	24.769
172.452	10.709
176.594	10.191
180.734	6.054
184.872	1.305
189.008	15.018
193.143	4.055
197.275	5.047
201.405	18.405
205.534	19.922
209.66	20.309
213.784	19.536
217.907	29.686
222.027	76.716
226.146	209.927
230.263	428.243
234.377	417.63
238.49	251.068
242.601	100.544
246.709	46.05
250.816	27.578
254.921	7.123
259.024	11.68
263.125	13.246
267.224	12.82
271.321	7.594
275.416	2.995
279.51	0.418
283.601	11.181
287.69	5.217
291.778	0.368
295.863	4.05
299.947	1.528
304.029	3.895
308.108	19.675
312.186	1.24
316.262	3.799
320.336	4.356
324.408	6.913
328.478	0.454
332.546	13.303
336.612	5.483
340.677	6.02
344.739	14.453
348.799	11.909
352.858	24.358
356.915	3.404
360.969	11.737
365.022	18.153
369.073	19.565
373.122	3.025
377.169	25.371
381.215	32.829
385.258	36.157
389.299	44.555
393.339	60.954
397.376	84.354
401.412	135.757
405.446	254.169
409.478	1431.58
413.508	8484.99
417.536	10909.4
421.562	1944.79
425.586	407.19
429.609	161.587
433.629	89.188
437.648	89.811
441.665	62.633
445.68	65.71
449.693	47.942
453.704	45.27
457.713	52.46
461.721	53.999
465.726	65.014
469.73	71.369
473.731	60.314
477.731	104.398
481.729	154.185
485.725	218.275
489.72	430.178
493.712	1136.53
497.703	2147.88
501.691	1531.61
505.678	656.198
509.663	263.445
513.646	144.663
517.627	81.043
521.607	40.383
525.584	44.76
529.56	50.132
533.534	52.632
537.506	64.993
541.476	34.348
545.444	29.724
549.41	19.068
553.375	38.452
557.337	17.847
561.298	24.262
565.257	26.667
569.214	31.038
573.17	32.373
577.123	29.699
581.075	17.018
585.024	9.42
588.972	10.147
592.918	5.769
596.863	5.519
600.805	7.796
604.746	0.035
608.685	54.522
612.621	9.742
616.557	7.045
620.49	27.15
624.421	31.352
628.351	74.531
632.279	14.15
636.205	15.316
640.129	20.194
644.051	27.385
647.972	21.627
651.89	18.824
655.807	18.366
659.722	66.486
663.636	165.587
667.547	463.312
671.457	2714.08
675.365	7708.64
679.271	2042.68
683.175	440.717
687.077	121.737
690.978	56.698
694.877	51.749
698.774	36.735
702.669	15.706
706.562	8.661
710.454	31.601
714.344	15.524
718.232	6.413
722.118	14.304
726.002	27.508
729.885	25.339
733.766	29.154
737.645	11.047
741.522	5.957
745.397	7.596
749.271	21.939
753.143	35.569
757.013	29.348
760.881	2.209
764.748	22.101
768.613	24.106
772.476	11.082
776.337	36.616
780.196	34.256
784.054	18.867
787.91	23.459
791.764	24.033
795.616	23.143
799.467	10.326
803.316	27.165
807.163	32.642
811.008	26.098
814.851	19.524
818.693	15.069
822.533	1.294
826.371	8.631
830.208	23.941
834.042	43.207
837.875	43.528
841.706	32.812
845.536	34.089
849.363	18.361
853.189	24.628
857.013	36.864
860.836	28.404
864.656	16.332
868.475	7.521
872.292	9.398
876.108	17.166
879.922	16.989
883.733	9.179
887.544	1.374
891.352	1.457
895.159	7.55
898.964	18.34
902.767	9.829
906.568	13.177
910.368	5.2
914.166	14.192
917.962	7.367
921.757	14.584
925.55	9.811
929.341	6.053
933.13	47.288
936.918	35.55
940.703	19.378
944.488	31.663
948.27	10.238
952.051	48.595
955.83	54.724
959.607	64.995
963.383	78.93
967.156	93.306
970.928	102.582
974.699	154.421
978.468	205.3
982.234	197.287
986	281.788
989.763	275.314
993.525	434.865
997.285	754.446
1001.04	1204.05
1004.8	1547.68
1008.55	3203.35
1012.31	9683.07
1016.06	47329.8
1019.81	32974.6
1023.56	7773.95
1027.31	2689.34
1031.05	1337.9
1034.79	804.021
1038.53	531.035
1042.27	382.909
1046.01	298.875
1049.75	219.356
1053.48	182.315
1057.22	153.459
1060.95	136.632
1064.68	115.833
1068.4	112.895
1072.13	94.752
1075.86	49.039
1079.58	68.354
1083.3	49.68
1087.02	46.05
1090.74	36.454
1094.45	67.885
1098.17	63.492
1101.88	89.993
1105.59	84.533
1109.3	194.254
1113.01	320.454
1116.71	464.936
1120.42	946.607
1124.12	2973.32
1127.82	15772.2
1131.52	15741
1135.22	3049.79
1138.91	898.048
1142.61	440.389
1146.3	308.251
1149.99	166.133
1153.68	121.647
1157.37	106.954
1161.06	153.594
1164.74	107.24
1168.42	33.663
1172.1	35.22
1175.78	36.027
1179.46	20.364
1183.14	28.974
1186.81	21.09
1190.48	40.47
1194.15	0.558
1197.83	28.289
1201.49	42.928
1205.16	18.063
1208.82	18.205
1212.49	39.443
1216.15	19.523
1219.81	29.7
1223.46	29.883
1227.12	14.07
1230.78	4.26
1234.43	37.453
1238.08	46.644
1241.73	4.158
1245.38	25.096
1249.03	21.346
1252.67	17.694
1256.31	7.916
1259.95	10.883
1263.6	9.316
1267.23	47.504
1270.87	29.654
1274.51	2.753
1278.14	1.807
1281.77	8.847
1285.4	25.853
1289.03	5.843
1292.66	23.803
1296.28	7.25
1299.91	24.297
1303.53	18.598
1307.15	24.471
1310.77	11.685
1314.38	22.118
1318	6.107
1321.61	0.649
1325.23	4.604
1328.84	32.939
1332.45	0.414
1336.06	38.243
1339.66	35.886
1343.27	10.574
1346.87	56.177
1350.47	57.765
1354.07	70.349
1357.67	59.401
1361.26	51.146
1364.86	76.711
1368.45	46.31
1372.04	53.728
1375.63	24.116
1379.22	35.283
1382.81	31.036
1386.39	11.993
1389.98	43.909
1393.56	6.38
1397.14	16.376
1400.72	44.186
1404.3	47.613
1407.87	19.927
1411.45	53.045
1415.02	25.829
1418.59	32.248
1422.16	11.866
1425.73	37.068
1429.29	23.897
1432.86	35.227
1436.42	43.626
1439.98	48.786
1443.54	38.875
1447.1	35.903
1450.66	30.873
1454.21	42.786
1457.77	34.375
1461.32	64.691
1464.87	27.199
1468.42	50.665
1471.96	11.455
1475.51	21.388
1479.06	12.414
1482.6	30.405
1486.14	17.444
1489.68	23.485
1493.22	27.567
1496.75	5.391
1500.29	2.986
1503.82	9.992
1507.35	25.504
1510.88	11.911
1514.41	0.057
1517.94	10.514
1521.46	0
