Measurement: Raman, 514 nm, ccw, Raman Data Processed
Mineral: Anhydrite
Rruff sample: R040012
Ideal chemistry: CaSO_4_
Locality: Moundhouse, Nevada, USA
Source: University of Arizona Mineral Museum
Description: White massive
Measured chemistry: Ca_1.00_S_1.00_O_4_
Pin_id: S00008
Orientation: Laser parallel to b* (0 1 0). Fiducial mark perpendicular to laser is parallel to -c [0 0 -1]
Raman shift (cm-1)	intensity
91.981	0
96.161	28.447
100.34	50.666
104.516	64.004
108.691	82.027
112.864	120.763
117.034	237.617
121.203	313.359
125.369	486.847
129.534	199.387
133.696	148.199
137.857	73.498
142.016	45.344
146.172	78.815
150.327	63.859
154.48	37.045
158.63	32.038
162.779	32.271
166.926	1.468
171.07	33.308
175.213	3.997
179.354	8.849
183.493	2.809
187.63	3.788
191.765	3.52
195.898	6.871
200.029	3.146
204.158	25.14
208.285	9.483
212.41	19.332
216.533	35.011
220.654	47.917
224.773	95.563
228.891	155.662
233.006	241.392
237.119	213.073
241.231	117.575
245.34	32.037
249.448	33.069
253.553	60.528
257.657	48.879
261.758	45.713
265.858	51.765
269.956	38.713
274.052	29.447
278.146	29.693
282.237	11.583
286.327	45.248
290.416	0.529
294.502	25.447
298.586	26.101
302.668	22.462
306.749	36.4
310.827	43.165
314.903	52.611
318.978	36.692
323.051	55.522
327.121	53.129
331.19	44.258
335.257	48.68
339.322	52.17
343.385	36.945
347.446	3.501
351.505	32.078
355.563	31.96
359.618	0.129
363.672	1.935
367.723	1.942
371.773	15.652
375.821	1.482
379.866	4.679
383.91	9.409
387.952	13.126
391.992	22.549
396.031	21.021
400.067	0.401
404.101	7.232
408.134	28.015
412.165	121.13
416.193	385.253
420.22	149.416
424.245	8.35
428.268	6.211
432.289	3.055
436.309	2.85
440.326	27.536
444.342	13.924
448.355	22.553
452.367	48.632
456.377	31.013
460.385	38.119
464.391	49.483
468.395	28.893
472.398	85.294
476.398	85.735
480.397	119.997
484.394	194.363
488.389	364.794
492.382	848.129
496.373	1788.42
500.362	2346.82
504.349	1234.15
508.335	507.11
512.319	238.231
516.3	152.386
520.28	89.325
524.259	89.064
528.235	70.752
532.209	81.813
536.182	44.626
540.152	75.416
544.121	45.317
548.088	44.643
552.053	20.626
556.017	34.402
559.978	25.088
563.938	55.594
567.895	51.151
571.851	65.081
575.805	42.862
579.758	50.367
583.708	81.083
587.657	68.423
591.603	72.87
595.548	79.424
599.491	122.226
603.432	308.939
607.372	702.279
611.309	724.054
615.245	244.846
619.179	162.612
623.111	201.36
627.041	311.492
630.97	237.174
634.896	156.438
638.821	143.506
642.744	151.127
646.665	211.253
650.584	227.067
654.502	195.582
658.418	194.067
662.331	153.521
666.244	351.956
670.154	1614.36
674.062	6151.73
677.969	6161.07
681.874	1213.39
685.777	236.694
689.678	118.967
693.577	31.217
697.475	42.371
701.371	24.579
705.265	11.67
709.157	15.793
713.047	0.217
716.936	0.738
720.823	15.404
724.708	23.333
728.591	43.045
732.472	14.715
736.352	31.264
740.23	7.829
744.106	28.336
747.98	9.798
751.853	32.221
755.723	13.613
759.592	6.013
763.459	12.327
767.325	15.78
771.188	24.416
775.05	19.705
778.91	3.968
782.768	8.279
786.625	18.488
790.479	12.29
794.332	10.836
798.183	5.05
802.033	23.038
805.88	33.11
809.726	30.168
813.57	32.219
817.413	0.262
821.253	22.299
825.092	66.331
828.929	73.359
832.764	76.383
836.598	89.51
840.429	96.427
844.259	124.446
848.088	136.43
851.914	163.453
855.739	199.354
859.562	273.8
863.383	250.966
867.203	209.912
871.02	128.266
874.836	96.395
878.65	76.162
882.463	77.231
886.274	41.787
890.083	92.54
893.89	85.898
897.695	65.567
901.499	57.86
905.301	92.262
909.102	48.623
912.9	53.378
916.697	9.193
920.492	16.722
924.285	18.766
928.077	6.292
931.867	30.451
935.655	59.059
939.442	22.416
943.226	48.325
947.009	32.03
950.791	68.405
954.57	74.978
958.348	53.519
962.124	58.367
965.899	84.252
969.671	94.166
973.442	109.128
977.211	153.129
980.979	142.169
984.745	180.25
988.509	241.371
992.271	331.533
996.032	541.737
999.791	1156.98
1003.55	1442.27
1007.3	2302.6
1011.06	5906.98
1014.81	25791.4
1018.56	56281.9
1022.31	16010.5
1026.06	4611.87
1029.8	1953.81
1033.55	1071.45
1037.29	628.253
1041.03	442.394
1044.77	332.113
1048.5	222.016
1052.24	188.116
1055.97	122.265
1059.7	79.638
1063.43	64.104
1067.16	70.02
1070.89	76.12
1074.61	77.459
1078.34	80.778
1082.06	124.317
1085.78	105.766
1089.5	89.252
1093.21	67.769
1096.93	41.354
1100.64	81.971
1104.35	174.627
1108.06	573.325
1111.77	1284.06
1115.48	915.822
1119.18	614.625
1122.89	1127.46
1126.59	4446.33
1130.29	12501.2
1133.99	3480.14
1137.68	862.08
1141.38	307.049
1145.07	193.042
1148.76	85.059
1152.45	124.097
1156.14	52.158
1159.83	48.239
1163.51	46.34
1167.19	23.461
1170.88	13.401
1174.56	7.735
1178.23	14.124
1181.91	8.988
1185.59	15.099
1189.26	2.205
1192.93	27.811
1196.6	18.033
1200.27	8.015
1203.94	1.006
1207.6	2.002
1211.27	11.01
1214.93	18.96
1218.59	53.033
1222.25	0.877
1225.9	7.778
1229.56	24.164
1233.21	45.105
1236.86	47.046
1240.51	73.992
1244.16	74.943
1247.81	37.898
1251.45	58.998
1255.1	55.757
1258.74	69.844
1262.38	52.539
1266.02	72.721
1269.66	109.045
1273.29	148.046
1276.93	116.025
1280.56	113.031
1284.19	62.983
1287.82	100.907
1291.45	61.8
1295.07	99.691
1298.7	87.581
1302.32	101.466
1305.94	87.344
1309.56	134.221
1313.18	145.32
1316.8	136.308
1320.41	120.112
1324.02	149.004
1327.63	64.662
1331.24	92.487
1334.85	24.021
1338.46	21.36
1342.06	27.898
1345.67	25.633
1349.27	27.066
1352.87	24.99
1356.47	50.678
1360.07	47.491
1363.66	58.222
1367.25	44.833
1370.85	40.415
1374.44	51.491
1378.03	54.007
1381.61	23.653
1385.2	25.585
1388.78	59.498
1392.37	17.376
1395.95	9.789
1399.53	15.02
1403.1	41.808
1406.68	0.424
1410.26	2.673
1413.83	7.059
1417.4	15.772
1420.97	27.476
1424.54	70.223
1428.1	51.024
1431.67	44.601
1435.23	130.482
1438.8	170.38
1442.36	274.155
1445.91	360.662
1449.47	370.688
1453.03	397.748
1456.58	393.809
1460.13	444.694
1463.68	383.526
1467.23	286.809
1470.78	271.328
1474.33	198.831
1477.87	158.695
1481.42	177.633
1484.96	162.592
1488.5	132.522
1492.04	74.928
1495.57	75.229
1499.11	17.245
1502.64	75.647
1506.17	38.646
1509.71	23.547
1513.23	31.886
1516.76	0.013
1520.29	0
