Measurement: Raman, 514 nm, ccw, Raman Data Processed
Mineral: Anhydrite
Rruff sample: R040061
Ideal chemistry: CaSO_4_
Locality: Chester County, Pennsylvania, USA
Source: University of Arizona Mineral Museum
Description: Pale purple fractured single crystal
Measured chemistry: Ca_0.98_S_1.01_O_4_
Pin_id: M00369
Orientation: Laser parallel to a* (1 0 0). Fiducial mark perpendicular to laser is parallel to b [0 1 0]
Raman shift (cm-1)	intensity
83.614	0
87.798	2.827
91.981	17.74
96.161	42.955
100.34	26.024
104.516	54.355
108.691	81.334
112.864	176.047
117.034	894.647
121.203	1672.88
125.369	697.708
129.534	261.968
133.696	131.35
137.857	62.142
142.016	40.93
146.172	22.888
150.327	10.486
154.48	13.705
158.63	34.377
162.779	24.544
166.926	53.5
171.07	55.911
175.213	32.652
179.354	4.316
183.493	0.954
187.63	27.342
191.765	32.574
195.898	9.736
200.029	31.932
204.158	28.109
208.285	22.285
212.41	20.484
216.533	16.044
220.654	1.221
224.773	23.319
228.891	15.412
233.006	10.505
237.119	26.584
241.231	3.349
245.34	17.325
249.448	9.821
253.553	2.531
257.657	3.245
261.758	8.07
265.858	22.907
269.956	15.739
274.052	2.444
278.146	10.342
282.237	0.098
286.327	0.794
290.416	21.442
294.502	22.052
298.586	20.62
302.668	21.119
306.749	24.581
310.827	12.021
314.903	6.446
318.978	18.839
323.051	27.823
327.121	26.134
331.19	33.374
335.257	12.537
339.322	3.681
343.385	28.719
347.446	43.499
351.505	33.161
355.563	22.004
359.618	32.909
363.672	37.953
367.723	17.068
371.773	15.198
375.821	29.335
379.866	33.478
383.91	52.323
387.952	66.007
391.992	67.077
396.031	96.137
400.067	81.995
404.101	100.103
408.134	68.082
412.165	86.969
416.193	121.788
420.22	101.899
424.245	111.568
428.268	137.829
432.289	144.146
436.309	140.195
440.326	202.509
444.342	171.511
448.355	191.126
452.367	248.21
456.377	301.532
460.385	331.829
464.391	420.171
468.395	505.517
472.398	600.869
476.398	731.21
480.397	1024.63
484.394	1582.09
488.389	2873.76
492.382	6276.12
496.373	13264.5
500.362	12134.8
504.349	4817.22
508.335	1929.08
512.319	890.879
516.3	522.224
520.28	333.624
524.259	227.026
528.235	181.716
532.209	129.327
536.182	96.829
540.152	68.426
544.121	39.857
548.088	47.045
552.053	56.14
556.017	41.047
559.978	6.232
563.938	43.231
567.895	25.356
571.851	39.969
575.805	19.85
579.758	53.986
583.708	19.826
587.657	12.285
591.603	26.776
595.548	40.216
599.491	64.674
603.432	298.104
607.372	1071.12
611.309	390.051
615.245	73.11
619.179	50.735
623.111	101.126
627.041	172.034
630.97	69.397
634.896	20.309
638.821	1.643
642.744	12.958
646.665	24.253
650.584	23.416
654.502	16.938
658.418	32.225
662.331	22.493
666.244	2.86
670.154	44.897
674.062	174.052
677.969	105.192
681.874	5.315
685.777	7.418
689.678	6.498
693.577	8.556
697.475	10.591
701.371	4.61
705.265	7.399
709.157	31.548
713.047	11.53
716.936	23.327
720.823	4.135
724.708	5.88
728.591	7.374
732.472	7.688
736.352	15.071
740.23	12.509
744.106	1.906
747.98	10.981
751.853	15.064
755.723	11.568
759.592	4.941
763.459	12.525
767.325	35.95
771.188	8.338
775.05	12.748
778.91	17.102
782.768	5.441
786.625	9.238
790.479	8.058
794.332	61.193
798.183	176.439
802.033	2.445
805.88	0.446
809.726	7.967
813.57	12.217
817.413	8.463
821.253	22.508
825.092	40.81
828.929	29.973
832.764	18.208
836.598	28.417
840.429	46.377
844.259	31.406
848.088	38.396
851.914	1.634
855.739	33.836
859.562	21.67
863.383	19.943
867.203	40.781
871.02	37.245
874.836	45.953
878.65	23.666
882.463	19.297
886.274	24.331
890.083	29.686
893.89	22.924
897.695	7.607
901.499	22.918
905.301	14.46
909.102	20.994
912.9	21.158
916.697	43.585
920.492	48.695
924.285	4.311
928.077	39.125
931.867	30.804
935.655	0.974
939.442	59.135
943.226	38.882
947.009	76.654
950.791	69.452
954.57	77.279
958.348	103.995
962.124	116.893
965.899	142.779
969.671	197.696
973.442	207.663
977.211	252.792
980.979	281.737
984.745	296.823
988.509	329.946
992.271	441.395
996.032	652.246
999.791	1254.47
1003.55	1352.11
1007.3	2462.4
1011.06	6399.73
1014.81	29831.1
1018.56	46717.5
1022.31	9028.95
1026.06	2972.11
1029.8	1431.43
1033.55	870.127
1037.29	573.954
1041.03	430.596
1044.77	307.54
1048.5	230.166
1052.24	207.922
1055.97	164.694
1059.7	148.483
1063.43	138.29
1067.16	114.117
1070.89	78.98
1074.61	72.823
1078.34	58.726
1082.06	47.643
1085.78	58.577
1089.5	53.528
1093.21	49.511
1096.93	53.491
1100.64	79.978
1104.35	151.593
1108.06	589.034
1111.77	1174.47
1115.48	575.706
1119.18	171.743
1122.89	190.786
1126.59	169.092
1130.29	247.159
1133.99	76.51
1137.68	42.045
1141.38	27.121
1145.07	5.261
1148.76	51.646
1152.45	13.146
1156.14	68.157
1159.83	158.445
1163.51	68.491
1167.19	42.516
1170.88	7.338
1174.56	30.306
1178.23	10.066
1181.91	0.09
1185.59	17.829
1189.26	1.032
1192.93	41.563
1196.6	26.186
1200.27	47.793
1203.94	88.468
1207.6	38.048
1211.27	59.614
1214.93	88.162
1218.59	82.692
1222.25	67.274
1225.9	53.769
1229.56	42.244
1233.21	92.74
1236.86	56.245
1240.51	72.652
1244.16	12.414
1247.81	18.79
1251.45	15.886
1255.1	1.398
1258.74	9.665
1262.38	47.004
1266.02	46.186
1269.66	33.358
1273.29	31.461
1276.93	9.471
1280.56	42.597
1284.19	31.592
1287.82	42.252
1291.45	2.464
1295.07	27.312
1298.7	7.732
1302.32	7.515
1305.94	17.262
1309.56	51.979
1313.18	31.667
1316.8	31.84
1320.41	58.329
1324.02	30.379
1327.63	33.401
1331.24	3.811
1334.85	8.927
1338.46	33.51
1342.06	51.932
1345.67	7.335
1349.27	31.754
1352.87	44.789
1356.47	68.14
1360.07	48.476
1363.66	65.875
1367.25	59.219
1370.85	40.667
1374.44	79.865
1378.03	17.998
1381.61	49.088
1385.2	52.176
1388.78	26.764
1392.37	63.454
1395.95	43.689
1399.53	40.864
1403.1	22.99
1406.68	54.477
1410.26	16.182
1413.83	42.112
1417.4	61.201
1420.97	50.218
1424.54	64.047
1428.1	44.37
1431.67	62.428
1435.23	18.533
1438.8	34.465
1442.36	28.464
1445.91	36.298
1449.47	24.611
1453.03	38.917
1456.58	55.948
1460.13	52.58
1463.68	32.245
1467.23	23.651
1470.78	8.318
1474.33	79.019
1477.87	26.719
1481.42	48.758
1484.96	53.805
1488.5	37.856
1492.04	8.026
1495.57	17.23
1499.11	20.524
1502.64	8.102
1506.17	10.857
1509.71	1.386
1513.23	44.139
1516.76	30.098
1520.29	19.356
1523.81	4.746
