Measurement: Raman, 514 nm, ccw, Raman Data Processed
Mineral: Anhydrite
Rruff sample: R040012
Ideal chemistry: CaSO_4_
Locality: Moundhouse, Nevada, USA
Source: University of Arizona Mineral Museum
Description: White massive
Measured chemistry: Ca_1.00_S_1.00_O_4_
Pin_id: M00042
Orientation: Laser parallel to -c* (0 0 -1). Fiducial mark perpendicular to laser is parallel to a [1 0 0]
Raman shift (cm-1)	intensity
70.515	0
74.721	392.843
78.926	634.376
83.128	613.774
87.329	437.821
91.527	447.622
95.723	494.002
99.917	488.628
104.109	575.896
108.298	702.56
112.486	610.198
116.672	517.437
120.855	381.214
125.036	307.384
129.216	190.262
133.393	230.042
137.568	221.786
141.741	146.04
145.911	126.275
150.08	125.793
154.247	107.065
158.411	71.284
162.574	120.79
166.734	132.952
170.893	17.105
175.049	36.185
179.203	18.021
183.355	31.801
187.505	58.583
191.653	59.296
195.799	16.548
199.943	27.713
204.084	27.208
208.224	56.153
212.362	9.158
216.497	32.387
220.631	103.363
224.762	364.249
228.891	689.335
233.018	785.714
237.144	429.878
241.267	228.624
245.388	135.921
249.507	53.468
253.624	97.299
257.739	68.142
261.852	37.859
265.962	74.554
270.071	76.726
274.178	83.886
278.283	2.695
282.385	15.5
286.486	48.088
290.584	3.376
294.681	61.95
298.775	54.542
302.868	56.34
306.958	85.603
311.047	82.645
315.133	91.501
319.217	115.215
323.299	64.784
327.38	29.199
331.458	37.447
335.534	111.522
339.608	138.079
343.681	142.168
347.751	78.639
351.819	24.8
355.885	39.234
359.949	39.031
364.011	27.344
368.071	29.244
372.129	38.158
376.185	26.802
380.239	34.208
384.291	52.388
388.341	102.658
392.389	81.358
396.435	23.985
400.479	37.485
404.521	47.954
408.561	178.235
412.599	1367.33
416.636	1795.24
420.67	289.004
424.702	18.278
428.732	2.452
432.76	96.516
436.786	89.255
440.81	47.723
444.832	25.038
448.852	111.747
452.87	55.186
456.887	138.365
460.901	95.728
464.913	105.028
468.923	116.183
472.931	186.476
476.938	163.876
480.942	247.227
484.944	367.846
488.945	550.553
492.943	1260.89
496.94	2375.52
500.934	1652.38
504.927	727.565
508.917	315.185
512.906	193.737
516.892	185.344
520.877	172.636
524.86	140.946
528.841	147.505
532.82	152.185
536.796	146.048
540.771	91.053
544.744	90.314
548.715	74.302
552.684	78.821
556.652	126.324
560.617	173.572
564.58	169.22
568.541	174.095
572.501	196.418
576.458	143.268
580.414	173.825
584.367	201.064
588.319	183.77
592.268	226.834
596.216	272.283
600.162	255.846
604.106	310.974
608.048	237.292
611.988	255.633
615.926	353.234
619.862	662.67
623.797	1116.17
627.729	935.573
631.659	446.854
635.588	324.082
639.515	442.219
643.439	563.273
647.362	646.25
651.283	577.153
655.202	471.977
659.119	297.723
663.034	235.38
666.947	516.951
670.859	3153.45
674.768	6831.89
678.676	1348.27
682.581	248.593
686.485	87.863
690.387	54.103
694.287	21.847
698.185	45.228
702.081	36.957
705.975	17.289
709.868	23.282
713.758	4.593
717.647	65.775
721.533	32.423
725.418	18.82
729.301	36.991
733.182	68.069
737.061	21.027
740.939	40.986
744.814	77.898
748.688	59.798
752.559	69.643
756.429	5.409
760.297	15.11
764.163	102.795
768.027	72.442
771.89	50.659
775.75	90.382
779.609	67.921
783.465	130.426
787.32	103.9
791.173	156.468
795.024	193.885
798.873	165.278
802.721	60.648
806.566	62.998
810.41	119.53
814.252	110.442
818.092	118.146
821.93	89.437
825.766	134.719
829.601	152.741
833.433	260.011
837.264	304.278
841.093	310.541
844.92	299.269
848.745	386.876
852.568	484.587
856.39	713.891
860.209	775.754
864.027	524.556
867.843	335.751
871.657	293.211
875.47	164.845
879.28	201.818
883.089	197.81
886.896	163.425
890.701	166.044
894.504	208.658
898.305	207.551
902.105	193.533
905.902	229.755
909.698	132.479
913.492	96.152
917.285	43.561
921.075	44.043
924.864	42.718
928.65	83.333
932.435	68.03
936.218	42.81
940	12.667
943.779	19.612
947.557	87.641
951.333	122.759
955.107	25.964
958.879	20.26
962.65	62.646
966.418	105.121
970.185	108.69
973.95	3.356
977.714	61.119
981.475	47.947
985.235	180.86
988.993	280.873
992.749	421.986
996.503	997.206
1000.26	1763.65
1004.01	1876.25
1007.75	3615.97
1011.5	13451.9
1015.25	51116
1018.99	18960.4
1022.73	4954.94
1026.47	2046.83
1030.21	1004.7
1033.95	663.449
1037.68	448.419
1041.41	206.25
1045.15	211.731
1048.88	202.222
1052.6	96.515
1056.33	80.065
1060.05	27.642
1063.78	36.569
1067.5	91.567
1071.21	148.663
1074.93	123.245
1078.65	240.408
1082.36	218.313
1086.07	178.833
1089.78	109.444
1093.49	206.024
1097.2	98.816
1100.9	73.694
1104.6	152.658
1108.3	311.705
1112	334.633
1115.7	712.84
1119.4	1814.13
1123.09	6880.51
1126.78	29228
1130.47	10733.8
1134.16	2134.34
1137.85	682.997
1141.54	408.708
1145.22	257.506
1148.9	174.39
1152.58	74.357
1156.26	323.401
1159.94	275.5
1163.61	50.631
1167.28	38.811
1170.95	25.005
1174.62	146.097
1178.29	108.226
1181.96	43.388
1185.62	11.574
1189.29	31.147
1192.95	35.296
1196.61	29.876
1200.26	4.456
1203.92	78.972
1207.57	49.367
1211.23	77.34
1214.88	85.989
1218.53	78.552
1222.17	61.124
1225.82	2.556
1229.46	74.966
1233.11	314.539
1236.74	244.164
1240.38	232.718
1244.02	255.099
1247.66	196.492
1251.29	155.882
1254.92	114.178
1258.55	45.288
1262.18	253.646
1265.81	389.538
1269.43	398.591
1273.06	406.543
1276.68	297.18
1280.3	157.417
1283.91	26.79
1287.53	173.31
1291.15	305.897
1294.76	185.55
1298.37	269.264
1301.98	271.722
1305.59	368.273
1309.19	286.992
1312.8	403.729
1316.4	312.172
1320	295.804
1323.6	253.889
1327.2	222.233
1330.8	122.158
1334.39	162.073
1337.98	93.985
1341.58	140.903
1345.16	30.841
1348.75	61.747
1352.34	52.665
1355.92	34.69
1359.51	71.742
1363.09	137.669
1366.67	98.568
1370.24	149.695
1373.82	206.52
1377.39	228.783
1380.97	250.12
1384.54	144.667
1388.11	226.208
1391.68	198.258
1395.24	146.303
1398.81	105.831
1402.37	120.365
1405.93	176.129
1409.49	199.383
1413.05	155.92
1416.6	74.74
1420.16	116.044
1423.71	0.147
