Measurement: Raman, 514 nm, ccw, Raman Data Processed
Mineral: Anhydrite
Rruff sample: R040012
Ideal chemistry: CaSO_4_
Locality: Moundhouse, Nevada, USA
Source: University of Arizona Mineral Museum
Description: White massive
Measured chemistry: Ca_1.00_S_1.00_O_4_
Pin_id: S00004
Orientation: Laser parallel to -a* (-1 0 0). Fiducial mark perpendicular to laser is parallel to b [0 1 0]
Raman shift (cm-1)	intensity
91.981	0
96.161	28.338
100.34	27.284
104.516	12.794
108.691	81.887
112.864	11.623
117.034	212.63
121.203	750.289
125.369	530.16
129.534	1339.27
133.696	794.125
137.857	168.06
142.016	63.452
146.172	78.883
150.327	76.856
154.48	82.526
158.63	50.022
162.779	80.419
166.926	85.968
171.07	57.507
175.213	29.212
179.354	8.766
183.493	27.991
187.63	37.198
191.765	22.796
195.898	1.66
200.029	19.514
204.158	42.023
208.285	41.732
212.41	35.621
216.533	66.472
220.654	114.835
224.773	225.086
228.891	231.627
233.006	263.153
237.119	152.412
241.231	124.194
245.34	83.15
249.448	62.794
253.553	88.371
257.657	109.827
261.758	154.156
265.858	122.166
269.956	101.489
274.052	124.316
278.146	104.168
282.237	146.439
286.327	105.086
290.416	84.375
294.502	120.212
298.586	86.12
302.668	143.634
306.749	119.484
310.827	140.232
314.903	133.895
318.978	132.026
323.051	163.004
327.121	104.397
331.19	103.122
335.257	109.302
339.322	123.907
343.385	133.332
347.446	105.155
351.505	92.501
355.563	43.361
359.618	49.299
363.672	19.598
367.723	0.909
371.773	2.291
375.821	15.826
379.866	50.422
383.91	61.14
387.952	67.751
391.992	80.555
396.031	92.996
400.067	25.017
404.101	38.492
408.134	0.515
412.165	145.465
416.193	477.475
420.22	75.636
424.245	23.903
428.268	1.986
432.289	56.523
436.309	3.277
440.326	21.7
444.342	34.858
448.355	9.434
452.367	65.81
456.377	87.376
460.385	93.791
464.391	104.17
468.395	163.71
472.398	184.734
476.398	226.068
480.397	316.793
484.394	461.434
488.389	784.82
492.382	1778.11
496.373	4067.51
500.362	3963.99
504.349	1586.79
508.335	614.511
512.319	313.359
516.3	252.657
520.28	190.959
524.259	106.097
528.235	136.058
532.209	96.249
536.182	85.586
540.152	47.724
544.121	98.737
548.088	59.787
552.053	75.377
556.017	101.121
559.978	56.924
563.938	132.02
567.895	135.087
571.851	111.166
575.805	103.828
579.758	115.524
583.708	210.522
587.657	247.568
591.603	190.661
595.548	241.389
599.491	409.48
603.432	1112.05
607.372	7100.86
611.309	3053.06
615.245	584.052
619.179	462.994
623.111	660.881
627.041	850.863
630.97	494.628
634.896	312.303
638.821	297.943
642.744	384.521
646.665	468.036
650.584	484.491
654.502	392.885
658.418	276.216
662.331	231.625
666.244	293.679
670.154	1154.81
674.062	6060.87
677.969	2789.87
681.874	387.811
685.777	103.689
689.678	28.506
693.577	54.227
697.475	1.703
701.371	24.084
705.265	9.007
709.157	4.276
713.047	45.664
716.936	15.518
720.823	2.502
724.708	11.349
728.591	73.074
732.472	54.709
736.352	27.278
740.23	15.784
744.106	5.229
747.98	60.61
751.853	18.94
755.723	18.787
759.592	33.388
763.459	9.509
767.325	37.581
771.188	69.922
775.05	53.605
778.91	8.547
782.768	60.441
786.625	13.71
790.479	59.07
794.332	112.809
798.183	71.51
802.033	80.174
805.88	59.803
809.726	112.398
813.57	98.961
817.413	58.493
821.253	111.998
825.092	98.475
828.929	168.928
832.764	196.357
836.598	228.766
840.429	247.967
844.259	333.151
848.088	363.375
851.914	343.406
855.739	525.865
859.562	540.917
863.383	543.025
867.203	386.972
871.02	281.064
874.836	209.832
878.65	216.514
882.463	172.755
886.274	154.291
890.083	182.72
893.89	223.15
897.695	241.342
901.499	189.173
905.301	205.901
909.102	194.926
912.9	169.743
916.697	78.616
920.492	45.982
924.285	27.164
928.077	57.398
931.867	52.601
935.655	55.867
939.442	76.291
943.226	48.741
947.009	59.249
950.791	110.814
954.57	146.508
958.348	102.126
962.124	63.874
965.899	145.685
969.671	178.561
973.442	111.502
977.211	137.509
980.979	109.583
984.745	225.726
988.509	333.938
992.271	312.221
996.032	564.577
999.791	1521.03
1003.55	1834.07
1007.3	2323.46
1011.06	5990.65
1014.81	28350.7
1018.56	51686
1022.31	10645.4
1026.06	3493.99
1029.8	1614.22
1033.55	932.71
1037.29	574.633
1041.03	314.552
1044.77	218.642
1048.5	175.719
1052.24	115.054
1055.97	89.01
1059.7	90.293
1063.43	27.854
1067.16	41.472
1070.89	64.947
1074.61	105.475
1078.34	188.048
1082.06	239.681
1085.78	361.512
1089.5	164.26
1093.21	112.072
1096.93	67.938
1100.64	117.858
1104.35	299.83
1108.06	1301.85
1111.77	3083.93
1115.48	1643.07
1119.18	720.256
1122.89	1106.5
1126.59	3629.78
1130.29	9532.13
1133.99	1847.51
1137.68	512.933
1141.38	119.402
1145.07	45.914
1148.76	15.431
1152.45	33.013
1156.14	27.447
1159.83	186.112
1163.51	82.615
1167.19	49.097
1170.88	12.596
1174.56	23.08
1178.23	40.527
1181.91	67.976
1185.59	33.569
1189.26	46.829
1192.93	22.272
1196.6	4.25
1200.27	5.194
1203.94	8.489
1207.6	29.09
1211.27	36.857
1214.93	76.538
1218.59	38.586
1222.25	40.964
1225.9	7.351
1229.56	2.751
1233.21	102.167
1236.86	216.63
1240.51	227.07
1244.16	141.494
1247.81	173.916
1251.45	162.319
1255.1	135.736
1258.74	182.282
1262.38	211.958
1266.02	293.535
1269.66	257.095
1273.29	364.625
1276.93	305.691
1280.56	282.21
1284.19	207.524
1287.82	177.737
1291.45	247.71
1295.07	269.561
1298.7	244.46
1302.32	227.818
1305.94	249.593
1309.56	305.837
1313.18	351.947
1316.8	335.054
1320.41	430.367
1324.02	299.775
1327.63	204.187
1331.24	127.36
1334.85	26.711
1338.46	23.027
1342.06	13.303
1345.67	0.475
1349.27	46.577
1352.87	101.579
1356.47	45.54
1360.07	64.471
1363.66	60.36
1367.25	69.443
1370.85	105.965
1374.44	58.865
1378.03	34.966
1381.61	95.959
1385.2	101.617
1388.78	93.715
1392.37	140.164
1395.95	114.18
1399.53	52.317
1403.1	29.217
1406.68	55.542
1410.26	54.784
1413.83	57.912
1417.4	2.342
1420.97	93.871
1424.54	0
