Measurement: Raman, 514 nm, ccw, Raman Data Processed
Mineral: Anhydrite
Rruff sample: R040012
Ideal chemistry: CaSO_4_
Locality: Moundhouse, Nevada, USA
Source: University of Arizona Mineral Museum
Description: White massive
Measured chemistry: Ca_1.00_S_1.00_O_4_
Pin_id: M00042
Orientation: Laser parallel to -c* (0 0 -1). Fiducial mark perpendicular to laser is parallel to a [1 0 0]
Raman shift (cm-1)	intensity
70.515	0
74.721	260.213
78.926	736.846
83.128	1146.35
87.329	1136.88
91.527	1084.51
95.723	1116.3
99.917	1017.52
104.109	877.393
108.298	757.652
112.486	722.257
116.672	685.296
120.855	875.249
125.036	547.039
129.216	311.159
133.393	239.6
137.568	234.044
141.741	181.952
145.911	171.841
150.08	84.167
154.247	83.146
158.411	35.874
162.574	50.186
166.734	30.372
170.893	38.989
175.049	50.326
179.203	57.124
183.355	56.499
187.505	47.238
191.653	17.023
195.799	10.111
199.943	0.706
204.084	6.969
208.224	0.844
212.362	21.894
216.497	1.018
220.631	93.985
224.762	86.191
228.891	222.327
233.018	226.378
237.144	123.567
241.267	29.259
245.388	47.476
249.507	68.434
253.624	89.148
257.739	64.19
261.852	43.204
265.962	41.918
270.071	73.115
274.178	81.007
278.283	75.319
282.385	32.066
286.486	18.688
290.584	6.516
294.681	0.309
298.775	24.071
302.868	50.327
306.958	69.999
311.047	73.277
315.133	64.389
319.217	64.34
323.299	78.119
327.38	89.69
331.458	74.11
335.534	112.472
339.608	86.603
343.681	48.413
347.751	102.796
351.819	79.382
355.885	42.9
359.949	9.224
364.011	9.236
368.071	13.963
372.129	13.12
376.185	50.114
380.239	44.838
384.291	68.378
388.341	154.868
392.389	99.215
396.435	24.669
400.479	94.527
404.521	68.762
408.561	178.833
412.599	1432.76
416.636	2102.3
420.67	341.906
424.702	65.253
428.732	58.371
432.76	39.158
436.786	98.824
440.81	104.276
444.832	0.408
448.852	92.303
452.87	108.005
456.887	108.718
460.901	78.689
464.913	87.603
468.923	103.926
472.931	158.646
476.938	192.871
480.942	214.986
484.944	338.037
488.945	539.199
492.943	1177.76
496.94	2411.64
500.934	1685.31
504.927	694.872
508.917	339.636
512.906	178.047
516.892	184.035
520.877	162.057
524.86	113.531
528.841	109.174
532.82	77.53
536.796	73.256
540.771	96.984
544.744	96.41
548.715	83.024
552.684	71.007
556.652	60.889
560.617	106.883
564.58	148.472
568.541	123.954
572.501	159.747
576.458	203.693
580.414	159.043
584.367	187.389
588.319	150.855
592.268	216.969
596.216	260.416
600.162	298.785
604.106	386.94
608.048	545.871
611.988	360.817
615.926	314.826
619.862	547.166
623.797	867.55
627.729	747.983
631.659	396.341
635.588	385.614
639.515	472.805
643.439	553.939
647.362	685.006
651.283	605.01
655.202	480.94
659.119	334.792
663.034	280.568
666.947	693.27
670.859	3750.9
674.768	8915.46
678.676	1693.99
682.581	328.503
686.485	54.963
690.387	45.352
694.287	39.402
698.185	5.624
702.081	4.51
705.975	73.976
709.868	50.769
713.758	4.032
717.647	21.532
721.533	19.864
725.418	65.304
729.301	101.063
733.182	121.344
737.061	2.517
740.939	54.678
744.814	46.802
748.688	140.886
752.559	121.941
756.429	33.967
760.297	19.972
764.163	66.984
768.027	30.977
771.89	65.951
775.75	83.904
779.609	76.834
783.465	81.855
787.32	66.092
791.173	111.622
795.024	124.482
798.873	71.331
802.721	105.172
806.566	59.005
810.41	123.832
814.252	126.655
818.092	171.476
821.93	124.297
825.766	143.402
829.601	198.31
833.433	294.146
837.264	349.99
841.093	356.763
844.92	372.05
848.745	375.096
852.568	464.448
856.39	678.986
860.209	789.218
864.027	586.872
867.843	414.828
871.657	318.039
875.47	322.198
879.28	234.594
883.089	222.413
886.896	198.329
890.701	197.559
894.504	318.104
898.305	280.531
902.105	265.387
905.902	285.392
909.698	259.506
913.492	141.133
917.285	98.438
921.075	37.821
924.864	161.285
928.65	111.845
932.435	11.511
936.218	59.215
940	47.025
943.779	19.922
947.557	157.93
951.333	167.218
955.107	62.381
958.879	41.634
962.65	38.978
966.418	595.414
970.185	95.945
973.95	28.569
977.714	7.286
981.475	125.092
985.235	166.992
988.993	353.99
992.749	422.086
996.503	976.314
1000.26	1880.7
1004.01	1922.68
1007.75	3827.44
1011.5	14536.3
1015.25	57882.4
1018.99	21738.8
1022.73	5867.56
1026.47	2234.2
1030.21	1091.97
1033.95	672.893
1037.68	501.529
1041.41	258.498
1045.15	277.869
1048.88	176.686
1052.6	115.513
1056.33	76.748
1060.05	88.033
1063.78	119.649
1067.5	141.319
1071.21	113.068
1074.93	199.022
1078.65	249.021
1082.36	332.898
1086.07	171.958
1089.78	172.09
1093.49	110.293
1097.2	125.564
1100.9	92.899
1104.6	120.299
1108.3	233.766
1112	259.317
1115.7	432.934
1119.4	817.615
1123.09	2944.36
1126.78	12922.9
1130.47	4951.66
1134.16	1026.59
1137.85	309.59
1141.54	221.646
1145.22	95.756
1148.9	0.921
1152.58	19.883
1156.26	70.357
1159.94	36.579
1163.61	8.705
1167.28	34.237
1170.95	58.742
1174.62	53.753
1178.29	81.776
1181.96	119.827
1185.62	44.892
1189.29	23.057
1192.95	9.963
1196.61	86.033
1200.26	56.091
1203.92	17.82
1207.57	79.715
1211.23	60.531
1214.88	74.704
1218.53	85.607
1222.17	42.772
1225.82	74.721
1229.46	99.685
1233.11	270.681
1236.74	391.71
1240.38	281.775
1244.02	179.842
1247.66	261.731
1251.29	190.79
1254.92	214.338
1258.55	215.472
1262.18	219.648
1265.81	358.797
1269.43	427.738
1273.06	405.802
1276.68	379.233
1280.3	317.297
1283.91	201.394
1287.53	214.885
1291.15	295.99
1294.76	279.51
1298.37	339.619
1301.98	299.769
1305.59	340.38
1309.19	358.986
1312.8	390.247
1316.4	375.434
1320	302.961
1323.6	150.889
1327.2	224.914
1330.8	255.905
1334.39	65.862
1337.98	145.736
1341.58	105.508
1345.16	141.203
1348.75	72.794
1352.34	0.804
1355.92	18.457
1359.51	16.577
1363.09	10.17
1366.67	121.867
1370.24	186.915
1373.82	93.137
1377.39	265.502
1380.97	206.061
1384.54	176.959
1388.11	157.417
1391.68	130.193
1395.24	91.168
1398.81	73.292
1402.37	107.45
1405.93	251.075
1409.49	215.347
1413.05	138.483
1416.6	0
