Measurement: Raman, 514 nm, ccw, Raman Data Processed
Mineral: Ankerite
Rruff sample: R050181
Ideal chemistry: CaFe^2+^(CO_3_)_2_
Locality: Cerro Sapo, Cochabamba Department, Bolivia
Source: Marcus Origlieri
Description: White coarsely crystalline massive
Measured chemistry: Ca_1.00_(Fe^2+^_0.60_Mg_0.35_Mn^2+^_0.05_)_Î£=1_(CO_3_)_2_ ; C not measured but estimated by difference and stoichiometry
Pin_id: L00069
Orientation: Laser parallel to c* (0 0 1). Fiducial mark perpendicular to laser is parallel to -b [0 -1 0]
Raman shift (cm-1)	intensity
82.916	0
87.101	56.013
91.284	8.385
95.465	53.298
99.644	60.194
103.82	100.856
107.995	170.496
112.168	129.594
116.339	348.783
120.508	265.837
124.675	283.694
128.84	251.145
133.003	286.065
137.164	334.398
141.323	360.106
145.48	398.893
149.635	485.923
153.788	601.165
157.939	872.663
162.088	1366.54
166.235	2080.6
170.38	2166.85
174.523	1353.25
178.664	639.655
182.803	314.071
186.94	146.502
191.076	84.927
195.209	81.332
199.34	31.71
203.47	16.069
207.597	32.392
211.722	28.673
215.846	47.91
219.967	45.277
224.087	29.56
228.204	2.939
232.32	76.643
236.434	68.383
240.545	67.413
244.655	97.493
248.763	139.879
252.869	204.227
256.973	279.039
261.075	478.08
265.175	666.914
269.273	962.388
273.369	1382.13
277.463	1820.92
281.556	2113.32
285.646	2124.62
289.734	1885.19
293.821	1483.31
297.905	1071.2
301.988	702.935
306.069	475.284
310.147	327.12
314.224	218.902
318.299	171.016
322.372	117.747
326.443	94.415
330.512	100.996
334.579	86.502
338.645	80.964
342.708	53.382
346.769	77.753
350.829	39.078
354.887	6.355
358.942	29.582
362.996	9.746
367.048	11.149
371.098	8.895
375.146	16.115
379.192	1.792
383.236	17.619
387.279	0.631
391.319	22.015
395.358	5.807
399.394	0.654
403.429	25.044
407.462	4.353
411.493	10.56
415.522	14.331
419.549	12.374
423.575	4.463
427.598	4.761
431.619	30.933
435.639	18.556
439.657	5.115
443.673	6.592
447.687	26.009
451.699	58.374
455.709	24.693
459.717	51.965
463.724	23.177
467.728	23.326
471.731	57.42
475.732	1.463
479.731	52.454
483.728	28.408
487.723	67.308
491.716	93.174
495.708	88
499.697	89.779
503.685	83.523
507.671	96.212
511.655	111.858
515.637	137.319
519.617	152.686
523.596	102.575
527.572	137.034
531.547	140.218
535.52	152.09
539.491	121.709
543.46	132.837
547.427	171.403
551.393	169.265
555.356	133.434
559.318	100.35
563.278	120.104
567.236	133.684
571.192	132.128
575.147	108.689
579.099	84.785
583.05	116.734
586.999	102.581
590.946	79.033
594.891	113.544
598.834	98.97
602.776	33.946
606.715	78.494
610.653	113.508
614.589	65.839
618.523	68.317
622.456	78.407
626.386	68.784
630.315	72.673
634.242	56.973
638.167	55.715
642.09	61.875
646.012	84.224
649.931	56.431
653.849	49.332
657.765	41.078
661.679	90.258
665.592	76.36
669.502	46.382
673.411	46.344
677.318	97.343
681.223	86.867
685.126	103.886
689.028	91.428
692.927	119.248
696.825	158.233
700.721	169.208
704.616	190.161
708.508	341.091
712.399	586.001
716.288	1007.9
720.175	1661.79
724.06	1694.65
727.944	1164.52
731.825	623.402
735.705	361.323
739.584	237.247
743.46	142.205
747.334	96.111
751.207	34.003
755.078	49.457
758.947	0.332
762.815	11.835
766.68	6.048
770.544	13.697
774.406	13.485
778.267	8.17
782.125	8.85
785.982	3.492
789.837	13.352
793.69	38.335
797.542	3.861
801.391	17.645
805.239	10.787
809.085	2.81
812.93	6.552
816.772	38.882
820.613	36.22
824.452	4.501
828.29	25.743
832.125	3.956
835.959	16.121
839.791	18.28
843.621	25.427
847.45	5.557
851.277	1.671
855.102	33.786
858.925	20.602
862.746	18.022
866.566	15.145
870.384	13.273
874.2	51.408
878.015	75.55
881.828	17.699
885.639	7.858
889.448	5.027
893.256	0.795
897.061	11.402
900.865	40.61
904.668	14.832
908.468	17.06
912.267	56.889
916.064	19.035
919.86	1.474
923.653	5.633
927.445	23.675
931.236	27.917
935.024	56.131
938.811	20.101
942.596	8.178
946.379	12.035
950.161	37.38
953.94	48.542
957.719	50.462
961.495	59.308
965.27	24.396
969.043	2.991
972.814	52.706
976.583	63.495
980.351	95.359
984.117	82.198
987.882	96.559
991.644	109.45
995.405	74.842
999.165	99.991
1002.92	97.039
1006.68	130.497
1010.43	128.334
1014.18	118.577
1017.93	157.887
1021.68	141.25
1025.43	239.685
1029.18	318.175
1032.92	313.726
1036.66	376.337
1040.4	457.011
1044.14	521.35
1047.88	583.142
1051.62	571.044
1055.35	680.011
1059.08	757.455
1062.81	818.525
1066.54	1026.67
1070.27	1396.85
1073.99	1895.04
1077.72	2355.38
1081.44	3593.77
1085.16	7089.21
1088.88	20938.2
1092.59	55284.7
1096.31	38141.4
1100.02	11358.1
1103.73	3866.89
1107.44	1887.82
1111.15	1116.73
1114.86	759.716
1118.57	526.759
1122.27	529.834
1125.97	359.78
1129.67	307.082
1133.37	269.525
1137.07	227.25
1140.76	206.552
1144.45	111.323
1148.15	96.952
1151.84	117.018
1155.53	120.388
1159.21	98.561
1162.9	55.424
1166.58	44.321
1170.26	42.537
1173.94	57.748
1177.62	44.208
1181.3	54.939
1184.97	17.972
1188.65	70.083
1192.32	20.727
1195.99	61.173
1199.66	25.917
1203.33	15.671
1206.99	29.652
1210.65	30.434
1214.32	28.298
1217.98	58.93
1221.64	41.533
1225.29	37.261
1228.95	40.161
1232.6	48.695
1236.26	58.352
1239.91	12.698
1243.56	11.238
1247.2	27.176
1250.85	1.161
1254.49	59.655
1258.13	41.301
1261.78	56.189
1265.41	26.667
1269.05	12.054
1272.69	29.109
1276.32	80.206
1279.95	65.228
1283.59	53.18
1287.21	51.046
1290.84	12.221
1294.47	40.415
1298.09	25.01
1301.72	27.476
1305.34	20.114
1308.96	1.134
1312.58	5.267
1316.19	2.696
1319.81	19.231
1323.42	23.05
1327.03	28.772
1330.64	9.594
1334.25	21.063
1337.86	20.247
1341.46	27.065
1345.07	13.274
1348.67	44.398
1352.27	18.45
1355.87	57.433
1359.46	56.356
1363.06	37.226
1366.65	45.789
1370.25	12.581
1373.84	44.363
1377.43	42.012
1381.02	23.276
1384.6	50.875
1388.18	26.353
1391.77	67.747
1395.35	76.053
1398.93	63.394
1402.51	6.002
1406.08	28.536
1409.66	51.431
1413.23	77.915
1416.8	161.099
1420.37	162.228
1423.94	241.961
1427.51	323.086
1431.08	355.371
1434.64	458.456
1438.2	640.734
1441.76	725.117
1445.32	566.893
1448.88	494.508
1452.43	364.22
1455.99	347.971
1459.54	286.279
1463.09	242.977
1466.64	150.999
1470.19	155.397
1473.74	164.657
1477.28	118.87
1480.83	132.4
1484.37	73.69
1487.91	87.169
1491.45	112.101
1494.98	69.41
1498.52	51.086
1502.05	64.205
1505.59	78.982
1509.12	114.692
1512.65	40.696
1516.17	21.656
1519.7	25.976
