Measurement: Raman, 514 nm, ccw, Raman Data Processed
Mineral: Ankerite
Rruff sample: R050197
Ideal chemistry: CaFe^2+^(CO_3_)_2_
Locality: Brownley Hill mine, Nenthead, Cumbria, England
Source: Marcus Origlieri
Description: Curved saddle-shaped rhombohedral crystals
Measured chemistry: Ca_1.00_(Fe^2+^_0.52_Mg_0.35_Ca_0.08_Mn^2+^_0.05_)_Î£=1_(CO_3_)_2_ ; where C was not measured but estimated by difference and stoichiometry
Pin_id: M00092
Orientation: Laser parallel to a* (1 0 0). Fiducial mark perpendicular to laser is parallel to c [0 0 1]
Raman shift (cm-1)	intensity
114.44	0
119.365	36.7202
124.288	129.431
129.209	149.615
134.127	558.242
139.043	931.861
143.956	1336.39
148.867	1356.23
153.775	1381.23
158.681	1819.43
163.585	2894.28
168.486	3775.04
173.385	3279.42
178.282	1842.24
183.176	828.497
188.067	467.34
192.956	466.633
197.843	444.688
202.727	332.195
207.609	151.185
212.489	133.082
217.366	146.714
222.24	169.605
227.112	99.7891
231.982	275.113
236.849	327.515
241.714	345.612
246.577	574.774
251.437	918.938
256.294	1259.18
261.149	2332.9
266.002	3172.38
270.852	4828.48
275.7	6772.7
280.545	8447.42
285.388	8885.1
290.229	8035.44
295.067	6114.34
299.902	3869.06
304.735	2357.25
309.566	1576.08
314.394	991.367
319.22	683.776
324.043	584.438
328.864	384.93
333.682	298.555
338.498	223.693
343.311	174.062
348.122	152.218
352.931	166.424
357.737	165.305
362.54	94.7139
367.341	14.6455
372.14	25.1445
376.936	99.7061
381.73	30.125
386.521	50.5898
391.31	67.9639
396.096	92.5566
400.88	201.93
405.661	7.81543
410.44	31.1318
415.216	2.22559
419.99	36.1504
424.761	18.7168
429.53	62.165
434.297	31.1133
439.061	12.9336
443.822	74.3603
448.581	72.3477
453.337	46.0049
458.091	106.226
462.843	63.627
467.592	42.0449
472.338	103.364
477.082	13.5371
481.824	89.3662
486.563	72.7363
491.3	179.759
496.034	135.419
500.765	159.773
505.494	218.874
510.221	189.981
514.945	327.188
519.666	182.041
524.385	158.459
529.102	146.638
533.816	139.052
538.527	113.161
543.236	296.135
547.943	381.906
552.647	96.2441
557.348	13.4424
562.047	200.89
566.744	89.4717
571.438	211.727
576.129	116.191
580.818	147.908
585.504	59.7148
590.188	191.496
594.87	104.157
599.549	151.653
604.225	72.29
608.899	12.4482
613.57	158.331
618.239	136.617
622.905	179.469
627.569	212.658
632.23	258.082
636.889	221.159
641.545	175.39
646.198	132.384
650.849	165.359
655.498	135.921
660.144	147.007
664.787	272.385
669.428	208.285
674.067	116.057
678.703	182.658
683.336	31.54
687.967	56.7871
692.595	99.6777
697.221	217.401
701.844	197.846
706.465	321.4
711.083	538.262
715.698	850.69
720.311	1117.15
724.922	890.828
729.53	595.761
734.135	304.014
738.738	213.1
743.338	229.406
747.936	198.676
752.531	186.955
757.124	70.582
761.714	74.5273
766.302	117.658
770.887	57.8105
775.469	120.975
780.049	31.1328
784.626	51.002
789.201	43.7422
793.773	9.05664
798.343	12.7324
802.91	175.279
807.475	36.4531
812.037	17.5059
816.596	61.6133
821.153	133.012
825.707	16.7461
830.259	96.3516
834.808	37.4121
839.355	98.1523
843.899	52.082
848.441	253.359
852.98	297.865
857.516	18.2148
862.05	28.1016
866.581	188.801
871.11	50.1387
875.636	61.0781
880.159	270.801
884.68	98.9277
889.199	81.6387
893.714	225.668
898.228	102.062
902.738	173.557
907.246	25.3184
911.752	42.6895
916.255	158.201
920.755	131.324
925.253	21.457
929.748	163.369
934.241	148.785
938.731	39.2207
943.218	55.7754
947.703	85.8027
952.186	237.691
956.665	86.2656
961.142	136.768
965.617	76.8926
970.089	85.3691
974.558	149.957
979.025	0.707031
983.489	273.381
987.951	145.58
992.41	234.356
996.866	155.643
1001.32	259.422
1005.77	204.389
1010.22	163.705
1014.67	14.2246
1019.11	189.541
1023.55	111.648
1027.99	273.723
1032.42	370.93
1036.86	282.478
1041.29	255.18
1045.72	354.391
1050.14	367.883
1054.56	407.152
1058.98	637.398
1063.4	570.832
1067.82	985.842
1072.23	1250.93
1076.64	1645.73
1081.05	3870.83
1085.45	11171.9
1089.85	27781.4
1094.25	30308.5
1098.65	11944.7
1103.04	3697.4
1107.43	1450.67
1111.82	909.561
1116.21	663.262
1120.59	557.383
1124.97	409.272
1129.35	313.502
1133.73	275.228
1138.1	76.5352
1142.47	115.795
1146.84	174.984
1151.21	153.492
1155.57	281.85
1159.93	79.1641
1164.29	6.86914
1168.64	12.7441
1172.99	144.791
1177.34	135.113
1181.69	55.4297
1186.04	168.477
1190.38	28.4648
1194.72	144.107
1199.05	181.906
1203.39	76.5879
1207.72	202.574
1212.05	85.1738
1216.37	218.363
1220.7	178.84
1225.02	147.5
1229.34	101.051
1233.65	83.4121
1237.97	318.252
1242.28	39.4004
1246.59	138.353
1250.89	258.394
1255.19	344.037
1259.49	77.1582
1263.79	203.273
1268.09	98.6777
1272.38	349.586
1276.67	308.135
1280.95	262.027
1285.24	168.051
1289.52	134.826
1293.8	475.568
1298.08	433.361
1302.35	138.639
1306.62	127.275
1310.89	239.022
1315.15	177.732
1319.42	166.596
1323.68	222.578
1327.94	34.3164
1332.19	418.756
1336.44	52.3789
1340.69	147.094
1344.94	312.195
1349.19	275.494
1353.43	290.004
1357.67	126.228
1361.9	401.572
1366.14	294.004
1370.37	294.44
1374.6	305.44
1378.83	289.658
1383.05	297.623
1387.27	162.713
1391.49	223.756
1395.7	123.992
1399.92	127.99
1404.13	35.7617
1408.34	182.568
1412.54	280.812
1416.74	211.949
1420.94	397.602
1425.14	624.486
1429.34	723.74
1433.53	765.469
1437.72	725.117
1441.9	966.213
1446.09	583.826
1450.27	551.047
1454.45	367.94
1458.63	428.988
1462.8	154.512
1466.97	215.654
1471.14	345.943
1475.31	17.5078
1479.47	84.8203
1483.63	282.91
1487.79	128.914
1491.94	51.3555
1496.09	284.25
1500.24	31.2383
1504.39	261.223
1508.54	223.539
1512.68	155.898
1516.82	339.406
1520.95	334.859
1525.09	304.371
1529.22	81.8242
1533.35	292.019
1537.47	374.938
1541.6	29.8047
1545.72	319.305
1549.83	182.898
1553.95	336.027
1558.06	256.356
1562.17	181.75
1566.28	327.519
1570.38	0
