Measurement: Raman, 514 nm, ccw, Raman Data Processed
Mineral: Ankerite
Rruff sample: R050181
Ideal chemistry: CaFe^2+^(CO_3_)_2_
Locality: Cerro Sapo, Cochabamba Department, Bolivia
Source: Marcus Origlieri
Description: White coarsely crystalline massive
Measured chemistry: Ca_1.00_(Fe^2+^_0.60_Mg_0.35_Mn^2+^_0.05_)_Î£=1_(CO_3_)_2_ ; C not measured but estimated by difference and stoichiometry
Pin_id: M00493
Orientation: Laser parallel to -a* (-1 0 0). Fiducial mark perpendicular to laser is parallel to c [0 0 1]
Raman shift (cm-1)	intensity
91.284	0
95.465	73.978
99.644	74.922
103.82	76.303
107.995	29.861
112.168	120.995
116.339	196.123
120.508	127.18
124.675	7.425
128.84	9.926
133.003	51.09
137.164	94.582
141.323	175.027
145.48	248.269
149.635	324.74
153.788	462.849
157.939	764.519
162.088	1208.96
166.235	1968.35
170.38	2252.05
174.523	1527.66
178.664	741.725
182.803	344.959
186.94	205.51
191.076	81.17
195.209	11.645
199.34	14.865
203.47	2.853
207.597	8.583
211.722	11.775
215.846	9.873
219.967	39.525
224.087	13.683
228.204	22.693
232.32	15.228
236.434	0.02
240.545	25.667
244.655	36.579
248.763	69.742
252.869	115.055
256.973	190.363
261.075	256.261
265.175	471.218
269.273	657.857
273.369	949.042
277.463	1318.94
281.556	1585.11
285.646	1646.26
289.734	1480.06
293.821	1179.26
297.905	889.585
301.988	647.768
306.069	451.49
310.147	336.716
314.224	249.529
318.299	226.364
322.372	179.339
326.443	211.434
330.512	204.78
334.579	211.619
338.645	207.292
342.708	153.512
346.769	139.639
350.829	120.408
354.887	93.165
358.942	69.819
362.996	83.877
367.048	59.842
371.098	55.944
375.146	59.007
379.192	73.073
383.236	112.744
387.279	35.64
391.319	58.521
395.358	14.017
399.394	23.201
403.429	22.881
407.462	40.977
411.493	21.633
415.522	4.164
419.549	25.387
423.575	27.458
427.598	29.473
431.619	11.196
435.639	43.661
439.657	7.119
443.673	34.857
447.687	28.614
451.699	30.192
455.709	44.603
459.717	62.855
463.724	11.957
467.728	78.915
471.731	38.711
475.732	20.357
479.731	42.76
483.728	53.603
487.723	47.489
491.716	71.2
495.708	61.91
499.697	87.871
503.685	81.185
507.671	107.07
511.655	96.693
515.637	80.105
519.617	111.421
523.596	92.856
527.572	114.253
531.547	112.456
535.52	114.818
539.491	137.399
543.46	87.655
547.427	89.627
551.393	86.403
555.356	105.015
559.318	120.717
563.278	86
567.236	93.442
571.192	102.28
575.147	130.924
579.099	93.768
583.05	78.657
586.999	69.449
590.946	63.463
594.891	67.635
598.834	76.586
602.776	61.753
606.715	41.37
610.653	37.284
614.589	35.566
618.523	36.496
622.456	50.266
626.386	21.204
630.315	36.789
634.242	15.771
638.167	38.494
642.09	40.349
646.012	32.089
649.931	16.145
653.849	4.273
657.765	41.307
661.679	26.725
665.592	34.811
669.502	43.149
673.411	48.097
677.318	42.943
681.223	22.762
685.126	59.266
689.028	78.062
692.927	96.743
696.825	120.494
700.721	135.303
704.616	195.067
708.508	292.827
712.399	551.582
716.288	851.333
720.175	1379.08
724.06	1615.82
727.944	1169.55
731.825	701.274
735.705	343.997
739.584	208.71
743.46	96.416
747.334	67.112
751.207	42.243
755.078	16.918
758.947	6.416
762.815	27.775
766.68	7.807
770.544	21.518
774.406	22.067
778.267	20.588
782.125	10.071
785.982	22.299
789.837	43.019
793.69	2.686
797.542	9.581
801.391	19.196
805.239	22.953
809.085	4.98
812.93	15.062
816.772	4.96
820.613	10.994
824.452	15.091
828.29	3.748
832.125	8.462
835.959	25.287
839.791	3.987
843.621	4.248
847.45	14.269
851.277	3.819
855.102	48.346
858.925	33.863
862.746	21.37
866.566	32.869
870.384	78.36
874.2	143.844
878.015	62.323
881.828	53.797
885.639	41.268
889.448	46.736
893.256	17.202
897.061	18.667
900.865	11.133
904.668	23.596
908.468	29.052
912.267	42.984
916.064	22.615
919.86	18.006
923.653	23.467
927.445	68.43
931.236	43.512
935.024	39.642
938.811	44.994
942.596	41.969
946.379	5.751
950.161	7.903
953.94	43.593
957.719	41.324
961.495	55.068
965.27	79.983
969.043	31.484
972.814	69.425
976.583	62.49
980.351	31.141
984.117	99.264
987.882	95.791
991.644	64.549
995.405	102.474
999.165	86.697
1002.92	126.035
1006.68	120.125
1010.43	143.277
1014.18	175.334
1017.93	209.74
1021.68	243.933
1025.43	270.456
1029.18	312.921
1032.92	371.457
1036.66	405.046
1040.4	463.686
1044.14	553.387
1047.88	663.168
1051.62	698
1055.35	701.452
1059.08	847.402
1062.81	958.44
1066.54	1210.56
1070.27	1639.85
1073.99	2073.08
1077.72	2670.41
1081.44	3958.81
1085.16	7677.28
1088.88	21875.8
1092.59	61705.4
1096.31	51045.2
1100.02	16744.9
1103.73	5277.81
1107.44	2473.15
1111.15	1425.16
1114.86	922.242
1118.57	661.372
1122.27	527.566
1125.97	470.823
1129.67	303.158
1133.37	259.572
1137.07	217.031
1140.76	161.529
1144.45	120.591
1148.15	115.106
1151.84	113.824
1155.53	68.868
1159.21	102.349
1162.9	80.212
1166.58	52.433
1170.26	28.235
1173.94	38.528
1177.62	60.253
1181.3	40.371
1184.97	28.448
1188.65	51.423
1192.32	31.88
1195.99	21.925
1199.66	14.92
1203.33	5.383
1206.99	20.693
1210.65	12.548
1214.32	39.98
1217.98	40.214
1221.64	51.001
1225.29	28.62
1228.95	48.446
1232.6	41.71
1236.26	43.669
1239.91	33.905
1243.56	35.331
1247.2	11.556
1250.85	6.655
1254.49	39.844
1258.13	1.044
1261.78	48.074
1265.41	30.216
1269.05	23.052
1272.69	7.401
1276.32	0.546
1279.95	15.441
1283.59	9.365
1287.21	7.262
1290.84	12.917
1294.47	10.847
1298.09	3.514
1301.72	23.894
1305.34	18.604
1308.96	11.029
1312.58	15.35
1316.19	6.411
1319.81	5.245
1323.42	11.155
1327.03	13.857
1330.64	11.807
1334.25	39.69
1337.86	17.49
1341.46	11.206
1345.07	5.856
1348.67	19.438
1352.27	20.954
1355.87	18.383
1359.46	11.011
1363.06	1.687
1366.65	18.359
1370.25	24.554
1373.84	0.661
1377.43	39.708
1381.02	67.744
1384.6	11.853
1388.18	20.51
1391.77	38.69
1395.35	30.232
1398.93	50.744
1402.51	61.18
1406.08	80.581
1409.66	66.253
1413.23	95.078
1416.8	152.936
1420.37	179.946
1423.94	255.748
1427.51	304.637
1431.08	357.971
1434.64	470.743
1438.2	568.588
1441.76	658.193
1445.32	603.569
1448.88	473.653
1452.43	374.694
1455.99	250.937
1459.54	200.87
1463.09	183.768
1466.64	148.822
1470.19	137.653
1473.74	111.775
1477.28	85.876
1480.83	80.927
1484.37	23.214
1487.91	19.698
1491.45	44.569
1494.98	33.428
1498.52	37.357
1502.05	29.509
1505.59	28.004
1509.12	29.857
1512.65	0.788
1516.17	3.314
1519.7	16.061
1523.23	0
