Measurement: Raman, 514 nm, ccw, Raman Data Processed
Mineral: Ankerite
Rruff sample: R050197
Ideal chemistry: CaFe^2+^(CO_3_)_2_
Locality: Brownley Hill mine, Nenthead, Cumbria, England
Source: Marcus Origlieri
Description: Curved saddle-shaped rhombohedral crystals
Measured chemistry: Ca_1.00_(Fe^2+^_0.52_Mg_0.35_Ca_0.08_Mn^2+^_0.05_)_Î£=1_(CO_3_)_2_ ; where C was not measured but estimated by difference and stoichiometry
Pin_id: M00092
Orientation: Laser parallel to a* (1 0 0). Fiducial mark perpendicular to laser is parallel to c [0 0 1]
Raman shift (cm-1)	intensity
114.44	0
119.365	103.769
124.288	32.6895
129.209	251.534
134.127	684.314
139.043	1117.43
143.956	1313.31
148.867	1293.9
153.775	1221.88
158.681	1677.15
163.585	2248.06
168.486	2856.13
173.385	2320.07
178.282	1284.62
183.176	687.946
188.067	462.343
192.956	228.865
197.843	409.328
202.727	280.67
207.609	95.5791
212.489	17.9131
217.366	79.8662
222.24	25.8271
227.112	180.426
231.982	63.7588
236.849	141.11
241.714	253.871
246.577	439.516
251.437	773.321
256.294	1225.74
261.149	2061.77
266.002	3066.67
270.852	4535.06
275.7	6114.22
280.545	7398.78
285.388	7580.78
290.229	6417
295.067	4599.03
299.902	3093.34
304.735	1916.3
309.566	1123.81
314.394	858.541
319.22	623.99
324.043	550.247
328.864	312.206
333.682	146.074
338.498	288.127
343.311	91.2471
348.122	95.374
352.931	195.364
357.737	119.219
362.54	175.501
367.341	100.735
372.14	0.957031
376.936	168.197
381.73	47.7041
386.521	6.97168
391.31	122.301
396.096	237.545
400.88	71.6494
405.661	40.3848
410.44	112.553
415.216	7.41504
419.99	41.0215
424.761	45.917
429.53	53.4522
434.297	28.6699
439.061	95.8486
443.822	77.0107
448.581	46.3916
453.337	6.21387
458.091	47.7022
462.843	117.966
467.592	91.9902
472.338	0.762695
477.082	139.327
481.824	113.447
486.563	124.612
491.3	117.386
496.034	66.2978
500.765	73.4522
505.494	169
510.221	96.0488
514.945	106.405
519.666	172.446
524.385	155.731
529.102	99.5039
533.816	218.672
538.527	204.555
543.236	103.653
547.943	190.352
552.647	163.082
557.348	33.4209
562.047	306.15
566.744	171.291
571.438	182.039
576.129	26.917
580.818	118.45
585.504	52.291
590.188	225.343
594.87	232.128
599.549	44.8408
604.225	6.99023
608.899	150.215
613.57	86.2891
618.239	184.264
622.905	238.606
627.569	250.9
632.23	236.191
636.889	121.865
641.545	247.371
646.198	194.518
650.849	268.797
655.498	243.16
660.144	173.463
664.787	132.453
669.428	168.24
674.067	276.06
678.703	176.26
683.336	105.83
687.967	100.65
692.595	311.182
697.221	322.01
701.844	402.975
706.465	660.098
711.083	616.295
715.698	1257.36
720.311	1754.74
724.922	1411.03
729.53	817.514
734.135	527.154
738.738	292.244
743.338	203.289
747.936	45.8047
752.531	170.158
757.124	131.424
761.714	157.529
766.302	43.7773
770.887	152.602
775.469	164.779
780.049	4.83203
784.626	100.748
789.201	52.959
793.773	197.941
798.343	9.80273
802.91	123.777
807.475	41.5156
812.037	0.859375
816.596	50.002
821.153	242.219
825.707	159.035
830.259	135.139
834.808	125.883
839.355	11.2695
843.899	125.756
848.441	181.795
852.98	272.41
857.516	285.656
862.05	236.912
866.581	358.541
871.11	183.941
875.636	384.885
880.159	127.613
884.68	215.264
889.199	179.982
893.714	100.137
898.228	115.361
902.738	56.4844
907.246	3.66016
911.752	175.269
916.255	5.72852
920.755	168.272
925.253	146.647
929.748	153.19
934.241	139.922
938.731	256.106
943.218	71.5508
947.703	199.656
952.186	41.4629
956.665	58.7949
961.142	394.232
965.617	258.828
970.089	73.9981
974.558	223.59
979.025	35.0664
983.489	219.047
987.951	179.637
992.41	137.125
996.866	147.26
1001.32	77.4004
1005.77	391.228
1010.22	285.539
1014.67	166.492
1019.11	401.471
1023.55	266.275
1027.99	343.879
1032.42	551.906
1036.86	178.682
1041.29	487.637
1045.72	301.445
1050.14	410.16
1054.56	482.803
1058.98	513.769
1063.4	722.182
1067.82	879.672
1072.23	1462.04
1076.64	1931.68
1081.05	4251.19
1085.45	12610.7
1089.85	28534.5
1094.25	28400.3
1098.65	10896.1
1103.04	3399.65
1107.43	1365.82
1111.82	790.76
1116.21	639.406
1120.59	662.955
1124.97	413.119
1129.35	507.166
1133.73	228.588
1138.1	118.221
1142.47	91.543
1146.84	89.1445
1151.21	56.2051
1155.57	57.7734
1159.93	243.783
1164.29	65.5332
1168.64	108.139
1172.99	51.2363
1177.34	169.228
1181.69	278.734
1186.04	93.9121
1190.38	79.0703
1194.72	88.9453
1199.05	84.3457
1203.39	32.2207
1207.72	88.4863
1212.05	130.877
1216.37	332.996
1220.7	133.889
1225.02	99.0254
1229.34	146.76
1233.65	183.025
1237.97	326
1242.28	148.014
1246.59	34.8984
1250.89	273.44
1255.19	212.69
1259.49	319.441
1263.79	25.3125
1268.09	341.486
1272.38	420.711
1276.67	409.81
1280.95	108.609
1285.24	214.672
1289.52	223.606
1293.8	374.318
1298.08	284.293
1302.35	42.5469
1306.62	129.682
1310.89	205.375
1315.15	255.978
1319.42	346.24
1323.68	157.625
1327.94	181.648
1332.19	93.2266
1336.44	248.894
1340.69	204.727
1344.94	160.406
1349.19	233.891
1353.43	70.3789
1357.67	95.7734
1361.9	90.207
1366.14	46.3125
1370.37	193.312
1374.6	105.121
1378.83	217
1383.05	248.969
1387.27	55.3477
1391.49	26.8711
1395.7	166.801
1399.92	294.348
1404.13	52.5391
1408.34	134.246
1412.54	112.285
1416.74	174.809
1420.94	398.336
1425.14	596.633
1429.34	566.18
1433.53	949.473
1437.72	966.297
1441.9	788.785
1446.09	457.492
1450.27	472.969
1454.45	208.383
1458.63	310.609
1462.8	200.238
1466.97	308.254
1471.14	144.731
1475.31	170.066
1479.47	280.785
1483.63	109.938
1487.79	233.055
1491.94	6.28516
1496.09	284.113
1500.24	78.8906
1504.39	133.641
1508.54	245.438
1512.68	42.2109
1516.82	189.258
1520.95	110.012
1525.09	81.2344
1529.22	85.3398
1533.35	184.273
1537.47	449.168
1541.6	23.3945
1545.72	239.039
1549.83	216.816
1553.95	593.531
1558.06	268.629
1562.17	242.481
1566.28	27.332
1570.38	0
