Measurement: Raman, 514 nm, ccw, Raman Data Processed
Mineral: Ankerite
Rruff sample: R050181
Ideal chemistry: CaFe^2+^(CO_3_)_2_
Locality: Cerro Sapo, Cochabamba Department, Bolivia
Source: Marcus Origlieri
Description: White coarsely crystalline massive
Measured chemistry: Ca_1.00_(Fe^2+^_0.60_Mg_0.35_Mn^2+^_0.05_)_Î£=1_(CO_3_)_2_ ; C not measured but estimated by difference and stoichiometry
Pin_id: M00493
Orientation: Laser parallel to -a* (-1 0 0). Fiducial mark perpendicular to laser is parallel to c [0 0 1]
Raman shift (cm-1)	intensity
92.678	0
96.858	120.311
101.036	111.155
105.212	54.541
109.387	68.638
113.559	246.607
117.729	266.347
121.897	168.04
126.063	73.625
130.228	23.945
134.39	79.841
138.55	57.925
142.709	122.861
146.865	80.869
151.019	130.251
155.171	260.24
159.322	474.529
163.47	959.733
167.617	1644.36
171.761	1796.73
175.904	1168.13
180.044	626.109
184.183	327.468
188.319	160.911
192.454	85.282
196.586	74.246
200.717	22.831
204.846	5.12
208.972	3.135
213.097	15.879
217.22	36.528
221.341	8.301
225.46	7.442
229.577	54.155
233.692	38.822
237.805	91.98
241.916	124.171
246.025	182.261
250.132	281.924
254.237	380.24
258.34	621.107
262.442	919.206
266.541	1344.79
270.639	2042.5
274.734	2986.31
278.828	3983.85
282.919	4617.64
287.009	4719.93
291.097	4164.76
295.183	3283.94
299.266	2334.22
303.348	1595.83
307.428	1050.65
311.507	681.109
315.583	482.436
319.657	371.134
323.729	317.35
327.8	248.492
331.868	270.142
335.935	244.727
339.999	233.877
344.062	338.794
348.123	442.657
352.182	470.688
356.239	403.431
360.294	228.537
364.347	177.433
368.398	96.9
372.448	42.04
376.495	61.842
380.54	45.493
384.584	33.147
388.626	28.334
392.666	5.608
396.704	6.306
400.74	14.49
404.774	8.721
408.806	29.504
412.836	3.777
416.865	14.854
420.891	23.149
424.916	19.231
428.939	34.926
432.959	22.382
436.978	17.603
440.996	35.588
445.011	30.85
449.024	59.515
453.036	53.744
457.045	78.836
461.053	79.755
465.059	49.748
469.063	65.87
473.065	79.426
477.065	40.603
481.063	76.257
485.06	47.416
489.054	76.594
493.047	71.448
497.038	69.8
501.027	83.813
505.014	67.874
508.999	106.729
512.982	103.762
516.964	113.172
520.944	108.517
524.921	80.52
528.897	75.632
532.871	104.184
536.844	114.466
540.814	115.05
544.783	94.1
548.749	141.669
552.714	52.548
556.677	112.735
560.638	105.492
564.597	90.264
568.555	119.195
572.511	88.957
576.464	86.63
580.416	50.433
584.366	88.082
588.315	67.766
592.261	41.266
596.206	78.8
600.148	10.464
604.089	6.117
608.028	46.764
611.965	42.41
615.901	43.275
619.834	41.938
623.766	5.649
627.696	0.191
631.624	47.854
635.551	34.04
639.475	13.972
643.398	11.541
647.318	3.118
651.237	22.614
655.155	34.957
659.07	21.246
662.984	33.502
666.895	19.338
670.805	23.409
674.713	17.594
678.62	30.197
682.524	32.769
686.427	39.789
690.328	52.869
694.227	55.408
698.124	28.534
702.02	10.927
705.913	25.942
709.805	49.75
713.695	74.564
717.584	237.415
721.47	440.37
725.355	452.326
729.238	338.227
733.119	286.069
736.998	229.29
740.876	155.721
744.752	103.661
748.626	133.375
752.498	89.741
756.368	42.914
760.237	59.029
764.104	43.673
767.969	50.328
771.832	94.57
775.693	24.186
779.553	28.527
783.411	31.517
787.267	50.102
791.122	14.611
794.974	33.493
798.825	9.35
802.674	3.213
806.522	25.113
810.367	36.539
814.211	34.874
818.053	22.233
821.893	7.728
825.732	32.516
829.568	31.953
833.403	27.388
837.236	19.874
841.068	50.325
844.898	7.23
848.726	19.259
852.552	37.718
856.376	24.418
860.199	66.901
864.02	57.383
867.839	69.908
871.656	307.446
875.472	478.996
879.286	102.559
883.098	20.137
886.909	8.269
890.717	23.669
894.524	17.916
898.33	1.49
902.133	1.879
905.935	24.339
909.735	12.309
913.533	18.908
917.33	37.536
921.124	43.192
924.918	23.87
928.709	5.429
932.499	51.3
936.286	32.066
940.073	7.867
943.857	19.679
947.64	52.111
951.421	14.926
955.2	14.43
958.978	5.381
962.753	66.135
966.527	22.23
970.3	39.25
974.071	39.665
977.84	56.108
981.607	85.389
985.372	113.197
989.136	79.047
992.898	54.429
996.659	67.399
1000.42	63.915
1004.17	78.373
1007.93	48.598
1011.68	119.279
1015.43	129.036
1019.18	166.858
1022.93	196.765
1026.68	184.754
1030.42	222.797
1034.17	235.889
1037.91	272.648
1041.65	336.857
1045.39	419.74
1049.12	526.889
1052.86	509.222
1056.59	468.099
1060.33	545.052
1064.06	712.669
1067.78	862.335
1071.51	1236.59
1075.23	1423.75
1078.96	1854.42
1082.68	2983.3
1086.4	6510.21
1090.12	21201.2
1093.83	47358.2
1097.55	26865.2
1101.26	8181.87
1104.97	2979.07
1108.68	1466.32
1112.39	949.633
1116.1	640.971
1119.8	483.058
1123.5	402.775
1127.2	348.242
1130.9	254.748
1134.6	180.309
1138.3	181.897
1141.99	109.54
1145.69	100.302
1149.38	117.028
1153.07	117.098
1156.76	92.015
1160.44	65.838
1164.13	72.843
1167.81	73.015
1171.49	63.765
1175.17	48.922
1178.85	22.565
1182.52	92.971
1186.2	29.743
1189.87	46.848
1193.54	37.12
1197.21	40.485
1200.88	29.568
1204.55	92.798
1208.21	81.001
1211.88	96.61
1215.54	63.077
1219.2	0.142
1222.86	51.509
1226.51	4.798
1230.17	38.028
1233.82	45.295
1237.47	23.052
1241.12	38.074
1244.77	9.107
1248.42	4.152
1252.06	26.208
1255.71	0.27
1259.35	31.337
1262.99	93.409
1266.63	69.46
1270.26	70.473
1273.9	14.452
1277.53	84.359
1281.16	17.19
1284.8	47.982
1288.42	13.267
1292.05	11.615
1295.68	2.931
1299.3	59.39
1302.92	28.78
1306.55	5.121
1310.16	21.587
1313.78	17.371
1317.4	10.757
1321.01	2.174
1324.62	41.839
1328.24	45.793
1331.85	51.681
1335.45	92.347
1339.06	30.121
1342.66	21.823
1346.27	25.471
1349.87	24.84
1353.47	9.976
1357.07	43.832
1360.66	43.287
1364.26	8.877
1367.85	76.297
1371.44	52.605
1375.04	32.854
1378.62	68.815
1382.21	51.541
1385.8	73.207
1389.38	76.842
1392.96	52.42
1396.54	111.982
1400.12	108.503
1403.7	114.972
1407.28	152.066
1410.85	160.931
1414.42	210.18
1417.99	259.45
1421.56	310.766
1425.13	335.276
1428.7	512.464
1432.26	561.128
1435.83	669.814
1439.39	745.848
1442.95	720.271
1446.51	561.189
1450.06	394.697
1453.62	273.125
1457.17	241.102
1460.73	142.758
1464.28	140.042
1467.83	96.986
1471.37	64.853
1474.92	50.949
1478.46	74.079
1482.01	55.685
1485.55	90.612
1489.09	85.638
1492.63	86.769
1496.16	52.044
1499.7	40.659
1503.23	24.709
1506.76	43.187
1510.29	33.201
1513.82	62.397
1517.35	30.452
1520.88	63.157
