Measurement: Raman, 514 nm, ccw, Raman Data Processed
Mineral: Ankerite
Rruff sample: R050197
Ideal chemistry: CaFe^2+^(CO_3_)_2_
Locality: Brownley Hill mine, Nenthead, Cumbria, England
Source: Marcus Origlieri
Description: Curved saddle-shaped rhombohedral crystals
Measured chemistry: Ca_1.00_(Fe^2+^_0.52_Mg_0.35_Ca_0.08_Mn^2+^_0.05_)_Î£=1_(CO_3_)_2_ ; where C was not measured but estimated by difference and stoichiometry
Pin_id: M00064
Orientation: Laser parallel to -c* (0 0 -1). Fiducial mark perpendicular to laser is parallel to -a [-1 0 0]
Raman shift (cm-1)	intensity
114.44	0
119.365	51.2082
124.288	48.2847
129.209	69.2374
134.127	105.159
139.043	168.627
143.956	282.957
148.867	419.49
153.775	677.929
158.681	1139.11
163.585	1748.82
168.486	1714.88
173.385	1042.16
178.282	422.812
183.176	195.785
188.067	154.436
192.956	95.3336
197.843	94.3092
202.727	89.337
207.609	22.3459
212.489	5.61682
217.366	51.4901
222.24	26.6162
227.112	16.2855
231.982	20.7632
236.849	78.0559
241.714	103.113
246.577	163.585
251.437	283.722
256.294	424.896
261.149	718.369
266.002	1031.85
270.852	1608.72
275.7	2094.71
280.545	2400.58
285.388	2319.34
290.229	1921.95
295.067	1392.66
299.902	884.114
304.735	547.275
309.566	329.692
314.394	313.554
319.22	225.188
324.043	209.826
328.864	186.155
333.682	159.653
338.498	134.125
343.311	79.5322
348.122	37.9059
352.931	7.21729
357.737	43.1434
362.54	34.3335
367.341	47.469
372.14	46.2112
376.936	31.2161
381.73	26.8265
386.521	18.0233
391.31	1.20776
396.096	17.5774
400.88	8.8634
405.661	40.1365
410.44	22.6661
415.216	33.3972
419.99	17.3957
424.761	2.2832
429.53	59.0906
434.297	7.84888
439.061	32.554
443.822	28.1876
448.581	42.751
453.337	86.2451
458.091	15.656
462.843	38.9581
467.592	7.78979
472.338	30.3837
477.082	45.1914
481.824	47.5913
486.563	42.6634
491.3	84.7368
496.034	65.7318
500.765	76.7071
505.494	75.5319
510.221	74.4982
514.945	79.3077
519.666	87.7599
524.385	117.54
529.102	100.297
533.816	129.774
538.527	67.6995
543.236	104.678
547.943	90.1387
552.647	134.06
557.348	140.369
562.047	113.222
566.744	73.222
571.438	101.902
576.129	103.473
580.818	67.1887
585.504	89.0798
590.188	59.2905
594.87	25.2395
599.549	65.6718
604.225	28.3956
608.899	73.241
613.57	64.9631
618.239	67.6838
622.905	44.2312
627.569	81.0406
632.23	69.2419
636.889	30.4568
641.545	74.1783
646.198	73.1565
650.849	68.0098
655.498	51.97
660.144	82.8699
664.787	77.0416
669.428	86.0791
674.067	113.567
678.703	101.336
683.336	105.26
687.967	87.0958
692.595	169.566
697.221	215.427
701.844	329.287
706.465	550.175
711.083	996.035
715.698	1587.88
720.311	1896.69
724.922	1305.5
729.53	698.727
734.135	304.506
738.738	184.282
743.338	85.0523
747.936	30.7999
752.531	25.8345
757.124	69.1741
761.714	53.8356
766.302	19.6244
770.887	32.0118
775.469	10.387
780.049	45.4844
784.626	10.7642
789.201	2.19678
793.773	30.5732
798.343	3.39636
802.91	20.6683
807.475	35.6438
812.037	42.4086
816.596	22.131
821.153	28.8231
825.707	32.7154
830.259	34.345
834.808	31.9305
839.355	43.4905
843.899	44.9866
848.441	47.4249
852.98	30.6364
857.516	9.34009
862.05	19.287
866.581	94.0166
871.11	101.303
875.636	59.5717
880.159	39.8248
884.68	45.0637
889.199	51.2778
893.714	13.4612
898.228	56.7836
902.738	4.63184
907.246	32.4864
911.752	11.0928
916.255	12.2345
920.755	45.0862
925.253	35.8735
929.748	7.06018
934.241	19.3795
938.731	28.6638
943.218	27.5448
947.703	20.0233
952.186	6.29285
956.665	31.5006
961.142	7.81934
965.617	7.55835
970.089	61.9688
974.558	44.4242
979.025	71.9033
983.489	58.4607
987.951	45.0568
992.41	83.6982
996.866	80.9784
1001.32	76.7484
1005.77	111.565
1010.22	112.426
1014.67	182.338
1019.11	259.304
1023.55	213.016
1027.99	295.693
1032.42	331.638
1036.86	368.717
1041.29	472.081
1045.72	472.521
1050.14	578.178
1054.56	695.742
1058.98	866.862
1063.4	1171.25
1067.82	1689.02
1072.23	2304.22
1076.64	3714.09
1081.05	8554.18
1085.45	28266.3
1089.85	62681.5
1094.25	42394.8
1098.65	13542
1103.04	4163.71
1107.43	1542.09
1111.82	843.175
1116.21	510.67
1120.59	367.66
1124.97	259.903
1129.35	231.283
1133.73	137.05
1138.1	121.737
1142.47	62.2349
1146.84	50.7416
1151.21	86.5875
1155.57	65.3238
1159.93	40.9601
1164.29	58.7246
1168.64	7.61768
1172.99	31.1132
1177.34	42.0691
1181.69	40.0057
1186.04	53.9004
1190.38	31.765
1194.72	27.7457
1199.05	33.5547
1203.39	24.358
1207.72	6.85315
1212.05	61.4542
1216.37	8.18494
1220.7	42.9451
1225.02	9.21204
1229.34	66.9056
1233.65	58.4815
1237.97	0.233032
1242.28	11.8175
1246.59	94.2676
1250.89	25.6977
1255.19	10.9402
1259.49	58.3342
1263.79	24.8707
1268.09	50.0687
1272.38	0.238037
1276.67	6.3634
1280.95	10.4481
1285.24	6.50757
1289.52	8.54675
1293.8	56.3522
1298.08	1.51123
1302.35	61.0342
1306.62	9.8103
1310.89	49.6141
1315.15	58.3363
1319.42	4.30762
1323.68	68.3712
1327.94	28.9817
1332.19	41.6121
1336.44	45.9641
1340.69	37.7307
1344.94	83.1063
1349.19	9.12866
1353.43	8.43286
1357.67	8.69397
1361.9	42.5657
1366.14	10.5866
1370.37	16.2601
1374.6	28.8059
1378.83	42.5714
1383.05	42.8683
1387.27	2.86975
1391.49	38.0778
1395.7	67.1061
1399.92	57.5548
1404.13	82.5343
1408.34	114.48
1412.54	97.8085
1416.74	219
1420.94	295.984
1425.14	314.644
1429.34	548.408
1433.53	688.194
1437.72	800.101
1441.9	641.268
1446.09	452.68
1450.27	378.85
1454.45	258.843
1458.63	140.32
1462.8	196.241
1466.97	152.878
1471.14	85.3872
1475.31	98.2389
1479.47	26.1834
1483.63	79.74
1487.79	56.7087
1491.94	71.6965
1496.09	60.7869
1500.24	22.9123
1504.39	13.9251
1508.54	21.1863
1512.68	20.3773
1516.82	49.6982
1520.95	45.2434
1525.09	44.9589
1529.22	74.8433
1533.35	55.9055
1537.47	53.2112
1541.6	17.4191
1545.72	6.22302
1549.83	50.1252
1553.95	75.9924
1558.06	38.204
1562.17	75.7108
1566.28	29.602
1570.38	0
