Measurement: Raman, 514 nm, ccw, Raman Data Processed
Mineral: Ankerite
Rruff sample: R050181
Ideal chemistry: CaFe^2+^(CO_3_)_2_
Locality: Cerro Sapo, Cochabamba Department, Bolivia
Source: Marcus Origlieri
Description: White coarsely crystalline massive
Measured chemistry: Ca_1.00_(Fe^2+^_0.60_Mg_0.35_Mn^2+^_0.05_)_Î£=1_(CO_3_)_2_ ; C not measured but estimated by difference and stoichiometry
Pin_id: L00069
Orientation: Laser parallel to c* (0 0 1). Fiducial mark perpendicular to laser is parallel to -b [0 -1 0]
Raman shift (cm-1)	intensity
82.916	0
87.101	18.9
91.284	2.491
95.465	36.989
99.644	65.914
103.82	79.588
107.995	136.442
112.168	239.965
116.339	324.624
120.508	332.855
124.675	308.409
128.84	286.157
133.003	342.032
137.164	352.992
141.323	409.998
145.48	459.222
149.635	545.313
153.788	681.258
157.939	927.928
162.088	1523.26
166.235	2328.98
170.38	2485.63
174.523	1547.23
178.664	741.789
182.803	342.319
186.94	192.773
191.076	116.144
195.209	72.433
199.34	62.625
203.47	20.711
207.597	26.692
211.722	32.588
215.846	48.813
219.967	50.128
224.087	41.003
228.204	55.003
232.32	26.323
236.434	24.724
240.545	75.476
244.655	135.308
248.763	141.238
252.869	238.797
256.973	376.71
261.075	444.768
265.175	689.428
269.273	1009.71
273.369	1457.67
277.463	1994.51
281.556	2336.15
285.646	2260.57
289.734	2033.03
293.821	1579.21
297.905	1217.67
301.988	739.795
306.069	490.796
310.147	362.669
314.224	204.389
318.299	186.921
322.372	116.356
326.443	134.908
330.512	98.16
334.579	114.292
338.645	75.344
342.708	74.317
346.769	39.207
350.829	36.011
354.887	42.723
358.942	7.336
362.996	4.149
367.048	31.755
371.098	3.673
375.146	4.753
379.192	14.156
383.236	20.952
387.279	18.815
391.319	13.588
395.358	4.882
399.394	7.73
403.429	27.828
407.462	15.824
411.493	13.816
415.522	5.663
419.549	14.585
423.575	31.048
427.598	10.587
431.619	3.022
435.639	26.339
439.657	43.554
443.673	41.673
447.687	44.71
451.699	24.675
455.709	45.565
459.717	34.399
463.724	41.249
467.728	63.956
471.731	24.591
475.732	53.143
479.731	47.629
483.728	9.051
487.723	73.394
491.716	103.72
495.708	96.015
499.697	132.16
503.685	128.275
507.671	119.937
511.655	156.505
515.637	116.583
519.617	99.619
523.596	159.979
527.572	105.646
531.547	118.906
535.52	123.33
539.491	110.752
543.46	138.945
547.427	193.528
551.393	123.825
555.356	158.288
559.318	122.735
563.278	140.322
567.236	112.918
571.192	150.391
575.147	131.219
579.099	102.706
583.05	160.645
586.999	83.999
590.946	80.751
594.891	106.065
598.834	74.341
602.776	99.654
606.715	84.017
610.653	31.292
614.589	76.39
618.523	58.196
622.456	82.963
626.386	99.282
630.315	54.586
634.242	58.115
638.167	106.162
642.09	76.642
646.012	65.828
649.931	53.558
653.849	70.23
657.765	52.924
661.679	68.314
665.592	58.629
669.502	31.916
673.411	75.188
677.318	85.341
681.223	95.024
685.126	92.278
689.028	97.56
692.927	131.459
696.825	173.666
700.721	223.919
704.616	244.671
708.508	409.931
712.399	578.184
716.288	1114.42
720.175	1694.64
724.06	1789.84
727.944	1226.01
731.825	705.517
735.705	384.024
739.584	234.639
743.46	106.778
747.334	92.908
751.207	26.415
755.078	23.687
758.947	42.786
762.815	33.836
766.68	1.854
770.544	7.192
774.406	9.727
778.267	15.552
782.125	8.322
785.982	33.067
789.837	15.201
793.69	2.479
797.542	40.135
801.391	25.996
805.239	9.694
809.085	6.171
812.93	4.678
816.772	46.15
820.613	32.613
824.452	54.059
828.29	12.492
832.125	2.926
835.959	25.318
839.791	52.686
843.621	25.05
847.45	16.184
851.277	23.622
855.102	17.856
858.925	7.084
862.746	35.302
866.566	17.522
870.384	52.188
874.2	131.972
878.015	82.205
881.828	45.446
885.639	8.691
889.448	36.937
893.256	21.182
897.061	10.431
900.865	11.307
904.668	6.042
908.468	15.22
912.267	65.512
916.064	48.937
919.86	13.906
923.653	2.211
927.445	11.708
931.236	70.788
935.024	27.332
938.811	28.784
942.596	20.961
946.379	17.981
950.161	18.532
953.94	10.794
957.719	47.686
961.495	104.059
965.27	24.405
969.043	20.133
972.814	70.907
976.583	83.727
980.351	94.687
984.117	89.562
987.882	78.114
991.644	120.114
995.405	85.158
999.165	70.656
1002.92	172.84
1006.68	103.061
1010.43	139.879
1014.18	151.253
1017.93	165.73
1021.68	190.299
1025.43	243.972
1029.18	265.704
1032.92	360.503
1036.66	352.044
1040.4	434.668
1044.14	482.272
1047.88	570.402
1051.62	645.22
1055.35	677.314
1059.08	668.631
1062.81	834.007
1066.54	1097.46
1070.27	1470.96
1073.99	1835.6
1077.72	2358.23
1081.44	3634.9
1085.16	7310.74
1088.88	21335.6
1092.59	56170.6
1096.31	38036.1
1100.02	11311.1
1103.73	3916.84
1107.44	1891.09
1111.15	1093.34
1114.86	730.759
1118.57	549.902
1122.27	496.531
1125.97	433.047
1129.67	295.936
1133.37	228.549
1137.07	228.157
1140.76	158.861
1144.45	120.633
1148.15	80.926
1151.84	101.862
1155.53	109.154
1159.21	108.115
1162.9	82.419
1166.58	61.749
1170.26	4.094
1173.94	92.202
1177.62	82.538
1181.3	55.853
1184.97	51.25
1188.65	77.442
1192.32	45.291
1195.99	47.776
1199.66	67.411
1203.33	88.103
1206.99	95.666
1210.65	48.737
1214.32	68.599
1217.98	25.551
1221.64	59.839
1225.29	57.402
1228.95	54.216
1232.6	32.866
1236.26	33.744
1239.91	75.366
1243.56	55.913
1247.2	61.142
1250.85	54.772
1254.49	84.45
1258.13	42.92
1261.78	61.503
1265.41	44.963
1269.05	7.359
1272.69	88.594
1276.32	85.702
1279.95	56.672
1283.59	29.551
1287.21	38.27
1290.84	34.879
1294.47	17.394
1298.09	20.177
1301.72	11.143
1305.34	16.662
1308.96	31.636
1312.58	1.741
1316.19	45.021
1319.81	44.653
1323.42	27.176
1327.03	40.582
1330.64	42.854
1334.25	27.001
1337.86	13.016
1341.46	16.941
1345.07	31.771
1348.67	50.584
1352.27	16.252
1355.87	49.835
1359.46	78.385
1363.06	72.856
1366.65	57.234
1370.25	6.625
1373.84	22.865
1377.43	32.179
1381.02	42.872
1384.6	74.881
1388.18	60.248
1391.77	47.47
1395.35	30.636
1398.93	68.327
1402.51	39.681
1406.08	76.35
1409.66	66.051
1413.23	111.236
1416.8	127.872
1420.37	195.883
1423.94	208.877
1427.51	296.475
1431.08	348.99
1434.64	488.036
1438.2	604.528
1441.76	744.475
1445.32	641.068
1448.88	500.749
1452.43	420.768
1455.99	329.747
1459.54	225.095
1463.09	270.735
1466.64	237.906
1470.19	155.108
1473.74	149.681
1477.28	97.681
1480.83	93.985
1484.37	66.167
1487.91	101.715
1491.45	92.52
1494.98	62.67
1498.52	79.36
1502.05	101.638
1505.59	122.664
1509.12	43.912
1512.65	76.879
1516.17	98.328
1519.7	66.4
