Measurement: Raman, 514 nm, ccw, Raman Data Processed
Mineral: Ankerite
Rruff sample: R050181
Ideal chemistry: CaFe^2+^(CO_3_)_2_
Locality: Cerro Sapo, Cochabamba Department, Bolivia
Source: Marcus Origlieri
Description: White coarsely crystalline massive
Measured chemistry: Ca_1.00_(Fe^2+^_0.60_Mg_0.35_Mn^2+^_0.05_)_Î£=1_(CO_3_)_2_ ; C not measured but estimated by difference and stoichiometry
Pin_id: L00069
Orientation: Laser parallel to c* (0 0 1). Fiducial mark perpendicular to laser is parallel to -b [0 -1 0]
Raman shift (cm-1)	intensity
89.89	0
94.071	18.393
98.251	3.394
102.428	29.47
106.604	107.225
110.777	137.792
114.949	225.282
119.119	289.117
123.286	221.381
127.452	263.342
131.615	252.853
135.777	265.85
139.937	335.462
144.094	385.816
148.25	455.624
152.403	600.695
156.555	788.505
160.705	1263.91
164.853	2126.51
168.998	2714.4
173.142	1888.58
177.284	927.818
181.424	412.982
185.562	200.086
189.698	98.107
193.831	45.166
197.963	22.137
202.093	29.273
206.221	13.928
210.347	4.263
214.472	1.512
218.594	20.179
222.714	6.14
226.832	28.103
230.948	4.187
235.063	3.253
239.175	21.635
243.286	68.353
247.394	86.653
251.501	131.268
255.605	235.733
259.708	306.719
263.808	461.835
267.907	714.299
272.004	1056.48
276.099	1453.04
280.192	1709.57
284.283	1779.88
288.372	1674.92
292.459	1327.17
296.544	1018.35
300.627	684.68
304.709	449.038
308.788	294.232
312.865	185.513
316.941	141.287
321.015	145.233
325.086	91.141
329.156	114.008
333.224	94.83
337.29	96.602
341.354	51.322
345.416	42.989
349.476	35.603
353.534	25.163
357.591	34.669
361.645	32.951
365.698	1.518
369.748	0.842
373.797	40.902
377.844	11.335
381.889	0.271
385.932	48.709
389.973	2.544
394.012	26.271
398.049	26.936
402.084	46.473
406.118	16.084
410.15	0.234
414.179	4.561
418.207	5.514
422.233	10.496
426.257	18.412
430.279	6.269
434.299	26.059
438.318	5.794
442.334	18.47
446.349	1.096
450.361	32.658
454.372	42.163
458.381	29.625
462.388	36.03
466.394	69.411
470.397	55.76
474.398	73.06
478.398	94.89
482.396	64.526
486.391	96.721
490.385	75.877
494.377	83.397
498.368	108.131
502.356	129.106
506.342	161.141
510.327	118.906
514.31	131.811
518.291	96.435
522.27	137.225
526.247	152.515
530.222	145.746
534.196	179.332
538.167	164.241
542.137	129.456
546.105	127.508
550.071	120.25
554.035	129.065
557.998	179.327
561.958	166.543
565.917	120.866
569.874	124.467
573.829	136.915
577.782	133.729
581.733	116.265
585.683	80.009
589.63	121.398
593.576	123.165
597.52	101.999
601.462	71.2
605.402	67.4
609.341	112.055
613.277	100.156
617.212	50.131
621.145	72.021
625.076	106.142
629.006	75.662
632.933	64.59
636.859	46.162
640.783	44.143
644.705	89.785
648.625	100.244
652.543	44.353
656.46	30.162
660.375	100.707
664.288	51.574
668.199	69.949
672.108	75.924
676.016	88.537
679.921	92.843
683.825	88.341
687.727	133.902
691.628	121.463
695.526	107.089
699.423	184.866
703.318	195.435
707.211	320.981
711.102	484.867
714.992	852.675
718.879	1304.2
722.765	1744.73
726.649	1344.27
730.532	819.797
734.412	423.342
738.291	242.887
742.168	138.418
746.043	112.936
749.916	67.462
753.788	27.035
757.658	13.499
761.526	37.93
765.392	21.345
769.257	27.164
773.119	17.514
776.98	30.162
780.839	19.931
784.697	55.241
788.552	5.397
792.406	21.524
796.258	23.405
800.108	5.413
803.957	0.575
807.804	18.515
811.649	17.552
815.492	32.237
819.333	4.988
823.173	1.284
827.011	23.42
830.847	33.117
834.681	34.795
838.514	2.435
842.345	18.022
846.174	16.606
850.001	5.188
853.827	9.763
857.651	43.335
861.473	12.909
865.293	6.518
869.112	35.044
872.928	125.61
876.744	104.182
880.557	22.76
884.369	36.345
888.178	23.939
891.987	25.541
895.793	8.153
899.598	1.224
903.401	4.411
907.202	19.059
911.001	3.398
914.799	39.477
918.595	29.166
922.389	51.775
926.182	64.483
929.972	7.867
933.761	52.972
937.549	49.767
941.334	29.486
945.118	10.768
948.9	42.741
952.681	2.991
956.459	59.718
960.236	45.63
964.012	62.271
967.785	54.849
971.557	28.803
975.327	65.035
979.095	28.141
982.862	42.397
986.627	116.976
990.39	114.382
994.152	97.779
997.912	86.229
1001.67	111.681
1005.43	145.036
1009.18	161.684
1012.93	155.431
1016.68	138.644
1020.43	172.52
1024.18	220.451
1027.93	314.439
1031.67	310.483
1035.42	384.621
1039.16	437.804
1042.9	482.072
1046.63	531.425
1050.37	620.836
1054.11	618.372
1057.84	709.863
1061.57	831.511
1065.3	1054.23
1069.03	1363
1072.75	1731.4
1076.47	2102.3
1080.2	3036.28
1083.92	5792.36
1087.64	15307.5
1091.36	48754.8
1095.07	52852
1098.79	17759.4
1102.5	5243.39
1106.21	2319.9
1109.92	1344.48
1113.62	838.162
1117.33	615.453
1121.04	491.241
1124.74	452.494
1128.44	378.975
1132.14	245.933
1135.83	200.977
1139.53	184.071
1143.22	186.439
1146.92	113.841
1150.61	105.159
1154.3	77.76
1157.98	68.085
1161.67	80.811
1165.35	50.031
1169.04	53.565
1172.72	27.106
1176.4	56.887
1180.07	33.44
1183.75	39.993
1187.42	34.857
1191.1	24.93
1194.77	29.666
1198.44	14.047
1202.1	60.856
1205.77	49.089
1209.43	22.66
1213.1	3.349
1216.76	50.305
1220.42	35.727
1224.07	22.358
1227.73	61.462
1231.38	42.771
1235.04	42.785
1238.69	59.201
1242.34	36.745
1245.99	27.284
1249.63	36.04
1253.28	41.017
1256.92	54.237
1260.56	59.479
1264.2	40.67
1267.84	45.042
1271.48	15.08
1275.11	14.056
1278.74	23.001
1282.38	34.902
1286.01	6.698
1289.63	4.364
1293.26	21.926
1296.89	46.412
1300.51	30.173
1304.13	9.117
1307.75	3.76
1311.37	21.271
1314.99	9.22
1318.6	4.041
1322.22	44.784
1325.83	9.437
1329.44	42.958
1333.05	21.403
1336.66	53.726
1340.26	35.049
1343.87	3.945
1347.47	2.962
1351.07	8.039
1354.67	31.799
1358.27	6.571
1361.86	35.064
1365.46	61.598
1369.05	12.247
1372.64	27.792
1376.23	9.028
1379.82	17.885
1383.41	45.423
1386.99	50.288
1390.57	40.627
1394.16	40.082
1397.74	59.23
1401.32	84.279
1404.89	88.034
1408.47	72.278
1412.04	79.534
1415.61	89.736
1419.18	139.501
1422.75	176.046
1426.32	264.016
1429.89	273.867
1433.45	423.305
1437.01	555.886
1440.58	703.332
1444.13	615.435
1447.69	487.9
1451.25	382.707
1454.81	331.795
1458.36	240.863
1461.91	175.451
1465.46	181.941
1469.01	151.995
1472.56	148.719
1476.1	135.492
1479.64	140.6
1483.19	86.525
1486.73	73.76
1490.27	104.17
1493.81	20.91
1497.34	41.907
1500.88	7.729
1504.41	7.143
1507.94	9.701
1511.47	22.315
1515	53.424
1518.53	67.222
