Measurement: Raman, 514 nm, ccw, Raman Data Processed
Mineral: Ankerite
Rruff sample: R050197
Ideal chemistry: CaFe^2+^(CO_3_)_2_
Locality: Brownley Hill mine, Nenthead, Cumbria, England
Source: Marcus Origlieri
Description: Curved saddle-shaped rhombohedral crystals
Measured chemistry: Ca_1.00_(Fe^2+^_0.52_Mg_0.35_Ca_0.08_Mn^2+^_0.05_)_Î£=1_(CO_3_)_2_ ; where C was not measured but estimated by difference and stoichiometry
Pin_id: M00064
Orientation: Laser parallel to -c* (0 0 -1). Fiducial mark perpendicular to laser is parallel to -a [-1 0 0]
Raman shift (cm-1)	intensity
114.44	0
119.365	52.5615
124.288	6.03711
129.209	99.884
134.127	213.424
139.043	414.906
143.956	555.229
148.867	941.439
153.775	1663.41
158.681	3224.41
163.585	4766.77
168.486	5038.97
173.385	3165.57
178.282	1589.26
183.176	744.92
188.067	437.118
192.956	387.422
197.843	326.292
202.727	344.826
207.609	199.704
212.489	217.782
217.366	247.997
222.24	244.252
227.112	332.53
231.982	485.784
236.849	688.987
241.714	995.023
246.577	1458.78
251.437	2194.66
256.294	3342.17
261.149	5195.46
266.002	7825.14
270.852	11531.7
275.7	15357.5
280.545	17484.3
285.388	16674.7
290.229	13411.4
295.067	9495.8
299.902	5993.97
304.735	3721.18
309.566	2423.42
314.394	1680.99
319.22	1179.29
324.043	954.976
328.864	688.048
333.682	546.729
338.498	544.731
343.311	496.8
348.122	404.133
352.931	244.715
357.737	176.953
362.54	107.032
367.341	74.0342
372.14	25.7659
376.936	2.46106
381.73	0.348755
386.521	17.7511
391.31	5.39746
396.096	14.1252
400.88	17.2391
405.661	16.2873
410.44	2.7179
415.216	17.5604
419.99	20.2723
424.761	18.4683
429.53	29.1008
434.297	35.8693
439.061	37.4813
443.822	84.7664
448.581	3.75867
453.337	65.4163
458.091	27.7432
462.843	80.9529
467.592	61.8132
472.338	73.4008
477.082	96.9294
481.824	109.764
486.563	38.4852
491.3	106.019
496.034	144.244
500.765	177.33
505.494	145.967
510.221	138.976
514.945	180.567
519.666	144.492
524.385	151.031
529.102	169.952
533.816	196.364
538.527	185.741
543.236	189.862
547.943	164.226
552.647	124.502
557.348	179.365
562.047	156.507
566.744	150.567
571.438	168.183
576.129	163.984
580.818	117.543
585.504	84.4595
590.188	96.4583
594.87	113.563
599.549	91.7468
604.225	48.833
608.899	47.8113
613.57	75.3169
618.239	78.0142
622.905	54.1063
627.569	45.3218
632.23	51.9072
636.889	34.5472
641.545	12.8551
646.198	28.5808
650.849	9.79675
655.498	3.09509
660.144	20.8997
664.787	26.2379
669.428	14.0894
674.067	49.6925
678.703	104.636
683.336	28.9055
687.967	97.7733
692.595	62.4736
697.221	143.197
701.844	272.117
706.465	491.958
711.083	977.064
715.698	1637.95
720.311	2031.8
724.922	1582.65
729.53	902.442
734.135	652.191
738.738	415.919
743.338	322.318
747.936	230.452
752.531	160.021
757.124	91.1086
761.714	127.236
766.302	88.5505
770.887	49.2148
775.469	49.3384
780.049	47.2634
784.626	43.6309
789.201	61.7017
793.773	37.6062
798.343	47.7327
802.91	37.666
807.475	27.4712
812.037	20.0479
816.596	46.6655
821.153	63.7156
825.707	34.6653
830.259	44.5679
834.808	9.22974
839.355	49.1724
843.899	52.0227
848.441	77.8489
852.98	33.054
857.516	104.24
862.05	7.62646
866.581	190.393
871.11	386.149
875.636	228.45
880.159	0.639404
884.68	80.3608
889.199	19.0759
893.714	12.2185
898.228	2.396
902.738	7.99902
907.246	19.6123
911.752	41.2393
916.255	9.88281
920.755	26.4836
925.253	7.09717
929.748	69.7812
934.241	5.47656
938.731	86.7085
943.218	29.3655
947.703	12.178
952.186	56.6728
956.665	47.8652
961.142	72.2419
965.617	16.5444
970.089	59.4346
974.558	36.2978
979.025	82.29
983.489	79.085
987.951	55.1414
992.41	52.2593
996.866	117.411
1001.32	70.6265
1005.77	60.8813
1010.22	159.225
1014.67	118.546
1019.11	197.467
1023.55	197.957
1027.99	311.844
1032.42	296.585
1036.86	397.248
1041.29	399.54
1045.72	477.305
1050.14	609.144
1054.56	608.976
1058.98	844.008
1063.4	1160.07
1067.82	1606.11
1072.23	2244.03
1076.64	3685.42
1081.05	8845.5
1085.45	29800.9
1089.85	60544.3
1094.25	40324.9
1098.65	13276.5
1103.04	4070.01
1107.43	1549.62
1111.82	833.357
1116.21	558.646
1120.59	495.405
1124.97	425.268
1129.35	240.31
1133.73	141.304
1138.1	111.202
1142.47	88.2107
1146.84	134.221
1151.21	53.2649
1155.57	91.4106
1159.93	18.4936
1164.29	71.656
1168.64	44.9136
1172.99	93.4163
1177.34	21.593
1181.69	117.779
1186.04	5.98828
1190.38	16.3313
1194.72	14.6909
1199.05	63.0083
1203.39	19.7127
1207.72	0.911865
1212.05	92.9138
1216.37	56.3291
1220.7	47.4778
1225.02	12.6033
1229.34	3.65747
1233.65	48.7854
1237.97	43.8074
1242.28	3.88525
1246.59	64.0737
1250.89	48.0151
1255.19	12.9209
1259.49	71.8257
1263.79	63.6345
1268.09	53.5879
1272.38	69.0273
1276.67	65.6028
1280.95	83.1458
1285.24	18.345
1289.52	49.0659
1293.8	41.4292
1298.08	67.7539
1302.35	87.0215
1306.62	79.2576
1310.89	57.4292
1315.15	17.5964
1319.42	58.811
1323.68	102.766
1327.94	0.270264
1332.19	92.5815
1336.44	0.109863
1340.69	117.501
1344.94	70.1045
1349.19	21.6443
1353.43	41.1287
1357.67	40.5452
1361.9	124.282
1366.14	8.36938
1370.37	41.4282
1374.6	101.84
1378.83	45.7835
1383.05	105.144
1387.27	102.175
1391.49	118.29
1395.7	81.6389
1399.92	210.446
1404.13	153.517
1408.34	296.582
1412.54	416.897
1416.74	507.423
1420.94	716.335
1425.14	888.169
1429.34	1157.82
1433.53	1400.42
1437.72	1397.9
1441.9	1046.07
1446.09	686.931
1450.27	487.589
1454.45	368.957
1458.63	240.675
1462.8	203.531
1466.97	208.174
1471.14	138.411
1475.31	114.145
1479.47	167.753
1483.63	67.4136
1487.79	77.2195
1491.94	58.9915
1496.09	3.16089
1500.24	26.6821
1504.39	4.49146
1508.54	92.2637
1512.68	77.1255
1516.82	79.3784
1520.95	107.805
1525.09	163.521
1529.22	105.961
1533.35	52.8091
1537.47	103.747
1541.6	49.4956
1545.72	57.0654
1549.83	111.528
1553.95	128.055
1558.06	56.1655
1562.17	45.2727
1566.28	0.100342
1570.38	0
