Measurement: Raman, 514 nm, ccw, Raman Data Processed
Mineral: Ankerite
Rruff sample: R050197
Ideal chemistry: CaFe^2+^(CO_3_)_2_
Locality: Brownley Hill mine, Nenthead, Cumbria, England
Source: Marcus Origlieri
Description: Curved saddle-shaped rhombohedral crystals
Measured chemistry: Ca_1.00_(Fe^2+^_0.52_Mg_0.35_Ca_0.08_Mn^2+^_0.05_)_Î£=1_(CO_3_)_2_ ; where C was not measured but estimated by difference and stoichiometry
Pin_id: M00064
Orientation: Laser parallel to -c* (0 0 -1). Fiducial mark perpendicular to laser is parallel to -a [-1 0 0]
Raman shift (cm-1)	intensity
114.44	0
119.365	14.6926
124.288	33.444
129.209	42.9446
134.127	114.3
139.043	154.843
143.956	269.618
148.867	438.007
153.775	774.681
158.681	1317.35
163.585	2042.9
168.486	1952.99
173.385	1157.57
178.282	513.528
183.176	311.015
188.067	213.999
192.956	127.198
197.843	170.485
202.727	131.149
207.609	3.96765
212.489	39.9407
217.366	58.8893
222.24	78.8945
227.112	115.897
231.982	113.862
236.849	198.774
241.714	301.94
246.577	414.463
251.437	622.05
256.294	927.714
261.149	1467.96
266.002	2106.19
270.852	3249.29
275.7	4240.56
280.545	4766.25
285.388	4625.33
290.229	3765.11
295.067	2666.72
299.902	1734.22
304.735	1105.88
309.566	722.905
314.394	490.673
319.22	375.859
324.043	306.344
328.864	264.261
333.682	215.572
338.498	140.958
343.311	107.354
348.122	76.5304
352.931	42.6061
357.737	52.645
362.54	33.6149
367.341	0.490234
372.14	19.6796
376.936	8.02161
381.73	14.3663
386.521	9.1377
391.31	1.52063
396.096	10.2306
400.88	8.11487
405.661	17.7958
410.44	6.58545
415.216	2.31335
419.99	14.3163
424.761	1.61706
429.53	2.60583
434.297	26.3137
439.061	12.5945
443.822	21.3658
448.581	11.0536
453.337	11.3105
458.091	18.1399
462.843	57.5027
467.592	13.2344
472.338	70.894
477.082	54.9371
481.824	7.896
486.563	32.7767
491.3	37.9165
496.034	71.2708
500.765	65.323
505.494	114.95
510.221	84.1749
514.945	148.046
519.666	79.5507
524.385	86.4841
529.102	117.257
533.816	104.157
538.527	93.4495
543.236	141.407
547.943	79.4202
552.647	110.773
557.348	76.3998
562.047	114.637
566.744	113.537
571.438	125.692
576.129	102.196
580.818	81.7212
585.504	52.4385
590.188	131.933
594.87	94.0238
599.549	84.4307
604.225	56.4132
608.899	73.6406
613.57	16.0322
618.239	35.6426
622.905	35.9353
627.569	84.2481
632.23	15.1002
636.889	12.5797
641.545	51.882
646.198	36.3429
650.849	49.2675
655.498	0.963501
660.144	89.4324
664.787	63.9424
669.428	54.9659
674.067	43.9413
678.703	88.2263
683.336	34.6925
687.967	108.679
692.595	128.134
697.221	269.071
701.844	311.855
706.465	588.004
711.083	1072.91
715.698	1611.55
720.311	1876.71
724.922	1306.33
729.53	687.954
734.135	392.525
738.738	265.076
743.338	148.629
747.936	76.1609
752.531	18.2429
757.124	34.7393
761.714	7.93762
766.302	16.4778
770.887	22.9276
775.469	39.8131
780.049	42.1352
784.626	3.02051
789.201	24.1542
793.773	32.978
798.343	27.0846
802.91	8.66321
807.475	24.691
812.037	7.32165
816.596	60.6675
821.153	23.5499
825.707	21.3887
830.259	21.1736
834.808	51.4288
839.355	65.9467
843.899	70.3649
848.441	45.8374
852.98	2.88623
857.516	38.3394
862.05	7.53406
866.581	72.7002
871.11	120.84
875.636	109.955
880.159	78.0463
884.68	4.11414
889.199	17.1409
893.714	5.85608
898.228	34.3391
902.738	21.1771
907.246	11.0204
911.752	53.5725
916.255	9.76733
920.755	10.1678
925.253	6.84985
929.748	41.4862
934.241	19.7155
938.731	36.9739
943.218	55.2595
947.703	27.7
952.186	17.4778
956.665	78.2581
961.142	44.575
965.617	15.4265
970.089	5.78564
974.558	46.3186
979.025	8.43848
983.489	28.104
987.951	24.427
992.41	110.362
996.866	76.3455
1001.32	168.474
1005.77	63.6365
1010.22	143.836
1014.67	147.077
1019.11	163.331
1023.55	213.114
1027.99	246.955
1032.42	320.025
1036.86	434.482
1041.29	449.952
1045.72	511.496
1050.14	593.105
1054.56	663.274
1058.98	792.011
1063.4	1158.78
1067.82	1621.09
1072.23	2105.57
1076.64	3556.53
1081.05	8391.56
1085.45	28448.6
1089.85	59759.7
1094.25	36474.9
1098.65	11465.2
1103.04	3572.01
1107.43	1382.79
1111.82	729.256
1116.21	468.436
1120.59	329.037
1124.97	314.378
1129.35	124.074
1133.73	126.99
1138.1	130.943
1142.47	22.4705
1146.84	48.4822
1151.21	78.5596
1155.57	78.7385
1159.93	15.1367
1164.29	14.282
1168.64	11.4604
1172.99	47.7498
1177.34	1.10718
1181.69	8.30249
1186.04	30.7068
1190.38	6.26636
1194.72	15.397
1199.05	26.6213
1203.39	4.90112
1207.72	17.3091
1212.05	80.5327
1216.37	34.8789
1220.7	19.5479
1225.02	20.8704
1229.34	64.1428
1233.65	4.64282
1237.97	47.6868
1242.28	16.062
1246.59	60.0591
1250.89	101.185
1255.19	41.0659
1259.49	61.2852
1263.79	79.0681
1268.09	12.8506
1272.38	79.571
1276.67	39.2217
1280.95	5.84229
1285.24	32.426
1289.52	67.971
1293.8	29.4802
1298.08	60.9644
1302.35	72.4399
1306.62	43.8635
1310.89	46.2703
1315.15	59.5523
1319.42	20.1384
1323.68	41.4268
1327.94	42.0701
1332.19	28.2007
1336.44	45.2747
1340.69	83.2839
1344.94	18.2244
1349.19	56.0967
1353.43	19.8606
1357.67	38.54
1361.9	27.8953
1366.14	31.469
1370.37	64.5679
1374.6	92.1003
1378.83	37.7454
1383.05	1.09228
1387.27	12.4106
1391.49	56.2424
1395.7	39.4941
1399.92	44.2095
1404.13	79.4192
1408.34	136.471
1412.54	179.68
1416.74	264.567
1420.94	370.703
1425.14	440.809
1429.34	619.023
1433.53	790.353
1437.72	874.229
1441.9	714.737
1446.09	509.245
1450.27	398.139
1454.45	258.335
1458.63	284.606
1462.8	165.048
1466.97	182.172
1471.14	79.6621
1475.31	151.651
1479.47	129.477
1483.63	125.081
1487.79	31.0896
1491.94	23.1274
1496.09	67.155
1500.24	53.0815
1504.39	34.9104
1508.54	59.731
1512.68	19.6875
1516.82	60.6296
1520.95	94.7812
1525.09	64.2131
1529.22	155.108
1533.35	59.2693
1537.47	107.902
1541.6	91.1975
1545.72	35.8784
1549.83	100.603
1553.95	97.5591
1558.06	36.4731
1562.17	30.4431
1566.28	61.0933
1570.38	0
