Measurement: Raman, 514 nm, ccw, Raman Data Processed
Mineral: Ankerite
Rruff sample: R050197
Ideal chemistry: CaFe^2+^(CO_3_)_2_
Locality: Brownley Hill mine, Nenthead, Cumbria, England
Source: Marcus Origlieri
Description: Curved saddle-shaped rhombohedral crystals
Measured chemistry: Ca_1.00_(Fe^2+^_0.52_Mg_0.35_Ca_0.08_Mn^2+^_0.05_)_Î£=1_(CO_3_)_2_ ; where C was not measured but estimated by difference and stoichiometry
Pin_id: M00092
Orientation: Laser parallel to a* (1 0 0). Fiducial mark perpendicular to laser is parallel to c [0 0 1]
Raman shift (cm-1)	intensity
114.44	0
119.365	152.876
124.288	17.0723
129.209	57.1963
134.127	371.612
139.043	562.94
143.956	655.866
148.867	673.86
153.775	768.468
158.681	1240.15
163.585	1767.42
168.486	2179.19
173.385	1758.73
178.282	817.31
183.176	432.307
188.067	230.763
192.956	260.813
197.843	195.132
202.727	215.552
207.609	25.564
212.489	11.1719
217.366	15.0757
222.24	6.82568
227.112	5.74707
231.982	95.7988
236.849	12.8662
241.714	159.378
246.577	193.058
251.437	426.915
256.294	735.756
261.149	1293.08
266.002	1560.37
270.852	2328.38
275.7	3098.95
280.545	3763.43
285.388	3852.59
290.229	3367.2
295.067	2549.45
299.902	1684.08
304.735	1150.24
309.566	786.144
314.394	472.844
319.22	351.382
324.043	299.405
328.864	291.528
333.682	202.661
338.498	207.555
343.311	87.3384
348.122	212.691
352.931	85.563
357.737	118.404
362.54	100.524
367.341	238.404
372.14	197.204
376.936	67.4307
381.73	120.311
386.521	38.3477
391.31	24.5508
396.096	171.391
400.88	75.5762
405.661	130.57
410.44	29.1562
415.216	41.5967
419.99	145.185
424.761	67.4893
429.53	34.9697
434.297	90.0147
439.061	64.0068
443.822	44.832
448.581	12.6387
453.337	131.145
458.091	13.331
462.843	61.5596
467.592	149.078
472.338	190.031
477.082	97.0283
481.824	146.518
486.563	109.422
491.3	236.884
496.034	137.666
500.765	47.3701
505.494	168.746
510.221	171.147
514.945	111.667
519.666	136.129
524.385	123.996
529.102	254.873
533.816	109.835
538.527	138.995
543.236	180.933
547.943	30.0215
552.647	141.012
557.348	123.609
562.047	164.538
566.744	126.831
571.438	126.596
576.129	217.384
580.818	108.245
585.504	121.485
590.188	258.345
594.87	55.7685
599.549	66.6641
604.225	10.2383
608.899	87.5732
613.57	42.8047
618.239	148.57
622.905	49.3076
627.569	101.446
632.23	116.907
636.889	172.333
641.545	127.297
646.198	118.712
650.849	82.7246
655.498	117.595
660.144	73.7568
664.787	74.4043
669.428	220.327
674.067	195.686
678.703	200.103
683.336	147.245
687.967	223.081
692.595	205.285
697.221	302.246
701.844	390.756
706.465	525.654
711.083	902.101
715.698	1328.37
720.311	1839.76
724.922	1576.12
729.53	946.144
734.135	514.516
738.738	276.774
743.338	253.377
747.936	226.648
752.531	175.384
757.124	61.4815
761.714	76.5596
766.302	74.8594
770.887	215.119
775.469	1.2207
780.049	101.997
784.626	88.8672
789.201	88.9648
793.773	176.035
798.343	174.039
802.91	28.835
807.475	256.2
812.037	95.5166
816.596	41.3701
821.153	29.7393
825.707	261.494
830.259	202.192
834.808	1.2168
839.355	174.934
843.899	191.274
848.441	42.1943
852.98	91.1689
857.516	162.274
862.05	44.4746
866.581	103.384
871.11	260.092
875.636	262.533
880.159	168.668
884.68	132.602
889.199	212.79
893.714	157.01
898.228	198.573
902.738	40.1924
907.246	153.519
911.752	55.0371
916.255	207.861
920.755	74.1504
925.253	56.1562
929.748	111.039
934.241	84.8594
938.731	25.6465
943.218	84.1231
947.703	257.602
952.186	35.3184
956.665	169.263
961.142	231.669
965.617	119.263
970.089	82.4385
974.558	185.17
979.025	141.101
983.489	0.691406
987.951	117.137
992.41	79.4941
996.866	176.731
1001.32	45.0137
1005.77	162.617
1010.22	329.482
1014.67	147.172
1019.11	275.109
1023.55	332.912
1027.99	301.252
1032.42	140.81
1036.86	361.109
1041.29	502.516
1045.72	431.449
1050.14	438.981
1054.56	609.041
1058.98	722.365
1063.4	863.059
1067.82	1348.34
1072.23	1633.05
1076.64	2651.4
1081.05	5377.19
1085.45	15743.4
1089.85	37223.5
1094.25	38530.7
1098.65	14792.5
1103.04	4286.43
1107.43	1718.46
1111.82	817.176
1116.21	709.486
1120.59	644.291
1124.97	506.949
1129.35	318.596
1133.73	412.34
1138.1	254.846
1142.47	161.975
1146.84	81.416
1151.21	192.766
1155.57	75.1133
1159.93	65.7676
1164.29	245.527
1168.64	136.203
1172.99	122.189
1177.34	146.822
1181.69	24.6406
1186.04	33.4062
1190.38	79.6602
1194.72	236.957
1199.05	86.7676
1203.39	121.943
1207.72	54.7773
1212.05	90.2129
1216.37	3.08008
1220.7	111.594
1225.02	20.9297
1229.34	161.279
1233.65	124.578
1237.97	144.736
1242.28	51.5
1246.59	115.961
1250.89	119.932
1255.19	74.3711
1259.49	148.725
1263.79	242.656
1268.09	105.723
1272.38	163.867
1276.67	177.266
1280.95	166.201
1285.24	357.789
1289.52	217.262
1293.8	336.119
1298.08	307.338
1302.35	203.766
1306.62	397.344
1310.89	254.951
1315.15	182.598
1319.42	65.8926
1323.68	317.232
1327.94	148.674
1332.19	211.549
1336.44	213.576
1340.69	80.2402
1344.94	389.004
1349.19	239.99
1353.43	61.7422
1357.67	59.1719
1361.9	106.641
1366.14	187.9
1370.37	71.6582
1374.6	213.752
1378.83	149.519
1383.05	211.066
1387.27	42.2051
1391.49	83.5586
1395.7	158.477
1399.92	121.807
1404.13	86.6094
1408.34	312.133
1412.54	327.594
1416.74	314.889
1420.94	510.133
1425.14	391.272
1429.34	611.129
1433.53	833.545
1437.72	657.115
1441.9	604.219
1446.09	485.644
1450.27	299.633
1454.45	175.268
1458.63	449.996
1462.8	298.465
1466.97	6.3418
1471.14	161.559
1475.31	304.18
1479.47	195.018
1483.63	174.315
1487.79	59.9219
1491.94	147.447
1496.09	168.477
1500.24	174.435
1504.39	356.154
1508.54	34.1211
1512.68	19.3281
1516.82	289.139
1520.95	198.514
1525.09	322.029
1529.22	300.44
1533.35	171.615
1537.47	311.055
1541.6	193.957
1545.72	315.129
1549.83	320.57
1553.95	309.35
1558.06	368.674
1562.17	123.961
1566.28	172.506
1570.38	0
