Measurement: Raman, 514 nm, ccw, Raman Data Processed
Mineral: Ankerite
Rruff sample: R050181
Ideal chemistry: CaFe^2+^(CO_3_)_2_
Locality: Cerro Sapo, Cochabamba Department, Bolivia
Source: Marcus Origlieri
Description: White coarsely crystalline massive
Measured chemistry: Ca_1.00_(Fe^2+^_0.60_Mg_0.35_Mn^2+^_0.05_)_Î£=1_(CO_3_)_2_ ; C not measured but estimated by difference and stoichiometry
Pin_id: M00493
Orientation: Laser parallel to -a* (-1 0 0). Fiducial mark perpendicular to laser is parallel to c [0 0 1]
Raman shift (cm-1)	intensity
84.311	0
88.496	29.823
92.678	99.637
96.858	249.704
101.036	123.23
105.212	153.53
109.387	215.138
113.559	221.998
117.729	223.955
121.897	84.329
126.063	16.308
130.228	5.757
134.39	33.187
138.55	92.432
142.709	240.495
146.865	303.816
151.019	567.659
155.171	733.616
159.322	1416.78
163.47	2765.8
167.617	4488.22
171.761	4510.36
175.904	2847.13
180.044	1403.02
184.183	769.756
188.319	373.134
192.454	188.625
196.586	109.575
200.717	20.193
204.846	20.463
208.972	27.358
213.097	13.939
217.22	11.731
221.341	57.761
225.46	56.938
229.577	125.799
233.692	118.492
237.805	223.456
241.916	300.151
246.025	460.712
250.132	654.029
254.237	981.437
258.34	1405.15
262.442	2029.88
266.541	3037.33
270.639	4340.34
274.734	6415.06
278.828	8354.43
282.919	9824.3
287.009	9552.39
291.097	8463.78
295.183	6569.99
299.266	4700.97
303.348	3114.25
307.428	2037.74
311.507	1313.23
315.583	909.442
319.657	724.704
323.729	536.494
327.8	428.275
331.868	336.51
335.935	288.349
339.999	231.891
344.062	224.054
348.123	237.745
352.182	228.235
356.239	179.006
360.294	127.855
364.347	65.275
368.398	101.28
372.448	25.555
376.495	9.94
380.54	37.992
384.584	8.013
388.626	11.742
392.666	12.758
396.704	27.486
400.74	18.491
404.774	14.953
408.806	2.937
412.836	2.854
416.865	18.195
420.891	0.093
424.916	11.428
428.939	4.647
432.959	26.376
436.978	45.822
440.996	29.958
445.011	37.788
449.024	43.392
453.036	67.881
457.045	42.305
461.053	76.289
465.059	82.291
469.063	98.107
473.065	101.54
477.065	94.667
481.063	99.667
485.06	77.279
489.054	106.922
493.047	88.362
497.038	119.347
501.027	142.99
505.014	158.121
508.999	121.791
512.982	128.492
516.964	178.081
520.944	160.612
524.921	171.134
528.897	172.889
532.871	179.182
536.844	141.517
540.814	154.402
544.783	152.611
548.749	148.052
552.714	138.738
556.677	153.984
560.638	151.62
564.597	126.836
568.555	142.208
572.511	133.64
576.464	145.133
580.416	133.347
584.366	100.187
588.315	108.411
592.261	75.965
596.206	77.424
600.148	104.524
604.089	66.91
608.028	105.155
611.965	33.521
615.901	75.702
619.834	43.908
623.766	39.045
627.696	52.24
631.624	66.711
635.551	44.766
639.475	60.345
643.398	8.49
647.318	37.791
651.237	35.437
655.155	46.039
659.07	43.375
662.984	10.729
666.895	36.791
670.805	15.879
674.713	33.375
678.62	12.936
682.524	48.85
686.427	76.676
690.328	29.118
694.227	47.708
698.124	75.41
702.02	111.669
705.913	133.93
709.805	245.181
713.695	387.444
717.584	721.713
721.47	1091.99
725.355	1169.25
729.238	908.504
733.119	549.759
736.998	381.207
740.876	268.019
744.752	188.277
748.626	143.845
752.498	111.242
756.368	75.659
760.237	37.542
764.104	60.702
767.969	44.562
771.832	71.635
775.693	12.698
779.553	13.591
783.411	1.523
787.267	12.124
791.122	60.194
794.974	33.135
798.825	19.948
802.674	1.829
806.522	2.547
810.367	26.467
814.211	31.495
818.053	14.907
821.893	2.814
825.732	3.134
829.568	59.27
833.403	7.278
837.236	19.923
841.068	10.709
844.898	15.515
848.726	17.664
852.552	22.1
856.376	13.853
860.199	10.611
864.02	20.374
867.839	49.144
871.656	166.922
875.472	204.708
879.286	72.503
883.098	11.308
886.909	22.125
890.717	11.049
894.524	4.771
898.33	4.396
902.133	13.444
905.935	0.708
909.735	15.867
913.533	13.961
917.33	8.808
921.124	16.677
924.918	34.568
928.709	35.448
932.499	1.636
936.286	25.122
940.073	11.856
943.857	15.14
947.64	22.128
951.421	60.484
955.2	54.374
958.978	20.319
962.753	45.716
966.527	19.886
970.3	8.687
974.071	3.17
977.84	60.266
981.607	54.921
985.372	77.013
989.136	74.996
992.898	89.941
996.659	95.287
1000.42	88.438
1004.17	52.685
1007.93	140.596
1011.68	205.112
1015.43	124.914
1019.18	143.772
1022.93	184.727
1026.68	220.739
1030.42	241.813
1034.17	323.958
1037.91	364.157
1041.65	435.661
1045.39	494.956
1049.12	574.1
1052.86	541.381
1056.59	589.655
1060.33	678.31
1064.06	814.902
1067.78	1011.54
1071.51	1431.23
1075.23	1659.97
1078.96	2135.87
1082.68	3442.86
1086.4	7529.75
1090.12	24171
1093.83	52878.9
1097.55	30267
1101.26	9205.08
1104.97	3208.21
1108.68	1618.39
1112.39	949.622
1116.1	716.914
1119.8	517.258
1123.5	459.613
1127.2	302.047
1130.9	239.529
1134.6	195.534
1138.3	158.11
1141.99	158.721
1145.69	144.794
1149.38	115.298
1153.07	119.252
1156.76	49.408
1160.44	51.126
1164.13	47.084
1167.81	59.21
1171.49	74.032
1175.17	53.156
1178.85	28.673
1182.52	77.951
1186.2	66.151
1189.87	25.085
1193.54	46.158
1197.21	48.185
1200.88	63.616
1204.55	17.999
1208.21	25.185
1211.88	59.226
1215.54	24.077
1219.2	8.04
1222.86	38.121
1226.51	7.382
1230.17	59.875
1233.82	53.284
1237.47	35.513
1241.12	0.577
1244.77	60.697
1248.42	8.655
1252.06	3.62
1255.71	49.588
1259.35	15.561
1262.99	50.527
1266.63	65.482
1270.26	53.51
1273.9	52.275
1277.53	38.703
1281.16	34.812
1284.8	20.452
1288.42	5.963
1292.05	52.575
1295.68	8.016
1299.3	27.361
1302.92	24.657
1306.55	31.872
1310.16	4.987
1313.78	35.93
1317.4	14.031
1321.01	25.058
1324.62	43.769
1328.24	60.528
1331.85	42.216
1335.45	45.227
1339.06	13.424
1342.66	10.028
1346.27	16.544
1349.87	11.031
1353.47	48.291
1357.07	33.642
1360.66	43.141
1364.26	37.632
1367.85	84.841
1371.44	63.675
1375.04	39.922
1378.62	23.073
1382.21	22.098
1385.8	20.707
1389.38	67.147
1392.96	76.542
1396.54	111.897
1400.12	137.207
1403.7	100.913
1407.28	185.119
1410.85	186.463
1414.42	231.629
1417.99	273.744
1421.56	341.103
1425.13	428.273
1428.7	527.008
1432.26	678.955
1435.83	808.416
1439.39	909.816
1442.95	968.14
1446.51	726.118
1450.06	545.435
1453.62	346.495
1457.17	260.778
1460.73	228.156
1464.28	191.258
1467.83	118.987
1471.37	85.514
1474.92	82.145
1478.46	88.074
1482.01	68.06
1485.55	116.328
1489.09	81.712
1492.63	59.308
1496.16	25.953
1499.7	2.795
1503.23	27.95
1506.76	17.207
1510.29	25.51
1513.82	2.027
1517.35	17.755
1520.88	55.822
1524.4	10.767
