Measurement: Raman, 514 nm, ccw, Raman Data Processed
Mineral: Annite
Rruff sample: R060211
Ideal chemistry: KFe^2+^_3_AlSi_3_O_10_(OH)_2_
Locality: Mont Saint-Hilaire, Rouville County, Quebec, Canada
Source: Royal Ontario Museum
Description: Black mica
Measured chemistry: (K_0.94_[box]_0.03_Na_0.02_)_Σ=1_(Fe^2+^_2.07_Mg_0.57_Mn_0.33_Ti_0.03_)_Σ=3_(Si_2.98_Al_1.02_)O_10_((OH)_1.72_F_0.28_)_Σ=2_
Pin_id: L01834
Orientation: Laser parallel to b* (0 1 0). Fiducial mark perpendicular to laser is parallel to c [0 0 1]
Raman shift (cm-1)	intensity
230.849	0
234.512	5.52148
238.173	138.098
241.832	140.982
245.49	82.0527
249.147	211.912
252.802	271.463
256.455	88.3418
260.107	191.121
263.757	414.93
267.406	484.904
271.053	345.984
274.698	417.869
278.342	591.029
281.985	562.732
285.626	412.717
289.265	530.262
292.903	293.731
296.54	399.453
300.174	284.25
303.808	220.56
307.439	348.082
311.07	245.435
314.698	114.994
318.325	180.684
321.951	113.539
325.575	65.5176
329.198	19.5742
332.819	61.6074
336.438	201.562
340.056	237.481
343.673	28.8027
347.287	141.344
350.901	199.84
354.513	296.992
358.123	419.555
361.732	291.035
365.339	510.553
368.945	353.141
372.549	401.801
376.152	233.975
379.753	149.932
383.352	515.883
386.95	672.061
390.547	1203.82
394.142	765.91
397.735	812.695
401.327	958.104
404.918	871.523
408.507	645.305
412.094	930.115
415.68	693.668
419.265	863.887
422.847	481.031
426.429	563.629
430.009	515.523
433.587	632.019
437.164	422.09
440.739	468.209
444.313	305.406
447.885	196.496
451.456	258.231
455.025	113.498
458.593	86.791
462.159	11.8379
465.724	162.119
469.287	197.35
472.848	430.51
476.409	257.219
479.967	482.031
483.524	615.129
487.08	652.096
490.634	664.246
494.187	751.232
497.738	992.252
501.287	1218.02
504.835	976.871
508.382	1165.8
511.927	1468.81
515.47	1718.11
519.013	1536.04
522.553	1588.13
526.092	1948.22
529.63	1954.32
533.166	2238.44
536.7	2383.63
540.233	2397.98
543.765	2314.5
547.295	2255.31
550.823	2111.52
554.35	2024.97
557.876	1643.81
561.4	1625.99
564.922	1306.28
568.443	1218.17
571.963	912.789
575.481	695.4
578.998	312.586
582.513	262.844
586.026	22.1523
589.538	91.5508
593.049	139.727
596.558	15.75
600.065	139.125
603.571	124.824
607.076	6.93359
610.579	149.42
614.081	164.769
617.581	218.303
621.079	407.723
624.577	493.81
628.072	657.65
631.566	623.514
635.059	905.394
638.55	942.289
642.04	978.189
645.528	1184.09
649.015	1052
652.5	1698.9
655.984	2050.8
659.466	2561.69
662.947	3319.56
666.426	4425.44
669.904	5931.29
673.38	6549.14
676.855	6178.95
680.329	4934.65
683.8	4743.42
687.271	4500.56
690.74	4122.83
694.207	3817.36
697.673	3934
701.138	3861.02
704.601	4103.82
708.062	4307.18
711.522	4463.55
714.981	4500.17
718.438	4574.01
721.894	4337.98
725.348	4198.91
728.801	3744.22
732.252	3644.42
735.702	2865.57
739.15	2868.93
742.597	2753.52
746.042	2830.22
749.486	2821.81
752.928	3007.51
756.369	3207.09
759.809	3245.53
763.247	3663.83
766.683	3582
770.118	3807.04
773.552	3630.94
776.984	3266.71
780.414	3024.34
783.844	2714.84
787.271	2425.21
790.698	1910.44
794.122	1619.55
797.546	999.521
800.968	786.371
804.388	470.098
807.807	234.707
811.224	111.195
814.64	80.4336
818.055	110.305
821.468	46.1875
824.88	37.418
828.29	26.373
831.699	124.006
835.106	173.389
838.512	13.6289
841.916	1.46289
845.319	39.0527
848.72	5.07812
852.12	16.7031
855.519	31.3145
858.916	144.562
862.311	323.611
865.706	273.635
869.098	221.685
872.49	417.881
875.879	477.144
879.268	452.531
882.655	395.932
886.04	486.373
889.424	695.805
892.807	744.211
896.188	874.594
899.567	655.967
902.945	1085.36
906.322	1000.76
909.698	1124.78
913.071	1172.62
916.444	1183.1
919.815	1303.6
923.184	1417.12
926.552	1361.66
929.919	1476.35
933.284	2054.35
936.648	1657.62
940.01	1539.99
943.371	1686.44
946.731	1573.05
950.089	1818.78
953.445	1981.99
956.8	1736.08
960.154	1779.55
963.506	1693.1
966.857	1441.62
970.206	1466.12
973.554	1506.06
976.901	1706.4
980.246	1626.46
983.589	1757.7
986.931	1812.9
990.272	1788.1
993.611	1888.69
996.949	2122.65
1000.29	2238.83
1003.62	2534.27
1006.95	3116.97
1010.29	3496.94
1013.62	3559.12
1016.95	3958.98
1020.27	4117.55
1023.6	3888.31
1026.93	3804.27
1030.25	3406.41
1033.57	3032.6
1036.89	2699.01
1040.21	2693.47
1043.53	2597.49
1046.85	2508.83
1050.16	2548.14
1053.47	2386.77
1056.79	2323.45
1060.1	2269.44
1063.41	2168.42
1066.71	2174.62
1070.02	2229.19
1073.33	2211.51
1076.63	1771.84
1079.93	1776.65
1083.23	1434.11
1086.53	1663.67
1089.83	1627.68
1093.13	1229.88
1096.42	1147.98
1099.71	821.555
1103.01	818.033
1106.3	432.455
1109.59	620.738
1112.88	490.934
1116.16	504.82
1119.45	537.637
1122.73	477.574
1126.01	653.791
1129.29	282.059
1132.57	442.012
1135.85	151.473
1139.13	346.156
1142.4	412.393
1145.68	20.166
1148.95	45.5938
1152.22	301.514
1155.49	151.445
1158.76	146.949
1162.03	63.9258
1165.29	38.5273
1168.56	201.195
1171.82	43.6426
1175.08	18.1113
1178.34	117.617
1181.6	149.084
1184.85	143.721
1188.11	691.232
1191.36	79.7793
1194.62	236.152
1197.87	184.549
1201.12	58.5547
1204.37	12.8926
1207.61	42.1191
1210.86	10.8691
1214.1	140.014
1217.35	111.762
1220.59	149.455
1223.83	176.924
1227.07	137.516
1230.3	157.652
1233.54	109.643
1236.77	155.502
1240.01	282.234
1243.24	131.769
1246.47	291.152
1249.7	146.863
1252.93	94.3906
1256.15	207.727
1259.38	229.65
1262.6	309.023
1265.82	38.8008
1269.04	281.236
1272.26	113.301
1275.48	245.82
1278.7	221.418
1281.91	198.065
1285.12	255.197
1288.34	142.871
1291.55	133.773
1294.76	141.004
1297.96	305.006
1301.17	211.461
1304.38	131.471
1307.58	331.713
1310.78	335.578
1313.98	346.113
1317.18	181
1320.38	271.103
1323.58	402.566
1326.78	120.742
1329.97	34.332
1333.16	314.111
1336.35	296.615
1339.54	275.846
1342.73	276.754
1345.92	321.625
1349.11	109.162
1352.29	63.5156
1355.47	149.971
1358.66	299.285
1361.84	148.518
1365.02	22.8262
1368.19	455.266
1371.37	267.861
1374.54	250.965
1377.72	76.0137
1380.89	22.4453
1384.06	32.9336
1387.23	170.027
1390.4	243.332
1393.56	194.201
1396.73	265.393
1399.89	81.0527
1403.06	107.277
1406.22	35.4121
1409.38	70.1328
1412.54	76.2285
1415.69	337.906
1418.85	351.244
1422	220.699
1425.15	191.299
1428.31	149.654
1431.46	359.69
1434.61	46.6602
1437.75	118.127
1440.9	299.973
1444.04	350.154
1447.19	410.795
1450.33	383.713
1453.47	428.963
1456.61	409.381
1459.75	142.449
1462.88	137.205
1466.02	233.279
1469.15	280.559
1472.29	425.455
1475.42	2.42578
1478.55	183.768
1481.67	391.008
1484.8	231.496
1487.93	187.131
1491.05	220.666
1494.17	157.346
1497.3	360.139
1500.42	245.721
1503.54	229.533
1506.65	98.8906
1509.77	129.025
1512.88	288.49
1516	171.19
1519.11	269.615
1522.22	118.269
1525.33	229.432
1528.44	233.791
1531.54	285.594
1534.65	263.441
1537.75	268.826
1540.86	53.8809
1543.96	114.545
1547.06	303.412
1550.15	342.26
1553.25	594.852
1556.35	221.557
1559.44	453.221
1562.54	211.938
1565.63	331.535
1568.72	319.777
