Measurement: Raman, 514 nm, ccw, Raman Data Processed
Mineral: Annite
Rruff sample: R060204
Ideal chemistry: KFe^2+^_3_AlSi_3_O_10_(OH)_2_
Locality: Mont Saint-Hilaire, Rouville County, Quebec, Canada
Source: Royal Ontario Museum
Description: Black mica with pseudohexagonal outines
Measured chemistry: (K_0.96_Na_0.04_)_Σ=1_(Fe^2+^_2.04_Mg_0.81_Mn_0.09_Ti_0.03_[box]_0.03_)_Σ=3_(Si_3.00_Al_1.00_)O_10_((OH)_1.54_F_0.46_)_Σ=2_
Pin_id: M00366
Orientation: Laser parallel to -b* (0 -1 0). Fiducial mark perpendicular to laser is parallel to c [0 0 1]
Raman shift (cm-1)	intensity
235.633	0
239.282	34.9004
242.93	128.932
246.577	178.26
250.222	54.1562
253.866	343.789
257.508	598.191
261.149	830.356
264.789	892.643
268.427	848.717
272.064	900.363
275.7	1293.27
279.334	932.637
282.967	647.338
286.598	321.838
290.229	562.883
293.857	757.408
297.485	1034.15
301.111	681.021
304.735	362.451
308.358	142.842
311.98	1.40625
315.601	18.9668
319.22	19.9961
322.837	85.6797
326.454	71.0606
330.068	54.5918
333.682	272.238
337.294	236.084
340.905	284.215
344.514	501.504
348.122	470.818
351.729	616.543
355.334	633.729
358.938	838.559
362.54	1002.66
366.141	1254.38
369.741	1755.57
373.339	1788.67
376.936	2259.72
380.531	2836.16
384.126	3636.71
387.718	4215.69
391.31	4676.69
394.9	4769.43
398.488	4389.27
402.075	3280.58
405.661	2349.24
409.245	1651.28
412.828	1160.75
416.41	681.729
419.99	192.019
423.569	148.588
427.146	212.279
430.722	346.141
434.297	38.248
437.87	90.8809
441.442	47.8457
445.012	31.1816
448.581	305.15
452.149	639.641
455.715	684.314
459.28	1156.55
462.843	1861.59
466.405	2956.84
469.965	4811.31
473.525	7140.02
477.082	10165.8
480.639	11606
484.194	10481.5
487.747	8178.1
491.3	6050.46
494.85	4675.51
498.4	4142.18
501.948	3888.99
505.494	3935.45
509.039	4082.06
512.583	3817.82
516.125	3259.74
519.666	2927.39
523.206	2441.04
526.744	1968.25
530.281	1650.47
533.816	1182.79
537.35	1054.56
540.882	817.766
544.413	801.152
547.943	657.721
551.471	789.385
554.998	512.338
558.523	375.572
562.047	522.104
565.57	723.473
569.091	398.225
572.611	280.383
576.129	151.166
579.646	263.84
583.162	81.3731
586.676	109.875
590.188	51.2148
593.7	211.295
597.209	602.631
600.718	1005.17
604.225	1165.12
607.73	1531.32
611.235	1862.81
614.737	2739.56
618.239	3674.5
621.739	4554.62
625.237	5947.91
628.734	6805.41
632.23	7951.04
635.724	8067.76
639.217	7648.56
642.708	6596.42
646.198	5894.33
649.687	5419.5
653.174	5459
656.66	5659.19
660.144	6043.77
663.627	6985.43
667.108	8155.72
670.588	9166.95
674.067	10307.5
677.544	11329.2
681.02	11768.4
684.494	11345.3
687.967	10538.5
691.438	9523.39
694.908	8223.28
698.377	6359.86
701.844	4717.32
705.31	3974.07
708.774	3214.98
712.237	2953.66
715.698	2649.59
719.158	2131.51
722.617	1916.9
726.074	1673.46
729.53	1449.62
732.984	1163.47
736.437	944.106
739.888	1015.28
743.338	702.891
746.787	722.771
750.234	686.238
753.68	620.398
757.124	569.506
760.567	736.525
764.008	754.709
767.448	812.986
770.887	924.438
774.324	857.094
777.759	605.189
781.194	773.984
784.626	493.414
788.058	459.754
791.488	456.004
794.916	462.654
798.343	353.693
801.769	250.082
805.193	89.7695
808.616	14.2695
812.037	274.328
815.457	45.1875
818.875	70.3281
822.292	22.4414
825.707	87.2676
829.122	24.1367
832.534	99.6914
835.945	134.904
839.355	83.7871
842.763	141.062
846.17	39.084
849.576	183.037
852.98	139.246
856.382	28.3945
859.783	22.8477
863.183	12.1406
866.581	62.7578
869.978	148.707
873.373	256.727
876.767	314.809
880.159	65.8945
883.55	314.074
886.94	10.3672
890.328	269.769
893.714	97.3828
897.1	139.195
900.483	48.1875
903.866	229.871
907.246	274.769
910.626	707.059
914.004	529.719
917.38	809.688
920.755	452.984
924.129	547.203
927.501	763.211
930.872	714.777
934.241	924.801
937.609	1048.52
940.975	1004.6
944.34	607.773
947.703	1123.64
951.065	900.438
954.426	1120.18
957.785	929.289
961.142	987.75
964.499	951.383
967.853	972.266
971.207	1100.91
974.558	1216.41
977.909	1241.95
981.258	1345.04
984.605	2089.66
987.951	2045.64
991.295	1637.95
994.639	1781.01
997.98	2079.33
1001.32	2371.68
1004.66	2599.23
1008	3056.13
1011.33	3571.56
1014.67	4060.36
1018	4192
1021.33	4510.27
1024.66	4581.21
1027.99	4334.07
1031.32	4214.68
1034.64	3647.04
1037.97	3234.44
1041.29	3000.33
1044.61	2807.39
1047.93	2943.22
1051.25	2734.39
1054.56	2894.59
1057.88	2711.13
1061.19	2653.68
1064.51	2636.01
1067.82	2624.49
1071.13	2704.78
1074.43	2746.22
1077.74	2709.45
1081.05	2854.63
1084.35	2599.28
1087.65	2571.3
1090.95	2648.88
1094.25	2537.27
1097.55	2324.89
1100.85	2349.65
1104.14	2292.34
1107.43	2263.98
1110.73	1873.1
1114.02	1936.37
1117.31	1719.05
1120.59	1754.77
1123.88	1828.99
1127.16	1348.35
1130.45	1128.15
1133.73	970.012
1137.01	915.523
1140.29	721.215
1143.57	415.539
1146.84	270.398
1150.12	192.129
1153.39	125.211
1156.66	136.609
1159.93	32.9219
1163.2	184.859
1166.46	34.1641
1169.73	58.1289
1172.99	142.856
1176.26	18.7539
1179.52	140.211
1182.78	87.5312
1186.04	171.305
1189.29	73.6367
1192.55	176.555
1195.8	187.344
1199.05	92.75
1202.31	123.863
1205.55	125.172
1208.8	286.426
1212.05	116.832
1215.29	342.117
1218.54	151.359
1221.78	245.441
1225.02	295.566
1228.26	379.648
1231.5	355.629
1234.73	507.508
1237.97	341.481
1241.2	499.387
1244.43	379.34
1247.66	493.293
1250.89	279.328
1254.12	434.332
1257.34	427.328
1260.57	310.184
1263.79	534.91
1267.01	426.504
1270.23	317.961
1273.45	471.266
1276.67	237.406
1279.88	93.2109
1283.1	486.574
1286.31	663.973
1289.52	848.707
1292.73	953.363
1295.94	960.551
1299.14	987.586
1302.35	1029.87
1305.55	1128.25
1308.75	1176.44
1311.95	937.894
1315.15	1025.95
1318.35	1271.67
1321.55	1237.82
1324.74	1100.57
1327.94	1044.03
1331.13	1717.06
1334.32	1511.29
1337.51	1592.43
1340.69	1408.91
1343.88	1150.72
1347.06	1301.06
1350.25	1236.88
1353.43	1288.88
1356.61	1407.92
1359.79	1252.73
1362.96	1315.56
1366.14	1312.79
1369.31	1401.36
1372.49	1265.74
1375.66	1348.41
1378.83	1143.19
1381.99	1399.62
1385.16	793.469
1388.33	813.367
1391.49	727.922
1394.65	999.875
1397.81	775.543
1400.97	779.555
1404.13	886.043
1407.29	583.719
1410.44	638.981
1413.59	530.613
1416.74	390.57
1419.89	212.106
1423.04	657.125
1426.19	762.836
1429.34	610.387
1432.48	387.789
1435.62	362.008
1438.77	572.117
1441.9	662.438
1445.04	471.848
1448.18	95.0078
1451.32	202.93
1454.45	309.031
1457.58	165.312
1460.71	178.477
1463.84	164.203
1466.97	63.6953
1470.1	218.707
1473.22	61.2891
1476.35	44.2461
1479.47	312.996
1482.59	342.539
1485.71	131.547
1488.83	181.254
1491.94	293.441
1495.06	85.0859
1498.17	122.496
1501.28	30.7578
1504.39	300.648
1507.5	492.773
1510.61	559.062
1513.71	378.469
1516.82	382.301
1519.92	529.992
1523.02	739.461
1526.12	648.32
1529.22	771.414
1532.31	805.273
1535.41	553.277
1538.5	394.965
1541.6	294.43
1544.69	341.41
1547.78	322.188
1550.86	649.66
1553.95	463.832
1557.03	354.352
1560.12	275.562
1563.2	75.3984
1566.28	21.0234
1569.36	1.90234
