Measurement: Raman, 514 nm, ccw, Raman Data Processed
Mineral: Annite
Rruff sample: R060204
Ideal chemistry: KFe^2+^_3_AlSi_3_O_10_(OH)_2_
Locality: Mont Saint-Hilaire, Rouville County, Quebec, Canada
Source: Royal Ontario Museum
Description: Black mica with pseudohexagonal outines
Measured chemistry: (K_0.96_Na_0.04_)_Σ=1_(Fe^2+^_2.04_Mg_0.81_Mn_0.09_Ti_0.03_[box]_0.03_)_Σ=3_(Si_3.00_Al_1.00_)O_10_((OH)_1.54_F_0.46_)_Σ=2_
Pin_id: M00140
Orientation: Laser parallel to c* (0 0 1). Fiducial mark perpendicular to laser is parallel to -a [-1 0 0]
Raman shift (cm-1)	intensity
307.151	0
310.773	839.918
314.394	226.305
318.013	171.223
321.631	51.8672
325.248	135.641
328.864	65.582
332.478	671.957
336.09	262.586
339.701	594.43
343.311	669.894
346.92	422.758
350.527	614.258
354.132	889.773
357.737	735.012
361.34	1015.82
364.941	813.465
368.541	698.957
372.14	927.988
375.737	963.559
379.333	1044.37
382.928	1016.84
386.521	1037.17
390.113	1007.28
393.703	832.57
397.292	816.266
400.88	856.863
404.466	712.238
408.051	943.984
411.634	1046.69
415.216	545.344
418.797	722.887
422.376	319.305
425.954	442.629
429.53	232.875
433.105	194.055
436.679	195.344
440.251	62.418
443.822	151.191
447.391	57.9844
450.96	51.6758
454.526	82.5156
458.091	25.375
461.655	339.102
465.218	4.35156
468.779	306.457
472.338	531.598
475.897	765.68
479.454	785.32
483.009	1120.44
486.563	1369.04
490.116	1590.31
493.667	1390.25
497.217	2027.59
500.765	1874.16
504.312	1766.13
507.858	1790.81
511.402	2022.11
514.945	1881.09
518.486	2129.63
522.026	2315.58
525.565	2422.87
529.102	2618.25
532.638	2606.28
536.172	2936.04
539.705	2845.57
543.236	2821.92
546.766	2784.98
550.295	2710.8
553.822	2804.42
557.348	2483.99
560.873	2382.81
564.396	2090.97
567.917	1633.29
571.438	1551.79
574.957	805.027
578.474	384.066
581.99	531.016
585.504	163.688
589.018	194.469
592.529	83.5898
596.04	136.344
599.549	101.656
603.056	146.91
606.562	167.356
610.067	394.012
613.57	271.231
617.072	404.371
620.572	443.504
624.071	401.254
627.569	916.602
631.065	566.551
634.56	1104.09
638.053	999.199
641.545	1089.89
645.035	1130.13
648.524	1317.94
652.012	1978.28
655.498	2078.93
658.983	2912.58
662.466	3609.53
665.948	4497
669.428	5487.99
672.907	6002.49
676.385	5861
679.861	6145.31
683.336	5117.32
686.809	4090.12
690.281	4480.19
693.752	4643.75
697.221	5715.31
700.688	6291.56
704.155	7988.4
707.619	8557.47
711.083	9266.82
714.545	9904.07
718.005	10041.3
721.464	10036.6
724.922	9137.74
728.378	8426.41
731.833	7382.73
735.286	6593.68
738.738	5705.84
742.189	5363.58
745.638	4997.56
749.085	5154.71
752.531	5207.02
755.976	5371.46
759.419	5773.03
762.861	6288.74
766.302	6057.56
769.741	6270.49
773.178	5512.09
776.614	5054.65
780.049	4726.86
783.482	3791.16
786.914	3438.52
790.345	2524.95
793.773	2059.45
797.201	1631.48
800.627	1245.58
804.052	825.219
807.475	547.269
810.897	414.598
814.317	138.285
817.736	403.812
821.153	176.176
824.569	143.496
827.984	104.594
831.397	388.434
834.808	288.449
838.219	285.68
841.627	278.141
845.035	387.68
848.441	37.1875
851.845	8.84375
855.248	27.0625
858.65	160.371
862.05	160.234
865.448	194.023
868.846	278.832
872.241	186.676
875.636	172.523
879.029	490.441
882.42	547.363
885.81	633.168
889.199	774.199
892.586	834.129
895.971	1317.06
899.356	921.008
902.738	1027.96
906.12	1469.94
909.5	1313.94
912.878	1276.96
916.255	1678
919.63	1595.08
923.004	1389.21
926.377	1672.41
929.748	1609.68
933.118	1505.07
936.486	1625.62
939.853	1644.21
943.218	1849.96
946.582	2046.1
949.945	1642.94
953.306	1657.56
956.665	1693.04
960.023	1666.41
963.38	1288.88
966.735	1316.36
970.089	1455.51
973.441	1256.87
976.792	1091.64
980.141	1337.93
983.489	1438.5
986.836	1274.89
990.181	1134.06
993.524	1310.86
996.866	1416.23
1000.21	1267.81
1003.55	1178.69
1006.88	1641.88
1010.22	1132.88
1013.55	1478.67
1016.89	1732.77
1020.22	1925.19
1023.55	1774.91
1026.88	1486.98
1030.21	2094.37
1033.53	1914.09
1036.86	1928.12
1040.18	2016.48
1043.5	1906.16
1046.82	1824.18
1050.14	1761.53
1053.46	2228.78
1056.78	2233.14
1060.09	2065.62
1063.4	2061.74
1066.71	2142.41
1070.02	2122.9
1073.33	1972.95
1076.64	2094.26
1079.94	2781.47
1083.25	2015.28
1086.55	2092.33
1089.85	1992.85
1093.15	1793.16
1096.45	1538.41
1099.75	1315.81
1103.04	1512.38
1106.34	964.168
1109.63	1177.55
1112.92	1226.33
1116.21	1221.31
1119.5	1486.6
1122.78	1422.8
1126.07	1159.12
1129.35	1097.62
1132.63	906.391
1135.92	747.356
1139.19	530.254
1142.47	409.273
1145.75	576.43
1149.02	467.496
1152.3	250.059
1155.57	226.406
1158.84	76.9102
1162.11	710.582
1165.38	394.922
1168.64	269.414
1171.91	131.371
1175.17	291.195
1178.43	117.664
1181.69	283.879
1184.95	83.1211
1188.21	105.758
1191.46	77.4922
1194.72	153.641
1197.97	28.6523
1201.22	243.231
1204.47	91.3672
1207.72	18.8438
1210.97	33.2852
1214.21	45.5898
1217.46	59.6484
1220.7	88.5312
1223.94	73.4688
1227.18	156.844
1230.42	240.211
1233.65	163.348
1236.89	65.9492
1240.12	62.4648
1243.35	29.8633
1246.59	85.5195
1249.81	106.043
1253.04	262.949
1256.27	38.3125
1259.49	164.512
1262.72	9.51562
1265.94	65.3594
1269.16	77.5273
1272.38	245.457
1275.59	186.875
1278.81	140.559
1282.03	168.16
1285.24	75.2773
1288.45	46.0312
1291.66	217.477
1294.87	177.211
1298.08	367.828
1301.28	276.406
1304.48	75.2305
1307.69	202.84
1310.89	217.035
1314.09	97.418
1317.29	198.324
1320.48	389.773
1323.68	358.406
1326.87	272.715
1330.06	157.731
1333.26	367.82
1336.44	198.078
1339.63	281.809
1342.82	111.305
1346	172.691
1349.19	237.219
1352.37	163.996
1355.55	297.856
1358.73	58.5195
1361.9	162.574
1365.08	610.289
1368.26	887.699
1371.43	403.57
1374.6	314.695
1377.77	361.949
1380.94	181.988
1384.11	151.523
1387.27	265.215
1390.43	129.039
1393.6	201.254
1396.76	136.356
1399.92	551.422
1403.08	440.363
1406.23	495.102
1409.39	461.625
1412.54	462.543
1415.69	423.703
1418.85	457.219
1421.99	291.969
1425.14	277.344
1428.29	278.336
1431.43	637.113
1434.58	517.234
1437.72	658.785
1440.86	311.805
1444	545.981
1447.13	362.484
1450.27	413.023
1453.4	452.609
1456.54	458.922
1459.67	265.328
1462.8	198.449
1465.93	610.09
1469.06	415.566
1472.18	490.824
1475.31	599.125
1478.43	78.4961
1481.55	440.863
1484.67	605.574
1487.79	639.902
1490.9	415.637
1494.02	293.387
1497.13	176.457
1500.24	183.898
1503.35	526.555
1506.46	532.309
1509.57	145.227
1512.68	447.129
1515.78	399.703
1518.88	215.703
1521.99	243.828
1525.09	557.789
1528.18	333.312
1531.28	36.1953
1534.38	81.8672
1537.47	237.242
1540.56	73.4766
1543.66	2.90625
1546.74	264.09
1549.83	314.57
1552.92	316.769
1556.01	282.547
1559.09	275.367
1562.17	238.938
1565.25	54.5117
1568.33	4.80859
