Measurement: Raman, 514 nm, ccw, Raman Data Processed
Mineral: Annite
Rruff sample: R060211
Ideal chemistry: KFe^2+^_3_AlSi_3_O_10_(OH)_2_
Locality: Mont Saint-Hilaire, Rouville County, Quebec, Canada
Source: Royal Ontario Museum
Description: Black mica
Measured chemistry: (K_0.94_[box]_0.03_Na_0.02_)_Σ=1_(Fe^2+^_2.07_Mg_0.57_Mn_0.33_Ti_0.03_)_Σ=3_(Si_2.98_Al_1.02_)O_10_((OH)_1.72_F_0.28_)_Σ=2_
Pin_id: L00722
Orientation: Laser parallel to a* (1 0 0). Fiducial mark perpendicular to laser is parallel to b [0 1 0]
Raman shift (cm-1)	intensity
230.765	0
234.416	4.59668
238.066	18.0811
241.714	239.473
245.361	50.0664
249.007	38.7109
252.651	100.378
256.294	43.7978
259.936	400.025
263.576	303.541
267.215	389.298
270.852	582.192
274.488	430.673
278.123	429.955
281.756	50.752
285.388	225.901
289.019	147.333
292.648	179.204
296.276	178.978
299.902	100.487
303.527	40.919
307.151	172.941
310.773	24.8066
314.394	64.5039
318.013	31.0215
321.631	41.2324
325.248	27.2305
328.864	47.043
332.478	201.84
336.09	167.269
339.701	292.707
343.311	364.356
346.92	362.969
350.527	215.84
354.132	253.012
357.737	267.088
361.34	468.068
364.941	583.957
368.541	632.76
372.14	995.498
375.737	987.643
379.333	1544.03
382.928	1620.46
386.521	1858.74
390.113	2004.77
393.703	1867.55
397.292	1633.84
400.88	1334.98
404.466	1083.77
408.051	703.273
411.634	664.426
415.216	443.869
418.797	224.662
422.376	54.3574
425.954	109.481
429.53	94.6523
433.105	38.4219
436.679	20.0879
440.251	45.6211
443.822	96.2637
447.391	80.2969
450.96	52.2715
454.526	53.2754
458.091	72.9492
461.655	41.5879
465.218	64.3945
468.779	181.619
472.338	183.596
475.897	144.031
479.454	216.807
483.009	167.092
486.563	303.375
490.116	515.643
493.667	795.84
497.217	963.066
500.765	1220.35
504.312	1455.69
507.858	1578.09
511.402	1656.56
514.945	1318.09
518.486	1211.71
522.026	957.379
525.565	996.09
529.102	798.84
532.638	815.562
536.172	661.342
539.705	439.359
543.236	611.475
546.766	577.607
550.295	441.777
553.822	159.006
557.348	336.272
560.873	310.606
564.396	230.492
567.917	222.185
571.438	156.672
574.957	207.688
578.474	286.391
581.99	151.283
585.504	110.152
589.018	243.898
592.529	407.891
596.04	598.389
599.549	814.51
603.056	837.676
606.562	1040.35
610.067	1495.36
613.57	1690.59
617.072	2352.99
620.572	2803.52
624.071	3310.48
627.569	4186.08
631.065	4118.95
634.56	4088.81
638.053	3912
641.545	3642.23
645.035	3387.95
648.524	2936.27
652.012	3561.04
655.498	3638.57
658.983	3941.33
662.466	4263.79
665.948	4351.97
669.428	4426.07
672.907	4251.61
676.385	3919.12
679.861	3868.27
683.336	3691.66
686.809	3224.45
690.281	2734.65
693.752	2372.25
697.221	2544.04
700.688	2180.07
704.155	1758.26
707.619	1699.67
711.083	1605.96
714.545	1149.5
718.005	1060.93
721.464	934.402
724.922	738.381
728.378	864.84
731.833	564.836
735.286	595.918
738.738	677.344
742.189	418.176
745.638	340.647
749.085	484.086
752.531	475.994
755.976	262.432
759.419	223.438
762.861	314.324
766.302	247.9
769.741	191.541
773.178	189.459
776.614	481.205
780.049	74.8477
783.482	259.467
786.914	193.394
790.345	101.137
793.773	281.478
797.201	43.7793
800.627	54.6113
804.052	244.998
807.475	119.154
810.897	94.1016
814.317	63.0879
817.736	46.0371
821.153	54.6309
824.569	35.7344
827.984	262.291
831.397	79.3106
834.808	8.16797
838.219	44.6934
841.627	134
845.035	61.8047
848.441	68.1894
851.845	67.8594
855.248	124.412
858.65	22.9766
862.05	30.041
865.448	72.1543
868.846	27.6699
872.241	319.588
875.636	190.353
879.029	99.0059
882.42	115.492
885.81	73.4062
889.199	97.7676
892.586	260.119
895.971	329.549
899.356	140.818
902.738	292.594
906.12	365.201
909.5	292.611
912.878	368.44
916.255	311.856
919.63	256.9
923.004	330.914
926.377	496.893
929.748	371.619
933.118	425.465
936.486	855.961
939.853	541.512
943.218	369.695
946.582	711.783
949.945	735.967
953.306	598.748
956.665	625.258
960.023	727.742
963.38	864.281
966.735	882.277
970.089	827.209
973.441	979.166
976.792	1219.17
980.141	1622.01
983.489	1797
986.836	1781.23
990.181	1657.49
993.524	1665.08
996.866	1724.86
1000.21	2227.37
1003.55	2505.37
1006.88	2787.42
1010.22	2695.14
1013.55	3085.49
1016.89	3178.28
1020.22	3176.03
1023.55	2717.53
1026.88	2375.69
1030.21	2322.92
1033.53	2053.88
1036.86	1448.56
1040.18	1416.54
1043.5	1340.2
1046.82	1225.92
1050.14	904.941
1053.46	1089.92
1056.78	1029.35
1060.09	748.453
1063.4	705.465
1066.71	772.254
1070.02	851.541
1073.33	712.971
1076.64	684.752
1079.94	585.502
1083.25	502.836
1086.55	472.164
1089.85	347.683
1093.15	364.647
1096.45	287.003
1099.75	231.604
1103.04	33.9004
1106.34	64.9414
1109.63	197.801
1112.92	151.945
1116.21	13.6152
1119.5	45.8945
1122.78	151.935
1126.07	234.935
1129.35	46.7969
1132.63	50.5391
1135.92	74.1504
1139.19	78.5938
1142.47	16.8398
1145.75	46.8457
1149.02	197.35
1152.3	61.0293
1155.57	33.0527
1158.84	84.0039
1162.11	141.603
1165.38	142.039
1168.64	49.6836
1171.91	113.309
1175.17	14.0957
1178.43	164.68
1181.69	6.01367
1184.95	49.0547
1188.21	349.953
1191.46	205.555
1194.72	89.0742
1197.97	186.447
1201.22	399.658
1204.47	265.725
1207.72	161.668
1210.97	16.5332
1214.21	273.543
1217.46	261.725
1220.7	184.897
1223.94	127.09
1227.18	271.574
1230.42	287.062
1233.65	114.062
1236.89	190.797
1240.12	192.832
1243.35	502.41
1246.59	515.617
1249.81	36.668
1253.04	263.43
1256.27	520.844
1259.49	667.133
1262.72	473.644
1265.94	436.394
1269.16	695.586
1272.38	619.629
1275.59	466.477
1278.81	454.809
1282.03	838.344
1285.24	923.453
1288.45	660.914
1291.66	527.769
1294.87	732.879
1298.08	832.633
1301.28	667.543
1304.48	790.402
1307.69	873.133
1310.89	1129.34
1314.09	784.82
1317.29	890.473
1320.48	777.848
1323.68	1125.67
1326.87	1013.55
1330.06	1320.42
1333.26	1132.79
1336.44	1186.93
1339.63	1105.79
1342.82	934.551
1346	920.18
1349.19	1253.01
1352.37	1464.52
1355.55	1295.12
1358.73	1367.11
1361.9	1174.72
1365.08	1494.14
1368.26	903.598
1371.43	1331.57
1374.6	1120.78
1377.77	1386.87
1380.94	1463.59
1384.11	1124.12
1387.27	1070.02
1390.43	1150.41
1393.6	832.117
1396.76	812.707
1399.92	681.035
1403.08	722.172
1406.23	963.356
1409.39	540.766
1412.54	642.496
1415.69	729.469
1418.85	592.812
1421.99	526.871
1425.14	354.176
1428.29	504.106
1431.43	706.648
1434.58	386.773
1437.72	177.898
1440.86	193.074
1444	428.379
1447.13	201.512
1450.27	85.9648
1453.4	145.961
1456.54	134.785
1459.67	216.496
1462.8	159.281
1465.93	197.711
1469.06	29.2891
1472.18	28.2188
1475.31	89.918
1478.43	154.371
1481.55	65.0391
1484.67	109.977
1487.79	87.5625
1490.9	119.07
1494.02	55.2734
1497.13	264.352
1500.24	223.867
1503.35	137.102
1506.46	19.7852
1509.57	210.902
1512.68	234.324
1515.78	269.469
1518.88	209.168
1521.99	356.516
1525.09	622.981
1528.18	350.41
1531.28	339.402
1534.38	262.047
1537.47	478.195
1540.56	96.0664
1543.66	227.394
1546.74	436.422
1549.83	233.289
1552.92	227.156
1556.01	399.172
1559.09	107.656
1562.17	398.613
1565.25	49.7383
1568.33	161.812
1571.41	0
