Measurement: Raman, 514 nm, ccw, Raman Data Processed
Mineral: Annite
Rruff sample: R060204
Ideal chemistry: KFe^2+^_3_AlSi_3_O_10_(OH)_2_
Locality: Mont Saint-Hilaire, Rouville County, Quebec, Canada
Source: Royal Ontario Museum
Description: Black mica with pseudohexagonal outines
Measured chemistry: (K_0.96_Na_0.04_)_Σ=1_(Fe^2+^_2.04_Mg_0.81_Mn_0.09_Ti_0.03_[box]_0.03_)_Σ=3_(Si_3.00_Al_1.00_)O_10_((OH)_1.54_F_0.46_)_Σ=2_
Pin_id: M00078
Orientation: Laser parallel to a* (1 0 0). Fiducial mark perpendicular to laser is parallel to -b [0 -1 0]
Raman shift (cm-1)	intensity
307.151	0
310.773	3.99609
314.394	121.723
318.013	13.8828
321.631	186.688
325.248	296.221
328.864	259.494
332.478	189.889
336.09	211.809
339.701	309.836
343.311	290.008
346.92	355.758
350.527	617.867
354.132	516.154
357.737	404.541
361.34	923.055
364.941	892.467
368.541	605.615
372.14	725.467
375.737	920.508
379.333	1163.93
382.928	1334.78
386.521	1381.54
390.113	1326.01
393.703	1460.2
397.292	1768.17
400.88	1850.85
404.466	1495.17
408.051	1300.1
411.634	1178.6
415.216	1042.64
418.797	980.115
422.376	679.938
425.954	579.117
429.53	439.705
433.105	216.762
436.679	194.363
440.251	43.3809
443.822	119.031
447.391	117.291
450.96	52.5039
454.526	241.272
458.091	24.7539
461.655	114.072
465.218	10.6953
468.779	84.9805
472.338	183.953
475.897	563.193
479.454	573.686
483.009	737.379
486.563	871.35
490.116	1147.41
493.667	1416.49
497.217	1425.65
500.765	1664.93
504.312	1734.39
507.858	2245.05
511.402	2337.94
514.945	2508.09
518.486	2503.36
522.026	2658.05
525.565	2836.1
529.102	2533.56
532.638	2891.02
536.172	2620.9
539.705	2786.22
543.236	2832.04
546.766	2654.57
550.295	2548.96
553.822	2694.01
557.348	2479.09
560.873	2275.5
564.396	2117.03
567.917	1779.42
571.438	1583.61
574.957	1216.6
578.474	1142.27
581.99	840.715
585.504	681.34
589.018	541.902
592.529	441.805
596.04	694.715
599.549	441.387
603.056	467.102
606.562	587.367
610.067	418.84
613.57	840.906
617.072	650.188
620.572	970.766
624.071	1264.64
627.569	1382.8
631.065	1650.24
634.56	1961.96
638.053	1901.96
641.545	1738.23
645.035	1861.76
648.524	1978.55
652.012	1785.59
655.498	1992.87
658.983	1975.39
662.466	2190.14
665.948	2583.13
669.428	3024.38
672.907	3074.86
676.385	3735.13
679.861	3975.06
683.336	4146.12
686.809	3760.49
690.281	3770.55
693.752	3665.24
697.221	3651.07
700.688	3705.31
704.155	3833.28
707.619	4569.88
711.083	5070.24
714.545	4319.35
718.005	4630.48
721.464	4433.44
724.922	4227.99
728.378	3998.45
731.833	3669.23
735.286	3401.41
738.738	3398.32
742.189	3316.07
745.638	3252.77
749.085	3699.05
752.531	3627.86
755.976	3757.76
759.419	3757.44
762.861	3787.08
766.302	3748.5
769.741	3725.62
773.178	3594.49
776.614	3518.09
780.049	3116.41
783.482	2885.45
786.914	2261.19
790.345	1796.63
793.773	1501.76
797.201	1299.57
800.627	1120.06
804.052	604.211
807.475	552.027
810.897	440.5
814.317	190.609
817.736	218.324
821.153	177.609
824.569	34.6875
827.984	200.805
831.397	223
834.808	90.9219
838.219	82.4883
841.627	64.8906
845.035	119.227
848.441	29.7617
851.845	69.4805
855.248	68.1758
858.65	142.715
862.05	136.789
865.448	184.777
868.846	208.195
872.241	67.0703
875.636	1.43359
879.029	0.1875
882.42	500.344
885.81	367.023
889.199	708.242
892.586	560.012
895.971	748.34
899.356	766.242
902.738	719.715
906.12	845.758
909.5	863.387
912.878	918.695
916.255	1180.64
919.63	1082.29
923.004	1246.51
926.377	1377.31
929.748	1038.85
933.118	1269.2
936.486	1359.37
939.853	1546.25
943.218	1396.7
946.582	1335.02
949.945	1450.9
953.306	1185.56
956.665	1127.07
960.023	1019.65
963.38	1249.99
966.735	946.566
970.089	1085.56
973.441	973.047
976.792	1100.09
980.141	1139.63
983.489	1056.74
986.836	1120.82
990.181	910.273
993.524	851.922
996.866	1114.89
1000.21	813.859
1003.55	803.328
1006.88	638.176
1010.22	719.059
1013.55	896.586
1016.89	501.609
1020.22	841.797
1023.55	698.641
1026.88	642.481
1030.21	928.871
1033.53	1000.09
1036.86	1076.56
1040.18	1073.87
1043.5	785.418
1046.82	1023.12
1050.14	1031.91
1053.46	1090.25
1056.78	1194.84
1060.09	1117.89
1063.4	1230.72
1066.71	1317.73
1070.02	897.102
1073.33	1162.31
1076.64	939.445
1079.94	802.859
1083.25	1001.5
1086.55	984.453
1089.85	974
1093.15	911.281
1096.45	891.82
1099.75	834.121
1103.04	633.488
1106.34	588.707
1109.63	600.019
1112.92	585.867
1116.21	626.809
1119.5	332.785
1122.78	532.004
1126.07	440.996
1129.35	303.973
1132.63	527.496
1135.92	357.176
1139.19	210.957
1142.47	162.848
1145.75	314.062
1149.02	237.469
1152.3	48.5078
1155.57	306.352
1158.84	80.4492
1162.11	58.3398
1165.38	145.305
1168.64	131.57
1171.91	125.488
1175.17	67.0273
1178.43	51.4414
1181.69	217.816
1184.95	115.938
1188.21	108.148
1191.46	238.551
1194.72	46.3203
1197.97	365.051
1201.22	26.6797
1204.47	42.3477
1207.72	119.965
1210.97	190.707
1214.21	42.5781
1217.46	134.519
1220.7	88.4844
1223.94	235.547
1227.18	73.6797
1230.42	123.859
1233.65	197.031
1236.89	221.18
1240.12	47.3164
1243.35	452.387
1246.59	90.4062
1249.81	466.375
1253.04	394.293
1256.27	277.16
1259.49	161.961
1262.72	306.629
1265.94	488.414
1269.16	717.016
1272.38	597.516
1275.59	681.894
1278.81	311.148
1282.03	679.262
1285.24	406.219
1288.45	640.254
1291.66	540.461
1294.87	643.797
1298.08	617.57
1301.28	620.844
1304.48	711.109
1307.69	638.547
1310.89	810.492
1314.09	825.539
1317.29	879.184
1320.48	759.09
1323.68	834.676
1326.87	662.066
1330.06	859.644
1333.26	880.457
1336.44	756.188
1339.63	797.731
1342.82	908.008
1346	922.082
1349.19	1059.99
1352.37	834.668
1355.55	959.152
1358.73	799.734
1361.9	843.106
1365.08	849.805
1368.26	1009.96
1371.43	942.613
1374.6	888.949
1377.77	908.387
1380.94	807.805
1384.11	771.078
1387.27	935.246
1390.43	888.453
1393.6	611.699
1396.76	913.289
1399.92	538.426
1403.08	618.32
1406.23	436.699
1409.39	713.375
1412.54	320.805
1415.69	346.41
1418.85	353.688
1421.99	316.098
1425.14	465.883
1428.29	245.223
1431.43	234.535
1434.58	341.18
1437.72	139.199
1440.86	271.918
1444	378.152
1447.13	183.648
1450.27	57.0312
1453.4	11.9727
1456.54	154.691
1459.67	195.019
1462.8	122.711
1465.93	90.8828
1469.06	127.66
1472.18	458.977
1475.31	25.9023
1478.43	3.52344
1481.55	361.699
1484.67	235.832
1487.79	196.859
1490.9	500.34
1494.02	586.059
1497.13	678.535
1500.24	718.68
1503.35	797.356
1506.46	580.703
1509.57	549.766
1512.68	122.191
1515.78	70.5469
1518.88	194.289
1521.99	219.402
1525.09	279.906
1528.18	261.324
1531.28	355.894
1534.38	333.391
1537.47	263.356
1540.56	157.371
1543.66	413.746
1546.74	206.891
1549.83	83.4141
1552.92	310.312
1556.01	312.125
1559.09	326.57
1562.17	285.391
1565.25	301.113
1568.33	268.519
