Measurement: Raman, 514 nm, ccw, Raman Data Processed
Mineral: Annite
Rruff sample: R060204
Ideal chemistry: KFe^2+^_3_AlSi_3_O_10_(OH)_2_
Locality: Mont Saint-Hilaire, Rouville County, Quebec, Canada
Source: Royal Ontario Museum
Description: Black mica with pseudohexagonal outines
Measured chemistry: (K_0.96_Na_0.04_)_Σ=1_(Fe^2+^_2.04_Mg_0.81_Mn_0.09_Ti_0.03_[box]_0.03_)_Σ=3_(Si_3.00_Al_1.00_)O_10_((OH)_1.54_F_0.46_)_Σ=2_
Pin_id: L01689
Orientation: Laser parallel to (1 0 1). Fiducial mark perpendicular to laser is parallel to b [0 1 0]
Raman shift (cm-1)	intensity
230.849	0
234.512	197.42
238.173	144.908
241.832	564.623
245.49	3.81055
249.147	134.231
252.802	130.935
256.455	540.461
260.107	525.041
263.757	707.514
267.406	932.945
271.053	869.732
274.698	987.51
278.342	1113.16
281.985	856.027
285.626	661.414
289.265	351.418
292.903	158.256
296.54	23.877
300.174	69.4727
303.808	4.22461
307.439	51.4492
311.07	43.6406
314.698	75.75
318.325	16.7559
321.951	45.7891
325.575	80.1543
329.198	519.324
332.819	220.326
336.438	462.184
340.056	494.42
343.673	630.898
347.287	728.406
350.901	730.529
354.513	1129.09
358.123	1152.74
361.732	1005.46
365.339	1010.18
368.945	868.914
372.549	945.684
376.152	984.059
379.753	932.516
383.352	1093.85
386.95	1165.62
390.547	1137.74
394.142	1195.36
397.735	1285.88
401.327	1578.29
404.918	1555.61
408.507	1486.85
412.094	1427.93
415.68	1168.53
419.265	964.059
422.847	988.383
426.429	744.771
430.009	628.244
433.587	600.221
437.164	345.264
440.739	83.4609
444.313	199.078
447.885	65.2285
451.456	68.6699
455.025	153.129
458.593	58.5977
462.159	11.6875
465.724	17.9785
469.287	178.467
472.848	268.791
476.409	563.416
479.967	746.111
483.524	883.85
487.08	992.006
490.634	1143.35
494.187	1110.66
497.738	1257.12
501.287	1342.71
504.835	1207.4
508.382	1204.31
511.927	1475.32
515.47	1503.47
519.013	1524.75
522.553	1674.13
526.092	1529.59
529.63	1925.13
533.166	1879.76
536.7	1876.48
540.233	2089.29
543.765	2195.2
547.295	1926.27
550.823	1983.62
554.35	1695.4
557.876	1423.66
561.4	1012.69
564.922	1145.24
568.443	804.453
571.963	549.453
575.481	404.398
578.998	328.65
582.513	472.289
586.026	54.9473
589.538	111.869
593.049	17.1113
596.558	20.5527
600.065	46.5117
603.571	50.0742
607.076	337.674
610.579	191.906
614.081	348.25
617.581	572.316
621.079	925.453
624.577	804.729
628.072	982.631
631.566	1070.48
635.059	1325.32
638.55	1531.52
642.04	1697.69
645.528	2231.95
649.015	2723.51
652.5	3308.76
655.984	4059.29
659.466	5113.45
662.947	6546.58
666.426	8235.33
669.904	10056.1
673.38	10904
676.855	10579
680.329	9780.09
683.8	8526.78
687.271	7705.43
690.74	7833.27
694.207	8000.88
697.673	8743.5
701.138	9920.4
704.601	10973.1
708.062	12215
711.522	13156.4
714.981	13818.6
718.438	13710.7
721.894	13304.1
725.348	12249.7
728.801	11116.3
732.252	9558.65
735.702	8631.97
739.15	7722.46
742.597	7257.89
746.042	6943.69
749.486	6916.33
752.928	7021.8
756.369	7221.1
759.809	7415.22
763.247	7547.16
766.683	7357.91
770.118	7193.48
773.552	6590.87
776.984	5700.06
780.414	4977.06
783.844	3901.86
787.271	3184.46
790.698	2713.86
794.122	2050.06
797.546	1621.05
800.968	1231.84
804.388	931.424
807.807	554.803
811.224	457.981
814.64	239.955
818.055	215.703
821.468	44.3613
824.88	111.67
828.29	112.291
831.699	44.0645
835.106	249.356
838.512	211.428
841.916	174.871
845.319	140.342
848.72	29.2852
852.12	35.4102
855.519	65.9102
858.916	19.0938
862.311	13.9551
865.706	226.947
869.098	286.168
872.49	437.568
875.879	265.853
879.268	490.008
882.655	602.004
886.04	605.852
889.424	682.555
892.807	851.117
896.188	1000.54
899.567	963.846
902.945	1365.03
906.322	1382.09
909.698	1235.04
913.071	1358.88
916.444	1724.64
919.815	2318.31
923.184	1718.9
926.552	1676.42
929.919	1960.91
933.284	2407.35
936.648	2055.81
940.01	1901.54
943.371	2053.44
946.731	2078.11
950.089	2276.01
953.445	2203.8
956.8	1922.97
960.154	2126.32
963.506	2178.65
966.857	1760.69
970.206	1745.63
973.554	1691.64
976.901	1749.47
980.246	1823.03
983.589	1965.7
986.931	2000.49
990.272	2108.52
993.611	2162.66
996.949	2127.77
1000.29	2099.61
1003.62	2396.7
1006.95	2437.21
1010.29	2825.48
1013.62	2988.89
1016.95	3180.97
1020.27	3537.57
1023.6	3670.25
1026.93	3394.15
1030.25	3305.27
1033.57	3038.62
1036.89	2745.22
1040.21	2632.75
1043.53	2529.14
1046.85	2258.67
1050.16	2515.26
1053.47	2327.22
1056.79	2477.4
1060.1	2349.05
1063.41	2422.34
1066.71	2297.99
1070.02	2127.6
1073.33	2113.35
1076.63	2189.91
1079.93	2067.77
1083.23	2079.83
1086.53	1716.62
1089.83	1746.8
1093.13	1600.45
1096.42	1155.77
1099.71	1239.04
1103.01	1027.8
1106.3	877.527
1109.59	843.441
1112.88	777.393
1116.16	803.783
1119.45	910.535
1122.73	738.859
1126.01	763.961
1129.29	662.939
1132.57	592.9
1135.85	632.299
1139.13	485.268
1142.4	591.117
1145.68	532.996
1148.95	511.555
1152.22	325.625
1155.49	333.641
1158.76	90.6289
1162.03	207.035
1165.29	15.2207
1168.56	143.031
1171.82	88.8184
1175.08	8.72656
1178.34	128.725
1181.6	47.8496
1184.85	112.281
1188.11	3.94336
1191.36	89.0742
1194.62	23.7734
1197.87	119.412
1201.12	32.2578
1204.37	153.022
1207.61	29.3301
1210.86	44.1758
1214.1	37.7129
1217.35	31.5293
1220.59	59.9902
1223.83	155.926
1227.07	77.1211
1230.3	90.8496
1233.54	31.082
1236.77	46.8281
1240.01	65.2461
1243.24	250.422
1246.47	116.475
1249.7	68.7188
1252.93	132.342
1256.15	48.2148
1259.38	2.67969
1262.6	97.1152
1265.82	124.572
1269.04	234.498
1272.26	24.3262
1275.48	20.0391
1278.7	73.2363
1281.91	187.201
1285.12	171.887
1288.34	199.35
1291.55	103.576
1294.76	140.56
1297.96	262.383
1301.17	62.7461
1304.38	37.8105
1307.58	305.623
1310.78	210.123
1313.98	204.504
1317.18	110.644
1320.38	219.361
1323.58	241.932
1326.78	144.766
1329.97	219.219
1333.16	198.535
1336.35	162.816
1339.54	148.994
1342.73	237.4
1345.92	13.1465
1349.11	149.732
1352.29	302.709
1355.47	29.2422
1358.66	28.5176
1361.84	280.279
1365.02	204.15
1368.19	234.264
1371.37	296.584
1374.54	175.881
1377.72	33.8945
1380.89	280.117
1384.06	20.6992
1387.23	102.564
1390.4	27.4883
1393.56	291.748
1396.73	132.658
1399.89	313.586
1403.06	114.35
1406.22	148.31
1409.38	372.144
1412.54	154.361
1415.69	383.846
1418.85	385.779
1422	226.486
1425.15	298.129
1428.31	409.135
1431.46	508.402
1434.61	570.725
1437.75	458.701
1440.9	261.816
1444.04	142.748
1447.19	189.074
1450.33	39.2207
1453.47	49.3496
1456.61	290.428
1459.75	327.691
1462.88	499.621
1466.02	203.391
1469.15	261.16
1472.29	221.207
1475.42	244.33
1478.55	173.252
1481.67	161.793
1484.8	216.404
1487.93	256.318
1491.05	313.734
1494.17	330.01
1497.3	193.133
1500.42	78.1699
1503.54	357.219
1506.65	317.17
1509.77	300.697
1512.88	159.719
1516	233.756
1519.11	270.006
1522.22	168.297
1525.33	158.361
1528.44	24.4863
1531.54	38.8223
1534.65	102.022
1537.75	91.832
1540.86	98.2598
1543.96	112.408
1547.06	158.215
1550.15	470.418
1553.25	279.809
1556.35	197.693
1559.44	449.373
1562.54	79.7129
1565.63	64.459
1568.72	161.652
