Measurement: Raman, 514 nm, ccw, Raman Data Processed
Mineral: Annite
Rruff sample: R060211
Ideal chemistry: KFe^2+^_3_AlSi_3_O_10_(OH)_2_
Locality: Mont Saint-Hilaire, Rouville County, Quebec, Canada
Source: Royal Ontario Museum
Description: Black mica
Measured chemistry: (K_0.94_[box]_0.03_Na_0.02_)_Σ=1_(Fe^2+^_2.07_Mg_0.57_Mn_0.33_Ti_0.03_)_Σ=3_(Si_2.98_Al_1.02_)O_10_((OH)_1.72_F_0.28_)_Σ=2_
Pin_id: M00144
Orientation: Laser parallel to (-1 0 -1). Fiducial mark perpendicular to laser is parallel to -b [0 -1 0]
Raman shift (cm-1)	intensity
307.151	0
310.773	134.244
314.394	112.606
318.013	120.717
321.631	60.1738
325.248	297.518
328.864	380.592
332.478	535.217
336.09	557.941
339.701	633.334
343.311	1002.78
346.92	1045.71
350.527	1049
354.132	930.379
357.737	992.67
361.34	893.055
364.941	889.703
368.541	1047.91
372.14	944.236
375.737	1448.95
379.333	1527.28
382.928	1619.69
386.521	1688.5
390.113	1661.27
393.703	1704.89
397.292	1637.25
400.88	1255.21
404.466	1231.68
408.051	989.582
411.634	1061.5
415.216	777.361
418.797	694.842
422.376	482.664
425.954	300.877
429.53	55.1387
433.105	121.705
436.679	88.2363
440.251	267.42
443.822	17.8789
447.391	1.95703
450.96	24.6719
454.526	12.7539
458.091	469.072
461.655	468.518
465.218	555.199
468.779	984.346
472.338	924.543
475.897	1193.94
479.454	1452.23
483.009	1683.42
486.563	2246.31
490.116	2560.2
493.667	2614.91
497.217	3061.84
500.765	3047.62
504.312	3219.32
507.858	3485.98
511.402	3655.62
514.945	3959.49
518.486	4314.27
522.026	4505.85
525.565	4740.29
529.102	5021
532.638	4939.01
536.172	4911.98
539.705	4867.1
543.236	4592.4
546.766	3922.24
550.295	3711.7
553.822	3147.85
557.348	2444.78
560.873	1906.3
564.396	1693.35
567.917	1237.03
571.438	945.785
574.957	731.244
578.474	572.121
581.99	238.553
585.504	149.766
589.018	265.568
592.529	117.352
596.04	24.9238
599.549	27.0781
603.056	378.873
606.562	133.443
610.067	436.18
613.57	560.076
617.072	626.137
620.572	587.359
624.071	701.744
627.569	898.295
631.065	948.014
634.56	1513.9
638.053	1374.97
641.545	2295.22
645.035	2963.64
648.524	3052.23
652.012	3620
655.498	4966.94
658.983	6326.09
662.466	7496.46
665.948	8300.05
669.428	8640.86
672.907	7364.89
676.385	6100.57
679.861	5337.21
683.336	5122.68
686.809	5341.38
690.281	5622.67
693.752	6013.81
697.221	6669.39
700.688	7404.14
704.155	8226.85
707.619	8663.82
711.083	8921.44
714.545	8920.65
718.005	8930.21
721.464	7951.71
724.922	7547.61
728.378	6955.66
731.833	6645.06
735.286	6040.45
738.738	6234.96
742.189	6241.43
745.638	6618.85
749.085	6837.22
752.531	7424.53
755.976	7611.79
759.419	7933.99
762.861	7869.14
766.302	7555.21
769.741	7161.07
773.178	6742.17
776.614	6068.04
780.049	5535.85
783.482	4642.57
786.914	3714.22
790.345	2998.78
793.773	2240.26
797.201	1625.64
800.627	940.098
804.052	511.103
807.475	317.182
810.897	6.15039
814.317	88.1523
817.736	55.0176
821.153	84.5293
824.569	122.764
827.984	151.883
831.397	188.106
834.808	23.5332
838.219	116.463
841.627	172.24
845.035	28.998
848.441	31.5977
851.845	194.305
855.248	130.041
858.65	357.43
862.05	527.074
865.448	589.418
868.846	674.715
872.241	681.891
875.636	1282.92
879.029	1045.81
882.42	1090.55
885.81	1410.15
889.199	1440.7
892.586	1549.29
895.971	1794.85
899.356	1745.16
902.738	1819.16
906.12	1688.21
909.5	1815.47
912.878	1803.11
916.255	1984.7
919.63	1991.06
923.004	1888.03
926.377	1946.37
929.748	2079.25
933.118	2123.5
936.486	2291.39
939.853	2092.5
943.218	2244.4
946.582	2000.68
949.945	1880.85
953.306	1839.18
956.665	1840.96
960.023	1473.77
963.38	1177.45
966.735	1280.12
970.089	1159.61
973.441	1071.81
976.792	1179.84
980.141	1159.76
983.489	1173.51
986.836	1302.71
990.181	1262.04
993.524	1480.5
996.866	1426.91
1000.21	1476.97
1003.55	1597.64
1006.88	1488.58
1010.22	1540.99
1013.55	1668.16
1016.89	1706.89
1020.22	1870.63
1023.55	1682.17
1026.88	1839.27
1030.21	1707.58
1033.53	1804.41
1036.86	1701.11
1040.18	1767.1
1043.5	1776.75
1046.82	1867.54
1050.14	1869.27
1053.46	1999.93
1056.78	2007.69
1060.09	1967.92
1063.4	1928.21
1066.71	1993.51
1070.02	1616.59
1073.33	1769.73
1076.64	1842.56
1079.94	1744.54
1083.25	1503.59
1086.55	1238.69
1089.85	1009.74
1093.15	947.615
1096.45	928.699
1099.75	762.467
1103.04	759.682
1106.34	833.943
1109.63	819.732
1112.92	930.279
1116.21	672.756
1119.5	767.031
1122.78	578.846
1126.07	458.221
1129.35	462.109
1132.63	155.926
1135.92	9.45508
1139.19	17.1484
1142.47	154.272
1145.75	30.0312
1149.02	98.7363
1152.3	129.678
1155.57	104.885
1158.84	140.213
1162.11	191.676
1165.38	29.9844
1168.64	120.353
1171.91	3.51562
1175.17	87.6797
1178.43	41.6328
1181.69	25.5332
1184.95	104.566
1188.21	11.7539
1191.46	177.049
1194.72	169.363
1197.97	202.008
1201.22	68.1367
1204.47	132.473
1207.72	59.5977
1210.97	114.846
1214.21	178.389
1217.46	1.11133
1220.7	7.62305
1223.94	183.24
1227.18	79.1484
1230.42	138.846
1233.65	62.7148
1236.89	1.57031
1240.12	28.0371
1243.35	156.045
1246.59	11.0254
1249.81	33.5352
1253.04	168.07
1256.27	237.596
1259.49	73.9023
1262.72	175.037
1265.94	115.936
1269.16	104.584
1272.38	22.3105
1275.59	325.332
1278.81	144.424
1282.03	41.8027
1285.24	281.703
1288.45	302.059
1291.66	325.904
1294.87	296.295
1298.08	314.84
1301.28	296.955
1304.48	133.293
1307.69	125.303
1310.89	181.295
1314.09	209.74
1317.29	255.846
1320.48	301.416
1323.68	211.066
1326.87	214.615
1330.06	310.008
1333.26	418.865
1336.44	325.668
1339.63	261.066
1342.82	324.549
1346	391.967
1349.19	215.379
1352.37	514.188
1355.55	385.783
1358.73	459.842
1361.9	403.523
1365.08	372.842
1368.26	436.449
1371.43	338.014
1374.6	489.893
1377.77	471.559
1380.94	493.734
1384.11	349.856
1387.27	407.578
1390.43	206.203
1393.6	370.978
1396.76	424.877
1399.92	232.35
1403.08	218.211
1406.23	474.305
1409.39	234.647
1412.54	491.676
1415.69	207.184
1418.85	218.494
1421.99	171.82
1425.14	389.205
1428.29	675.357
1431.43	502.65
1434.58	531.404
1437.72	430.215
1440.86	359.031
1444	382.639
1447.13	234.697
1450.27	53.7285
1453.4	262.334
1456.54	120.824
1459.67	62.3262
1462.8	145.982
1465.93	106.625
1469.06	165.275
1472.18	132.088
1475.31	205.824
1478.43	197.898
1481.55	119.602
1484.67	82.7441
1487.79	69.8984
1490.9	226.094
1494.02	56.3652
1497.13	157.393
1500.24	257.912
1503.35	263.637
1506.46	203.613
1509.57	122.926
1512.68	246.172
1515.78	97.7754
1518.88	377.572
1521.99	133.406
1525.09	0.773438
1528.18	218.266
1531.28	196.303
1534.38	3.37695
1537.47	216.147
1540.56	82.6777
1543.66	89.6035
1546.74	189.307
1549.83	178.728
1552.92	298.856
1556.01	56.9707
1559.09	165.234
1562.17	6.70508
1565.25	36.6113
1568.33	21.5371
