Measurement: Raman, 514 nm, ccw, Raman Data Processed
Mineral: Annite
Rruff sample: R060211
Ideal chemistry: KFe^2+^_3_AlSi_3_O_10_(OH)_2_
Locality: Mont Saint-Hilaire, Rouville County, Quebec, Canada
Source: Royal Ontario Museum
Description: Black mica
Measured chemistry: (K_0.94_[box]_0.03_Na_0.02_)_Σ=1_(Fe^2+^_2.07_Mg_0.57_Mn_0.33_Ti_0.03_)_Σ=3_(Si_2.98_Al_1.02_)O_10_((OH)_1.72_F_0.28_)_Σ=2_
Pin_id: L01073
Orientation: Laser parallel to c* (0 0 1). Fiducial mark perpendicular to laser is parallel to a [1 0 0]
Raman shift (cm-1)	intensity
230.849	0
234.512	40.375
238.173	388.227
241.832	237.918
245.49	35.0312
249.147	316.062
252.802	314.152
256.455	738.066
260.107	586.539
263.757	858.238
267.406	1634.56
271.053	1771.76
274.698	1646.29
278.342	1986.62
281.985	1173.92
285.626	874.434
289.265	730.773
292.903	683.949
296.54	246.328
300.174	67.332
303.808	71.457
307.439	11.8633
311.07	214.492
314.698	283.871
318.325	47.1641
321.951	211.227
325.575	323.758
329.198	410.102
332.819	413.648
336.438	617.312
340.056	950.137
343.673	1246.03
347.287	1019.41
350.901	1231.81
354.513	1036.09
358.123	1159.32
361.732	938.805
365.339	868.668
368.945	863.516
372.549	748.988
376.152	728.648
379.753	1069.27
383.352	1080.18
386.95	1106.51
390.547	1500.46
394.142	1303.12
397.735	1392.61
401.327	1318.39
404.918	1083.81
408.507	694.988
412.094	679.781
415.68	767.297
419.265	682.57
422.847	604.66
426.429	166.461
430.009	199.938
433.587	513.09
437.164	49.5391
440.739	442.023
444.313	49.6758
447.885	235.973
451.456	64.6406
455.025	246.898
458.593	95.3789
462.159	193.75
465.724	569.504
469.287	691.441
472.848	982.606
476.409	1454.41
479.967	1694.97
483.524	2136.97
487.08	2555.75
490.634	2769.7
494.187	3326.89
497.738	3709.32
501.287	3858.99
504.835	4048.92
508.382	4526.09
511.927	4615.55
515.47	5115.26
519.013	5185.19
522.553	5541
526.092	5894.72
529.63	6275.37
533.166	5990.06
536.7	6750.9
540.233	5922.21
543.765	5790.03
547.295	5387.46
550.823	4912.59
554.35	3989.2
557.876	3727.4
561.4	2999.03
564.922	2357.97
568.443	2150.78
571.963	1797.77
575.481	1359.51
578.998	1162.96
582.513	734.082
586.026	296.875
589.538	79.4219
593.049	210.004
596.558	57.4141
600.065	179.391
603.571	109.387
607.076	163.004
610.579	492.805
614.081	648.965
617.581	738.473
621.079	1051.43
624.577	767.961
628.072	1011.58
631.566	1353.04
635.059	1394.32
638.55	1719.98
642.04	1734.97
645.528	2532.32
649.015	3066.01
652.5	3786.05
655.984	5463.43
659.466	6434.82
662.947	8090.21
666.426	9019.28
669.904	8920.34
673.38	8058.16
676.855	6949.34
680.329	6067.25
683.8	5330.43
687.271	4818.62
690.74	4703.35
694.207	5196.84
697.673	5098.54
701.138	5684.46
704.601	6066.43
708.062	6199.76
711.522	7696.82
714.981	6879.82
718.438	7041.61
721.894	7016.43
725.348	6097.16
728.801	5778.74
732.252	5810.62
735.702	6376.83
739.15	5065.18
742.597	5597.73
746.042	5614.27
749.486	6041.91
752.928	6058.64
756.369	7192.46
759.809	7275.37
763.247	7161.36
766.683	7138.43
770.118	7498.57
773.552	6892.78
776.984	5976.06
780.414	5546.41
783.844	5051.81
787.271	4373.27
790.698	3446.77
794.122	2331.33
797.546	1672.93
800.968	1287.57
804.388	795.445
807.807	391.977
811.224	104.273
814.64	141.66
818.055	73.4531
821.468	61.8438
824.88	210.356
828.29	66.8008
831.699	144.062
835.106	122.961
838.512	85.6484
841.916	8.99219
845.319	183.031
848.72	355.676
852.12	368.008
855.519	140.297
858.916	786.606
862.311	606.938
865.706	912.328
869.098	1065.75
872.49	1551.21
875.879	1294.69
879.268	1602.26
882.655	1606.89
886.04	1857.55
889.424	1333.21
892.807	1438.91
896.188	1813.64
899.567	1596.53
902.945	1806.49
906.322	1819.48
909.698	1677.5
913.071	1883.75
916.444	1920.07
919.815	1972.43
923.184	2002.83
926.552	1965.34
929.919	1869.94
933.284	2282.67
936.648	2334.53
940.01	2228.53
943.371	2061.78
946.731	2145.57
950.089	2114.98
953.445	1592.62
956.8	1432.11
960.154	1162.44
963.506	1088.97
966.857	1102.61
970.206	899.481
973.554	713.164
976.901	781.777
980.246	908.746
983.589	778.742
986.931	829.375
990.272	935.695
993.611	1028.54
996.949	1558.79
1000.29	1641.25
1003.62	1320.08
1006.95	2499.18
1010.29	2054.31
1013.62	2656.98
1016.95	2695.54
1020.27	2731.31
1023.6	2388.3
1026.93	2148.48
1030.25	2185.45
1033.57	2015.03
1036.89	2283.84
1040.21	1944.9
1043.53	1933.25
1046.85	2056.41
1050.16	2532
1053.47	1855.15
1056.79	1987.54
1060.1	2487.16
1063.41	2141.24
1066.71	1755.68
1070.02	2094.18
1073.33	1679.99
1076.63	1810.07
1079.93	1290.71
1083.23	1655.6
1086.53	840.551
1089.83	1866.93
1093.13	810.023
1096.42	683.672
1099.71	718.328
1103.01	750.926
1106.3	401.332
1109.59	254.602
1112.88	595.141
1116.16	458.043
1119.45	370.527
1122.73	611.168
1126.01	435.102
1129.29	276.797
1132.57	10.1445
1135.85	273.902
1139.13	166.191
1142.4	31.793
1145.68	290.152
1148.95	311.019
1152.22	235.422
1155.49	489.633
1158.76	103.227
1162.03	157.352
1165.29	137.941
1168.56	136.121
1171.82	46.2266
1175.08	113.242
1178.34	129.242
1181.6	202.758
1184.85	124.051
1188.11	103.766
1191.36	78.0703
1194.62	44.9219
1197.87	93.6797
1201.12	36.6445
1204.37	246.367
1207.61	35.7109
1210.86	175.379
1214.1	128.801
1217.35	254.812
1220.59	196.316
1223.83	71.5938
1227.07	149.594
1230.3	127.613
1233.54	52.3711
1236.77	222.242
1240.01	68.9961
1243.24	89.0195
1246.47	203.805
1249.7	88.1133
1252.93	278.144
1256.15	66.1406
1259.38	301.078
1262.6	404.719
1265.82	493.891
1269.04	318.301
1272.26	348.379
1275.48	356.84
1278.7	484.828
1281.91	317.672
1285.12	301.219
1288.34	128.551
1291.55	281.125
1294.76	282.711
1297.96	507.031
1301.17	514.418
1304.38	572.777
1307.58	600.262
1310.78	445.926
1313.98	602.66
1317.18	615.707
1320.38	224.621
1323.58	400.148
1326.78	610.273
1329.97	478.828
1333.16	87.6133
1336.35	300.121
1339.54	539.562
1342.73	470.379
1345.92	411.832
1349.11	323.09
1352.29	99.8086
1355.47	369.133
1358.66	507.715
1361.84	461.953
1365.02	394.789
1368.19	388.316
1371.37	4.20312
1374.54	146.254
1377.72	258.231
1380.89	380.981
1384.06	511.551
1387.23	5.22266
1390.4	114.949
1393.56	390.641
1396.73	114.715
1399.89	340.742
1403.06	219.375
1406.22	171.93
1409.38	218.312
1412.54	515.344
1415.69	499.672
1418.85	455.203
1422	431.918
1425.15	348.785
1428.31	46.4258
1431.46	537.086
1434.61	480.227
1437.75	361.531
1440.9	604.859
1444.04	162.309
1447.19	373.652
1450.33	601.816
1453.47	419.938
1456.61	379.344
1459.75	345.414
1462.88	383.312
1466.02	377.047
1469.15	313.926
1472.29	243.773
1475.42	277.461
1478.55	331.055
1481.67	313.391
1484.8	309.555
1487.93	380.07
1491.05	288.344
1494.17	243.652
1497.3	211.918
1500.42	476.231
1503.54	150.137
1506.65	3.98047
1509.77	142.488
1512.88	180.418
1516	237.949
1519.11	181.769
1522.22	167.277
1525.33	287.269
1528.44	456.203
1531.54	666.621
1534.65	141.996
1537.75	281.57
1540.86	351.902
1543.96	144.688
1547.06	100.297
1550.15	765.574
1553.25	442.227
1556.35	618.852
1559.44	428.246
1562.54	320.184
1565.63	421.84
1568.72	86.668
