Measurement: Raman, 514 nm, ccw, Raman Data Processed
Mineral: Annite
Rruff sample: R060204
Ideal chemistry: KFe^2+^_3_AlSi_3_O_10_(OH)_2_
Locality: Mont Saint-Hilaire, Rouville County, Quebec, Canada
Source: Royal Ontario Museum
Description: Black mica with pseudohexagonal outines
Measured chemistry: (K_0.96_Na_0.04_)_Σ=1_(Fe^2+^_2.04_Mg_0.81_Mn_0.09_Ti_0.03_[box]_0.03_)_Σ=3_(Si_3.00_Al_1.00_)O_10_((OH)_1.54_F_0.46_)_Σ=2_
Pin_id: M00078
Orientation: Laser parallel to a* (1 0 0). Fiducial mark perpendicular to laser is parallel to -b [0 -1 0]
Raman shift (cm-1)	intensity
307.151	0
310.773	68.8984
314.394	130.533
318.013	10.6191
321.631	164.24
325.248	283.902
328.864	195.316
332.478	104.836
336.09	126.525
339.701	179.557
343.311	262.223
346.92	518.281
350.527	201.576
354.132	387.045
357.737	281.816
361.34	445.713
364.941	404.332
368.541	477.797
372.14	342.412
375.737	404.365
379.333	548.016
382.928	597.689
386.521	738.416
390.113	898.352
393.703	881.088
397.292	705.135
400.88	727.611
404.466	842.441
408.051	500.576
411.634	573.979
415.216	604.606
418.797	393.363
422.376	188.166
425.954	230.037
429.53	22.9961
433.105	186.086
436.679	21.3496
440.251	53.7969
443.822	50.5859
447.391	56.0996
450.96	103.867
454.526	81.3164
458.091	67.4199
461.655	163.33
465.218	47.4102
468.779	89.0508
472.338	169.682
475.897	83.9434
479.454	443.559
483.009	319.277
486.563	281.971
490.116	586.934
493.667	593.994
497.217	591.848
500.765	766.578
504.312	786.238
507.858	1109.85
511.402	1155.42
514.945	1135.92
518.486	1125.52
522.026	1086.99
525.565	1003.37
529.102	1027.93
532.638	1212.85
536.172	1192.37
539.705	1013.93
543.236	997.231
546.766	1055.43
550.295	1025.54
553.822	1119.69
557.348	847.562
560.873	926.912
564.396	725.576
567.917	729.822
571.438	585.799
574.957	670.361
578.474	450.94
581.99	368.293
585.504	247.719
589.018	363.219
592.529	43.4414
596.04	315.789
599.549	145.012
603.056	276.455
606.562	343.072
610.067	576.84
613.57	578.045
617.072	666.635
620.572	1018.4
624.071	1075.24
627.569	1237.14
631.065	1579.11
634.56	1691.75
638.053	1642.24
641.545	1640.4
645.035	1843.62
648.524	1957.89
652.012	2204.21
655.498	2510.59
658.983	3074.01
662.466	3605.48
665.948	4232.45
669.428	5222.31
672.907	5948.41
676.385	6476.34
679.861	6584.53
683.336	6100.49
686.809	5495.75
690.281	4689.94
693.752	4049.11
697.221	3552.62
700.688	3163.34
704.155	2886.63
707.619	2742.83
711.083	2722.38
714.545	2534.02
718.005	2107.86
721.464	2261.78
724.922	2212.57
728.378	1952.81
731.833	2237.02
735.286	1613.65
738.738	1539.5
742.189	1641.46
745.638	1453
749.085	1298.49
752.531	1533.77
755.976	1633.84
759.419	1635.67
762.861	1613.26
766.302	1667.62
769.741	1498.73
773.178	1657.59
776.614	1536.2
780.049	1388.55
783.482	1311.63
786.914	1182.44
790.345	1303.98
793.773	604.25
797.201	483.236
800.627	487.938
804.052	198.352
807.475	245.467
810.897	136.272
814.317	22.7383
817.736	39.7285
821.153	29.3086
824.569	110.666
827.984	35.8867
831.397	4.9375
834.808	125.211
838.219	29.418
841.627	67.6426
845.035	66.5898
848.441	29.2637
851.845	200.16
855.248	9.07422
858.65	17.6816
862.05	83.6719
865.448	136.191
868.846	234.676
872.241	37.8848
875.636	234.072
879.029	314.69
882.42	343.959
885.81	348.906
889.199	366.539
892.586	537.865
895.971	460.885
899.356	405.603
902.738	655.023
906.12	548.148
909.5	695.984
912.878	781.533
916.255	822.82
919.63	637.838
923.004	841.834
926.377	890.104
929.748	1079.41
933.118	1141.82
936.486	1125.48
939.853	1105.79
943.218	1332.7
946.582	1463.65
949.945	1454.09
953.306	1301.93
956.665	1355.08
960.023	1239.82
963.38	1384.59
966.735	1203.52
970.089	1245.24
973.441	1233.61
976.792	1505
980.141	1555.75
983.489	1783.66
986.836	1645.81
990.181	1682.82
993.524	1970.46
996.866	2000.13
1000.21	2281.98
1003.55	2324.96
1006.88	2571.13
1010.22	2915.38
1013.55	3150.97
1016.89	3507.99
1020.22	3557.94
1023.55	3796.91
1026.88	3374.89
1030.21	3136.91
1033.53	3008.95
1036.86	2762.03
1040.18	2786.57
1043.5	2562.3
1046.82	2350.87
1050.14	2205.57
1053.46	2194
1056.78	2194.86
1060.09	2141.32
1063.4	2029.42
1066.71	2044.49
1070.02	1956.85
1073.33	2064.64
1076.64	1962.74
1079.94	2037.91
1083.25	2116.98
1086.55	1919.24
1089.85	1531.7
1093.15	1357.25
1096.45	1477.86
1099.75	963.83
1103.04	1098.28
1106.34	845.201
1109.63	812.519
1112.92	582.957
1116.21	446.647
1119.5	641.506
1122.78	661.746
1126.07	526.695
1129.35	446.639
1132.63	393.916
1135.92	291.414
1139.19	661.891
1142.47	216.785
1145.75	158.693
1149.02	225.453
1152.3	357.42
1155.57	212.209
1158.84	268.559
1162.11	195.143
1165.38	151.984
1168.64	203.772
1171.91	84.2051
1175.17	222.963
1178.43	188.902
1181.69	195.408
1184.95	35.5957
1188.21	74.1094
1191.46	143.635
1194.72	5.18359
1197.97	43.2695
1201.22	48.8477
1204.47	124.522
1207.72	24.7305
1210.97	73.1973
1214.21	65.5957
1217.46	23.3418
1220.7	56.4766
1223.94	38.0625
1227.18	128.451
1230.42	115.955
1233.65	129.977
1236.89	25.9805
1240.12	164.908
1243.35	54.8613
1246.59	89.6387
1249.81	155.141
1253.04	16.9922
1256.27	206.576
1259.49	105.488
1262.72	152.543
1265.94	160.609
1269.16	70.293
1272.38	115.566
1275.59	158.617
1278.81	236.16
1282.03	256.891
1285.24	149.744
1288.45	203.346
1291.66	331.711
1294.87	371.096
1298.08	534.43
1301.28	330.473
1304.48	477.926
1307.69	343.93
1310.89	417.065
1314.09	450.978
1317.29	642.375
1320.48	596.996
1323.68	576.875
1326.87	632.232
1330.06	540.055
1333.26	524.748
1336.44	438.947
1339.63	559.33
1342.82	551.203
1346	625.188
1349.19	792.84
1352.37	500.15
1355.55	552.455
1358.73	609.148
1361.9	559.604
1365.08	481.102
1368.26	249.453
1371.43	640.144
1374.6	556.406
1377.77	647.367
1380.94	406.914
1384.11	361.258
1387.27	201.832
1390.43	358.801
1393.6	342.285
1396.76	170.703
1399.92	229.41
1403.08	350.758
1406.23	459.633
1409.39	175.918
1412.54	222.68
1415.69	144.043
1418.85	341.984
1421.99	282.465
1425.14	299.664
1428.29	174.418
1431.43	62.6328
1434.58	69.6055
1437.72	9.73047
1440.86	50.3516
1444	130.441
1447.13	304.734
1450.27	117.746
1453.4	49.0273
1456.54	30.293
1459.67	5.5625
1462.8	23.9766
1465.93	33.9883
1469.06	159.602
1472.18	90.9648
1475.31	111.43
1478.43	136.66
1481.55	83.5078
1484.67	27.8672
1487.79	22.4609
1490.9	147.269
1494.02	182.719
1497.13	343.102
1500.24	136.152
1503.35	275.945
1506.46	129.953
1509.57	190.117
1512.68	178.746
1515.78	339.602
1518.88	279.41
1521.99	221.547
1525.09	244.379
1528.18	120.141
1531.28	72.1641
1534.38	240.582
1537.47	193.961
1540.56	374.356
1543.66	273.766
1546.74	61.9336
1549.83	179.363
1552.92	185.672
1556.01	62.2539
1559.09	162.676
1562.17	111.062
1565.25	333.266
1568.33	93.9219
