Measurement: Raman, 514 nm, ccw, Raman Data Processed
Mineral: Annite
Rruff sample: R060204
Ideal chemistry: KFe^2+^_3_AlSi_3_O_10_(OH)_2_
Locality: Mont Saint-Hilaire, Rouville County, Quebec, Canada
Source: Royal Ontario Museum
Description: Black mica with pseudohexagonal outines
Measured chemistry: (K_0.96_Na_0.04_)_Σ=1_(Fe^2+^_2.04_Mg_0.81_Mn_0.09_Ti_0.03_[box]_0.03_)_Σ=3_(Si_3.00_Al_1.00_)O_10_((OH)_1.54_F_0.46_)_Σ=2_
Pin_id: M00366
Orientation: Laser parallel to -b* (0 -1 0). Fiducial mark perpendicular to laser is parallel to c [0 0 1]
Raman shift (cm-1)	intensity
235.633	0
239.282	324.834
242.93	94.4668
246.577	119.477
250.222	85.5527
253.866	442.574
257.508	968.717
261.149	1226.85
264.789	986.842
268.427	821.379
272.064	805.238
275.7	958.627
279.334	881.221
282.967	483.047
286.598	344.969
290.229	308.59
293.857	672.25
297.485	786.664
301.111	416.449
304.735	69.0781
308.358	115.053
311.98	212.832
315.601	251.111
319.22	44.9414
322.837	167.4
326.454	266.549
330.068	383.404
333.682	141.816
337.294	260.406
340.905	534.041
344.514	550.861
348.122	758.617
351.729	679.6
355.334	934.951
358.938	1229.66
362.54	1378.62
366.141	1843.74
369.741	2336.07
373.339	3894.65
376.936	4229.51
380.531	4647.67
384.126	6065.29
387.718	7275.07
391.31	8341.84
394.9	8863.37
398.488	7681.1
402.075	7175.9
405.661	5846.77
409.245	3535.71
412.828	2298.71
416.41	1435.63
419.99	718.064
423.569	438.504
427.146	379.133
430.722	45.8574
434.297	393.67
437.87	237.857
441.442	264.094
445.012	212.781
448.581	155.457
452.149	17.4824
455.715	584.869
459.28	901.311
462.843	1754.87
466.405	2970.89
469.965	4738.16
473.525	7260.67
477.082	10496.3
480.639	12086
484.194	11284.3
487.747	9121.06
491.3	7371.17
494.85	6013.73
498.4	5846.71
501.948	5937.13
505.494	6256
509.039	6914.3
512.583	6497.04
516.125	6062.22
519.666	5420.85
523.206	4474.91
526.744	3457.34
530.281	2888.13
533.816	2333.42
537.35	1805.14
540.882	1446.29
544.413	1388.08
547.943	1265.61
551.471	1076.81
554.998	996.664
558.523	1034.15
562.047	761.254
565.57	552.277
569.091	417.947
572.611	730.606
576.129	587.178
579.646	228.008
583.162	1.63867
586.676	277.613
590.188	253.176
593.7	422.514
597.209	875.334
600.718	1407.74
604.225	2032.35
607.73	2370.54
611.235	3286.2
614.737	4632.37
618.239	6107.03
621.739	8046.1
625.237	10197.6
628.734	12248.5
632.23	13742.9
635.724	13979.6
639.217	13241.7
642.708	11743.2
646.198	9613.04
649.687	8647.23
653.174	7814.75
656.66	7155.59
660.144	7261.73
663.627	7956.16
667.108	9019.02
670.588	10099.2
674.067	11012.4
677.544	11353.9
681.02	11651.5
684.494	11588.6
687.967	11049.4
691.438	11044.5
694.908	10409.8
698.377	8531.03
701.844	6140.93
705.31	4953.09
708.774	4411.95
712.237	3806.61
715.698	3571.78
719.158	3222.86
722.617	2638.73
726.074	2072.09
729.53	1964.02
732.984	1842.19
736.437	1402.14
739.888	1246.43
743.338	1134.38
746.787	1260.38
750.234	1237.42
753.68	967.641
757.124	1042.37
760.567	1101.92
764.008	1289.14
767.448	1210.1
770.887	1283.34
774.324	1248.23
777.759	1170.68
781.194	1199.69
784.626	872.252
788.058	747.336
791.488	863.938
794.916	495.043
798.343	634.635
801.769	364.715
805.193	166.26
808.616	183.772
812.037	568.244
815.457	223.631
818.875	161.773
822.292	145.494
825.707	218.522
829.122	48.1426
832.534	106.223
835.945	47.9668
839.355	59.9844
842.763	112.221
846.17	46.1113
849.576	123.451
852.98	58.8867
856.382	51.1699
859.783	46.7754
863.183	46.041
866.581	228.885
869.978	51.2871
873.373	86.1191
876.767	65.4453
880.159	354.635
883.55	209.867
886.94	148.225
890.328	325.644
893.714	571.199
897.1	383.037
900.483	453.129
903.866	344.486
907.246	720.121
910.626	570.074
914.004	651.535
917.38	690.113
920.755	843.232
924.129	1074.76
927.501	1081.67
930.872	962.963
934.241	1121.97
937.609	1101.43
940.975	1294.64
944.34	1291.16
947.703	1458.91
951.065	1741.47
954.426	1385.3
957.785	1537.02
961.142	2042.19
964.499	1159.69
967.853	1282.05
971.207	1499.98
974.558	1778.51
977.909	1920
981.258	1837.83
984.605	2478.39
987.951	2381.78
991.295	2259.98
994.639	2158.29
997.98	2423.78
1001.32	2966.25
1004.66	2999.16
1008	3193.26
1011.33	3696.61
1014.67	4283.62
1018	4536.26
1021.33	4457.57
1024.66	4463.65
1027.99	4554.29
1031.32	4072.56
1034.64	3871.9
1037.97	3474.33
1041.29	3320.02
1044.61	3424.83
1047.93	3228.9
1051.25	3102.47
1054.56	3143.52
1057.88	2941.05
1061.19	3023.44
1064.51	3037.14
1067.82	3077.69
1071.13	2938.78
1074.43	3098.31
1077.74	3150.51
1081.05	3925.37
1084.35	5846.29
1087.65	4454.98
1090.95	3468.91
1094.25	3365.1
1097.55	2971.75
1100.85	2850.69
1104.14	2781.36
1107.43	2415.03
1110.73	2550.45
1114.02	2161.86
1117.31	1926.14
1120.59	2198.99
1123.88	2009.26
1127.16	1672
1130.45	1450.04
1133.73	1556.64
1137.01	1685.46
1140.29	1406.34
1143.57	1085.31
1146.84	809.875
1150.12	487.766
1153.39	278.977
1156.66	234.984
1159.93	65.9219
1163.2	195.727
1166.46	164.223
1169.73	207.086
1172.99	341.648
1176.26	99.9258
1179.52	83.8086
1182.78	21.9922
1186.04	131.402
1189.29	25.1562
1192.55	70.8984
1195.8	353.406
1199.05	167.367
1202.31	206.981
1205.55	57.5586
1208.8	62.3203
1212.05	32.293
1215.29	166.844
1218.54	50.9492
1221.78	263.086
1225.02	71.7891
1228.26	35.1953
1231.5	15.0234
1234.73	37.6953
1237.97	62.9961
1241.2	146.93
1244.43	96.75
1247.66	260.445
1250.89	100.953
1254.12	436.223
1257.34	309.305
1260.57	76.1914
1263.79	244.844
1267.01	326.305
1270.23	502.539
1273.45	126.539
1276.67	122.258
1279.88	304.133
1283.1	343.981
1286.31	387.828
1289.52	551.606
1292.73	671.367
1295.94	929.449
1299.14	794.738
1302.35	571.809
1305.55	741.856
1308.75	1085.31
1311.95	798.5
1315.15	451.738
1318.35	1030.12
1321.55	986.621
1324.74	1129.19
1327.94	792.227
1331.13	1081.29
1334.32	1425.49
1337.51	1200.77
1340.69	1020.93
1343.88	836.184
1347.06	1111.44
1350.25	1321.07
1353.43	1133.28
1356.61	1100.64
1359.79	1223.24
1362.96	1119.68
1366.14	1121.4
1369.31	579.918
1372.49	918.055
1375.66	1001.6
1378.83	645.453
1381.99	531.922
1385.16	565.394
1388.33	856.828
1391.49	561.84
1394.65	408.516
1397.81	434.582
1400.97	531.578
1404.13	496.969
1407.29	204.969
1410.44	296.832
1413.59	725.637
1416.74	442.207
1419.89	219.93
1423.04	88.6211
1426.19	110.441
1429.34	594.488
1432.48	130.527
1435.62	179.731
1438.77	4.54688
1441.9	539.188
1445.04	473.199
1448.18	231.367
1451.32	82.332
1454.45	205.445
1457.58	65.1406
1460.71	250.375
1463.84	101.488
1466.97	65.5391
1470.1	463.512
1473.22	339.574
1476.35	44.8594
1479.47	146.738
1482.59	83.6641
1485.71	178.148
1488.83	27.0938
1491.94	79.2148
1495.06	4.88281
1498.17	23.1797
1501.28	127.973
1504.39	313.602
1507.5	109.25
1510.61	413.016
1513.71	82.6797
1516.82	84.9844
1519.92	363.809
1523.02	600.66
1526.12	548.066
1529.22	175.867
1532.31	447.266
1535.41	157.312
1538.5	333.016
1541.6	157.914
