Measurement: Raman, 514 nm, ccw, Raman Data Processed
Mineral: Annite
Rruff sample: R060204
Ideal chemistry: KFe^2+^_3_AlSi_3_O_10_(OH)_2_
Locality: Mont Saint-Hilaire, Rouville County, Quebec, Canada
Source: Royal Ontario Museum
Description: Black mica with pseudohexagonal outines
Measured chemistry: (K_0.96_Na_0.04_)_Σ=1_(Fe^2+^_2.04_Mg_0.81_Mn_0.09_Ti_0.03_[box]_0.03_)_Σ=3_(Si_3.00_Al_1.00_)O_10_((OH)_1.54_F_0.46_)_Σ=2_
Pin_id: M00140
Orientation: Laser parallel to c* (0 0 1). Fiducial mark perpendicular to laser is parallel to -a [-1 0 0]
Raman shift (cm-1)	intensity
307.151	0
310.773	218.174
314.394	13.4629
318.013	82.7305
321.631	6.9707
325.248	181.295
328.864	281.592
332.478	376.137
336.09	586.57
339.701	622.902
343.311	747.953
346.92	815.803
350.527	942.697
354.132	935.449
357.737	999.631
361.34	1219.66
364.941	1097.83
368.541	1180.35
372.14	1140.39
375.737	928.09
379.333	975.939
382.928	1237.74
386.521	1238.17
390.113	1414.09
393.703	1542.14
397.292	1611.61
400.88	1796.47
404.466	1689.7
408.051	1742.29
411.634	1326.22
415.216	1237.09
418.797	1123.99
422.376	675.719
425.954	825.672
429.53	441.865
433.105	304.324
436.679	215.096
440.251	180.209
443.822	8.29297
447.391	46.5957
450.96	72.7578
454.526	176.19
458.091	31.0508
461.655	114.053
465.218	46.4941
468.779	234.535
472.338	351.978
475.897	703.707
479.454	895.684
483.009	1351.89
486.563	1346.32
490.116	1745.86
493.667	1790.47
497.217	1871.18
500.765	2202.02
504.312	2071.01
507.858	2202.16
511.402	2313.15
514.945	2499.99
518.486	2602.65
522.026	2922
525.565	2880.78
529.102	3219.32
532.638	3715
536.172	3805.96
539.705	3832.19
543.236	4241.68
546.766	4049.44
550.295	3857.54
553.822	3987.14
557.348	3378.2
560.873	3161.77
564.396	2561.95
567.917	2332.46
571.438	1689.65
574.957	1290.49
578.474	766.803
581.99	362.41
585.504	106.393
589.018	19.8965
592.529	34.9766
596.04	203.961
599.549	24.0645
603.056	73.207
606.562	102.768
610.067	190.75
613.57	199.68
617.072	265.736
620.572	507.016
624.071	419.508
627.569	682.213
631.065	661.127
634.56	963.25
638.053	1130.58
641.545	1184.12
645.035	1590.98
648.524	2186.04
652.012	2642.03
655.498	3259.32
658.983	3951.31
662.466	4554.6
665.948	5561.42
669.428	6819.55
672.907	7698.88
676.385	8161.41
679.861	7495.14
683.336	7049.06
686.809	6816.98
690.281	7172.04
693.752	7894.39
697.221	9231.12
700.688	10610.9
704.155	12749.9
707.619	14561.8
711.083	16153.1
714.545	17396.5
718.005	17925.2
721.464	17884.4
724.922	16919.6
728.378	15463.3
731.833	13569.9
735.286	11810.7
738.738	10419.3
742.189	9510.95
745.638	8877.24
749.085	8557.64
752.531	8976.03
755.976	9023.43
759.419	9673.83
762.861	9285.22
766.302	9699.59
769.741	9382.96
773.178	8479.31
776.614	7718.64
780.049	7018.36
783.482	6042.25
786.914	4847.52
790.345	3764.76
793.773	3065.98
797.201	2366.17
800.627	1957.76
804.052	1483.47
807.475	1056.58
810.897	580.664
814.317	276.717
817.736	438.732
821.153	25.7227
824.569	71.3594
827.984	126.719
831.397	56.6738
834.808	153.982
838.219	53.043
841.627	0.039063
845.035	201.492
848.441	144.545
851.845	142.978
855.248	274.168
858.65	230.252
862.05	48.9648
865.448	210.182
868.846	283.291
872.241	315.498
875.636	495.801
879.029	430.098
882.42	558.404
885.81	723.398
889.199	840.033
892.586	916.33
895.971	1119.62
899.356	1230.89
902.738	1322.17
906.12	1626.46
909.5	1507.78
912.878	1768.13
916.255	1807.54
919.63	1758.05
923.004	1830.64
926.377	2261.28
929.748	1954.08
933.118	1648.99
936.486	1761.03
939.853	1855.32
943.218	1829.73
946.582	1889.26
949.945	1660.86
953.306	1673.52
956.665	1538.52
960.023	1455.05
963.38	1323.88
966.735	1400.56
970.089	1388.71
973.441	1270.36
976.792	1212
980.141	1384.33
983.489	1284.57
986.836	1378.79
990.181	1390.55
993.524	1147.12
996.866	1308.6
1000.21	1306.09
1003.55	1286.8
1006.88	1195.23
1010.22	1375.89
1013.55	1348.78
1016.89	1606.9
1020.22	1704.27
1023.55	1562.86
1026.88	1890.68
1030.21	1760.73
1033.53	1714
1036.86	1729.54
1040.18	1799.54
1043.5	1826.72
1046.82	1721.41
1050.14	1799.12
1053.46	1956.79
1056.78	1951.53
1060.09	1892.47
1063.4	2132.24
1066.71	2105.53
1070.02	2024.44
1073.33	2228.71
1076.64	2101.8
1079.94	2045.65
1083.25	1742.48
1086.55	1950.33
1089.85	1685.96
1093.15	1494.42
1096.45	1644.84
1099.75	1578.35
1103.04	1522.13
1106.34	1414.21
1109.63	1347.5
1112.92	1242.36
1116.21	1010.02
1119.5	917.988
1122.78	883.402
1126.07	820.615
1129.35	814.906
1132.63	473.565
1135.92	626.58
1139.19	488.518
1142.47	349.166
1145.75	214.984
1149.02	287.984
1152.3	325.019
1155.57	208.06
1158.84	110.168
1162.11	64.3555
1165.38	121.568
1168.64	44.168
1171.91	42.9062
1175.17	135.348
1178.43	63.4141
1181.69	144.674
1184.95	123.65
1188.21	42.5215
1191.46	109.658
1194.72	93.1074
1197.97	59.502
1201.22	163.715
1204.47	164.676
1207.72	128.527
1210.97	58.8242
1214.21	111.103
1217.46	74.2051
1220.7	1.94336
1223.94	220.553
1227.18	198.85
1230.42	76.8691
1233.65	72.6973
1236.89	114.316
1240.12	104.869
1243.35	189.147
1246.59	141.123
1249.81	153.066
1253.04	108.514
1256.27	169.258
1259.49	321.09
1262.72	89.7793
1265.94	120.295
1269.16	290.637
1272.38	255.816
1275.59	211.611
1278.81	123.647
1282.03	415.287
1285.24	288.74
1288.45	363.541
1291.66	308.367
1294.87	283.238
1298.08	351.67
1301.28	248.379
1304.48	404.543
1307.69	381.709
1310.89	400.453
1314.09	253.434
1317.29	306.754
1320.48	95.4141
1323.68	254.457
1326.87	304.606
1330.06	96.3086
1333.26	75.4648
1336.44	249.125
1339.63	135.916
1342.82	186.637
1346	91.9629
1349.19	7.68555
1352.37	27.8789
1355.55	147.203
1358.73	28.8242
1361.9	4.66797
1365.08	263.037
1368.26	134.334
1371.43	9.58398
1374.6	53.0078
1377.77	224.014
1380.94	214.935
1384.11	3.40234
1387.27	71.1172
1390.43	153.547
1393.6	247.068
1396.76	314.258
1399.92	161.359
1403.08	207.256
1406.23	272.049
1409.39	272.963
1412.54	358.853
1415.69	264.684
1418.85	307.471
1421.99	343.275
1425.14	485.084
1428.29	316.904
1431.43	363.848
1434.58	245.863
1437.72	631.106
1440.86	428.607
1444	513.492
1447.13	482.207
1450.27	350.31
1453.4	418.545
1456.54	358.799
1459.67	328.691
1462.8	385.578
1465.93	272.185
1469.06	420.193
1472.18	392.961
1475.31	392.523
1478.43	244.053
1481.55	295.178
1484.67	89.9727
1487.79	251.463
1490.9	302.264
1494.02	112.441
1497.13	285.469
1500.24	234.281
1503.35	208.039
1506.46	230.719
1509.57	117.461
1512.68	256.619
1515.78	373.805
1518.88	244.32
1521.99	135.637
1525.09	40.4766
1528.18	181.09
1531.28	38.3633
1534.38	57.4863
1537.47	151.81
1540.56	158.266
1543.66	289.494
1546.74	55.3965
1549.83	168.639
1552.92	6.55078
1556.01	51.8125
1559.09	61.3926
1562.17	230.315
1565.25	180.463
1568.33	1.65625
