Measurement: Raman, 514 nm, ccw, Raman Data Processed
Mineral: Annite
Rruff sample: R060211
Ideal chemistry: KFe^2+^_3_AlSi_3_O_10_(OH)_2_
Locality: Mont Saint-Hilaire, Rouville County, Quebec, Canada
Source: Royal Ontario Museum
Description: Black mica
Measured chemistry: (K_0.94_[box]_0.03_Na_0.02_)_Σ=1_(Fe^2+^_2.07_Mg_0.57_Mn_0.33_Ti_0.03_)_Σ=3_(Si_2.98_Al_1.02_)O_10_((OH)_1.72_F_0.28_)_Σ=2_
Pin_id: L00722
Orientation: Laser parallel to a* (1 0 0). Fiducial mark perpendicular to laser is parallel to b [0 1 0]
Raman shift (cm-1)	intensity
230.765	0
234.416	95.8232
238.066	154.921
241.714	2.76269
245.361	0.049805
249.007	250.977
252.651	308.866
256.294	428.647
259.936	1568.27
263.576	1156.05
267.215	1208.47
270.852	1704.85
274.488	1683.25
278.123	1601.34
281.756	1011.09
285.388	833.938
289.019	599.767
292.648	396.549
296.276	212.193
299.902	155.736
303.527	138.273
307.151	5.49902
310.773	2.56836
314.394	121.871
318.013	24.3008
321.631	53.79
325.248	51
328.864	327.184
332.478	99.5361
336.09	82.8408
339.701	251.322
343.311	255.523
346.92	172.839
350.527	264.672
354.132	501.717
357.737	378.915
361.34	452.317
364.941	483.95
368.541	747.819
372.14	831.937
375.737	831.554
379.333	1236.34
382.928	1729.84
386.521	1892.98
390.113	1930.4
393.703	2337.19
397.292	2027.4
400.88	1550.91
404.466	1219.91
408.051	919.545
411.634	602.055
415.216	381.728
418.797	385.074
422.376	186.568
425.954	72.8047
429.53	130.904
433.105	213.352
436.679	10.2461
440.251	38.3154
443.822	13.7793
447.391	321.42
450.96	303.632
454.526	443.172
458.091	662.822
461.655	453.338
465.218	85.4766
468.779	23.335
472.338	99.6992
475.897	317.615
479.454	657.05
483.009	474.096
486.563	931.682
490.116	1165.49
493.667	1276.5
497.217	1541.76
500.765	2244.26
504.312	2500.99
507.858	2376.97
511.402	2813.19
514.945	2958.64
518.486	2480.31
522.026	2547.11
525.565	2555.01
529.102	2611.06
532.638	2574.26
536.172	2156.67
539.705	1994.38
543.236	2030.7
546.766	1655.53
550.295	1336.61
553.822	1243.09
557.348	1077.02
560.873	656.287
564.396	459.805
567.917	417.755
571.438	383.967
574.957	48.7705
578.474	17.1436
581.99	143.226
585.504	213.609
589.018	144.752
592.529	19.0879
596.04	199.432
599.549	259.232
603.056	410.276
606.562	745.688
610.067	1283.82
613.57	1440.7
617.072	1725.79
620.572	2590.07
624.071	3087.56
627.569	3510.23
631.065	3625.07
634.56	4068.09
638.053	3602.27
641.545	3316.61
645.035	2921
648.524	2677.74
652.012	2571.53
655.498	2310.45
658.983	2674.51
662.466	3069.69
665.948	3010
669.428	3062.48
672.907	2762.64
676.385	2600.74
679.861	2101.54
683.336	1857.33
686.809	1745.54
690.281	1887.12
693.752	1734.33
697.221	1920.62
700.688	1874.14
704.155	2171.13
707.619	2008.16
711.083	1922.23
714.545	1949.44
718.005	1922.14
721.464	1652.79
724.922	1624.08
728.378	1582.41
731.833	1403.4
735.286	1338.92
738.738	1278.94
742.189	1675.53
745.638	1705.28
749.085	1452.71
752.531	1762.96
755.976	2077.08
759.419	1909.22
762.861	1829.05
766.302	2092.25
769.741	2240.27
773.178	2125.64
776.614	1837.84
780.049	1959.86
783.482	1563.72
786.914	1159.39
790.345	1045.88
793.773	772.182
797.201	546.291
800.627	329.203
804.052	307.912
807.475	47.4141
810.897	144.648
814.317	10.459
817.736	153.26
821.153	168.75
824.569	130.152
827.984	41.9258
831.397	86.2324
834.808	172.777
838.219	9.01367
841.627	3.24609
845.035	66.9707
848.441	41.752
851.845	37.1484
855.248	82.9922
858.65	40.0312
862.05	135.684
865.448	192.215
868.846	72.6035
872.241	325.695
875.636	307.522
879.029	325.092
882.42	132.408
885.81	404.664
889.199	558.731
892.586	320.553
895.971	341.123
899.356	466.463
902.738	486.59
906.12	461.473
909.5	354.1
912.878	617.551
916.255	626.955
919.63	450.19
923.004	465.154
926.377	725.936
929.748	808.607
933.118	641.133
936.486	558.414
939.853	731.455
943.218	816.623
946.582	586.182
949.945	574.311
953.306	450.984
956.665	728.548
960.023	566.264
963.38	483.14
966.735	711.374
970.089	741.929
973.441	779.414
976.792	769.337
980.141	798.354
983.489	792.03
986.836	653.25
990.181	657.657
993.524	712.935
996.866	742.891
1000.21	824.381
1003.55	600.487
1006.88	825.243
1010.22	785.889
1013.55	618.832
1016.89	570.775
1020.22	742.514
1023.55	752.144
1026.88	626.859
1030.21	464.397
1033.53	709.338
1036.86	866.707
1040.18	407.49
1043.5	362.035
1046.82	464.055
1050.14	720.91
1053.46	544.771
1056.78	611.043
1060.09	677.664
1063.4	724.246
1066.71	559.088
1070.02	309.397
1073.33	559.125
1076.64	369.019
1079.94	258.081
1083.25	458.517
1086.55	461.288
1089.85	470.996
1093.15	433.161
1096.45	434.425
1099.75	400.362
1103.04	233.858
1106.34	347.881
1109.63	75.9609
1112.92	56.9238
1116.21	112.961
1119.5	212.844
1122.78	4.29883
1126.07	251.647
1129.35	291.568
1132.63	391.336
1135.92	92.0156
1139.19	178.596
1142.47	91.0723
1145.75	122.438
1149.02	195.367
1152.3	5.74023
1155.57	79.7344
1158.84	233.092
1162.11	0.345703
1165.38	36.9883
1168.64	228.344
1171.91	188.152
1175.17	50.1484
1178.43	130.834
1181.69	70.9883
1184.95	405.69
1188.21	81.7168
1191.46	145.398
1194.72	288.504
1197.97	136.223
1201.22	43.8301
1204.47	174.488
1207.72	88.9414
1210.97	317.152
1214.21	236.273
1217.46	15.3184
1220.7	375.254
1223.94	506.094
1227.18	132.822
1230.42	40.6406
1233.65	274.227
1236.89	523.717
1240.12	312.191
1243.35	149.252
1246.59	169.193
1249.81	263.103
1253.04	352.42
1256.27	237.672
1259.49	262.481
1262.72	691.188
1265.94	766.396
1269.16	488.809
1272.38	391.537
1275.59	573.844
1278.81	794.023
1282.03	344.098
1285.24	464.352
1288.45	750.148
1291.66	732.01
1294.87	431.174
1298.08	389.764
1301.28	819.502
1304.48	868.168
1307.69	573.279
1310.89	602.537
1314.09	870.258
1317.29	879.154
1320.48	788.232
1323.68	362.033
1326.87	708.939
1330.06	949.99
1333.26	726.285
1336.44	352.074
1339.63	563.6
1342.82	920.332
1346	942.18
1349.19	630.393
1352.37	638.25
1355.55	872.348
1358.73	946.762
1361.9	643.365
1365.08	471.082
1368.26	817.016
1371.43	720.49
1374.6	577.545
1377.77	466.973
1380.94	488.238
1384.11	723.809
1387.27	614.83
1390.43	277.353
1393.6	459.019
1396.76	826.594
1399.92	563.486
1403.08	191.523
1406.23	210.932
1409.39	568.227
1412.54	317.775
1415.69	118.094
1418.85	178.219
1421.99	684.012
1425.14	650.856
1428.29	245.16
1431.43	413.705
1434.58	503.717
1437.72	543.936
1440.86	239.541
1444	5.48438
1447.13	391.012
1450.27	571.467
1453.4	265.389
1456.54	202.922
1459.67	9.77148
1462.8	493.285
1465.93	514.769
1469.06	38.9355
1472.18	27.0371
1475.31	334.967
1478.43	335.824
1481.55	92.5762
1484.67	78.6856
1487.79	313.568
1490.9	262.961
1494.02	71.7734
1497.13	177.42
1500.24	171.603
1503.35	510.402
1506.46	422.232
1509.57	242.322
1512.68	352.037
1515.78	476.709
1518.88	472.459
1521.99	316.066
1525.09	188.867
1528.18	532.559
1531.28	438.141
1534.38	290.787
1537.47	326.207
1540.56	438.731
1543.66	533.633
1546.74	510.191
1549.83	189.141
1552.92	807.85
1556.01	1173.45
1559.09	227.365
1562.17	127.963
1565.25	0.019531
1568.33	185.865
1571.41	0
