Measurement: Raman, 514 nm, ccw, Raman Data Processed
Mineral: Annite
Rruff sample: R060204
Ideal chemistry: KFe^2+^_3_AlSi_3_O_10_(OH)_2_
Locality: Mont Saint-Hilaire, Rouville County, Quebec, Canada
Source: Royal Ontario Museum
Description: Black mica with pseudohexagonal outines
Measured chemistry: (K_0.96_Na_0.04_)_Σ=1_(Fe^2+^_2.04_Mg_0.81_Mn_0.09_Ti_0.03_[box]_0.03_)_Σ=3_(Si_3.00_Al_1.00_)O_10_((OH)_1.54_F_0.46_)_Σ=2_
Pin_id: L01689
Orientation: Laser parallel to (1 0 1). Fiducial mark perpendicular to laser is parallel to b [0 1 0]
Raman shift (cm-1)	intensity
230.849	0
234.512	127.523
238.173	248.87
241.832	87.0674
245.49	50.1709
249.147	188.049
252.802	374.144
256.455	624.084
260.107	629.111
263.757	867.667
267.406	863.841
271.053	606.725
274.698	696.534
278.342	779.171
281.985	442.031
285.626	319.992
289.265	323.731
292.903	206.56
296.54	3.18848
300.174	35.4082
303.808	128.642
307.439	165.635
311.07	279.812
314.698	111.814
318.325	73.7861
321.951	248.713
325.575	414.535
329.198	398.257
332.819	424.903
336.438	630.464
340.056	581.757
343.673	579.564
347.287	725.605
350.901	965.287
354.513	909.434
358.123	681.745
361.732	793.181
365.339	663.71
368.945	601.344
372.549	642.092
376.152	732.679
379.753	717.753
383.352	800.335
386.95	746.642
390.547	869.364
394.142	1034.72
397.735	1116.9
401.327	1222.94
404.918	1231.9
408.507	912.726
412.094	1039.09
415.68	955.82
419.265	763.583
422.847	516.582
426.429	621.5
430.009	434.626
433.587	285.902
437.164	131.421
440.739	381.45
444.313	156.086
447.885	42.5185
451.456	192.973
455.025	21.5293
458.593	89.0508
462.159	119.643
465.724	302.261
469.287	311.059
472.848	424.169
476.409	610.391
479.967	844.729
483.524	1069.96
487.08	1002.62
490.634	1188.95
494.187	1253.56
497.738	1221.21
501.287	1240.71
504.835	1350.02
508.382	1389.18
511.927	1448.51
515.47	1444.5
519.013	1372.27
522.553	1421.43
526.092	1564.3
529.63	1538.29
533.166	1789.41
536.7	1847.68
540.233	1823.23
543.765	1571.18
547.295	1652.41
550.823	1530.96
554.35	1310.93
557.876	975.418
561.4	1052.48
564.922	874.092
568.443	488.114
571.963	501.522
575.481	497.156
578.998	297.462
582.513	320.353
586.026	189.552
589.538	91.2246
593.049	78.3242
596.558	26.7354
600.065	42.4551
603.571	63.9268
607.076	33.7305
610.579	217.992
614.081	273.356
617.581	462.837
621.079	439.432
624.577	462.137
628.072	522.956
631.566	680.894
635.059	777.977
638.55	996.111
642.04	1233.38
645.528	1531.75
649.015	1771.22
652.5	2200.46
655.984	2962.43
659.466	3491.16
662.947	4443.98
666.426	5202.86
669.904	5447.81
673.38	5477.04
676.855	5016.94
680.329	4748.49
683.8	4629.81
687.271	4424.15
690.74	4554.67
694.207	5364.82
697.673	5957.93
701.138	6697.42
704.601	8361.83
708.062	8951.93
711.522	8581.21
714.981	8467.29
718.438	8415.92
721.894	7886.66
725.348	7163.37
728.801	6438.82
732.252	5921.69
735.702	5297.5
739.15	4792.96
742.597	4459.45
746.042	4546.52
749.486	4722.15
752.928	4747.42
756.369	4749.52
759.809	5262.45
763.247	5107.21
766.683	4849.79
770.118	4415.77
773.552	3853.42
776.984	3407.47
780.414	2759.57
783.844	2292
787.271	2350.48
790.698	1638.77
794.122	954.866
797.546	815.768
800.968	627.474
804.388	415.979
807.807	106.288
811.224	8.60938
814.64	38.4912
818.055	45.7315
821.468	40.3164
824.88	203.355
828.29	83.1103
831.699	75.7314
835.106	205.255
838.512	33.9805
841.916	93.4121
845.319	139.84
848.72	90.0244
852.12	38.4492
855.519	64.3213
858.916	53.0166
862.311	46.542
865.706	270.907
869.098	396.118
872.49	429.222
875.879	522.264
879.268	464.185
882.655	629.969
886.04	810.642
889.424	672.185
892.807	816.605
896.188	1125.91
899.567	944.096
902.945	1000.18
906.322	1403.19
909.698	1360.13
913.071	1272.97
916.444	1410.74
919.815	1573.46
923.184	1587.09
926.552	1826.67
929.919	1594.22
933.284	1602.06
936.648	1700.21
940.01	1673.66
943.371	1660.21
946.731	1636.95
950.089	1850.85
953.445	1735.22
956.8	1607.69
960.154	1553.21
963.506	1703.09
966.857	1548.47
970.206	1568.63
973.554	1673.8
976.901	1692.97
980.246	1843.81
983.589	1597.08
986.931	1739.01
990.272	1586.33
993.611	1661.29
996.949	1694.27
1000.29	1899.26
1003.62	1855.1
1006.95	1824.82
1010.29	1875.71
1013.62	1805.58
1016.95	2070.96
1020.27	2100.57
1023.6	1792.5
1026.93	2090.66
1030.25	1883.06
1033.57	1730.75
1036.89	1707.71
1040.21	1860.7
1043.53	1759.18
1046.85	1757.13
1050.16	1865.32
1053.47	1886.65
1056.79	1991.47
1060.1	1821.36
1063.41	2017.93
1066.71	2113.67
1070.02	1945.41
1073.33	1885.41
1076.63	1779.92
1079.93	1691.34
1083.23	1847.49
1086.53	1608.82
1089.83	1281.86
1093.13	1362.14
1096.42	1242.81
1099.71	1045.59
1103.01	963.25
1106.3	852.126
1109.59	776.312
1112.88	919.843
1116.16	905.146
1119.45	739.458
1122.73	781.858
1126.01	685.382
1129.29	618.169
1132.57	661.825
1135.85	512.171
1139.13	646.087
1142.4	590.351
1145.68	578.606
1148.95	384.437
1152.22	415.629
1155.49	156.718
1158.76	190.749
1162.03	31.2666
1165.29	172.556
1168.56	30.4219
1171.82	14.916
1175.08	71.3975
1178.34	117.214
1181.6	38.206
1184.85	49.1553
1188.11	95.3086
1191.36	42.1074
1194.62	111.29
1197.87	89.7373
1201.12	167.777
1204.37	153.195
1207.61	180.195
1210.86	163.231
1214.1	29.2178
1217.35	125.933
1220.59	155.542
1223.83	35.3291
1227.07	31.4316
1230.3	16.3213
1233.54	11.9277
1236.77	26.9404
1240.01	21.2031
1243.24	77.1953
1246.47	118.283
1249.7	90.0166
1252.93	122.084
1256.15	40.9443
1259.38	163.636
1262.6	80.1397
1265.82	100.37
1269.04	186.446
1272.26	202.82
1275.48	23.9893
1278.7	23.1914
1281.91	104.581
1285.12	87.9775
1288.34	207.799
1291.55	77.1963
1294.76	101.203
1297.96	134.003
1301.17	49.0322
1304.38	189.263
1307.58	57.4912
1310.78	146.419
1313.98	184.355
1317.18	6.28613
1320.38	83.5107
1323.58	86.9951
1326.78	119.878
1329.97	56.7324
1333.16	108.375
1336.35	53.7022
1339.54	336.131
1342.73	201.499
1345.92	285.673
1349.11	237.237
1352.29	220.06
1355.47	307.51
1358.66	203.988
1361.84	387.179
1365.02	379.991
1368.19	416.585
1371.37	259.836
1374.54	320.815
1377.72	105.065
1380.89	300.078
1384.06	368.489
1387.23	175.613
1390.4	162.961
1393.56	375.11
1396.73	263.461
1399.89	331.75
1403.06	250.192
1406.22	181.648
1409.38	150.204
1412.54	357.455
1415.69	176.905
1418.85	224.733
1422	206.55
1425.15	388.863
1428.31	404.396
1431.46	380.56
1434.61	350.993
1437.75	258.859
1440.9	249.826
1444.04	389.608
1447.19	332.361
1450.33	89.9072
1453.47	360.279
1456.61	435.425
1459.75	412.845
1462.88	206.022
1466.02	324.716
1469.15	395.302
1472.29	314.866
1475.42	210.91
1478.55	119.128
1481.67	249.349
1484.8	467.646
1487.93	322.996
1491.05	153.107
1494.17	380.444
1497.3	285.847
1500.42	312.237
1503.54	155.549
1506.65	477.114
1509.77	270.676
1512.88	144.139
1516	337.981
1519.11	177.105
1522.22	377.498
1525.33	267.177
1528.44	208.152
1531.54	53.4863
1534.65	347.257
1537.75	168.567
1540.86	333.56
1543.96	268.291
1547.06	130.523
1550.15	216.119
1553.25	159.154
1556.35	137.483
1559.44	199.865
1562.54	57.5674
1565.63	215.011
1568.72	200.811
