Measurement: Raman, 514 nm, ccw, Raman Data Processed
Mineral: Annite
Rruff sample: R060204
Ideal chemistry: KFe^2+^_3_AlSi_3_O_10_(OH)_2_
Locality: Mont Saint-Hilaire, Rouville County, Quebec, Canada
Source: Royal Ontario Museum
Description: Black mica with pseudohexagonal outines
Measured chemistry: (K_0.96_Na_0.04_)_Σ=1_(Fe^2+^_2.04_Mg_0.81_Mn_0.09_Ti_0.03_[box]_0.03_)_Σ=3_(Si_3.00_Al_1.00_)O_10_((OH)_1.54_F_0.46_)_Σ=2_
Pin_id: M00366
Orientation: Laser parallel to -b* (0 -1 0). Fiducial mark perpendicular to laser is parallel to c [0 0 1]
Raman shift (cm-1)	intensity
235.633	0
239.282	242.494
242.93	2.49219
246.577	313.385
250.222	267.943
253.866	178.594
257.508	7.97656
261.149	360.703
264.789	491.891
268.427	388.014
272.064	698.041
275.7	687.998
279.334	385.83
282.967	200.883
286.598	471.803
290.229	536.248
293.857	268.176
297.485	283.102
301.111	261.398
304.735	170.381
308.358	104.357
311.98	173.15
315.601	142.685
319.22	260.1
322.837	74.6602
326.454	25.4648
330.068	198.568
333.682	36.0664
337.294	28.6699
340.905	291.697
344.514	526
348.122	528.373
351.729	548.951
355.334	903.457
358.938	915.127
362.54	1080.01
366.141	1347.15
369.741	1681.58
373.339	2143.32
376.936	2849.4
380.531	3272.4
384.126	4061.79
387.718	4389.32
391.31	4730.71
394.9	4657.06
398.488	3845.34
402.075	2812.67
405.661	2217.88
409.245	1592.99
412.828	987.113
416.41	550.1
419.99	460.092
423.569	235.881
427.146	102.225
430.722	178.352
434.297	87.8906
437.87	162.9
441.442	370.922
445.012	323.221
448.581	90.9102
452.149	49.6504
455.715	499.719
459.28	213.65
462.843	526.611
466.405	1053.87
469.965	1522.46
473.525	2465.95
477.082	2515.66
480.639	2677.99
484.194	2711.31
487.747	2590.24
491.3	2608.47
494.85	2671.11
498.4	3118.81
501.948	3470.65
505.494	3775.57
509.039	3815.92
512.583	3559.69
516.125	3395.9
519.666	2932.54
523.206	2533.59
526.744	2261.95
530.281	2243.69
533.816	1841.82
537.35	1711.37
540.882	1630.55
544.413	1531.76
547.943	1411.02
551.471	1263.12
554.998	1301.93
558.523	1176.5
562.047	911.68
565.57	698.324
569.091	649.789
572.611	737.723
576.129	616.191
579.646	629.75
583.162	897.602
586.676	644.199
590.188	696.168
593.7	830.879
597.209	952.242
600.718	964.18
604.225	1045.6
607.73	1823.55
611.235	2163.17
614.737	2412.32
618.239	3612.89
621.739	4499.94
625.237	5552.15
628.734	6384.47
632.23	6865.84
635.724	6597.6
639.217	5658.75
642.708	5006.25
646.198	4007.09
649.687	3343.26
653.174	2654.78
656.66	2399.62
660.144	2028.73
663.627	2066.15
667.108	1628.52
670.588	1803.06
674.067	1970.41
677.544	1746.43
681.02	1635.58
684.494	1453.46
687.967	2084.36
691.438	1790.03
694.908	2070.49
698.377	1695.49
701.844	1326.96
705.31	1366.33
708.774	975.797
712.237	980.379
715.698	1011.64
719.158	840.762
722.617	632.172
726.074	853.926
729.53	829.973
732.984	539.488
736.437	707.043
739.888	913.641
743.338	921.848
746.787	573.879
750.234	636.621
753.68	530.199
757.124	962.727
760.567	792.137
764.008	927.648
767.448	1043.55
770.887	1138.19
774.324	1120.25
777.759	841.375
781.194	994.422
784.626	846.117
788.058	650.988
791.488	760.84
794.916	391.68
798.343	552.375
801.769	330.648
805.193	270.594
808.616	553.551
812.037	20.8867
815.457	81.6641
818.875	324.363
822.292	111.555
825.707	176.231
829.122	167.711
832.534	157.402
835.945	81.4297
839.355	23.6484
842.763	271.629
846.17	114.473
849.576	4.54688
852.98	102.43
856.382	102.492
859.783	263.637
863.183	275.121
866.581	0.246094
869.978	24.1562
873.373	239.852
876.767	351.238
880.159	214.231
883.55	54.0078
886.94	341.098
890.328	401.359
893.714	312.688
897.1	3.84375
900.483	856.289
903.866	521.793
907.246	340.887
910.626	469.844
914.004	626.023
917.38	643.773
920.755	506.152
924.129	181.121
927.501	455.828
930.872	898.695
934.241	364.789
937.609	612.012
940.975	687.539
944.34	726.758
947.703	655.887
951.065	627.754
954.426	831.852
957.785	573.312
961.142	547.852
964.499	565.441
967.853	696.867
971.207	685.676
974.558	482.488
977.909	551.965
981.258	977.176
984.605	969.777
987.951	397.914
991.295	388.867
994.639	371.801
997.98	533.699
1001.32	295.945
1004.66	215.074
1008	249.055
1011.33	488.441
1014.67	45.832
1018	83.6523
1021.33	538.562
1024.66	377.684
1027.99	201.477
1031.32	46.9922
1034.64	354.535
1037.97	353.59
1041.29	177.68
1044.61	154.324
1047.93	84.3125
1051.25	749.414
1054.56	353.68
1057.88	174.641
1061.19	412.086
1064.51	660.227
1067.82	321.836
1071.13	418.914
1074.43	791.516
1077.74	1205.26
1081.05	1746.81
1084.35	2244.38
1087.65	1424.38
1090.95	789.711
1094.25	678.496
1097.55	888.117
1100.85	784.258
1104.14	638.602
1107.43	284.883
1110.73	166.191
1114.02	850.109
1117.31	400.965
1120.59	381.512
1123.88	177.883
1127.16	579.191
1130.45	599.172
1133.73	489.199
1137.01	203.551
1140.29	454.281
1143.57	457.422
1146.84	198.25
1150.12	1.59766
1153.39	467.75
1156.66	404.332
1159.93	93.6836
1163.2	92.2578
1166.46	205.34
1169.73	343.219
1172.99	118.383
1176.26	69.1562
1179.52	91.9883
1182.78	339.602
1186.04	299.242
1189.29	17.5664
1192.55	123.801
1195.8	88.8516
1199.05	447.559
1202.31	209.34
1205.55	439.25
1208.8	526.301
1212.05	439.434
1215.29	51.6562
1218.54	32.0664
1221.78	228.25
1225.02	488.664
1228.26	337.176
1231.5	273.824
1234.73	669.629
1237.97	727.519
1241.2	29.4375
1244.43	111.422
1247.66	431.301
1250.89	40.1445
1254.12	145.043
1257.34	8.74219
1260.57	307.273
1263.79	570.348
1267.01	335.641
1270.23	258.992
1273.45	124.234
1276.67	244.543
1279.88	217.684
1283.1	61.9609
1286.31	721.594
1289.52	878.328
1292.73	931.258
1295.94	797.367
1299.14	700.562
1302.35	1213.84
1305.55	1381.28
1308.75	687.613
1311.95	818.223
1315.15	1484.98
1318.35	1578.91
1321.55	968.133
1324.74	1061.42
1327.94	1413.92
1331.13	1541.93
1334.32	1209.3
1337.51	1101.52
1340.69	1025.05
1343.88	1758.01
1347.06	1635.6
1350.25	1436.18
1353.43	1839.31
1356.61	2022.58
1359.79	1376.53
1362.96	1175.22
1366.14	1457.66
1369.31	1633.88
1372.49	1235
1375.66	894.801
1378.83	1171.22
1381.99	1399.62
1385.16	1165.93
1388.33	714.359
1391.49	855.891
1394.65	1100.82
1397.81	1287.82
1400.97	838.234
1404.13	486.977
1407.29	594.938
1410.44	1139.36
1413.59	650.887
1416.74	460.266
1419.89	403.769
1423.04	732.406
1426.19	893
1429.34	186.281
1432.48	250.914
1435.62	588.25
1438.77	606.305
1441.9	463.93
1445.04	37.3867
1448.18	419.785
1451.32	153.238
1454.45	329.863
1457.58	149.406
1460.71	516.973
1463.84	666.461
1466.97	614.738
1470.1	463.121
1473.22	644.777
1476.35	1001.1
1479.47	176.418
1482.59	462.281
1485.71	370.894
1488.83	519.106
1491.94	0
