Measurement: Raman, 514 nm, ccw, Raman Data Processed
Mineral: Annite
Rruff sample: R060211
Ideal chemistry: KFe^2+^_3_AlSi_3_O_10_(OH)_2_
Locality: Mont Saint-Hilaire, Rouville County, Quebec, Canada
Source: Royal Ontario Museum
Description: Black mica
Measured chemistry: (K_0.94_[box]_0.03_Na_0.02_)_Σ=1_(Fe^2+^_2.07_Mg_0.57_Mn_0.33_Ti_0.03_)_Σ=3_(Si_2.98_Al_1.02_)O_10_((OH)_1.72_F_0.28_)_Σ=2_
Pin_id: L01834
Orientation: Laser parallel to b* (0 1 0). Fiducial mark perpendicular to laser is parallel to c [0 0 1]
Raman shift (cm-1)	intensity
230.849	0
234.512	0.572266
238.173	265.894
241.832	247.072
245.49	25.4277
249.147	81.0996
252.802	249.81
256.455	356.633
260.107	412.541
263.757	591.35
267.406	527.213
271.053	530.531
274.698	507.369
278.342	528.717
281.985	622.086
285.626	268.109
289.265	6.21094
292.903	117.791
296.54	328.139
300.174	147.783
303.808	227.477
307.439	164.762
311.07	292.666
314.698	355.281
318.325	171.215
321.951	223.606
325.575	151.531
329.198	296.508
332.819	430.188
336.438	450.336
340.056	693.729
343.673	505.945
347.287	794.385
350.901	677.629
354.513	445.685
358.123	354.879
361.732	521.773
365.339	430.611
368.945	550.131
372.549	439.44
376.152	103.902
379.753	706.539
383.352	661.135
386.95	706.822
390.547	736.553
394.142	501.315
397.735	488.022
401.327	528.125
404.918	467.627
408.507	491.103
412.094	523.611
415.68	330.508
419.265	372.111
422.847	310.363
426.429	294.334
430.009	378.279
433.587	121.488
437.164	174.082
440.739	35.5879
444.313	108.967
447.885	76.7676
451.456	16.8418
455.025	196.391
458.593	97.3398
462.159	95.207
465.724	91.4941
469.287	226.514
472.848	207.307
476.409	302.107
479.967	421.059
483.524	508.165
487.08	488.456
490.634	564.206
494.187	684.106
497.738	751.595
501.287	892.239
504.835	816.004
508.382	947.305
511.927	912.316
515.47	998.923
519.013	1062.91
522.553	1218.79
526.092	1240.99
529.63	1270.51
533.166	1740.86
536.7	1711.78
540.233	1555.91
543.765	1325.01
547.295	1455.33
550.823	1188.97
554.35	1067.79
557.876	1068.81
561.4	848.559
564.922	571.156
568.443	535.447
571.963	540.109
575.481	299.703
578.998	360.168
582.513	484.641
586.026	137.648
589.538	178.711
593.049	158.969
596.558	197.731
600.065	198.82
603.571	414.703
607.076	475.012
610.579	689.769
614.081	751.148
617.581	848.121
621.079	956.113
624.577	1143.12
628.072	1392.14
631.566	1279.19
635.059	1510.27
638.55	1750.37
642.04	2207.48
645.528	2607.62
649.015	2922.76
652.5	3667.91
655.984	4740.63
659.466	5609.04
662.947	6782.82
666.426	7487.61
669.904	7641.3
673.38	7175.4
676.855	6623.15
680.329	6044.58
683.8	5243.18
687.271	4420.29
690.74	4388.83
694.207	3716.3
697.673	3652.01
701.138	3352.85
704.601	2913.56
708.062	2453.49
711.522	2413.8
714.981	2189.3
718.438	2052.21
721.894	1899.22
725.348	1590.56
728.801	1741.42
732.252	1700.32
735.702	1418.64
739.15	1326.61
742.597	1425.73
746.042	1149.77
749.486	1093.42
752.928	1414.03
756.369	1274.46
759.809	1335.34
763.247	1491.94
766.683	1205.28
770.118	1309.33
773.552	1134.11
776.984	1056.6
780.414	1117.5
783.844	827.715
787.271	844.328
790.698	667.633
794.122	516.629
797.546	451.344
800.968	298.644
804.388	282.566
807.807	119.008
811.224	3.22656
814.64	15.8398
818.055	49.293
821.468	331.738
824.88	228.988
828.29	40.2578
831.699	75.4141
835.106	47.4219
838.512	123.719
841.916	72.668
845.319	2.61328
848.72	27.0078
852.12	224.332
855.519	118.109
858.916	138.477
862.311	171.41
865.706	480.926
869.098	419.301
872.49	324.41
875.879	473.141
879.268	429.703
882.655	392.219
886.04	341.492
889.424	341.426
892.807	580.062
896.188	688.102
899.567	647.352
902.945	511.961
906.322	796.629
909.698	641.012
913.071	735.094
916.444	833.844
919.815	1029.25
923.184	1343.32
926.552	1190.06
929.919	1147.89
933.284	1302.99
936.648	1606.49
940.01	1699.19
943.371	1774.06
946.731	1833.32
950.089	2059.28
953.445	1653.69
956.8	1707.83
960.154	2116.83
963.506	2309.54
966.857	2123.94
970.206	2158.39
973.554	1854.29
976.901	2193.28
980.246	2098.92
983.589	2235.06
986.931	2391.33
990.272	2630.95
993.611	2683.23
996.949	3140.23
1000.29	4031.01
1003.62	4501.27
1006.95	4708.53
1010.29	5030.88
1013.62	5323.66
1016.95	5013.19
1020.27	5017.6
1023.6	4582.68
1026.93	4105.56
1030.25	3428.42
1033.57	3388.92
1036.89	3265.01
1040.21	3128.08
1043.53	2753.36
1046.85	2545.64
1050.16	2485.73
1053.47	2089.62
1056.79	2124.86
1060.1	1803.92
1063.41	1925.23
1066.71	1679.96
1070.02	1541.1
1073.33	1464.93
1076.63	1380.65
1079.93	1145.31
1083.23	981.023
1086.53	661.672
1089.83	840.246
1093.13	554.402
1096.42	436.191
1099.71	365.312
1103.01	408.668
1106.3	384.07
1109.59	199.035
1112.88	83.2031
1116.16	184.508
1119.45	191.574
1122.73	341.004
1126.01	245.359
1129.29	225.887
1132.57	192.391
1135.85	211.148
1139.13	229.519
1142.4	157.242
1145.68	2.30859
1148.95	327.238
1152.22	1.06641
1155.49	71.5117
1158.76	119.773
1162.03	192.945
1165.29	375.019
1168.56	93.2539
1171.82	255.719
1175.08	25.5078
1178.34	143.113
1181.6	149.594
1184.85	104.981
1188.11	343.223
1191.36	138.375
1194.62	57.4531
1197.87	179.449
1201.12	370.32
1204.37	373.09
1207.61	12.6445
1210.86	257.953
1214.1	359.441
1217.35	368.906
1220.59	360.328
1223.83	324.766
1227.07	511.277
1230.3	288.793
1233.54	250.566
1236.77	383.867
1240.01	325.512
1243.24	523.613
1246.47	387.824
1249.7	367.465
1252.93	458.043
1256.15	495.481
1259.38	424.523
1262.6	466.492
1265.82	507.445
1269.04	470.988
1272.26	663.078
1275.48	628.418
1278.7	668.391
1281.91	720.914
1285.12	686.871
1288.34	759.125
1291.55	801.91
1294.76	978.539
1297.96	1065.11
1301.17	728.289
1304.38	568.203
1307.58	640.879
1310.78	666.871
1313.98	983.402
1317.18	750.168
1320.38	745.941
1323.58	784.223
1326.78	999.664
1329.97	888.457
1333.16	1034.44
1336.35	925.191
1339.54	1084.85
1342.73	959.168
1345.92	822.625
1349.11	1426.77
1352.29	1436.37
1355.47	958.449
1358.66	1190.82
1361.84	1165.57
1365.02	1176.96
1368.19	1321.25
1371.37	1445.61
1374.54	1211.2
1377.72	1111.16
1380.89	1074.4
1384.06	1138.28
1387.23	1033.28
1390.4	1293.07
1393.56	1335.27
1396.73	983.16
1399.89	1200.32
1403.06	829.793
1406.22	1030.9
1409.38	957.973
1412.54	939.785
1415.69	757.801
1418.85	931.402
1422	578.238
1425.15	462.828
1428.31	458.539
1431.46	504.879
1434.61	488.879
1437.75	557.09
1440.9	368.344
1444.04	182.727
1447.19	79.3555
1450.33	23.0117
1453.47	303.672
1456.61	265.394
1459.75	75.3984
1462.88	87.0898
1466.02	167.426
1469.15	432.301
1472.29	157.402
1475.42	250.926
1478.55	34.2695
1481.67	74.918
1484.8	452.004
1487.93	109.641
1491.05	189.078
1494.17	322.656
1497.3	173.492
1500.42	19.8984
1503.54	389.906
1506.65	217.844
1509.77	529.797
1512.88	418.762
1516	361.336
1519.11	392.758
1522.22	359.129
1525.33	459.316
1528.44	312.789
1531.54	512.055
1534.65	530.34
1537.75	491.34
1540.86	175.934
1543.96	322.004
1547.06	295.844
1550.15	562.641
1553.25	541.859
1556.35	684.848
1559.44	400.75
1562.54	184.578
1565.63	200.551
1568.72	2.07031
