Measurement: Raman, 514 nm, ccw, Raman Data Processed
Mineral: Annite
Rruff sample: R060211
Ideal chemistry: KFe^2+^_3_AlSi_3_O_10_(OH)_2_
Locality: Mont Saint-Hilaire, Rouville County, Quebec, Canada
Source: Royal Ontario Museum
Description: Black mica
Measured chemistry: (K_0.94_[box]_0.03_Na_0.02_)_Σ=1_(Fe^2+^_2.07_Mg_0.57_Mn_0.33_Ti_0.03_)_Σ=3_(Si_2.98_Al_1.02_)O_10_((OH)_1.72_F_0.28_)_Σ=2_
Pin_id: L01073
Orientation: Laser parallel to c* (0 0 1). Fiducial mark perpendicular to laser is parallel to a [1 0 0]
Raman shift (cm-1)	intensity
230.849	0
234.512	56.7266
238.173	93.9297
241.832	154.504
245.49	231.07
249.147	191.75
252.802	432.832
256.455	1120.74
260.107	1755.49
263.757	1919.01
267.406	2144.39
271.053	2062.25
274.698	2091.07
278.342	2171.98
281.985	1872.89
285.626	1548.31
289.265	1173.59
292.903	892.582
296.54	222.992
300.174	296.336
303.808	163.504
307.439	190.719
311.07	288.469
314.698	194.844
318.325	237.223
321.951	40.6289
325.575	211.312
329.198	456.324
332.819	488.984
336.438	417.856
340.056	739.098
343.673	1039.06
347.287	1360.52
350.901	935.977
354.513	1041.19
358.123	1199.89
361.732	856.195
365.339	805.195
368.945	929.91
372.549	775.344
376.152	771.469
379.753	653.797
383.352	844.434
386.95	1111.37
390.547	1280.43
394.142	1511.78
397.735	1326.58
401.327	1206.48
404.918	1158.16
408.507	771.867
412.094	971.199
415.68	1006.64
419.265	997.586
422.847	637.231
426.429	875.996
430.009	385.016
433.587	636.469
437.164	176.453
440.739	49.207
444.313	57.2773
447.885	119.332
451.456	84.8672
455.025	146.809
458.593	68.9922
462.159	514.68
465.724	760.738
469.287	712.844
472.848	1125.04
476.409	1697.81
479.967	2125.81
483.524	2061.66
487.08	2655.95
490.634	3072.95
494.187	3637.28
497.738	3800.02
501.287	4379.19
504.835	4478.3
508.382	4513.27
511.927	5100.53
515.47	5589.97
519.013	5618.38
522.553	5895.29
526.092	6202.92
529.63	6735.35
533.166	6760.73
536.7	6680.91
540.233	6251.09
543.765	5884.56
547.295	5251.66
550.823	4951.31
554.35	4128.29
557.876	3789.52
561.4	3571.9
564.922	2511.8
568.443	2327.2
571.963	1823.21
575.481	1352.73
578.998	1380.48
582.513	790.832
586.026	270.965
589.538	149.703
593.049	12.7812
596.558	5.04297
600.065	286.699
603.571	65.9648
607.076	312.191
610.579	562.711
614.081	693.629
617.581	589.84
621.079	817.328
624.577	1018.09
628.072	929.102
631.566	1182.36
635.059	1147.88
638.55	1444.65
642.04	1908.66
645.528	2257.93
649.015	2926.46
652.5	3653.25
655.984	5004.27
659.466	6364.55
662.947	7404.08
666.426	8404.88
669.904	8732.93
673.38	8361.29
676.855	6314.53
680.329	5398.41
683.8	4573.98
687.271	4092.41
690.74	4005.32
694.207	4166.03
697.673	4434.19
701.138	4615.96
704.601	4857.25
708.062	4851.81
711.522	5223.31
714.981	5438.94
718.438	5554.6
721.894	4910.94
725.348	5046.93
728.801	4639.77
732.252	4361.12
735.702	4285.6
739.15	4833.66
742.597	4761.94
746.042	4767.17
749.486	5346.47
752.928	5978.83
756.369	5903.25
759.809	6331.73
763.247	6559.25
766.683	6709.83
770.118	6377.45
773.552	6458.12
776.984	6071.83
780.414	5587.59
783.844	4805.38
787.271	3833.2
790.698	3250.07
794.122	2356.96
797.546	1805.88
800.968	1305.83
804.388	696
807.807	66.7891
811.224	145.766
814.64	149.434
818.055	313.703
821.468	352.16
824.88	86.8477
828.29	94.6094
831.699	255.074
835.106	168.731
838.512	183.422
841.916	132.016
845.319	10.0352
848.72	24.8828
852.12	263.555
855.519	490.062
858.916	551.539
862.311	981.039
865.706	1207.54
869.098	1204.03
872.49	1559.56
875.879	1907.14
879.268	1298.8
882.655	1588.46
886.04	1399.17
889.424	1407
892.807	1753.85
896.188	1669.71
899.567	1529.67
902.945	1618.68
906.322	1224.75
909.698	1686
913.071	1626.48
916.444	1628.98
919.815	2009.65
923.184	1966.35
926.552	2275.45
929.919	2152.86
933.284	2083.69
936.648	1883.59
940.01	2459.63
943.371	2006.73
946.731	1913.82
950.089	1785.56
953.445	1687.03
956.8	1582.42
960.154	1314.75
963.506	1005.82
966.857	995.91
970.206	963.82
973.554	1284.79
976.901	899.758
980.246	672.356
983.589	828.586
986.931	1060.95
990.272	1211.09
993.611	819.406
996.949	1486.92
1000.29	1606.67
1003.62	1616.64
1006.95	1822.81
1010.29	2047.19
1013.62	2638.78
1016.95	2569.56
1020.27	2517.58
1023.6	2313.82
1026.93	2229.2
1030.25	2232.77
1033.57	2223.88
1036.89	2091.82
1040.21	1998.96
1043.53	2358.08
1046.85	2367.32
1050.16	1962.01
1053.47	1914.8
1056.79	1895.75
1060.1	2251.12
1063.41	1902.89
1066.71	2388.89
1070.02	2411.3
1073.33	1911.28
1076.63	1864.99
1079.93	1590.69
1083.23	1550.13
1086.53	1289.39
1089.83	1390.33
1093.13	1014.16
1096.42	917.066
1099.71	788.535
1103.01	703.508
1106.3	612.969
1109.59	565.992
1112.88	515.203
1116.16	624.723
1119.45	555.297
1122.73	806.449
1126.01	461.625
1129.29	255.828
1132.57	205.809
1135.85	115.152
1139.13	67.4727
1142.4	177.262
1145.68	296.992
1148.95	53.6523
1152.22	72.8477
1155.49	14.7617
1158.76	104.332
1162.03	67.1719
1165.29	19.0469
1168.56	52.1797
1171.82	43.9648
1175.08	58.4805
1178.34	224.309
1181.6	118.398
1184.85	130.984
1188.11	88.4844
1191.36	186.016
1194.62	163.269
1197.87	104.312
1201.12	15.1055
1204.37	17.3789
1207.61	241
1210.86	106.844
1214.1	187.797
1217.35	212.125
1220.59	75.3086
1223.83	225.094
1227.07	58.2734
1230.3	145.906
1233.54	120.305
1236.77	470.746
1240.01	98.1055
1243.24	320.723
1246.47	185.25
1249.7	273.703
1252.93	232.473
1256.15	225.266
1259.38	111.582
1262.6	179.938
1265.82	406.398
1269.04	489.797
1272.26	394.324
1275.48	412.766
1278.7	362.594
1281.91	346.102
1285.12	500.516
1288.34	246.695
1291.55	427.215
1294.76	305.969
1297.96	580.422
1301.17	343.988
1304.38	450.035
1307.58	597.922
1310.78	624.781
1313.98	343.098
1317.18	179.184
1320.38	197.809
1323.58	380.473
1326.78	228.762
1329.97	726.441
1333.16	320.5
1336.35	440.402
1339.54	282.504
1342.73	147.754
1345.92	146.984
1349.11	380.371
1352.29	540.812
1355.47	306.363
1358.66	294.606
1361.84	110.234
1365.02	300.043
1368.19	528.953
1371.37	98.5469
1374.54	313.852
1377.72	64.5938
1380.89	142.902
1384.06	198.473
1387.23	298.035
1390.4	248.676
1393.56	415.762
1396.73	470.246
1399.89	352.012
1403.06	177.016
1406.22	267.055
1409.38	226.383
1412.54	366.836
1415.69	307.332
1418.85	414.051
1422	434.656
1425.15	506.926
1428.31	267.195
1431.46	366.66
1434.61	224.996
1437.75	660.438
1440.9	378.727
1444.04	254.934
1447.19	193.731
1450.33	220.609
1453.47	55.5508
1456.61	198.117
1459.75	271.195
1462.88	481.922
1466.02	251.727
1469.15	113.477
1472.29	294.547
1475.42	372.223
1478.55	33.7773
1481.67	231.297
1484.8	82.8203
1487.93	252.254
1491.05	345.434
1494.17	334.945
1497.3	69.5664
1500.42	238.32
1503.54	106.867
1506.65	268.379
1509.77	207.629
1512.88	263.215
1516	408.758
1519.11	26.582
1522.22	10.293
1525.33	107.387
1528.44	211.469
1531.54	487.867
1534.65	281.219
1537.75	151
1540.86	372.047
1543.96	381.07
1547.06	378.016
1550.15	339.629
1553.25	342.824
1556.35	309.559
1559.44	135.273
1562.54	119.246
1565.63	154.883
1568.72	160.613
