Measurement: Raman, 514 nm, ccw, Raman Data Processed
Mineral: Annite
Rruff sample: R060211
Ideal chemistry: KFe^2+^_3_AlSi_3_O_10_(OH)_2_
Locality: Mont Saint-Hilaire, Rouville County, Quebec, Canada
Source: Royal Ontario Museum
Description: Black mica
Measured chemistry: (K_0.94_[box]_0.03_Na_0.02_)_Σ=1_(Fe^2+^_2.07_Mg_0.57_Mn_0.33_Ti_0.03_)_Σ=3_(Si_2.98_Al_1.02_)O_10_((OH)_1.72_F_0.28_)_Σ=2_
Pin_id: L01073
Orientation: Laser parallel to c* (0 0 1). Fiducial mark perpendicular to laser is parallel to a [1 0 0]
Raman shift (cm-1)	intensity
230.849	0
234.512	337.078
238.173	434.844
241.832	289.969
245.49	415.598
249.147	936.375
252.802	975.004
256.455	743.519
260.107	956.137
263.757	1346.31
267.406	1642.11
271.053	2447.39
274.698	1828.51
278.342	1957.63
281.985	1798.3
285.626	1488.91
289.265	952.906
292.903	572.832
296.54	688.004
300.174	317.184
303.808	49.0312
307.439	37.3945
311.07	338.953
314.698	105.66
318.325	189.184
321.951	113.269
325.575	167.316
329.198	238.906
332.819	167.824
336.438	526.035
340.056	579.66
343.673	972.688
347.287	1128.56
350.901	1264.66
354.513	1165.15
358.123	944.941
361.732	560.84
365.339	1090.39
368.945	787.629
372.549	646.664
376.152	587.82
379.753	428.754
383.352	667.496
386.95	1046.52
390.547	1003.8
394.142	949.336
397.735	1454.98
401.327	1244.59
404.918	1194.33
408.507	965.352
412.094	812.734
415.68	897.25
419.265	1075.41
422.847	519.074
426.429	429.562
430.009	248.047
433.587	428.981
437.164	147.062
440.739	147.469
444.313	9.85938
447.885	93.8086
451.456	49.4727
455.025	174.652
458.593	174.359
462.159	366.496
465.724	301.484
469.287	1137.31
472.848	1065.65
476.409	1431.72
479.967	1920.23
483.524	2105.28
487.08	2592.16
490.634	2917.38
494.187	3214.53
497.738	3637.23
501.287	3762.04
504.835	3953.41
508.382	4552.09
511.927	4755.66
515.47	5052.88
519.013	5057.85
522.553	5805.23
526.092	6270.31
529.63	5999.18
533.166	5984.8
536.7	6453.27
540.233	6021.01
543.765	5457.37
547.295	4854.2
550.823	4570.41
554.35	3707.14
557.876	3468.98
561.4	2788.73
564.922	3245.23
568.443	1931.22
571.963	1626.81
575.481	1144.47
578.998	1057.24
582.513	478.606
586.026	194.242
589.538	283.922
593.049	86.1523
596.558	256.867
600.065	43.1406
603.571	83.1758
607.076	342.926
610.579	526.438
614.081	499.207
617.581	804.336
621.079	721.781
624.577	987.449
628.072	1129.34
631.566	1059.46
635.059	1336.81
638.55	1574.38
642.04	1932.18
645.528	2723.2
649.015	2852.47
652.5	3900.96
655.984	4768.68
659.466	6194.61
662.947	7266.78
666.426	7805.17
669.904	8275.78
673.38	7447.62
676.855	6516.74
680.329	5225.12
683.8	4670.88
687.271	4277.51
690.74	4145.22
694.207	4312.07
697.673	4587.59
701.138	4762.41
704.601	4722.94
708.062	5006.31
711.522	5483.13
714.981	5177.64
718.438	5265.52
721.894	5296.85
725.348	4969.81
728.801	4647.06
732.252	4232.71
735.702	4344.58
739.15	4618.38
742.597	5025.99
746.042	4924.38
749.486	5292.03
752.928	5477.69
756.369	6670.34
759.809	6126.99
763.247	6270.62
766.683	6826.25
770.118	6109.84
773.552	5949.43
776.984	5821.97
780.414	5808.48
783.844	4631.96
787.271	3889.4
790.698	2995.79
794.122	2705.13
797.546	1563.43
800.968	825.66
804.388	451.836
807.807	149.945
811.224	69.0156
814.64	114.457
818.055	118.219
821.468	224.473
824.88	58.8867
828.29	207.781
831.699	18.0977
835.106	150.906
838.512	9.84766
841.916	132.992
845.319	181.231
848.72	79.168
852.12	69.9297
855.519	638.613
858.916	701.215
862.311	704.742
865.706	1164.18
869.098	1297.53
872.49	1304.86
875.879	1644.31
879.268	1542.83
882.655	1337.36
886.04	1666.76
889.424	1409.2
892.807	1094.57
896.188	1558.85
899.567	1541.06
902.945	1120.19
906.322	1414.24
909.698	1366.25
913.071	1607.19
916.444	1725.06
919.815	1499.84
923.184	1554.6
926.552	1823.3
929.919	1682.96
933.284	1817.62
936.648	2043.26
940.01	2052.83
943.371	1849.35
946.731	1851.03
950.089	1930.38
953.445	1360.37
956.8	1029.84
960.154	815.992
963.506	675.152
966.857	534.262
970.206	688.809
973.554	572.039
976.901	485.684
980.246	662.606
983.589	926.07
986.931	592.289
990.272	784.856
993.611	849.586
996.949	1109.47
1000.29	1398.53
1003.62	1555.74
1006.95	1206.64
1010.29	2074.88
1013.62	2116.32
1016.95	2147.79
1020.27	2261.28
1023.6	2242.24
1026.93	2109.37
1030.25	1722.62
1033.57	1772.11
1036.89	1778.61
1040.21	1848.44
1043.53	1816.77
1046.85	1778.89
1050.16	1503.92
1053.47	1737.86
1056.79	1614.08
1060.1	1774.41
1063.41	1803.72
1066.71	1579.43
1070.02	1333.04
1073.33	1248.29
1076.63	1237.91
1079.93	1140.7
1083.23	1170.63
1086.53	835.258
1089.83	846.648
1093.13	585.961
1096.42	531.672
1099.71	456.481
1103.01	511.809
1106.3	355.391
1109.59	206.039
1112.88	240.508
1116.16	186.281
1119.45	91.5039
1122.73	180.473
1126.01	165.305
1129.29	222.215
1132.57	27.5664
1135.85	84.2617
1139.13	167.781
1142.4	138.066
1145.68	162.449
1148.95	20.3516
1152.22	116.371
1155.49	129.231
1158.76	157.789
1162.03	193.887
1165.29	177.727
1168.56	204.414
1171.82	192.203
1175.08	34.457
1178.34	33.8633
1181.6	89.0547
1184.85	116.348
1188.11	200.078
1191.36	51.5469
1194.62	189.191
1197.87	139.758
1201.12	44.0312
1204.37	246.473
1207.61	3.53516
1210.86	105.086
1214.1	15.9648
1217.35	129.672
1220.59	190.109
1223.83	79.2188
1227.07	12.0586
1230.3	193.816
1233.54	244.125
1236.77	259.176
1240.01	47.8242
1243.24	30.7422
1246.47	129.594
1249.7	8.10938
1252.93	351.582
1256.15	28.8906
1259.38	197.953
1262.6	317.797
1265.82	300.312
1269.04	32.4023
1272.26	228.172
1275.48	719.297
1278.7	493.508
1281.91	490.746
1285.12	445.41
1288.34	556.934
1291.55	558.316
1294.76	621.414
1297.96	562.551
1301.17	468.305
1304.38	389.398
1307.58	466.621
1310.78	423.484
1313.98	807.027
1317.18	746.996
1320.38	911.914
1323.58	493.508
1326.78	557.43
1329.97	570.5
1333.16	655.766
1336.35	858.574
1339.54	645.801
1342.73	607.727
1345.92	764.438
1349.11	761.945
1352.29	804.391
1355.47	685.195
1358.66	660.961
1361.84	694.199
1365.02	644.894
1368.19	617.812
1371.37	594.16
1374.54	614.934
1377.72	540.41
1380.89	707.945
1384.06	843.547
1387.23	605.723
1390.4	217.816
1393.56	599.227
1396.73	217.531
1399.89	464.703
1403.06	303.473
1406.22	417.848
1409.38	620.289
1412.54	237.195
1415.69	429.332
1418.85	371.977
1422	286.254
1425.15	222.348
1428.31	211.359
1431.46	266.734
1434.61	46.5547
1437.75	118.254
1440.9	216.238
1444.04	226.004
1447.19	243.531
1450.33	329.703
1453.47	257.762
1456.61	51.332
1459.75	366.609
1462.88	290.625
1466.02	470.234
1469.15	117.191
1472.29	172.438
1475.42	341.477
1478.55	170.621
1481.67	206.199
1484.8	81.2969
1487.93	115.254
1491.05	53.3008
1494.17	71.7734
1497.3	11.2109
1500.42	23.9531
1503.54	255.5
1506.65	319.809
1509.77	404.953
1512.88	178.824
1516	293.988
1519.11	229.535
1522.22	145.039
1525.33	428.852
1528.44	472.996
1531.54	448.184
1534.65	53.7578
1537.75	277.449
1540.86	115.922
1543.96	50.2109
1547.06	320.769
1550.15	378.238
1553.25	413.297
1556.35	403.582
1559.44	433.867
1562.54	215.438
1565.63	127.394
1568.72	254.644
