Measurement: Raman, 514 nm, ccw, Raman Data Processed
Mineral: Annite
Rruff sample: R060204
Ideal chemistry: KFe^2+^_3_AlSi_3_O_10_(OH)_2_
Locality: Mont Saint-Hilaire, Rouville County, Quebec, Canada
Source: Royal Ontario Museum
Description: Black mica with pseudohexagonal outines
Measured chemistry: (K_0.96_Na_0.04_)_Σ=1_(Fe^2+^_2.04_Mg_0.81_Mn_0.09_Ti_0.03_[box]_0.03_)_Σ=3_(Si_3.00_Al_1.00_)O_10_((OH)_1.54_F_0.46_)_Σ=2_
Pin_id: L01689
Orientation: Laser parallel to (1 0 1). Fiducial mark perpendicular to laser is parallel to b [0 1 0]
Raman shift (cm-1)	intensity
230.849	0
234.512	123.176
238.173	204.748
241.832	26.1729
245.49	7.65625
249.147	322.492
252.802	348.275
256.455	256.221
260.107	269.893
263.757	420.489
267.406	621.665
271.053	617.297
274.698	780.821
278.342	850.211
281.985	403.799
285.626	438.333
289.265	301.023
292.903	221.68
296.54	177.898
300.174	234.904
303.808	193.9
307.439	5.39844
311.07	116.193
314.698	181.257
318.325	76.4502
321.951	351.178
325.575	417.694
329.198	521.039
332.819	654.235
336.438	698.94
340.056	708.896
343.673	676.245
347.287	805.144
350.901	1039.35
354.513	958.645
358.123	936.012
361.732	941.388
365.339	1043.73
368.945	891.891
372.549	740.388
376.152	723.326
379.753	874.536
383.352	895.733
386.95	1072.51
390.547	1161.19
394.142	1476.02
397.735	1162.04
401.327	1172.16
404.918	1286.46
408.507	1165.06
412.094	986.486
415.68	752.784
419.265	810.317
422.847	686.898
426.429	441.529
430.009	198.21
433.587	211.864
437.164	13.457
440.739	67.0264
444.313	0.699219
447.885	14.168
451.456	131.006
455.025	125.017
458.593	45.1445
462.159	199.834
465.724	143.76
469.287	255.718
472.848	695.714
476.409	963.749
479.967	1021.33
483.524	1022.36
487.08	1156.44
490.634	1351.87
494.187	1502.22
497.738	1624.55
501.287	1686.99
504.835	1752.56
508.382	1766.24
511.927	1862.04
515.47	2062.96
519.013	1963.99
522.553	2049.07
526.092	2355.24
529.63	2579.52
533.166	2683.94
536.7	2730.44
540.233	2838.08
543.765	2768.81
547.295	2419.05
550.823	2182.77
554.35	2030.39
557.876	1762.55
561.4	1296.18
564.922	1205.37
568.443	1210.3
571.963	735.684
575.481	667.324
578.998	289.43
582.513	202.658
586.026	103.191
589.538	97.834
593.049	8.60645
596.558	12.1182
600.065	47.0645
603.571	136.987
607.076	86.1934
610.579	136.507
614.081	243.216
617.581	467.447
621.079	556.9
624.577	628.798
628.072	777.639
631.566	769.602
635.059	1023.68
638.55	1228.88
642.04	1497.19
645.528	1736.61
649.015	2097.14
652.5	2509.77
655.984	3151.51
659.466	3891.33
662.947	4907.05
666.426	5506.27
669.904	6344.37
673.38	6669.56
676.855	6414.16
680.329	5751.82
683.8	5498.63
687.271	5518.12
690.74	6067.36
694.207	6536.59
697.673	7980.39
701.138	9236.45
704.601	10460.3
708.062	11240.8
711.522	12129.4
714.981	12600
718.438	12353.3
721.894	11535.5
725.348	10773.9
728.801	9689.93
732.252	8442.13
735.702	7482.27
739.15	7110.11
742.597	6764.48
746.042	6344.67
749.486	6907.75
752.928	6815.72
756.369	7249.57
759.809	7194.31
763.247	7244.93
766.683	7348.43
770.118	6770.81
773.552	6058.06
776.984	5276.19
780.414	4703.18
783.844	3666.05
787.271	2981.79
790.698	2444.05
794.122	1922.88
797.546	1379.22
800.968	1062.43
804.388	771.497
807.807	788.433
811.224	397.234
814.64	7.10644
818.055	119.307
821.468	68.5723
824.88	134.373
828.29	86.1211
831.699	188.806
835.106	68.5732
838.512	269.169
841.916	235.13
845.319	47.3662
848.72	124.701
852.12	48.6465
855.519	49.6738
858.916	219.811
862.311	205.778
865.706	238.671
869.098	516.605
872.49	609.457
875.879	625.224
879.268	509.917
882.655	859.517
886.04	807.027
889.424	831.454
892.807	862.805
896.188	958.44
899.567	1256.91
902.945	1153.92
906.322	1123.1
909.698	1376.34
913.071	1449.17
916.444	1448.45
919.815	1372.96
923.184	1571.07
926.552	1511.2
929.919	1403.33
933.284	1496.46
936.648	1586.62
940.01	1744.82
943.371	1616.16
946.731	1574.59
950.089	1696.54
953.445	1535.69
956.8	1521.01
960.154	1294.64
963.506	1332.73
966.857	1232.58
970.206	1185.13
973.554	1550.41
976.901	1287.86
980.246	1106.43
983.589	1292.33
986.931	1134.11
990.272	1177.44
993.611	1406.12
996.949	1143.96
1000.29	1202.11
1003.62	1541.21
1006.95	1327.14
1010.29	1361.07
1013.62	1445.31
1016.95	1696.81
1020.27	1584.58
1023.6	1545.63
1026.93	1565.02
1030.25	1722.66
1033.57	1404.56
1036.89	1563.72
1040.21	1514.19
1043.53	1549.43
1046.85	1630.51
1050.16	1617.89
1053.47	1566.59
1056.79	1660.24
1060.1	1972.75
1063.41	1897.98
1066.71	1748.79
1070.02	1806.98
1073.33	1770.12
1076.63	2513.65
1079.93	1847.89
1083.23	1547.27
1086.53	1913.23
1089.83	1464.62
1093.13	1424.83
1096.42	1243.42
1099.71	1221.65
1103.01	904.586
1106.3	716.066
1109.59	838.747
1112.88	820.284
1116.16	943.703
1119.45	741.944
1122.73	705.304
1126.01	648.235
1129.29	517.502
1132.57	424.539
1135.85	410.246
1139.13	526.093
1142.4	378.117
1145.68	257.119
1148.95	178.79
1152.22	293.606
1155.49	335.815
1158.76	227.737
1162.03	158.864
1165.29	109.907
1168.56	98.8965
1171.82	88.3652
1175.08	204.728
1178.34	74.5469
1181.6	56.4629
1184.85	81.0674
1188.11	2.01367
1191.36	148.413
1194.62	127.572
1197.87	364.925
1201.12	113.713
1204.37	178.872
1207.61	55.4668
1210.86	247.075
1214.1	52.0889
1217.35	46.0986
1220.59	133.743
1223.83	90.9131
1227.07	34.9766
1230.3	4.30859
1233.54	242.494
1236.77	133.843
1240.01	178.609
1243.24	29.4863
1246.47	50.7539
1249.7	113.375
1252.93	75.5732
1256.15	53.3975
1259.38	89.2236
1262.6	125.231
1265.82	116.886
1269.04	29.0283
1272.26	144.619
1275.48	275.95
1278.7	300.102
1281.91	94.0342
1285.12	212.607
1288.34	624.898
1291.55	55.9844
1294.76	250.839
1297.96	194.457
1301.17	43.7754
1304.38	126.83
1307.58	66.125
1310.78	45.457
1313.98	139.562
1317.18	285.668
1320.38	152.017
1323.58	89.3789
1326.78	94.5664
1329.97	211.015
1333.16	96.1182
1336.35	139.049
1339.54	32.54
1342.73	292.413
1345.92	88.1875
1349.11	65.1973
1352.29	158.927
1355.47	156.708
1358.66	58.4775
1361.84	110.518
1365.02	207.598
1368.19	295.179
1371.37	48.2803
1374.54	73.0107
1377.72	458.728
1380.89	270.529
1384.06	163.657
1387.23	6.74902
1390.4	150.912
1393.56	234.4
1396.73	202.569
1399.89	108.356
1403.06	213.39
1406.22	218.924
1409.38	394.174
1412.54	244.459
1415.69	178.682
1418.85	298.987
1422	410.098
1425.15	580.352
1428.31	226.626
1431.46	365.449
1434.61	474.934
1437.75	362.769
1440.9	263.767
1444.04	446.491
1447.19	363.518
1450.33	317.873
1453.47	271.445
1456.61	306.107
1459.75	298.969
1462.88	430.947
1466.02	441.322
1469.15	439.125
1472.29	279.316
1475.42	284.578
1478.55	328.254
1481.67	360.174
1484.8	351.227
1487.93	416.93
1491.05	234.328
1494.17	272.922
1497.3	173.373
1500.42	95.8398
1503.54	221.283
1506.65	263.166
1509.77	240.072
1512.88	163.299
1516	178.828
1519.11	222.975
1522.22	110.359
1525.33	83.0606
1528.44	254.219
1531.54	139.033
1534.65	47.4434
1537.75	80.5117
1540.86	194.397
1543.96	152.353
1547.06	359.842
1550.15	166.182
1553.25	51.5
1556.35	222.162
1559.44	214.254
1562.54	173.049
1565.63	215.738
1568.72	342.678
