Measurement: Raman, 514 nm, ccw, Raman Data Processed
Mineral: Annite
Rruff sample: R060211
Ideal chemistry: KFe^2+^_3_AlSi_3_O_10_(OH)_2_
Locality: Mont Saint-Hilaire, Rouville County, Quebec, Canada
Source: Royal Ontario Museum
Description: Black mica
Measured chemistry: (K_0.94_[box]_0.03_Na_0.02_)_Σ=1_(Fe^2+^_2.07_Mg_0.57_Mn_0.33_Ti_0.03_)_Σ=3_(Si_2.98_Al_1.02_)O_10_((OH)_1.72_F_0.28_)_Σ=2_
Pin_id: M00144
Orientation: Laser parallel to (-1 0 -1). Fiducial mark perpendicular to laser is parallel to -b [0 -1 0]
Raman shift (cm-1)	intensity
307.151	0
310.773	83.582
314.394	33.2246
318.013	198.256
321.631	91.2822
325.248	214.499
328.864	110.106
332.478	170.122
336.09	306.482
339.701	356.309
343.311	536.201
346.92	350.347
350.527	514.435
354.132	396.741
357.737	484.307
361.34	533.381
364.941	737.831
368.541	573.751
372.14	612.035
375.737	602.665
379.333	655.807
382.928	847.121
386.521	878.948
390.113	742.177
393.703	876.826
397.292	1057.9
400.88	807.394
404.466	973.286
408.051	775.026
411.634	505.965
415.216	398.721
418.797	366.502
422.376	246.126
425.954	175.162
429.53	62.582
433.105	89.5537
436.679	81.209
440.251	147.379
443.822	50.5645
447.391	93.9092
450.96	38.1143
454.526	118.121
458.091	20.0869
461.655	251.2
465.218	192.873
468.779	384.013
472.338	546.543
475.897	698.41
479.454	786.59
483.009	966.627
486.563	1186.74
490.116	1266.6
493.667	1098.65
497.217	1469.9
500.765	1403.35
504.312	1431
507.858	1450.87
511.402	1686.94
514.945	1582.02
518.486	1450.89
522.026	1688.56
525.565	1819.52
529.102	1802.88
532.638	1606.72
536.172	1494.16
539.705	1618.16
543.236	1354.73
546.766	1175.91
550.295	975.521
553.822	854.764
557.348	798.678
560.873	561.115
564.396	488.961
567.917	261.584
571.438	195.968
574.957	200.611
578.474	140.159
581.99	27.9131
585.504	8.4502
589.018	28.0723
592.529	3.19531
596.04	36.544
599.549	224.036
603.056	619.309
606.562	856.691
610.067	638.178
613.57	702.293
617.072	747.413
620.572	805.146
624.071	969.945
627.569	1028.8
631.065	1346.54
634.56	1626.16
638.053	2067.05
641.545	2582.51
645.035	3253.61
648.524	4202.78
652.012	5371.32
655.498	6567.92
658.983	7600
662.466	8263.41
665.948	8413.81
669.428	7467.27
672.907	6143.18
676.385	5343.56
679.861	4569.99
683.336	4146.44
686.809	3584.91
690.281	3315.33
693.752	3108.16
697.221	2765.75
700.688	2627.86
704.155	2469
707.619	2279.53
711.083	2156.92
714.545	1926.31
718.005	1851.62
721.464	1582.8
724.922	1473.3
728.378	1546.82
731.833	1389.47
735.286	1457.2
738.738	1659.69
742.189	1719.89
745.638	1695.89
749.085	1700.63
752.531	1906.53
755.976	1982.28
759.419	1923.22
762.861	1904.35
766.302	1869.51
769.741	1672.16
773.178	1546.48
776.614	1370.47
780.049	1177.1
783.482	858.125
786.914	700.326
790.345	616.916
793.773	444.76
797.201	286.251
800.627	2.7959
804.052	67.7314
807.475	78.0459
810.897	117.77
814.317	48.5967
817.736	124.398
821.153	22.5811
824.569	178.632
827.984	174.221
831.397	96.3926
834.808	108.292
838.219	73.043
841.627	226.106
845.035	39.7266
848.441	89.8135
851.845	151.525
855.248	202.874
858.65	549.967
862.05	443.809
865.448	444.398
868.846	750.764
872.241	731.871
875.636	786.726
879.029	842.332
882.42	906.697
885.81	1000.2
889.199	946.273
892.586	1053.53
895.971	1235.21
899.356	1328.12
902.738	1544.49
906.12	1551.18
909.5	1587.98
912.878	1683.65
916.255	1673.36
919.63	1864.37
923.004	1925.43
926.377	2016.57
929.748	2202.39
933.118	2341.72
936.486	2527.2
939.853	2408.24
943.218	2521.02
946.582	2516.79
949.945	2316.07
953.306	2209.05
956.665	2162.98
960.023	1947.15
963.38	1910.35
966.735	1944.76
970.089	1894.02
973.441	1914.17
976.792	2393.04
980.141	2379.11
983.489	2461.89
986.836	2884.72
990.181	3093.65
993.524	3340.22
996.866	3680.1
1000.21	4166.45
1003.55	4684.4
1006.88	4640.6
1010.22	4407.64
1013.55	4376.41
1016.89	4215.6
1020.22	4085.24
1023.55	3775.84
1026.88	3485.07
1030.21	3106.23
1033.53	2922.59
1036.86	2780.26
1040.18	2685.28
1043.5	2417.5
1046.82	2364.33
1050.14	2308.81
1053.46	2228.81
1056.78	2184.46
1060.09	1989.47
1063.4	2004.63
1066.71	1594.92
1070.02	1682.63
1073.33	1489.57
1076.64	1203.17
1079.94	1075.58
1083.25	1022.33
1086.55	882.982
1089.85	866.104
1093.15	482.791
1096.45	451.188
1099.75	441.303
1103.04	510.715
1106.34	513.451
1109.63	383.102
1112.92	644.15
1116.21	417.381
1119.5	280.367
1122.78	495.26
1126.07	505.457
1129.35	534.949
1132.63	488.926
1135.92	473.43
1139.19	420.44
1142.47	221.234
1145.75	178.625
1149.02	192.141
1152.3	123.453
1155.57	92.4531
1158.84	116.295
1162.11	76.043
1165.38	139.381
1168.64	20.0391
1171.91	2.47461
1175.17	57.0391
1178.43	174.115
1181.69	42.6797
1184.95	112.398
1188.21	52.2188
1191.46	22.2227
1194.72	87.1269
1197.97	111.121
1201.22	45.7441
1204.47	75.4785
1207.72	10.3105
1210.97	16.8867
1214.21	86.4277
1217.46	150.957
1220.7	109.307
1223.94	86.6426
1227.18	33.2715
1230.42	18.6445
1233.65	35.3262
1236.89	46.707
1240.12	301.889
1243.35	125.805
1246.59	102.707
1249.81	31.1777
1253.04	9.24805
1256.27	234.428
1259.49	28.7129
1262.72	111.252
1265.94	245.637
1269.16	122.566
1272.38	326.232
1275.59	189.658
1278.81	268.096
1282.03	159.088
1285.24	141.033
1288.45	248.705
1291.66	447.035
1294.87	349.039
1298.08	423.551
1301.28	308.254
1304.48	399.955
1307.69	167.393
1310.89	245.346
1314.09	272.406
1317.29	337.758
1320.48	298.94
1323.68	460.256
1326.87	539.678
1330.06	532.461
1333.26	364.211
1336.44	455.752
1339.63	371.092
1342.82	519.459
1346	485.828
1349.19	533.879
1352.37	521.549
1355.55	445.221
1358.73	401.67
1361.9	439.443
1365.08	339.721
1368.26	430.422
1371.43	210.764
1374.6	371.334
1377.77	435.955
1380.94	333.977
1384.11	381.228
1387.27	295
1390.43	297.336
1393.6	209.234
1396.76	243.967
1399.92	305.652
1403.08	287.576
1406.23	272.309
1409.39	167.449
1412.54	286.055
1415.69	269.022
1418.85	147.709
1421.99	165.15
1425.14	280.387
1428.29	84.4805
1431.43	118.414
1434.58	134.977
1437.72	123.762
1440.86	51.4414
1444	105.481
1447.13	14.1855
1450.27	45.9922
1453.4	152
1456.54	3.95703
1459.67	43.6016
1462.8	171.982
1465.93	99.2148
1469.06	78.3242
1472.18	99.9707
1475.31	27.3652
1478.43	183.893
1481.55	89.7305
1484.67	48.4707
1487.79	125.51
1490.9	217.018
1494.02	184.318
1497.13	138.943
1500.24	131.594
1503.35	461.332
1506.46	43.2422
1509.57	246.125
1512.68	152.115
1515.78	280.088
1518.88	228.812
1521.99	64.3379
1525.09	87.2168
1528.18	112.787
1531.28	286.34
1534.38	132.44
1537.47	137.815
1540.56	216.434
1543.66	207.576
1546.74	325.953
1549.83	77.9141
1552.92	182.326
1556.01	7.23242
1559.09	41.0215
1562.17	40.6816
1565.25	202.596
1568.33	152.912
