Measurement: Raman, 514 nm, ccw, Raman Data Processed
Mineral: Annite
Rruff sample: R060211
Ideal chemistry: KFe^2+^_3_AlSi_3_O_10_(OH)_2_
Locality: Mont Saint-Hilaire, Rouville County, Quebec, Canada
Source: Royal Ontario Museum
Description: Black mica
Measured chemistry: (K_0.94_[box]_0.03_Na_0.02_)_Σ=1_(Fe^2+^_2.07_Mg_0.57_Mn_0.33_Ti_0.03_)_Σ=3_(Si_2.98_Al_1.02_)O_10_((OH)_1.72_F_0.28_)_Σ=2_
Pin_id: M00144
Orientation: Laser parallel to (-1 0 -1). Fiducial mark perpendicular to laser is parallel to -b [0 -1 0]
Raman shift (cm-1)	intensity
307.151	0
310.773	48.4492
314.394	36.8418
318.013	47.9121
321.631	838.496
325.248	522.018
328.864	317.318
332.478	356.107
336.09	445.752
339.701	587.883
343.311	708.371
346.92	958.613
350.527	974.148
354.132	909.144
357.737	782.461
361.34	928.701
364.941	666.287
368.541	817.521
372.14	798.811
375.737	748.533
379.333	867.625
382.928	1091.71
386.521	1279.46
390.113	1454.52
393.703	1435.79
397.292	1443.82
400.88	1466.72
404.466	1560.64
408.051	1337.9
411.634	1228.99
415.216	802.795
418.797	781.619
422.376	788.467
425.954	422.359
429.53	396.367
433.105	164.531
436.679	168.9
440.251	30.4883
443.822	78.7383
447.391	182.664
450.96	28.1719
454.526	59.9102
458.091	89.0469
461.655	110.693
465.218	343.098
468.779	613.719
472.338	894.449
475.897	784.215
479.454	1129.71
483.009	1222.78
486.563	1459.45
490.116	1641.3
493.667	1677.26
497.217	1805.44
500.765	2084.53
504.312	1871.56
507.858	2295.56
511.402	2242.55
514.945	2373.39
518.486	2749.36
522.026	2675.51
525.565	2897.51
529.102	3181.96
532.638	3249.37
536.172	3155.31
539.705	2901.42
543.236	2874.01
546.766	2805.16
550.295	2306.73
553.822	1918.73
557.348	1826.59
560.873	1539.24
564.396	1398.72
567.917	740.629
571.438	921.824
574.957	432.188
578.474	384.459
581.99	290.15
585.504	312.393
589.018	63.6172
592.529	169.281
596.04	134.893
599.549	36.3262
603.056	291.272
606.562	260.346
610.067	359.44
613.57	662.547
617.072	496.666
620.572	909.791
624.071	541.922
627.569	715.053
631.065	855.184
634.56	1166.32
638.053	1567.45
641.545	1565.58
645.035	2062.71
648.524	2678.83
652.012	3393.95
655.498	4458.05
658.983	5647.15
662.466	6510.25
665.948	7568.37
669.428	7351.5
672.907	6675.59
676.385	6637.48
679.861	5368.93
683.336	4778.86
686.809	4409.27
690.281	4837.91
693.752	4662.46
697.221	4932.61
700.688	5285.09
704.155	5526.35
707.619	5620.16
711.083	5677.19
714.545	5480.39
718.005	5752.82
721.464	4951.65
724.922	4775.14
728.378	4282.02
731.833	4085.56
735.286	3876.16
738.738	4148.2
742.189	4128.81
745.638	4065.47
749.085	4442.93
752.531	4530.19
755.976	4807.25
759.419	4942.1
762.861	4814.89
766.302	4319.76
769.741	3986.09
773.178	3727.09
776.614	3379.4
780.049	3155.36
783.482	2564.63
786.914	2324.72
790.345	1803.6
793.773	1286.18
797.201	1009.73
800.627	806.068
804.052	433.199
807.475	214.125
810.897	11.8242
814.317	33.9121
817.736	150.367
821.153	105.904
824.569	34.4551
827.984	85.8125
831.397	90.0508
834.808	140.307
838.219	234.602
841.627	284.06
845.035	125.647
848.441	51.0488
851.845	63.1641
855.248	417.512
858.65	158.81
862.05	301.506
865.448	940.094
868.846	440.691
872.241	683.25
875.636	774.713
879.029	989.033
882.42	1036.22
885.81	955.277
889.199	887.879
892.586	1024.03
895.971	1261.74
899.356	1215.38
902.738	1555.98
906.12	1532.49
909.5	1503.9
912.878	1464.23
916.255	1843.48
919.63	2116.67
923.004	2068.02
926.377	2076.98
929.748	2085.15
933.118	2356.44
936.486	2283.83
939.853	2409.26
943.218	2367.9
946.582	2338.95
949.945	2241.81
953.306	2032.68
956.665	1744.64
960.023	1948.46
963.38	1664.64
966.735	1466.99
970.089	1636.41
973.441	1602.89
976.792	1511.44
980.141	1546.14
983.489	1689.59
986.836	1566.45
990.181	1916.85
993.524	2038.45
996.866	1915.14
1000.21	2155.2
1003.55	2472.79
1006.88	2710.92
1010.22	3024.58
1013.55	3159.19
1016.89	3069.84
1020.22	3142.14
1023.55	2741.14
1026.88	2929.87
1030.21	2425.94
1033.53	2598.43
1036.86	2339.75
1040.18	2222.38
1043.5	1949.19
1046.82	1916.7
1050.14	2179.89
1053.46	2013.03
1056.78	2002.06
1060.09	2160.33
1063.4	1887.04
1066.71	1954.31
1070.02	1925.78
1073.33	1732.53
1076.64	1710.93
1079.94	1315.66
1083.25	1193.78
1086.55	1032.12
1089.85	958.715
1093.15	983.867
1096.45	865.184
1099.75	646.854
1103.04	615.326
1106.34	945.057
1109.63	621.769
1112.92	428.541
1116.21	431.736
1119.5	333.115
1122.78	666.644
1126.07	398.924
1129.35	366.432
1132.63	297.377
1135.92	349.565
1139.19	290.787
1142.47	20.6191
1145.75	379.736
1149.02	336.799
1152.3	126.311
1155.57	31.3906
1158.84	210.606
1162.11	277.289
1165.38	326.266
1168.64	168.32
1171.91	77.168
1175.17	35.8711
1178.43	65.6231
1181.69	42.584
1184.95	57.0859
1188.21	13.2344
1191.46	39.5684
1194.72	108.225
1197.97	165.935
1201.22	37.1055
1204.47	143.443
1207.72	157.486
1210.97	149.207
1214.21	27.8066
1217.46	137.693
1220.7	105.494
1223.94	42.7441
1227.18	68.5742
1230.42	9.36133
1233.65	30.8164
1236.89	161.496
1240.12	238.215
1243.35	9.73047
1246.59	111.307
1249.81	103.283
1253.04	104.307
1256.27	37.9434
1259.49	72.2598
1262.72	212.904
1265.94	42.9316
1269.16	33.6797
1272.38	98.7285
1275.59	74.7441
1278.81	174.188
1282.03	6.60352
1285.24	79.543
1288.45	99.5352
1291.66	314.143
1294.87	310.975
1298.08	341.715
1301.28	476.129
1304.48	340.44
1307.69	405.477
1310.89	340.742
1314.09	302.514
1317.29	362.379
1320.48	242.527
1323.68	376.131
1326.87	287.465
1330.06	322.894
1333.26	171.916
1336.44	393.258
1339.63	24.2871
1342.82	252.67
1346	326.81
1349.19	330.67
1352.37	28.1172
1355.55	384.174
1358.73	438.918
1361.9	218.572
1365.08	126.59
1368.26	142.346
1371.43	270.637
1374.6	348.074
1377.77	266.619
1380.94	268.555
1384.11	201.619
1387.27	322.188
1390.43	14.3887
1393.6	236.412
1396.76	209.137
1399.92	237.141
1403.08	238.977
1406.23	352.467
1409.39	305.648
1412.54	248.844
1415.69	296
1418.85	341.471
1421.99	38.8848
1425.14	361.373
1428.29	246.432
1431.43	319.434
1434.58	604.426
1437.72	262.035
1440.86	190.377
1444	536.262
1447.13	42.4883
1450.27	252.037
1453.4	277.25
1456.54	320.508
1459.67	302.266
1462.8	83.625
1465.93	551.807
1469.06	70.2578
1472.18	149.418
1475.31	242.863
1478.43	267.893
1481.55	396.166
1484.67	255.975
1487.79	339.594
1490.9	319.873
1494.02	172.346
1497.13	184.721
1500.24	273.391
1503.35	273.478
1506.46	394.787
1509.57	151.414
1512.68	259.338
1515.78	85.2969
1518.88	280.277
1521.99	316.881
1525.09	41.4375
1528.18	277.178
1531.28	229.008
1534.38	113.736
1537.47	3.9375
1540.56	289.148
1543.66	98.9238
1546.74	3.71289
1549.83	223.359
1552.92	244.31
1556.01	271.32
1559.09	241.783
1562.17	261.309
1565.25	242.199
1568.33	57.0293
