Measurement: Raman, 514 nm, ccw, Raman Data Processed
Mineral: Annite
Rruff sample: R060204
Ideal chemistry: KFe^2+^_3_AlSi_3_O_10_(OH)_2_
Locality: Mont Saint-Hilaire, Rouville County, Quebec, Canada
Source: Royal Ontario Museum
Description: Black mica with pseudohexagonal outines
Measured chemistry: (K_0.96_Na_0.04_)_Σ=1_(Fe^2+^_2.04_Mg_0.81_Mn_0.09_Ti_0.03_[box]_0.03_)_Σ=3_(Si_3.00_Al_1.00_)O_10_((OH)_1.54_F_0.46_)_Σ=2_
Pin_id: M00078
Orientation: Laser parallel to a* (1 0 0). Fiducial mark perpendicular to laser is parallel to -b [0 -1 0]
Raman shift (cm-1)	intensity
307.151	0
310.773	2.54688
314.394	179.277
318.013	66.0801
321.631	225.928
325.248	283.316
328.864	26.9893
332.478	379.217
336.09	115.316
339.701	10.6631
343.311	208.391
346.92	133.227
350.527	422.767
354.132	195.685
357.737	370.654
361.34	355.742
364.941	405.868
368.541	285.131
372.14	236.695
375.737	233.644
379.333	369.297
382.928	367.655
386.521	525.887
390.113	581.645
393.703	705.602
397.292	696.883
400.88	706.356
404.466	652.349
408.051	426.322
411.634	379.321
415.216	468.187
418.797	328.737
422.376	162.981
425.954	448.972
429.53	34.7607
433.105	54.3935
436.679	28.123
440.251	5.86133
443.822	9.91016
447.391	230.746
450.96	171.786
454.526	99.3936
458.091	181.535
461.655	163.199
465.218	41.8223
468.779	191.78
472.338	187.935
475.897	173.193
479.454	334.254
483.009	575.672
486.563	671.189
490.116	826.539
493.667	669.607
497.217	972.896
500.765	851.832
504.312	937.293
507.858	1021.17
511.402	1068.08
514.945	1038.87
518.486	1042.06
522.026	1001.31
525.565	998.402
529.102	1040.32
532.638	1106.08
536.172	1014.84
539.705	875.65
543.236	830.627
546.766	779.053
550.295	864.562
553.822	850.893
557.348	652.316
560.873	958.012
564.396	748.299
567.917	654.889
571.438	566.246
574.957	666.42
578.474	269.535
581.99	269.398
585.504	128.414
589.018	325.654
592.529	541.832
596.04	289.299
599.549	430.291
603.056	649.348
606.562	927.785
610.067	1099.75
613.57	2141.79
617.072	1813.12
620.572	2221.88
624.071	2076.84
627.569	2408.76
631.065	2775.63
634.56	2790.46
638.053	3224.26
641.545	3188.03
645.035	3458.77
648.524	4216.49
652.012	5078.19
655.498	5450.89
658.983	6649.6
662.466	7965.34
665.948	10038.5
669.428	12210.6
672.907	13978.6
676.385	15241
679.861	15055.1
683.336	14420.6
686.809	12680.5
690.281	10716
693.752	8615.06
697.221	6929.62
700.688	5704.29
704.155	4728.11
707.619	3871.93
711.083	3359.94
714.545	3175.89
718.005	2779.06
721.464	2507
724.922	2155.78
728.378	1903.45
731.833	1636.32
735.286	1531.78
738.738	1411.94
742.189	1199.45
745.638	1122.21
749.085	1112.89
752.531	1222.46
755.976	1149.83
759.419	1242.03
762.861	1164.06
766.302	1073.91
769.741	1224.58
773.178	1121.07
776.614	843.373
780.049	883.49
783.482	609.422
786.914	482.184
790.345	437.717
793.773	285.08
797.201	315.252
800.627	245.227
804.052	86
807.475	45.457
810.897	140.742
814.317	108.705
817.736	5.61133
821.153	38.5879
824.569	18.6445
827.984	19.7773
831.397	91.2324
834.808	5.7207
838.219	149.498
841.627	10.5293
845.035	17.8438
848.441	46.5234
851.845	23.3984
855.248	2.94336
858.65	70.0879
862.05	54.9316
865.448	56.5391
868.846	253.615
872.241	240.543
875.636	236.25
879.029	162.744
882.42	243.029
885.81	153.103
889.199	305.096
892.586	345.656
895.971	403.152
899.356	436.527
902.738	411.732
906.12	764.832
909.5	610.799
912.878	623.609
916.255	755.309
919.63	917.061
923.004	792.643
926.377	1396.12
929.748	1012.44
933.118	1107.61
936.486	1414.62
939.853	1240.62
943.218	1348.61
946.582	1490.16
949.945	1602.34
953.306	2128.33
956.665	1740.31
960.023	1753.22
963.38	1704.14
966.735	1737.1
970.089	2071.3
973.441	2113.55
976.792	2087.1
980.141	2320.44
983.489	2571.2
986.836	2590.59
990.181	2903.39
993.524	3571.07
996.866	3508.09
1000.21	4057.28
1003.55	4466.74
1006.88	5082.05
1010.22	6143.35
1013.55	6701.66
1016.89	7481.11
1020.22	7953.52
1023.55	7931.11
1026.88	7727.04
1030.21	7275.58
1033.53	6869.8
1036.86	6036.97
1040.18	5864.96
1043.5	5389.81
1046.82	5074.61
1050.14	4855.93
1053.46	4527.26
1056.78	4106.85
1060.09	4326.33
1063.4	3987.89
1066.71	3693.54
1070.02	3530.64
1073.33	3511.8
1076.64	3497.12
1079.94	3134.25
1083.25	3094.81
1086.55	3171.28
1089.85	2555.82
1093.15	2140.73
1096.45	1851.58
1099.75	1671.28
1103.04	1617.84
1106.34	1353.14
1109.63	1266.74
1112.92	1068.55
1116.21	1071.71
1119.5	944.957
1122.78	854.213
1126.07	852.766
1129.35	681.576
1132.63	767.606
1135.92	680.809
1139.19	634.783
1142.47	422
1145.75	407.584
1149.02	136.881
1152.3	232.973
1155.57	218.43
1158.84	264.203
1162.11	74.4844
1165.38	17.3184
1168.64	121.135
1171.91	18.1953
1175.17	82.6816
1178.43	68.4394
1181.69	86.1523
1184.95	114.019
1188.21	49.0664
1191.46	120.184
1194.72	119.682
1197.97	48.6172
1201.22	47.7695
1204.47	109.775
1207.72	87.4629
1210.97	8.99609
1214.21	28.623
1217.46	28.5918
1220.7	147.652
1223.94	42.5332
1227.18	52.9141
1230.42	5.64062
1233.65	89.2266
1236.89	103.889
1240.12	77.5469
1243.35	126.957
1246.59	187.231
1249.81	185.375
1253.04	147.338
1256.27	15.7441
1259.49	323.182
1262.72	146.639
1265.94	57.0059
1269.16	309.633
1272.38	344.676
1275.59	387.428
1278.81	377.549
1282.03	410.371
1285.24	404.785
1288.45	251.746
1291.66	251.516
1294.87	312.24
1298.08	340.613
1301.28	428.551
1304.48	180.801
1307.69	429.754
1310.89	373.4
1314.09	288.103
1317.29	492.975
1320.48	255.043
1323.68	364.098
1326.87	279.748
1330.06	492.256
1333.26	489.75
1336.44	653.875
1339.63	421.772
1342.82	323.566
1346	631.375
1349.19	504.506
1352.37	487.234
1355.55	516.178
1358.73	373.812
1361.9	505.42
1365.08	302.807
1368.26	404.035
1371.43	559.242
1374.6	458.002
1377.77	520.373
1380.94	456.932
1384.11	412.203
1387.27	396.478
1390.43	195.387
1393.6	256.586
1396.76	224.779
1399.92	86.6289
1403.08	327.156
1406.23	142.842
1409.39	179.709
1412.54	161.258
1415.69	40.9297
1418.85	188.285
1421.99	18.0449
1425.14	89.1543
1428.29	223.324
1431.43	64.8438
1434.58	32.8594
1437.72	53.4609
1440.86	6.24805
1444	277.516
1447.13	33.2148
1450.27	195.926
1453.4	12.541
1456.54	2.16211
1459.67	129.779
1462.8	368.488
1465.93	37.3984
1469.06	2.70898
1472.18	293.158
1475.31	105.266
1478.43	4.49219
1481.55	246.207
1484.67	270.477
1487.79	3.71875
1490.9	237.299
1494.02	410.248
1497.13	156.94
1500.24	344.332
1503.35	355.922
1506.46	152.676
1509.57	255.945
1512.68	164.248
1515.78	274.502
1518.88	192.227
1521.99	278.244
1525.09	150.652
1528.18	228.81
1531.28	171.652
1534.38	145.703
1537.47	214.357
1540.56	114.162
1543.66	270.994
1546.74	253.414
1549.83	275.736
1552.92	130.824
1556.01	186.656
1559.09	17.3164
1562.17	143.242
1565.25	146.768
1568.33	9.46094
