Measurement: Raman, 514 nm, ccw, Raman Data Processed
Mineral: Annite
Rruff sample: R060211
Ideal chemistry: KFe^2+^_3_AlSi_3_O_10_(OH)_2_
Locality: Mont Saint-Hilaire, Rouville County, Quebec, Canada
Source: Royal Ontario Museum
Description: Black mica
Measured chemistry: (K_0.94_[box]_0.03_Na_0.02_)_Σ=1_(Fe^2+^_2.07_Mg_0.57_Mn_0.33_Ti_0.03_)_Σ=3_(Si_2.98_Al_1.02_)O_10_((OH)_1.72_F_0.28_)_Σ=2_
Pin_id: L01834
Orientation: Laser parallel to b* (0 1 0). Fiducial mark perpendicular to laser is parallel to c [0 0 1]
Raman shift (cm-1)	intensity
230.849	0
234.512	451.523
238.173	359.211
241.832	252.856
245.49	318.457
249.147	503.723
252.802	698.769
256.455	1034.52
260.107	1174.73
263.757	1596.54
267.406	1877.29
271.053	1762.44
274.698	1961.02
278.342	1665.92
281.985	1332.46
285.626	1019.54
289.265	824.938
292.903	528.801
296.54	273.539
300.174	157.859
303.808	114.453
307.439	217.719
311.07	419.797
314.698	211.688
318.325	226.906
321.951	286.414
325.575	338.133
329.198	582.664
332.819	569.703
336.438	1372.17
340.056	1183.63
343.673	1641.73
347.287	1582.29
350.901	1636.64
354.513	1651.77
358.123	1455.5
361.732	1061.74
365.339	1099.43
368.945	1128.62
372.549	1123.38
376.152	1109.92
379.753	1054.85
383.352	1339.99
386.95	1298.43
390.547	1554.34
394.142	1505.7
397.735	1451.09
401.327	1245.54
404.918	1199.39
408.507	852.527
412.094	614.473
415.68	586.969
419.265	671.469
422.847	394.902
426.429	156.547
430.009	167.481
433.587	360.551
437.164	233.707
440.739	132.953
444.313	32.1211
447.885	243.641
451.456	47.3281
455.025	384.574
458.593	163.113
462.159	523.59
465.724	609
469.287	851.582
472.848	1176.44
476.409	1731.88
479.967	1757.1
483.524	2587.48
487.08	3033.46
490.634	3393.53
494.187	3563.55
497.738	3894.55
501.287	4185.55
504.835	4531.56
508.382	4467.57
511.927	4955.6
515.47	4960.67
519.013	4851.71
522.553	5730.91
526.092	5863.6
529.63	6182.47
533.166	6298.1
536.7	6701.72
540.233	6454.77
543.765	6270.49
547.295	5220.85
550.823	4881.56
554.35	4193.66
557.876	3586.08
561.4	2624.75
564.922	1989.01
568.443	1833.77
571.963	1395.29
575.481	1013.51
578.998	1047.84
582.513	386.797
586.026	70.0742
589.538	138.289
593.049	141.129
596.558	76.0195
600.065	52.8438
603.571	362.805
607.076	479.387
610.579	304.691
614.081	699.144
617.581	877.727
621.079	912.438
624.577	1087.29
628.072	914.297
631.566	1362.48
635.059	1453.85
638.55	1786.39
642.04	2284.89
645.528	2642.02
649.015	3657.09
652.5	4745.34
655.984	6151.76
659.466	7960.35
662.947	9576.12
666.426	10676.1
669.904	10650.2
673.38	9523.9
676.855	7770.03
680.329	6359.28
683.8	5655.92
687.271	4885.12
690.74	4382.34
694.207	4346.32
697.673	4268.07
701.138	4509.15
704.601	4716.75
708.062	4799.88
711.522	5226.76
714.981	5264.43
718.438	5029.48
721.894	4730.91
725.348	4562.15
728.801	4304.76
732.252	4244.81
735.702	4248.6
739.15	4165.66
742.597	4993.74
746.042	4909.81
749.486	5081.82
752.928	5442.98
756.369	5968.75
759.809	6159.65
763.247	6352.49
766.683	6662.31
770.118	6515.07
773.552	6261.77
776.984	5875.43
780.414	5452.43
783.844	4524.58
787.271	3646.07
790.698	2595.49
794.122	2034.85
797.546	1544.14
800.968	859.367
804.388	320.519
807.807	416.606
811.224	181.484
814.64	524.504
818.055	379.328
821.468	53.7383
824.88	311.531
828.29	345.949
831.699	326.242
835.106	210.629
838.512	50.418
841.916	17.8203
845.319	83.5781
848.72	198.559
852.12	143.695
855.519	425.68
858.916	511.812
862.311	745.203
865.706	1194.34
869.098	1601.39
872.49	1366.36
875.879	1495.27
879.268	1448.12
882.655	1675.15
886.04	1825.84
889.424	1651.73
892.807	1733.53
896.188	1704.43
899.567	1891.43
902.945	1925.72
906.322	1834.96
909.698	2008.27
913.071	2062.52
916.444	2619.74
919.815	2543.91
923.184	2648.08
926.552	2781.34
929.919	2833.64
933.284	3005.3
936.648	3080.27
940.01	3262.62
943.371	3236.49
946.731	3110.77
950.089	2821.09
953.445	2647.2
956.8	2640.15
960.154	2016.27
963.506	1973.26
966.857	2319.56
970.206	2067.46
973.554	1540.62
976.901	1745.88
980.246	1548.25
983.589	1441.36
986.931	1531.7
990.272	1625.32
993.611	1541.11
996.949	1636.13
1000.29	1799.34
1003.62	2404.71
1006.95	2991.61
1010.29	3168.14
1013.62	3127.99
1016.95	3112.47
1020.27	3234.98
1023.6	3348.29
1026.93	2837.81
1030.25	2716.03
1033.57	2619.54
1036.89	2533.38
1040.21	2644.19
1043.53	2520.95
1046.85	2258.8
1050.16	2645.69
1053.47	2418.66
1056.79	2261.09
1060.1	2170.47
1063.41	2734.7
1066.71	2305.68
1070.02	2434.08
1073.33	1958.98
1076.63	1898.72
1079.93	1408.67
1083.23	1516.31
1086.53	1346.56
1089.83	1040.71
1093.13	1209.06
1096.42	798.922
1099.71	505.664
1103.01	895.301
1106.3	489.207
1109.59	236.012
1112.88	731.637
1116.16	473.551
1119.45	524.297
1122.73	287.312
1126.01	432.07
1129.29	367.82
1132.57	81.6328
1135.85	8.80469
1139.13	278.266
1142.4	190.066
1145.68	216.312
1148.95	117.742
1152.22	242.148
1155.49	333.973
1158.76	227.106
1162.03	327.625
1165.29	366.562
1168.56	165.898
1171.82	70.9023
1175.08	9.61719
1178.34	145.406
1181.6	117.695
1184.85	86.7773
1188.11	191.598
1191.36	241.922
1194.62	27.5391
1197.87	131.227
1201.12	148.543
1204.37	248.981
1207.61	191.184
1210.86	197.113
1214.1	81.7812
1217.35	45.1758
1220.59	258.695
1223.83	858.457
1227.07	825.215
1230.3	180.383
1233.54	453.156
1236.77	499.562
1240.01	53.4766
1243.24	82.957
1246.47	368.945
1249.7	473.637
1252.93	362.027
1256.15	119.051
1259.38	263.609
1262.6	413.129
1265.82	260.137
1269.04	219.844
1272.26	301.406
1275.48	586.539
1278.7	584.512
1281.91	289.008
1285.12	411.191
1288.34	365.023
1291.55	467.012
1294.76	436.551
1297.96	363.727
1301.17	567.801
1304.38	276.652
1307.58	379.262
1310.78	965.703
1313.98	245.738
1317.18	420.586
1320.38	98.2969
1323.58	298.383
1326.78	528.859
1329.97	340.582
1333.16	275.461
1336.35	249.414
1339.54	531.438
1342.73	507.297
1345.92	503.051
1349.11	524.359
1352.29	549.602
1355.47	459.141
1358.66	472.535
1361.84	191.379
1365.02	473.68
1368.19	643.086
1371.37	563.457
1374.54	406.652
1377.72	354.984
1380.89	306.996
1384.06	687.555
1387.23	223.195
1390.4	16.1094
1393.56	472.18
1396.73	526.309
1399.89	312.445
1403.06	442.195
1406.22	554.965
1409.38	481.144
1412.54	402.367
1415.69	326.859
1418.85	734.367
1422	350.992
1425.15	641.144
1428.31	61.3398
1431.46	312.258
1434.61	479.41
1437.75	361.523
1440.9	69.418
1444.04	52.7383
1447.19	273.703
1450.33	291.938
1453.47	16.582
1456.61	300.394
1459.75	209.125
1462.88	260.504
1466.02	424.961
1469.15	82.7852
1472.29	44.4336
1475.42	351.43
1478.55	326.004
1481.67	207.723
1484.8	224.586
1487.93	358.137
1491.05	613.102
1494.17	8.69531
1497.3	178.754
1500.42	483.973
1503.54	686.027
1506.65	524.418
1509.77	473.137
1512.88	461.172
1516	471.148
1519.11	458.285
1522.22	429.93
1525.33	336.172
1528.44	546.773
1531.54	592.551
1534.65	302.316
1537.75	475.938
1540.86	642.992
1543.96	872.695
1547.06	129.523
1550.15	297.113
1553.25	143.785
1556.35	97.3672
1559.44	336.129
1562.54	275.637
1565.63	339.465
1568.72	274.074
