Measurement: Raman, 514 nm, ccw, Raman Data Processed
Mineral: Annite
Rruff sample: R060204
Ideal chemistry: KFe^2+^_3_AlSi_3_O_10_(OH)_2_
Locality: Mont Saint-Hilaire, Rouville County, Quebec, Canada
Source: Royal Ontario Museum
Description: Black mica with pseudohexagonal outines
Measured chemistry: (K_0.96_Na_0.04_)_Σ=1_(Fe^2+^_2.04_Mg_0.81_Mn_0.09_Ti_0.03_[box]_0.03_)_Σ=3_(Si_3.00_Al_1.00_)O_10_((OH)_1.54_F_0.46_)_Σ=2_
Pin_id: M00140
Orientation: Laser parallel to c* (0 0 1). Fiducial mark perpendicular to laser is parallel to -a [-1 0 0]
Raman shift (cm-1)	intensity
307.151	0
310.773	189.5
314.394	307.773
318.013	320.539
321.631	50.1289
325.248	248.078
328.864	68.7656
332.478	18.3867
336.09	241.07
339.701	286.59
343.311	342.777
346.92	278.723
350.527	479.918
354.132	651.047
357.737	610.922
361.34	493.258
364.941	661.109
368.541	661.352
372.14	819.93
375.737	824.797
379.333	476.469
382.928	720.449
386.521	532.082
390.113	889.125
393.703	753.644
397.292	707.738
400.88	847.367
404.466	925.894
408.051	880.656
411.634	1312.34
415.216	1207.72
418.797	1230.82
422.376	1097.64
425.954	1065.17
429.53	961.422
433.105	719.394
436.679	476.106
440.251	381.566
443.822	149.824
447.391	164.277
450.96	118.586
454.526	22.0352
458.091	249.922
461.655	519.922
465.218	251.406
468.779	450.035
472.338	846.981
475.897	784.543
479.454	817.852
483.009	1401.69
486.563	1548.28
490.116	1669.59
493.667	1896.57
497.217	2053.2
500.765	2257.48
504.312	2098.38
507.858	2249.87
511.402	2641.96
514.945	2779.63
518.486	2657.86
522.026	2736.63
525.565	2289.86
529.102	2416.6
532.638	2410.85
536.172	2536.75
539.705	2565.78
543.236	2635.7
546.766	2711.01
550.295	2749.81
553.822	2106.17
557.348	2094.02
560.873	1721.5
564.396	1298.64
567.917	1542.66
571.438	893.508
574.957	815.234
578.474	466.387
581.99	319.414
585.504	260.961
589.018	221.051
592.529	116.57
596.04	190.734
599.549	15.7031
603.056	21.125
606.562	34.9297
610.067	220.195
613.57	19.8828
617.072	10.9531
620.572	383.66
624.071	546.719
627.569	266.223
631.065	427.144
634.56	711.488
638.053	742.246
641.545	561.402
645.035	828.945
648.524	1317.88
652.012	1375.19
655.498	1935.86
658.983	2274.89
662.466	3079.28
665.948	3902
669.428	4986.07
672.907	5958.48
676.385	5111.19
679.861	5045.25
683.336	4323.6
686.809	4099.24
690.281	3528.46
693.752	3281.01
697.221	3382.57
700.688	4277.69
704.155	4941.25
707.619	4871.4
711.083	5612.41
714.545	6128.79
718.005	6349.69
721.464	6251.38
724.922	5323.95
728.378	5048.49
731.833	4748.77
735.286	3886.68
738.738	3623.82
742.189	3565.32
745.638	3680.19
749.085	3252.45
752.531	3365.05
755.976	3937.84
759.419	4344.1
762.861	4641.81
766.302	4633.55
769.741	4773.31
773.178	4385.08
776.614	3837.86
780.049	3824.66
783.482	3085.45
786.914	2534.25
790.345	2044.03
793.773	1663.8
797.201	1360.55
800.627	1006.28
804.052	507
807.475	470.836
810.897	300.953
814.317	332.574
817.736	234.356
821.153	166.336
824.569	193.195
827.984	48.6367
831.397	162.227
834.808	102.867
838.219	83.7344
841.627	102.25
845.035	90.8047
848.441	336.492
851.845	216.777
855.248	119.871
858.65	10.0898
862.05	30.1836
865.448	146.242
868.846	51.5312
872.241	198.762
875.636	276.078
879.029	291.512
882.42	398.988
885.81	640.508
889.199	324.051
892.586	725.594
895.971	800.156
899.356	729.727
902.738	1086.31
906.12	1016.91
909.5	1001.9
912.878	971.184
916.255	1141.87
919.63	1343.57
923.004	1300.34
926.377	1377.12
929.748	1594.97
933.118	1784.87
936.486	1549.89
939.853	1560.1
943.218	1668.38
946.582	1692.75
949.945	1615.29
953.306	1628.07
956.665	1552.98
960.023	1583.05
963.38	1381.82
966.735	1386.02
970.089	1341.5
973.441	1505.75
976.792	1529.26
980.141	1660.51
983.489	1150.2
986.836	1698.89
990.181	1633.03
993.524	1407.77
996.866	1083.06
1000.21	1493.6
1003.55	1200
1006.88	1520.17
1010.22	1551.68
1013.55	1841.46
1016.89	1816.53
1020.22	2017.88
1023.55	1940.21
1026.88	1746.43
1030.21	1476.63
1033.53	1890.12
1036.86	1823.91
1040.18	2026.98
1043.5	1909.35
1046.82	1928.01
1050.14	2269.97
1053.46	2376.21
1056.78	1992.76
1060.09	2389.6
1063.4	2349.74
1066.71	2185.2
1070.02	2268.08
1073.33	2045.42
1076.64	2024.62
1079.94	1876.99
1083.25	1775.56
1086.55	1754.38
1089.85	1558.77
1093.15	1629.75
1096.45	1522.22
1099.75	1531.4
1103.04	1473.04
1106.34	1341.09
1109.63	1176.21
1112.92	1277.45
1116.21	1352.11
1119.5	1171.05
1122.78	1198
1126.07	1095.31
1129.35	1021.25
1132.63	1038.23
1135.92	885.219
1139.19	997.789
1142.47	926.977
1145.75	896.906
1149.02	700.637
1152.3	702.859
1155.57	448.914
1158.84	561.898
1162.11	564.254
1165.38	326.16
1168.64	257.039
1171.91	387.91
1175.17	224.106
1178.43	224.41
1181.69	89.1914
1184.95	348.586
1188.21	124.754
1191.46	216.996
1194.72	223.316
1197.97	119.703
1201.22	120.883
1204.47	141.988
1207.72	47.8594
1210.97	151.738
1214.21	71.1016
1217.46	180.727
1220.7	135.644
1223.94	4.78906
1227.18	93.2188
1230.42	76.5469
1233.65	122.633
1236.89	50.9727
1240.12	286.488
1243.35	30.4023
1246.59	72.0117
1249.81	124.512
1253.04	269.621
1256.27	54.5352
1259.49	11.6602
1262.72	31.3555
1265.94	54.918
1269.16	293.195
1272.38	159.566
1275.59	187.324
1278.81	289.672
1282.03	303.363
1285.24	440.711
1288.45	211.297
1291.66	332.746
1294.87	172.992
1298.08	218.789
1301.28	226.231
1304.48	389.062
1307.69	325.793
1310.89	274.828
1314.09	297.117
1317.29	199.227
1320.48	165.406
1323.68	332.262
1326.87	287.367
1330.06	458.098
1333.26	361.844
1336.44	154.094
1339.63	268.191
1342.82	267.894
1346	141.141
1349.19	232.871
1352.37	423.16
1355.55	392.758
1358.73	293.582
1361.9	161.738
1365.08	372.234
1368.26	141.988
1371.43	262.914
1374.6	89.418
1377.77	209.109
1380.94	274.195
1384.11	23.6055
1387.27	202.769
1390.43	65.7812
1393.6	230.848
1396.76	122.367
1399.92	275.723
1403.08	232.18
1406.23	179.441
1409.39	197.617
1412.54	307.195
1415.69	195.281
1418.85	175.328
1421.99	206.543
1425.14	174.957
1428.29	272.168
1431.43	330.043
1434.58	214.281
1437.72	30.043
1440.86	158.082
1444	32.875
1447.13	199.586
1450.27	192.34
1453.4	291.129
1456.54	117.438
1459.67	78.3086
1462.8	327.32
1465.93	301.945
1469.06	29.0938
1472.18	48.9922
1475.31	85.6484
1478.43	299.066
1481.55	265.418
1484.67	238.641
1487.79	296.055
1490.9	269.699
1494.02	214.117
1497.13	250.039
1500.24	61.7422
1503.35	258.562
1506.46	141.992
1509.57	633.488
1512.68	99.3711
1515.78	284.773
1518.88	100.742
1521.99	331.293
1525.09	169.371
1528.18	254.926
1531.28	278.941
1534.38	260.488
1537.47	24.5508
1540.56	271.699
1543.66	109.512
1546.74	103.25
1549.83	177.836
1552.92	164.371
1556.01	269.551
1559.09	14.5078
1562.17	479.184
1565.25	11.9648
1568.33	60.0117
