Measurement: Raman, 514 nm, ccw, Raman Data Processed
Mineral: Annite
Rruff sample: R060211
Ideal chemistry: KFe^2+^_3_AlSi_3_O_10_(OH)_2_
Locality: Mont Saint-Hilaire, Rouville County, Quebec, Canada
Source: Royal Ontario Museum
Description: Black mica
Measured chemistry: (K_0.94_[box]_0.03_Na_0.02_)_Σ=1_(Fe^2+^_2.07_Mg_0.57_Mn_0.33_Ti_0.03_)_Σ=3_(Si_2.98_Al_1.02_)O_10_((OH)_1.72_F_0.28_)_Σ=2_
Pin_id: L00722
Orientation: Laser parallel to a* (1 0 0). Fiducial mark perpendicular to laser is parallel to b [0 1 0]
Raman shift (cm-1)	intensity
230.765	0
234.416	51.4893
238.066	119.773
241.714	94.3545
245.361	161.473
249.007	241.344
252.651	209.249
256.294	204.885
259.936	693.349
263.576	544.174
267.215	511.654
270.852	644.375
274.488	583.065
278.123	577.461
281.756	367.403
285.388	294.901
289.019	147.464
292.648	159.001
296.276	109.88
299.902	152.745
303.527	69.6699
307.151	77.9619
310.773	42.2988
314.394	25.8057
318.013	95.1894
321.631	46.6289
325.248	23.5117
328.864	157.263
332.478	128.774
336.09	96.7188
339.701	215.243
343.311	249.515
346.92	268.508
350.527	309.894
354.132	342.084
357.737	492.913
361.34	445.981
364.941	752.325
368.541	1105.94
372.14	1851.88
375.737	1661.41
379.333	2126.71
382.928	2876.3
386.521	3069.84
390.113	3306.21
393.703	3278.38
397.292	2793.26
400.88	2297.88
404.466	1796.3
408.051	1378.51
411.634	1097.05
415.216	644.335
418.797	467.121
422.376	410.019
425.954	166.862
429.53	62.8496
433.105	77.9766
436.679	130.136
440.251	20.9502
443.822	134.226
447.391	236.884
450.96	263.06
454.526	224.94
458.091	154.907
461.655	4.55859
465.218	73.3311
468.779	84.5859
472.338	22.21
475.897	50.0615
479.454	350.501
483.009	341.797
486.563	563.586
490.116	894.606
493.667	1193.76
497.217	1476.32
500.765	1901.45
504.312	2402.16
507.858	2415.1
511.402	2225.29
514.945	2093.72
518.486	1903.37
522.026	1727.22
525.565	1420.24
529.102	1364.46
532.638	1135.89
536.172	1085.55
539.705	818.493
543.236	707.793
546.766	548.49
550.295	508.505
553.822	386.861
557.348	257.588
560.873	197.913
564.396	78.0791
567.917	253.378
571.438	152.731
574.957	20.1895
578.474	87.8398
581.99	136.577
585.504	49.7451
589.018	212.762
592.529	307.04
596.04	443.682
599.549	614.654
603.056	847.88
606.562	1185.22
610.067	1715.14
613.57	2210.42
617.072	2902.56
620.572	3506.89
624.071	4721.43
627.569	5040.15
631.065	5470.03
634.56	5569.1
638.053	5040.32
641.545	4083.71
645.035	3710.25
648.524	3241.94
652.012	2894.77
655.498	2477.95
658.983	2811.06
662.466	2677.29
665.948	2799.93
669.428	2477.31
672.907	2309.57
676.385	2214.48
679.861	1926.63
683.336	1697.84
686.809	1611.38
690.281	1404.43
693.752	1172.66
697.221	1093.29
700.688	1147.84
704.155	1002.58
707.619	888.756
711.083	899.953
714.545	764.235
718.005	729.59
721.464	481.812
724.922	391.297
728.378	390.848
731.833	305.821
735.286	170.155
738.738	282.231
742.189	263.496
745.638	404.006
749.085	262.318
752.531	431.272
755.976	506.198
759.419	529.51
762.861	451.992
766.302	511.034
769.741	547.662
773.178	573.75
776.614	454.341
780.049	411.772
783.482	525.038
786.914	400.135
790.345	172.057
793.773	213.796
797.201	244.349
800.627	127.712
804.052	92.876
807.475	17.8223
810.897	184.487
814.317	98.0889
817.736	92.7861
821.153	57.1719
824.569	77.9981
827.984	27.6191
831.397	132.714
834.808	11.4326
838.219	92.0147
841.627	2.72852
845.035	39.9482
848.441	31.0352
851.845	157.661
855.248	5.97754
858.65	100.034
862.05	47.3965
865.448	234.489
868.846	39.29
872.241	107.778
875.636	135.005
879.029	132.936
882.42	246.602
885.81	171.034
889.199	233.35
892.586	258.482
895.971	269.37
899.356	243.016
902.738	327.424
906.12	231.787
909.5	260.539
912.878	287.249
916.255	358.746
919.63	353.08
923.004	434.196
926.377	457.082
929.748	605.546
933.118	633.997
936.486	570.222
939.853	585.768
943.218	615.229
946.582	658.149
949.945	649.698
953.306	650.519
956.665	616.97
960.023	853.249
963.38	766.421
966.735	737.72
970.089	937.724
973.441	992.498
976.792	1052.36
980.141	1077.26
983.489	1130.86
986.836	1158.5
990.181	1088.82
993.524	1124.3
996.866	1197.14
1000.21	1251.37
1003.55	1343.43
1006.88	1317.14
1010.22	1268.38
1013.55	1340.32
1016.89	1419.6
1020.22	1432.2
1023.55	1458.58
1026.88	1260.89
1030.21	1025.87
1033.53	1059.39
1036.86	920.621
1040.18	789.453
1043.5	667.66
1046.82	855.169
1050.14	775.219
1053.46	690.056
1056.78	616.581
1060.09	541.636
1063.4	533.214
1066.71	601.912
1070.02	741.307
1073.33	557.622
1076.64	432.123
1079.94	535.36
1083.25	493.423
1086.55	456.616
1089.85	384.875
1093.15	341.907
1096.45	272.98
1099.75	106.792
1103.04	45.8252
1106.34	320.373
1109.63	128.822
1112.92	61.6182
1116.21	220.135
1119.5	323.696
1122.78	220.302
1126.07	119.985
1129.35	263.718
1132.63	243.466
1135.92	224.2
1139.19	84.917
1142.47	192.607
1145.75	258.291
1149.02	24.0635
1152.3	76.5371
1155.57	229.644
1158.84	176.744
1162.11	89.8096
1165.38	14.876
1168.64	76.9023
1171.91	19.8857
1175.17	238.816
1178.43	44.707
1181.69	50.5205
1184.95	161.081
1188.21	143.647
1191.46	11.8018
1194.72	156.749
1197.97	110.309
1201.22	26.9121
1204.47	64.5449
1207.72	83.3887
1210.97	204.488
1214.21	119.291
1217.46	101.062
1220.7	105.198
1223.94	174.328
1227.18	103.814
1230.42	133.332
1233.65	92.7441
1236.89	169.988
1240.12	126.366
1243.35	61.0215
1246.59	59.706
1249.81	218.49
1253.04	143.648
1256.27	261.771
1259.49	239.851
1262.72	304.919
1265.94	386.978
1269.16	157.94
1272.38	284.755
1275.59	419.71
1278.81	417.773
1282.03	290.706
1285.24	311.342
1288.45	231.977
1291.66	242
1294.87	403.144
1298.08	225.35
1301.28	242.244
1304.48	554.307
1307.69	321.545
1310.89	353.875
1314.09	386.004
1317.29	482.156
1320.48	485.316
1323.68	486.975
1326.87	502.068
1330.06	321.572
1333.26	520.898
1336.44	320.523
1339.63	330.299
1342.82	412.315
1346	399.461
1349.19	408.455
1352.37	338.147
1355.55	315.147
1358.73	496.309
1361.9	429.057
1365.08	250.332
1368.26	208.348
1371.43	502.568
1374.6	452.793
1377.77	194.508
1380.94	219.871
1384.11	144.803
1387.27	238.375
1390.43	317.762
1393.6	233.455
1396.76	185.135
1399.92	309.975
1403.08	307.807
1406.23	75.0234
1409.39	147.166
1412.54	416.516
1415.69	127.428
1418.85	25.7812
1421.99	167.59
1425.14	317.867
1428.29	187.578
1431.43	200.06
1434.58	255.211
1437.72	322.164
1440.86	197.188
1444	89.2676
1447.13	156.887
1450.27	290.283
1453.4	104.473
1456.54	89.0977
1459.67	45.0352
1462.8	88.8027
1465.93	221.844
1469.06	340.857
1472.18	90.8457
1475.31	142.852
1478.43	223.908
1481.55	304.951
1484.67	152.894
1487.79	130.842
1490.9	287.197
1494.02	225.174
1497.13	100.367
1500.24	122.379
1503.35	284.191
1506.46	352.781
1509.57	158.023
1512.68	13.4844
1515.78	29.7539
1518.88	487.527
1521.99	239.269
1525.09	27.6445
1528.18	363.045
1531.28	440.326
1534.38	247.926
1537.47	84.9473
1540.56	185.414
1543.66	227.76
1546.74	259.176
1549.83	220.588
1552.92	446.072
1556.01	587.51
1559.09	235.897
1562.17	328.594
1565.25	106.328
1568.33	136.834
1571.41	0
