Measurement: Raman, 514 nm, ccw, Raman Data Processed
Mineral: Anorthite
Rruff sample: R040059
Ideal chemistry: CaAl_2_Si_2_O_8_
Locality: Miyakejima, Japan
Source: University of Arizona Mineral Museum
Description: Colorless fragments of crystals
Measured chemistry: (Ca_0.94_Na_0.04_Fe_0.02_)(Al_0.98_Si_0.02_)_2_Si_2.00_O_8_
Pin_id: M00124
Orientation: Laser parallel to a* (1 0 0). Fiducial mark perpendicular to laser is parallel to b [0 1 0]
Raman shift (cm-1)	intensity
127.3	0
131.469	323.451
135.636	892.811
139.801	2289.33
143.964	3920.57
148.125	4081.89
152.284	1920.37
156.441	718.883
160.596	413.688
164.749	350.512
168.9	558.484
173.049	659.386
177.195	1540.81
181.34	3236.14
185.483	5230.19
189.624	6654.42
193.762	7078.84
197.899	5863.15
202.034	4297.64
206.166	2992.5
210.297	1647.32
214.425	512.898
218.552	69.355
222.676	105.051
226.799	274.689
230.919	149.368
235.038	473.56
239.154	1307.23
243.269	2235.13
247.381	2995.26
251.492	3402.62
255.6	3700.19
259.707	4036.45
263.811	4350.31
267.914	4574.3
272.014	4348.7
276.113	4026.91
280.209	4171.7
284.304	4246.87
288.396	3912.41
292.487	3342.3
296.575	2420.65
300.662	991.388
304.746	180.799
308.829	23.239
312.909	92.684
316.988	21.763
321.065	419.443
325.139	693.506
329.212	323.942
333.283	57.883
337.351	36.391
341.418	400.156
345.483	624.645
349.546	782.035
353.606	1951.58
357.665	886.289
361.722	438.156
365.777	593.186
369.83	984.373
373.881	1433.72
377.93	2063.21
381.977	2487.08
386.023	1743
390.066	1388.76
394.107	1581.16
398.146	2332.94
402.184	2394.01
406.219	1546.24
410.252	596.622
414.284	52.157
418.313	166.213
422.341	347.452
426.367	1253.3
430.39	1572.34
434.412	1031.57
438.432	738.815
442.45	494.207
446.466	225.77
450.48	235.497
454.492	687.369
458.502	1719.63
462.51	1957.7
466.517	1989.97
470.521	3091.01
474.523	5118
478.524	8151.91
482.523	12662.7
486.519	16898.7
490.514	15632.2
494.507	16433
498.498	25207.1
502.487	38651.5
506.474	39855
510.459	28238.6
514.442	19932.5
518.424	13606.7
522.403	11251.1
526.381	11115.7
530.356	8800.39
534.33	5405.23
538.302	3700.17
542.272	2805.26
546.24	3060.68
550.206	4216.78
554.17	5903.56
558.132	7010.55
562.093	6597.54
566.051	5074.51
570.008	3141.47
573.963	1852.4
577.915	1267.21
581.866	898.966
585.815	946.787
589.763	1059.56
593.708	1585.28
597.651	1916.94
601.593	2393.53
605.532	1512.06
609.47	624.504
613.406	170.866
617.34	88.136
621.272	231.238
625.202	63.997
629.131	125.545
633.057	190.299
636.982	145.425
640.905	3.636
644.825	90.796
648.744	76.652
652.662	23.664
656.577	184.374
660.49	261.518
664.402	412.397
668.312	706.036
672.219	1345.27
676.125	2652.16
680.03	3837.34
683.932	3836.92
687.832	2799.26
691.731	2001.26
695.628	1503.68
699.522	1363.32
703.415	1029.99
707.307	756.706
711.196	868.745
715.083	962.578
718.969	937.043
722.853	978.219
726.735	860.103
730.615	1106.69
734.493	1598.1
738.37	2527.28
742.244	3215.16
746.117	2802.75
749.988	2090.05
753.857	2277.05
757.724	2633.75
761.59	3250.16
765.453	3356.28
769.315	2932.11
773.175	2507.16
777.033	1895.38
780.889	1429.46
784.744	946.202
788.596	488.164
792.447	367.569
796.296	477.552
800.143	429.513
803.989	153.053
807.832	64.891
811.674	162.191
815.514	28.091
819.352	34.996
823.189	44.661
827.023	111.184
830.856	143.39
834.687	44.146
838.516	15.313
842.343	104.107
846.169	6.109
849.992	36.292
853.814	22.074
857.634	89.868
861.453	204.623
865.269	256.213
869.084	310.655
872.897	318.971
876.708	359.141
880.517	447.192
884.325	679.123
888.13	728.927
891.934	704.727
895.737	778.465
899.537	884.134
903.336	1182.78
907.132	1287.38
910.928	1541.92
914.721	1626.42
918.512	1500.86
922.302	1445.24
926.09	2099.61
929.876	3004.03
933.66	4128.6
937.443	4893.3
941.224	5208.18
945.003	5003.38
948.78	5078.91
952.556	5283.97
956.33	5688.88
960.102	5318.45
963.872	5018.22
967.64	5329.5
971.407	6396.65
975.172	7743.99
978.935	8041.08
982.697	6994.57
986.456	5733.91
990.214	4584.34
993.971	4032.57
997.725	3853.6
1001.48	4029.54
1005.23	3802.76
1008.98	3139.12
1012.73	2646.3
1016.47	2163.85
1020.22	2083.93
1023.96	2211.87
1027.7	2029.93
1031.44	1780.18
1035.17	1618.57
1038.91	1406.01
1042.64	1357.89
1046.37	1358.8
1050.1	1592.35
1053.83	1457.69
1057.56	1167.56
1061.28	1170.21
1065.01	1032.92
1068.73	1053.41
1072.45	1097.04
1076.16	1247.67
1079.88	1286.45
1083.6	1027.71
1087.31	818.916
1091.02	620.593
1094.73	492.967
1098.44	456.29
1102.14	497.933
1105.85	650.101
1109.55	413.402
1113.25	286.285
1116.95	268.929
1120.65	392.104
1124.34	678.278
1128.04	692.33
1131.73	716.711
1135.42	621.521
1139.11	620.54
1142.79	370.188
1146.48	86.269
1150.16	195.465
1153.84	113.005
1157.52	214.361
1161.2	207.362
1164.88	323.851
1168.56	149.706
1172.23	168.289
1175.9	75.074
1179.57	10.405
1183.24	66.902
1186.9	260.926
1190.57	90.116
1194.23	165.67
1197.89	21.038
1201.55	5.748
1205.21	59.163
1208.87	54.048
1212.52	119.646
1216.18	235.717
1219.83	219.073
1223.48	222.682
1227.13	184.422
1230.77	88.801
1234.42	25.362
1238.06	2.041
1241.7	190.285
1245.34	292.688
1248.98	385.947
1252.62	380.322
1256.25	322.168
1259.88	254.02
1263.51	106.284
1267.14	12.438
1270.77	98.532
1274.4	779.496
1278.02	320.199
1281.65	390.541
1285.27	320.631
1288.89	180.082
1292.51	58.86
1296.12	17.299
1299.74	44.804
1303.35	2.679
1306.96	149.681
1310.57	286.257
1314.18	340.092
1317.79	265.905
1321.39	309.389
1324.99	54.546
1328.59	90.649
1332.19	15.126
1335.79	114.237
1339.39	27.43
1342.98	265.63
1346.58	393.124
1350.17	413.102
1353.76	402.65
1357.35	184.215
1360.93	195.573
1364.52	83.753
1368.1	95.083
1371.68	27.935
1375.26	169.523
1378.84	359.766
1382.42	383.828
1385.99	429.163
1389.57	414.146
1393.14	419.834
1396.71	232.251
1400.28	186.896
1403.85	75.646
1407.41	222.105
1410.98	267.17
1414.54	251.556
1418.1	490.738
1421.66	435.155
1425.21	433.213
1428.77	363.081
1432.33	241.325
1435.88	223.723
1439.43	222.411
1442.98	124.957
1446.53	194.326
1450.07	318.922
1453.62	483.111
1457.16	603.587
1460.7	550.103
1464.24	668.414
1467.78	588.156
1471.32	455.897
1474.85	353.024
1478.38	131.975
1481.91	42.207
1485.44	83.472
1488.97	4.466
1492.5	178.269
1496.03	231.928
1499.55	327.297
1503.07	394.779
1506.59	433.963
1510.11	477.3
1513.63	306
1517.14	194.413
1520.66	0
