Measurement: Raman, 514 nm, ccw, Raman Data Processed
Mineral: Anorthite
Rruff sample: R040059
Ideal chemistry: CaAl_2_Si_2_O_8_
Locality: Miyakejima, Japan
Source: University of Arizona Mineral Museum
Description: Colorless fragments of crystals
Measured chemistry: (Ca_0.94_Na_0.04_Fe_0.02_)(Al_0.98_Si_0.02_)_2_Si_2.00_O_8_
Pin_id: M00453
Orientation: Laser parallel to -c* (0 0 -1). Fiducial mark perpendicular to laser is parallel to a [1 0 0]
Raman shift (cm-1)	intensity
123.129	0
127.3	126.201
131.469	440.295
135.636	588.991
139.801	1586.12
143.964	3345.86
148.125	4047.12
152.284	2272.9
156.441	1094.61
160.596	817.802
164.749	1486.9
168.9	2858.86
173.049	4092.29
177.195	5347.51
181.34	7138.46
185.483	8320.17
189.624	8529.13
193.762	7501.63
197.899	5518.4
202.034	4050.2
206.166	3257.68
210.297	2871.94
214.425	2214.11
218.552	1505.07
222.676	1134.53
226.799	552.939
230.919	474.768
235.038	758.201
239.154	1146.37
243.269	2161.25
247.381	3046.64
251.492	3555.06
255.6	3641.12
259.707	3572.86
263.811	3524.19
267.914	4074.93
272.014	4464.93
276.113	4974.25
280.209	5682.93
284.304	6050.9
288.396	5612.01
292.487	4298.94
296.575	2799.46
300.662	1603
304.746	867.845
308.829	833.44
312.909	679.406
316.988	925.555
321.065	1321.68
325.139	1317.66
329.212	683.236
333.283	108.316
337.351	177.264
341.418	173.758
345.483	21.274
349.546	280.227
353.606	291.245
357.665	344.336
361.722	50.612
365.777	144.118
369.83	186.574
373.881	358.14
377.93	578.872
381.977	718.816
386.023	698.03
390.066	836.539
394.107	1284.07
398.146	1849.59
402.184	2121.96
406.219	2321.04
410.252	2308.48
414.284	1615.24
418.313	1131.66
422.341	1619.59
426.367	2787.06
430.39	3252.82
434.412	2797.4
438.432	2351.58
442.45	2065.35
446.466	1388.71
450.48	1161.67
454.492	1471.67
458.502	1935.41
462.51	2118.27
466.517	2198.98
470.521	2789.03
474.523	3598.26
478.524	5305.28
482.523	7815.73
486.519	10526.5
490.514	9493.89
494.507	9064.49
498.498	12954.5
502.487	19189.8
506.474	19904.8
510.459	15350.1
514.442	9506.1
518.424	6185.8
522.403	4568.59
526.381	4092.52
530.356	3085.54
534.33	1760.25
538.302	1437.16
542.272	1146.56
546.24	1437.9
550.206	2329.68
554.17	2936.43
558.132	3527.99
562.093	2789.47
566.051	2140.64
570.008	1219.94
573.963	768.135
577.915	435.688
581.866	162.852
585.815	569.59
589.763	505.947
593.708	821.943
597.651	807.59
601.593	842.883
605.532	637.826
609.47	222.422
613.406	63.371
617.34	150.305
621.272	533.59
625.202	896.531
629.131	609.146
633.057	98.559
636.982	36.721
640.905	14.664
644.825	211.822
648.744	192.693
652.662	5.609
656.577	51.26
660.49	23.371
664.402	159.033
668.312	261.568
672.219	469.965
676.125	1443.14
680.03	2266.12
683.932	2186.19
687.832	1523.99
691.731	905.525
695.628	632.248
699.522	805.863
703.415	526.537
707.307	33.129
711.196	196.701
715.083	114.834
718.969	165.334
722.853	554.125
726.735	272.58
730.615	380.734
734.493	828.461
738.37	1432.89
742.244	2009.26
746.117	1635.59
749.988	1302.43
753.857	1789.02
757.724	2645.37
761.59	3571.48
765.453	3836.74
769.315	3115.12
773.175	2190.62
777.033	1312.87
780.889	1017.92
784.744	762.781
788.596	220.885
792.447	261.002
796.296	504.281
800.143	495.84
803.989	128.922
807.832	199.277
811.674	133.555
815.514	87.555
819.352	258.047
823.189	139.27
827.023	11.383
830.856	141.941
834.687	112.875
838.516	154.188
842.343	284.027
846.169	362.031
849.992	139.887
853.814	136.902
857.634	323.314
861.453	552.912
865.269	679.361
869.084	544.346
872.897	569.457
876.708	324.973
880.517	210.887
884.325	818.1
888.13	825.301
891.934	1392.75
895.737	1160.22
899.537	1427.8
903.336	2065.64
907.132	2203.61
910.928	3001.6
914.721	3009.66
918.512	2407.77
922.302	1615.99
926.09	1774.34
929.876	1922.8
933.66	2051.39
937.443	1990.06
941.224	2028.78
945.003	2437.75
948.78	3066.81
952.556	3599.75
956.33	4318.43
960.102	3980.69
963.872	3561.72
967.64	3507.22
971.407	3975
975.172	4683.35
978.935	5134.81
982.697	4560.97
986.456	4113.34
990.214	3094.61
993.971	2530.41
997.725	2390.68
1001.48	3557.79
1005.23	2869.93
1008.98	2240.76
1012.73	2044.5
1016.47	1658.62
1020.22	1813.01
1023.96	2167.69
1027.7	2422.66
1031.44	2197.91
1035.17	1896.78
1038.91	1601.99
1042.64	1388.2
1046.37	1454.76
1050.1	1894.87
1053.83	1955.77
1057.56	1413.4
1061.28	1491.44
1065.01	1153.72
1068.73	1092.95
1072.45	1202.66
1076.16	1482.16
1079.88	1958.92
1083.6	2159.32
1087.31	1859.89
1091.02	1120.77
1094.73	631.854
1098.44	513.123
1102.14	734.646
1105.85	1256.41
1109.55	958.684
1113.25	492.492
1116.95	266.01
1120.65	120.031
1124.34	294.35
1128.04	409.045
1131.73	574.398
1135.42	699.512
1139.11	984.883
1142.79	511.186
1146.48	77.518
1150.16	75.701
1153.84	189.926
1157.52	466.795
1161.2	542.793
1164.88	678.881
1168.56	424.602
1172.23	440.328
1175.9	46.471
1179.57	77.316
1183.24	218.25
1186.9	574.631
1190.57	170.426
1194.23	371.844
1197.89	174.523
1201.55	212.469
1205.21	128.301
1208.87	45.695
1212.52	277.602
1216.18	921.812
1219.83	1038.14
1223.48	1112.43
1227.13	805.598
1230.77	763.801
1234.42	506.086
1238.06	348.617
1241.7	340.629
1245.34	843.195
1248.98	1376.06
1252.62	1450.77
1256.25	1411.39
1259.88	1104.49
1263.51	957.613
1267.14	436.074
1270.77	668.285
1274.4	719.34
1278.02	1058.93
1281.65	1159.13
1285.27	1378.77
1288.89	817.684
1292.51	878.086
1296.12	583.633
1299.74	216.996
1303.35	41.02
1306.96	383.699
1310.57	937.875
1314.18	1281.66
1317.79	1364.57
1321.39	1416.74
1324.99	905.012
1328.59	256.016
1332.19	53.098
1335.79	133.582
1339.39	154.754
1342.98	400.234
1346.58	794.254
1350.17	1091.27
1353.76	1243.94
1357.35	610.262
1360.93	426.457
1364.52	162.293
1368.1	72.332
1371.68	303
1375.26	175.465
1378.84	813.664
1382.42	1590.04
1385.99	1475.99
1389.57	1400.21
1393.14	1324.6
1396.71	998.57
1400.28	541.504
1403.85	193.684
1407.41	454.176
1410.98	198.891
1414.54	575.73
1418.1	916.379
1421.66	1425.41
1425.21	1634.3
1428.77	1361.96
1432.33	1275.39
1435.88	1389.55
1439.43	1352.22
1442.98	1389.19
1446.53	1512.79
1450.07	1951.63
1453.62	2407.96
1457.16	3034.37
1460.7	2876.46
1464.24	2747.87
1467.78	2846.97
1471.32	2276.23
1474.85	1704.23
1478.38	693.332
1481.91	793.488
1485.44	478.562
1488.97	244.102
1492.5	334.219
1496.03	538.234
1499.55	838.258
1503.07	1105.8
1506.59	1323.96
1510.11	1264.39
1513.63	1274.71
1517.14	0
