Measurement: Raman, 514 nm, ccw, Raman Data Processed
Mineral: Anorthite
Rruff sample: R040059
Ideal chemistry: CaAl_2_Si_2_O_8_
Locality: Miyakejima, Japan
Source: University of Arizona Mineral Museum
Description: Colorless fragments of crystals
Measured chemistry: (Ca_0.94_Na_0.04_Fe_0.02_)(Al_0.98_Si_0.02_)_2_Si_2.00_O_8_
Pin_id: M00124
Orientation: Laser parallel to a* (1 0 0). Fiducial mark perpendicular to laser is parallel to b [0 1 0]
Raman shift (cm-1)	intensity
128.69	0
132.858	323.434
137.025	1256.52
141.189	2692.19
145.352	3845.57
149.512	2849.49
153.67	1368.49
157.827	322.666
161.981	92.371
166.133	139.997
170.283	413.324
174.431	462.037
178.577	1267.26
182.721	2425.93
186.863	3822.47
191.003	4795.33
195.141	5464.08
199.277	4709.02
203.411	3410.72
207.543	2069.64
211.673	1036.16
215.801	389.313
219.927	8.812
224.051	116.4
228.173	36.842
232.292	93.351
236.41	519.565
240.526	1054.12
244.64	2071.07
248.752	2342.9
252.861	2434.36
256.969	2875.37
261.075	3034.57
265.179	2931.33
269.281	2967.66
273.38	2925.39
277.478	2813.8
281.574	2859.53
285.668	2815.13
289.76	2570.61
293.85	2014.07
297.937	1053.71
302.023	321.273
306.107	22.229
310.189	180.759
314.269	288.979
318.347	125.991
322.423	323.112
326.497	344.733
330.569	22.087
334.639	174.417
338.707	223.843
342.773	96.268
346.837	161.308
350.899	301.631
354.96	488.416
359.018	241.706
363.074	134.522
367.128	445.919
371.181	753.973
375.231	880.73
379.28	1040.97
383.326	1141.11
387.37	824.652
391.413	674.465
395.454	997.981
399.492	1674.59
403.529	1699.12
407.564	1173.45
411.596	497.562
415.627	98.56
419.656	248.456
423.683	799.271
427.708	1283.06
431.731	1606.82
435.752	1780.56
439.772	1804.23
443.789	1397.9
447.804	1101.54
451.817	1045.17
455.829	1628.74
459.838	2192.04
463.846	2393.86
467.852	3068.07
471.855	4751.27
475.857	6264.73
479.857	9076.87
483.855	13887.4
487.851	16826.4
491.845	14027.1
495.837	14700.3
499.828	22456.2
503.816	32664.8
507.802	29044.3
511.787	19674.9
515.77	13424.3
519.75	9701.46
523.729	9137.39
527.706	8277.23
531.681	5608.82
535.654	3610.69
539.625	2772.51
543.595	2784.33
547.562	3486.41
551.527	4758.95
555.491	6981.94
559.453	7815.06
563.412	6608.11
567.37	4351.09
571.326	2593.98
575.28	1715.41
579.233	1045.95
583.183	798.571
587.131	771.134
591.078	1223.6
595.022	1985.98
598.965	2098.25
602.906	1640.42
606.845	822.484
610.782	404.435
614.718	546.272
618.651	937.992
622.582	1029.6
626.512	711.25
630.44	433.319
634.366	226.084
638.29	249.284
642.212	12.47
646.132	12.922
650.05	88.859
653.967	70.267
657.882	48.492
661.794	130.585
665.705	19.934
669.614	480.182
673.522	1326.35
677.427	2056.58
681.331	2536.95
685.232	2209.54
689.132	1898.49
693.03	1414.38
696.926	997.598
700.82	460.419
704.713	498.853
708.603	687.022
712.492	614.918
716.379	552.539
720.264	629.883
724.147	596.945
728.028	803.729
731.908	1090.24
735.785	1556.5
739.661	2162.49
743.535	2558.2
747.407	2333.63
751.278	2388.79
755.146	2453.67
759.013	3208.27
762.878	3782.61
766.741	3866.66
770.602	3610.45
774.461	2743.97
778.319	1837.21
782.174	1060.19
786.028	662.896
789.88	638.989
793.73	629.971
797.579	447.767
801.425	137.884
805.27	31.127
809.113	105.186
812.954	192.722
816.794	81.235
820.631	129.487
824.467	172.071
828.301	155.445
832.133	79.504
835.963	35.743
839.792	120.394
843.618	65.68
847.443	32.291
851.266	39.216
855.088	163.555
858.907	172.518
862.725	238.577
866.541	270.853
870.355	403.01
874.167	495.04
877.978	816.938
881.787	1058.75
885.594	1190.47
889.399	1622.13
893.202	1913.77
897.004	2225.41
900.803	2487.09
904.601	2558.74
908.398	2410.33
912.192	2151.86
915.985	2123.33
919.776	2034.78
923.565	2276.26
927.352	2387.7
931.138	2749.22
934.922	3250.77
938.704	4032.31
942.484	4363.91
946.262	4735.57
950.039	4637.3
953.814	5006.84
957.587	4751.14
961.359	4363.09
965.128	4436.7
968.896	5012.57
972.662	6495.43
976.427	7036.41
980.189	6325.04
983.95	5703.36
987.709	4753.25
991.467	4394.77
995.222	4244.03
998.976	4164.28
1002.73	4134.72
1006.48	3559.4
1010.23	3184.97
1013.97	3180.88
1017.72	3177.12
1021.46	3106.27
1025.2	2602.96
1028.94	2142.15
1032.68	1841.39
1036.42	1639.33
1040.15	2045.59
1043.89	2125.36
1047.62	2452.4
1051.35	2310.44
1055.07	1960.39
1058.8	1679.58
1062.52	1649.06
1066.25	1549.01
1069.97	1524.82
1073.69	1656.17
1077.4	1626.76
1081.12	1328.63
1084.83	1259.78
1088.55	961.515
1092.26	1083.62
1095.96	985.562
1099.67	919.099
1103.38	631.53
1107.08	423.956
1110.78	187.216
1114.48	240.928
1118.18	644.887
1121.88	929.598
1125.57	1104.92
1129.27	1030.18
1132.96	739.914
1136.65	596.086
1140.34	158.688
1144.02	170.195
1147.71	238.439
1151.39	471.57
1155.07	613.121
1158.75	226.844
1162.43	165.594
1166.11	106.846
1169.78	100.963
1173.45	78.939
1177.12	300.998
1180.79	420.744
1184.46	353.285
1188.13	149.182
1191.79	189.33
1195.45	193.527
1199.11	34.135
1202.77	152.438
1206.43	289.395
1210.09	348.92
1213.74	409.348
1217.39	316.258
1221.05	98.797
1224.69	180.594
1228.34	96.467
1231.99	263.033
1235.63	400.844
1239.27	406.621
1242.91	451.072
1246.55	505.934
1250.19	202.709
1253.83	68.797
1257.46	43.496
1261.09	197.93
1264.72	351.221
1268.35	564.807
1271.98	687.027
1275.61	719.961
1279.23	441.734
1282.85	46.066
1286.47	25.268
1290.09	124.75
1293.71	24.934
1297.33	243.857
1300.94	513.549
1304.55	431.504
1308.16	338.475
1311.77	282.277
1315.38	138.527
1318.99	5.965
1322.59	136.785
1326.19	119.258
1329.79	322.76
1333.39	267.771
1336.99	540.416
1340.59	563.396
1344.18	464.164
1347.77	149.49
1351.37	10.387
1354.95	169.189
1358.54	91.061
1362.13	35.254
1365.71	453.078
1369.3	400.26
1372.88	419.188
1376.46	614.283
1380.04	572.002
1383.61	248.357
1387.19	245.221
1390.76	41.643
1394.33	67.193
1397.9	192.262
1401.47	354.656
1405.04	868.295
1408.6	723.309
1412.16	727.852
1415.72	702.273
1419.29	563.254
1422.84	117.219
1426.4	254.639
1429.96	170.199
1433.51	219.504
1437.06	282.59
1440.61	762.885
1444.16	784.23
1447.71	1168.03
1451.25	1027.94
1454.8	878.965
1458.34	758.6
1461.88	700.096
1465.42	261.303
1468.96	222.336
1472.49	160.584
1476.03	150.801
1479.56	553.98
1483.09	690.852
1486.62	744.855
1490.15	838.23
1493.67	813.516
1497.2	678.916
1500.72	527.803
1504.24	447.969
1507.76	109.131
1511.28	7.955
1514.8	7.15
