Measurement: Raman, 514 nm, ccw, Raman Data Processed
Mineral: Anorthite
Rruff sample: R050104
Ideal chemistry: CaAl_2_Si_2_O_8_
Locality: unknown
Source: Rock Currier
Description: Iridescent slab, labradorite/andesine
Measured chemistry: Ca_0.50_Na_0.47_K_0.03_Al_1.50_Si_2.50_O_8_
Pin_id: L00412
Orientation: Laser parallel to (-1 -1 0). Fiducial mark perpendicular to laser is parallel to c [0 0 1]
Raman shift (cm-1)	intensity
128.84	0
133.003	52.22
137.164	46.112
141.323	61.194
145.48	240.032
149.635	426.916
153.788	442.079
157.939	325.752
162.088	657.842
166.235	1191.36
170.38	2322.08
174.523	3782.89
178.664	5298.78
182.803	5848.93
186.94	5721.49
191.076	5440.35
195.209	4893.71
199.34	4144.71
203.47	3540.75
207.597	2721.4
211.722	1639.07
215.846	660.572
219.967	221.621
224.087	53.56
228.204	9.714
232.32	156.943
236.434	352.89
240.545	702.102
244.655	1028.71
248.763	1390.82
252.869	2016.48
256.973	2626.63
261.075	3244.56
265.175	4121.41
269.273	4996.49
273.369	5854.33
277.463	6823.74
281.556	7628.44
285.646	7789.78
289.734	6740.64
293.821	5474.41
297.905	3815.51
301.988	2703.57
306.069	1675.79
310.147	1032.65
314.224	897.857
318.299	765.218
322.372	616.604
326.443	361.919
330.512	295.056
334.579	298.926
338.645	280.479
342.708	619.73
346.769	992.674
350.829	1192.27
354.887	987.468
358.942	545.068
362.996	241.001
367.048	88.753
371.098	341.555
375.146	273.803
379.192	214.474
383.236	80.39
387.279	13.766
391.319	181.212
395.358	491.065
399.394	793.355
403.429	1214.2
407.462	1699.64
411.493	1828.49
415.522	1250.21
419.549	822.438
423.575	753.504
427.598	563.177
431.619	579.606
435.639	770.799
439.657	1001.76
443.673	1456.81
447.687	2123.9
451.699	2706.98
455.709	3610.76
459.717	4820.34
463.724	7549.3
467.728	11862.7
471.731	18337.3
475.732	26291.3
479.731	31921.3
483.728	29399.4
487.723	22436.8
491.716	18224.1
495.708	20732.5
499.697	30018
503.685	41324.4
507.671	48417.9
511.655	47556.1
515.637	37619.5
519.617	27173.6
523.596	18823.4
527.572	12967.4
531.547	8503.41
535.52	6051.17
539.491	4461.01
543.46	3638.43
547.427	3414
551.393	3471.48
555.356	3824.2
559.318	4485.68
563.278	5491.04
567.236	5721.36
571.192	4659.52
575.147	3301.48
579.099	2021.24
583.05	1319.8
586.999	922.955
590.946	670.559
594.891	508.512
598.834	227.259
602.776	234.792
606.715	117.106
610.653	41.159
614.589	2.915
618.523	99.633
622.456	32.642
626.386	168.022
630.315	206.432
634.242	422.606
638.167	140.555
642.09	176.274
646.012	121.552
649.931	56
653.849	41.001
657.765	69.253
661.679	4.146
665.592	174.558
669.502	162.147
673.411	209.273
677.318	320.527
681.223	497.874
685.126	622.011
689.028	786.173
692.927	812.236
696.825	918.32
700.721	1048.65
704.616	1085.31
708.508	1395.49
712.399	1338.47
716.288	1447.45
720.175	1583.3
724.06	1477.06
727.944	1613.37
731.825	1632.18
735.705	1743.15
739.584	1978.83
743.46	2169.01
747.334	2343.84
751.207	2464.32
755.078	2566.33
758.947	2698.83
762.815	2951.17
766.68	3209.13
770.544	3453.93
774.406	3336.31
778.267	3079.15
782.125	2622.07
785.982	2155.64
789.837	1847.94
793.69	1714.36
797.542	1437.21
801.391	1368.05
805.239	800.231
809.085	584.669
812.93	394.581
816.772	197.926
820.613	111.702
824.452	84.115
828.29	7.87
832.125	52.782
835.959	92.913
839.791	60.479
843.621	195.827
847.45	146.21
851.277	10.424
855.102	37.726
858.925	120.667
862.746	97.427
866.566	99.974
870.384	20.703
874.2	56.296
878.015	38.985
881.828	145.844
885.639	219.329
889.448	195.445
893.256	485.32
897.061	513.078
900.865	571.469
904.668	642.609
908.468	749.509
912.267	911.189
916.064	1085.67
919.86	1092.02
923.653	1277.2
927.445	1371.25
931.236	1503.23
935.024	1586.07
938.811	1918.8
942.596	2089.4
946.379	2223.86
950.161	2171.23
953.94	2196.53
957.719	2347.77
961.495	3167.93
965.27	3190.04
969.043	3353.54
972.814	4055.9
976.583	4181.01
980.351	4333.71
984.117	4329.2
987.882	4364.07
991.644	4434.9
995.405	4157.59
999.165	4211.74
1002.92	4234.23
1006.68	4074.14
1010.43	4282.67
1014.18	4410.36
1017.93	4760.49
1021.68	4814.88
1025.43	4679.9
1029.18	4443.92
1032.92	4206.27
1036.66	4090.94
1040.4	4273.82
1044.14	4192
1047.88	4072.35
1051.62	3881.86
1055.35	3696.57
1059.08	3787.45
1062.81	3954.55
1066.54	4046.2
1070.27	4365.7
1073.99	4437.48
1077.72	4308.22
1081.44	4253.49
1085.16	4358.97
1088.88	4134.14
1092.59	4133.42
1096.31	4053.56
1100.02	3885.21
1103.73	3772.27
1107.44	3381.14
1111.15	3182.11
1114.86	2966.07
1118.57	2868.97
1122.27	2851.81
1125.97	2509.55
1129.67	2362.01
1133.37	2061.89
1137.07	1986.24
1140.76	1761.07
1144.45	1472.23
1148.15	1445.91
1151.84	1212.32
1155.53	1164.43
1159.21	1030.46
1162.9	777.273
1166.58	629.413
1170.26	618.587
1173.94	639.993
1177.62	473.055
1181.3	687.235
1184.97	575.682
1188.65	442.455
1192.32	259.779
1195.99	92.661
1199.66	38.047
1203.33	32.925
1206.99	91.39
1210.65	182.332
1214.32	3.233
1217.98	75.599
1221.64	1.087
1225.29	11.851
1228.95	47.389
1232.6	130.469
1236.26	40.688
1239.91	95.646
1243.56	193.505
1247.2	232.861
1250.85	134.776
1254.49	189.316
1258.13	125.599
1261.78	185.793
1265.41	25.916
1269.05	131.63
1272.69	269.953
1276.32	374.943
1279.95	317.681
1283.59	331.371
1287.21	136.743
1290.84	28.281
1294.47	46.61
1298.09	4.307
1301.72	101.175
1305.34	285.765
1308.96	362.161
1312.58	247.676
1316.19	264.487
1319.81	231.513
1323.42	44.936
1327.03	0.689
