Measurement: Raman, 514 nm, ccw, Raman Data Processed
Mineral: Anorthite
Rruff sample: R040059
Ideal chemistry: CaAl_2_Si_2_O_8_
Locality: Miyakejima, Japan
Source: University of Arizona Mineral Museum
Description: Colorless fragments of crystals
Measured chemistry: (Ca_0.94_Na_0.04_Fe_0.02_)(Al_0.98_Si_0.02_)_2_Si_2.00_O_8_
Pin_id: M00328
Orientation: Laser parallel to (-1 0 -1). Fiducial mark perpendicular to laser is parallel to -b [0 -1 0]
Raman shift (cm-1)	intensity
121.738	0
125.91	87.695
130.08	634.742
134.248	1849.67
138.413	2509.68
142.577	3560.93
146.739	3852.17
150.898	2680.65
155.056	1446.68
159.212	772.203
163.365	588.816
167.517	881.59
171.666	1528.04
175.813	2478.12
179.959	3787.01
184.102	6090.97
188.244	8639.57
192.383	11322
196.52	11107.1
200.656	9245.9
204.789	7759.2
208.92	5707.91
213.049	3493.87
217.176	2488.04
221.302	2860.86
225.425	2602.57
229.546	1785.57
233.665	2159.24
237.782	3396.18
241.898	4565.38
246.011	5080.31
250.122	5695.56
254.231	6401.51
258.338	6781.45
262.443	5968.31
266.546	5334.56
270.647	5290.07
274.747	5374.83
278.844	5518.85
282.939	5552.17
287.032	4935.31
291.123	3592.78
295.212	2239.59
299.3	1760.89
303.385	1534.99
307.468	1150.88
311.549	867.866
315.629	945.507
319.706	1123.41
323.781	1151.24
327.855	558.79
331.926	105.952
335.995	137.451
340.063	301.772
344.128	517.641
348.192	395.931
352.253	426.995
356.313	150.634
360.37	46.194
364.426	196.613
368.479	498.296
372.531	399.106
376.581	369.069
380.629	198.171
384.674	246.316
388.718	333.523
392.76	819.502
396.8	1352.11
400.838	1969.88
404.874	2344.09
408.908	2066.78
412.94	1659.04
416.97	1530.65
420.999	1931.62
425.025	2952.23
429.049	4652.53
433.072	5082.5
437.092	5552.15
441.111	5511.51
445.127	4830.56
449.142	3909.33
453.155	3237.82
457.166	3715.89
461.175	4193.46
465.181	4270.49
469.186	5716.93
473.19	7732.78
477.191	11658
481.19	19032.6
485.187	28766.7
489.183	27220.2
493.176	21163
497.168	24760.5
501.157	36655.5
505.145	42833.2
509.131	33357.9
513.115	24475.5
517.097	17553.9
521.077	12361.9
525.055	9568.16
529.031	7318.3
533.006	5906.28
536.978	5195.8
540.949	5598.37
544.917	6935.1
548.884	10406.1
552.849	15645.2
556.812	19055
560.773	17624.7
564.732	13184.2
568.689	8963.59
572.644	5812.91
576.598	3782.14
580.55	2431.26
584.499	2020.31
588.447	2499.26
592.393	2888.13
596.337	2596.93
600.279	2165.65
604.219	1314.3
608.158	1042.88
612.094	1245.52
616.029	1429.83
619.962	2058.22
623.892	2686.55
627.821	2164.84
631.749	1123.08
635.674	321.287
639.597	309.469
643.519	274.27
647.438	259.633
651.356	33.449
655.272	279.195
659.186	211.303
663.098	38.277
667.009	658.254
670.917	969.77
674.824	1675.96
678.728	2959.36
682.631	3611.61
686.532	2990.29
690.432	1941.19
694.329	984.863
698.224	348.535
702.118	442.33
706.01	386.195
709.9	540.016
713.788	283.764
717.674	577.443
721.558	251.051
725.441	585.658
729.322	689.137
733.201	1382.55
737.078	2255.91
740.953	3399.21
744.826	3762.45
748.698	2885.65
752.567	2448.8
756.435	3151.89
760.301	3854.95
764.165	4577.97
768.028	4010.95
771.888	2943.9
775.747	2086.82
779.604	1359.7
783.459	1122.56
787.312	815.406
791.164	598.227
795.013	48.969
798.861	176.369
802.707	34.287
806.551	145.287
810.394	172.812
814.234	614.812
818.073	121.391
821.91	258.873
825.745	266.342
829.578	14.332
833.41	49.301
837.24	82.936
841.068	107.287
844.894	87.971
848.718	293.197
852.54	808.42
856.361	503.645
860.18	248.877
863.997	374.127
867.812	369.402
871.626	204.758
875.438	630.156
879.248	655.605
883.056	241.152
886.862	596.76
890.667	1142.55
894.469	1368.48
898.27	1354.49
902.07	1240.8
905.867	1517.28
909.663	1703.88
913.457	2120.58
917.249	1817.4
921.039	2084.35
924.827	1731.44
928.614	2028.66
932.399	2386.22
936.182	3183.95
939.964	4071.82
943.744	4339.87
947.521	5011.44
951.298	6165.23
955.072	6895.57
958.845	7211.92
962.615	6471.37
966.384	6514.81
970.152	7394.75
973.917	7725.71
977.681	8247.03
981.443	8173.26
985.203	7023.61
988.962	5786.01
992.719	4802.89
996.474	4105.7
1000.23	3859.68
1003.98	3374.16
1007.73	3199.14
1011.48	2794.77
1015.22	2861.14
1018.97	2500.99
1022.71	2108.23
1026.45	1546.04
1030.19	1839.02
1033.93	1877.61
1037.66	2056.61
1041.4	2108.62
1045.13	2188.54
1048.86	2234.63
1052.59	2310.61
1056.32	2822.17
1060.04	2863.77
1063.77	2805.75
1067.49	2678.27
1071.21	2511.18
1074.93	3185.24
1078.64	3183.24
1082.36	2808.1
1086.07	2872.86
1089.78	2498.01
1093.49	1743.62
1097.2	1019.38
1100.91	926.398
1104.61	694.168
1108.32	748.18
1112.02	959.25
1115.72	1078.65
1119.41	758.641
1123.11	924.75
1126.8	695.363
1130.5	266.488
1134.19	527.016
1137.88	625.531
1141.56	610.547
1145.25	1018.52
1148.93	460.691
1152.62	337.52
1156.3	137.914
1159.98	390.219
1163.65	67.32
1167.33	422.191
1171	407.234
1174.68	321.141
1178.35	297.668
1182.02	21.836
1185.68	288.148
1189.35	178.102
1193.01	295.887
1196.67	771.781
1200.33	318.285
1203.99	200.742
1207.65	284.742
1211.31	142.035
1214.96	74.07
1218.61	13.738
1222.26	472.551
1225.91	808.414
1229.56	551.711
1233.2	652.102
1236.85	1186.81
1240.49	435.492
1244.13	53.684
1247.77	123.242
1251.4	512.926
1255.04	690.688
1258.67	927.305
1262.3	334.664
1265.93	750.625
1269.56	555.359
1273.19	319.152
1276.82	227.098
1280.44	166.324
1284.06	409.797
1287.68	371.629
1291.3	922.41
1294.92	681.984
1298.53	500.688
1302.14	390.387
1305.76	73.773
1309.37	150.996
1312.98	182.082
1316.58	545.422
1320.19	567.801
1323.79	783.602
1327.39	844.551
1330.99	742.117
1334.59	451.426
1338.19	239.77
1341.79	21.535
1345.38	183.117
1348.97	449.113
1352.56	444.516
1356.15	989.219
1359.74	993.238
1363.32	1177.06
1366.91	1080.44
1370.49	208.793
1374.07	231.605
1377.65	7.16
1381.23	345.066
1384.8	660.938
1388.38	619.84
1391.95	1162.39
1395.52	1450.16
1399.09	1360.41
1402.66	1134.34
1406.22	701.148
1409.79	620.375
1413.35	610.145
1416.91	338.457
1420.47	274.781
1424.03	696.781
1427.59	316.379
1431.14	1200.14
1434.69	1076.37
1438.24	1188.72
1441.8	1434.06
1445.34	1058.46
1448.89	560.996
1452.43	466.156
1455.98	224.57
1459.52	518.055
1463.06	792.09
1466.6	770.359
1470.14	1325.17
1473.67	1734.92
1477.2	1606.17
1480.74	1291.9
1484.27	921.582
1487.8	671.707
1491.32	562.832
1494.85	255.055
1498.37	80.297
1501.9	28.523
1505.42	304.945
1508.94	808.699
1512.45	867.312
1515.97	435.41
