Measurement: Raman, 514 nm, ccw, Raman Data Processed
Mineral: Anorthite
Rruff sample: R040059
Ideal chemistry: CaAl_2_Si_2_O_8_
Locality: Miyakejima, Japan
Source: University of Arizona Mineral Museum
Description: Colorless fragments of crystals
Measured chemistry: (Ca_0.94_Na_0.04_Fe_0.02_)(Al_0.98_Si_0.02_)_2_Si_2.00_O_8_
Pin_id: M00328
Orientation: Laser parallel to (-1 0 -1). Fiducial mark perpendicular to laser is parallel to -b [0 -1 0]
Raman shift (cm-1)	intensity
125.91	0
130.08	25.338
134.248	687.878
138.413	1629.13
142.577	2846.88
146.739	3340.63
150.898	1987.27
155.056	719.704
159.212	48.761
163.365	168.777
167.517	614.3
171.666	1562.36
175.813	2722.74
179.959	4206.32
184.102	6339.34
188.244	7567.27
192.383	8540
196.52	7686.67
200.656	5877.58
204.789	4723.49
208.92	3565.02
213.049	2473.29
217.176	1499.7
221.302	1478.42
225.425	1223.39
229.546	730.173
233.665	536.771
237.782	1466.81
241.898	2315.87
246.011	2768.92
250.122	3203.48
254.231	3572.18
258.338	3798.06
262.443	3416.06
266.546	3271.51
270.647	3266.31
274.747	3420.39
278.844	3603.76
282.939	3896.44
287.032	3548.44
291.123	2481.49
295.212	1352.57
299.3	868.403
303.385	526.562
307.468	326.044
311.549	156.242
315.629	176.72
319.706	497.218
323.781	527.552
327.855	177.537
331.926	52.968
335.995	74.042
340.063	174.431
344.128	217.671
348.192	261.278
352.253	326.979
356.313	274.805
360.37	114.494
364.426	44.317
368.479	262.025
372.531	288.875
376.581	314.934
380.629	410.226
384.674	454.673
388.718	308.284
392.76	631.064
396.8	1051.28
400.838	1571.76
404.874	1837.32
408.908	1570.43
412.94	1392.66
416.97	1074.38
420.999	1265.63
425.025	2006.48
429.049	3016.99
433.072	3277.17
437.092	3517.03
441.111	3376.57
445.127	2725.8
449.142	2264.72
453.155	2103.34
457.166	2511.58
461.175	2829.37
465.181	2996.65
469.186	4133.33
473.19	5507.75
477.191	7907.27
481.19	12572
485.187	18756.7
489.183	18120.3
493.176	14795.5
497.168	17250.3
501.157	26110.6
505.145	30844.5
509.131	23671.5
513.115	16962.1
517.097	12213
521.077	9338.03
525.055	7843.96
529.031	5906.38
533.006	4593.18
536.978	3549.01
540.949	3495.12
544.917	4302.4
548.884	6247.77
552.849	9626.04
556.812	11895.6
560.773	11154.8
564.732	8343.83
568.689	5772.58
572.644	3761.11
576.598	2249.44
580.55	1527.55
584.499	1355.46
588.447	1653.16
592.393	2070.65
596.337	1997.94
600.279	1815.04
604.219	1181.92
608.158	818.605
612.094	655.094
616.029	761.383
619.962	957.473
623.892	1333.37
627.821	1159.08
631.749	554.625
635.674	90.064
639.597	215.346
643.519	210.711
647.438	271.262
651.356	138.406
655.272	177.916
659.186	250.582
663.098	38.775
667.009	391.191
670.917	788.611
674.824	1308.78
678.728	2359.98
682.631	2847.81
686.532	2339.07
690.432	1572.78
694.329	1009.26
698.224	467.705
702.118	634.008
706.01	649.086
709.9	634.779
713.788	480.242
717.674	725.48
721.558	500.494
725.441	745.287
729.322	849.859
733.201	1254.21
737.078	1738.35
740.953	2572.28
744.826	2836
748.698	2449.52
752.567	2112.83
756.435	2635.95
760.301	3368.88
764.165	4101.61
768.028	3784.16
771.888	3026.53
775.747	2098.72
779.604	1390.72
783.459	1272.56
787.312	914.229
791.164	725.086
795.013	166.137
798.861	12.865
802.707	287.139
806.551	171.494
810.394	68.43
814.234	188.432
818.073	96.309
821.91	89.209
825.745	92.777
829.578	45.33
833.41	68.201
837.24	222.363
841.068	67.295
844.894	42.609
848.718	51.734
852.54	115.658
856.361	80.701
860.18	72.48
863.997	165.232
867.812	418.068
871.626	300.875
875.438	773.621
879.248	796.318
883.056	458.979
886.862	831.607
890.667	1384.35
894.469	1627.19
898.27	1700.06
902.07	1733.06
905.867	1896.21
909.663	1979.38
913.457	2292.57
917.249	2015.79
921.039	2139.06
924.827	1822.38
928.614	2135.78
932.399	2109.32
936.182	2962.94
939.964	3756.64
943.744	3880.43
947.521	4364.09
951.298	5163.01
955.072	5406.64
958.845	5628.49
962.615	5243.76
966.384	5521.94
970.152	6195.3
973.917	6635.97
977.681	6854.76
981.443	6948.85
985.203	5915.64
988.962	5032.07
992.719	4394.76
996.474	3797.16
1000.23	3638.45
1003.98	3324.92
1007.73	3348.96
1011.48	3034.02
1015.22	3114.13
1018.97	2917.11
1022.71	2387.97
1026.45	1869.16
1030.19	1991.36
1033.93	2103.36
1037.66	2335.73
1041.4	2304.15
1045.13	2113.55
1048.86	2206.99
1052.59	2221.31
1056.32	2755.78
1060.04	2480.56
1063.77	2505.66
1067.49	2511.32
1071.21	2187.28
1074.93	2354.88
1078.64	2287.73
1082.36	2154.93
1086.07	2132.53
1089.78	1980.49
1093.49	1409.65
1097.2	1058.19
1100.91	867.244
1104.61	1367.34
1108.32	827.492
1112.02	1008.5
1115.72	1169.13
1119.41	950.232
1123.11	978.041
1126.8	729.99
1130.5	402.547
1134.19	644.705
1137.88	619.992
1141.56	727.838
1145.25	1090.34
1148.93	633.352
1152.62	348.828
1156.3	42.162
1159.98	387.596
1163.65	214.891
1167.33	540.775
1171	477.678
1174.68	596.896
1178.35	470.865
1182.02	67.08
1185.68	339.025
1189.35	175.492
1193.01	189.529
1196.67	485.969
1200.33	534.787
1203.99	570.176
1207.65	216.422
1211.31	70.105
1214.96	83.857
1218.61	30.02
1222.26	584.186
1225.91	770.604
1229.56	725.557
1233.2	809.414
1236.85	1020.52
1240.49	433.389
1244.13	175.258
1247.77	30.404
1251.4	323.533
1255.04	675.902
1258.67	1017.17
1262.3	740.375
1265.93	570.732
1269.56	860.641
1273.19	299.625
1276.82	79.395
1280.44	199.303
1284.06	336.945
1287.68	554.553
1291.3	850.871
1294.92	826.768
1298.53	501.887
1302.14	426.295
1305.76	229.578
1309.37	241.885
1312.98	260.393
1316.58	551.393
1320.19	541.062
1323.79	829.396
1327.39	927.691
1330.99	739.912
1334.59	600.633
1338.19	196.695
1341.79	22.211
1345.38	146.582
1348.97	211.504
1352.56	424.957
1356.15	907.82
1359.74	1040.07
1363.32	1131.69
1366.91	1223.23
1370.49	501.141
1374.07	292.969
1377.65	41.453
1381.23	252.52
1384.8	695.68
1388.38	698.668
1391.95	1080.63
1395.52	1495.93
1399.09	1486.43
1402.66	1234.53
1406.22	703.898
1409.79	629.504
1413.35	520.293
1416.91	100.48
1420.47	326.871
1424.03	765
1427.59	449.941
1431.14	1106.56
1434.69	1191.56
1438.24	1202.08
1441.8	1372.25
1445.34	1030.12
1448.89	586.012
1452.43	502.953
1455.98	111.312
1459.52	478.484
1463.06	442.98
1466.6	632.688
1470.14	1324.4
1473.67	1722.21
1477.2	1756.89
1480.74	1490.83
1484.27	882.812
1487.8	871.734
1491.32	734.289
1494.85	298.16
1498.37	462.047
1501.9	7.75
1505.42	178.156
1508.94	667.586
1512.45	880.617
1515.97	523.801
