Measurement: Raman, 514 nm, ccw, Raman Data Processed
Mineral: Anorthite
Rruff sample: R050104
Ideal chemistry: CaAl_2_Si_2_O_8_
Locality: unknown
Source: Rock Currier
Description: Iridescent slab, labradorite/andesine
Measured chemistry: Ca_0.50_Na_0.47_K_0.03_Al_1.50_Si_2.50_O_8_
Pin_id: L00363
Orientation: Laser parallel to b* (0 1 0). Fiducial mark perpendicular to laser is parallel to c [0 0 1]
Raman shift (cm-1)	intensity
127.452	0
131.615	8.553
135.777	17.155
139.937	280.183
144.094	542.919
148.25	1186.76
152.403	1782.66
156.555	2190.62
160.705	2837.05
164.853	4212.71
168.998	5865.89
173.142	7377.37
177.284	8176.27
181.424	8306.73
185.562	7019.68
189.698	5633.98
193.831	4638.23
197.963	4054.73
202.093	3605.6
206.221	3154.18
210.347	2457.45
214.472	1483.33
218.594	641.329
222.714	189.35
226.832	64.005
230.948	106.615
235.063	11.616
239.175	373.063
243.286	680.962
247.394	1348.92
251.501	1635.7
255.605	1987.36
259.708	2149.35
263.808	2359.06
267.907	2951.25
272.004	3635.08
276.099	4505.9
280.192	5368.44
284.283	5959.61
288.372	5779.96
292.459	4854.03
296.544	3492.59
300.627	2350.19
304.709	1518.74
308.788	975.589
312.865	524.424
316.941	178.095
321.015	206.354
325.086	85.089
329.156	76.263
333.224	216.902
337.29	340.049
341.354	105.597
345.416	76.438
349.476	58.497
353.534	7.902
357.591	76.549
361.645	97.609
365.698	88.684
369.748	58.68
373.797	6.479
377.844	20.968
381.889	217.855
385.932	645.198
389.973	914.996
394.012	1177.17
398.049	1468.14
402.084	1857.18
406.118	2091.93
410.15	1989.37
414.179	1721.43
418.207	1487.72
422.233	1226.56
426.257	1130.56
430.279	986.298
434.299	1075.09
438.318	1219.72
442.334	1338.04
446.349	1252.63
450.361	1348.32
454.372	1377.25
458.381	1536.46
462.388	1873.41
466.394	2898.89
470.397	4574.18
474.398	7111.77
478.398	9050.41
482.396	9692.13
486.391	7797.29
490.385	6059.29
494.377	6072.86
498.368	8392.73
502.356	13116.7
506.342	17038.9
510.327	17840.4
514.31	15105.2
518.291	10710.1
522.27	7183.38
526.247	4640.73
530.222	3237.06
534.196	2073.62
538.167	1666.6
542.137	1365.12
546.105	1283.76
550.071	1282.09
554.035	1150.13
557.998	1323.91
561.958	1762.25
565.917	2225.23
569.874	1871.79
573.829	1278.98
577.782	812.672
581.733	446.86
585.683	180.525
589.63	172.602
593.576	18.07
597.52	26.87
601.462	13.983
605.402	53.973
609.341	10.711
613.277	5.368
617.212	94.938
621.145	39.416
625.076	34.357
629.006	133.472
632.933	176.958
636.859	166.848
640.783	85.157
644.705	197.931
648.625	259.204
652.543	232.914
656.46	76.067
660.375	100.749
664.288	109.504
668.199	222.878
672.108	269.399
676.016	349.496
679.921	393.934
683.825	444.438
687.727	410.11
691.628	494.575
695.526	401.074
699.423	459.298
703.318	420.694
707.211	418.829
711.102	581.071
714.992	850.991
718.879	594.793
722.765	683.317
726.649	696.882
730.532	904.653
734.412	1021.27
738.291	1029.94
742.168	1248.67
746.043	1309.88
749.916	1236.13
753.788	1302.93
757.658	1286.9
761.526	1269.26
765.392	1388.11
769.257	1553.51
773.119	1537.77
776.98	1440.46
780.839	1272.3
784.697	1187.9
788.552	1156.75
792.406	1160.96
796.258	974.771
800.108	1214.73
803.957	675.376
807.804	531.861
811.649	269.8
815.492	428.412
819.333	101.354
823.173	75.411
827.011	122.582
830.847	56.814
834.681	53.052
838.514	77.45
842.345	1.479
846.174	19.914
850.001	71.249
853.827	70.077
857.651	45.333
861.473	112.17
865.293	61.668
869.112	12.35
872.928	116.184
876.744	100.237
880.557	26.808
884.369	155.013
888.178	136.021
891.987	164.853
895.793	128.537
899.598	384.111
903.401	349.631
907.202	551.101
911.001	635.626
914.799	459.196
918.595	657.891
922.389	675.672
926.182	676.594
929.972	618.586
933.761	802.618
937.549	845.663
941.334	744.721
945.118	962.789
948.9	900.891
952.681	1178.03
956.459	1167.29
960.236	1244.62
964.012	1621.96
967.785	1793.44
971.557	1675.67
975.327	1901.6
979.095	2121.39
982.862	2203.94
986.627	2032.24
990.39	1824.34
994.152	1991.2
997.912	1906.02
1001.67	1795.61
1005.43	2007.46
1009.18	1771.74
1012.93	1872.53
1016.68	2035.43
1020.43	1909.63
1024.18	1881.57
1027.93	1840.82
1031.67	1881.47
1035.42	2021.39
1039.16	1695.98
1042.9	1719.82
1046.63	1671.96
1050.37	1608
1054.11	1531.66
1057.84	1628.51
1061.57	1576.19
1065.3	1541.55
1069.03	1698.26
1072.75	1582.31
1076.47	1703.69
1080.2	1857.44
1083.92	1905.57
1087.64	1756.08
1091.36	2023.97
1095.07	1484.21
1098.79	1491.86
1102.5	1605.72
1106.21	1580.63
1109.92	1563.51
1113.62	1622.33
1117.33	1291.55
1121.04	1040.5
1124.74	1021.4
1128.44	874.891
1132.14	1038.83
1135.83	949.936
1139.53	813.789
1143.22	966.775
1146.92	677.734
1150.61	582.77
1154.3	560.879
1157.98	624.967
1161.67	316.605
1165.35	578.77
1169.04	251.439
1172.72	341.639
1176.4	342.396
1180.07	443.76
1183.75	26.268
1187.42	85.32
1191.1	455.412
1194.77	386.893
1198.44	91.912
1202.1	135.432
1205.77	160.096
1209.43	127.686
1213.1	161.25
1216.76	136.105
1220.42	243.236
1224.07	240.709
1227.73	197.652
1231.38	221.307
1235.04	700.572
1238.69	266.994
1242.34	114.318
1245.99	12.701
1249.63	327.029
1253.28	477.654
1256.92	618.686
1260.56	405.252
1264.2	326.914
1267.84	361.365
1271.48	358.303
1275.11	1.734
