Measurement: Raman, 514 nm, ccw, Raman Data Processed
Mineral: Anorthite
Rruff sample: R040059
Ideal chemistry: CaAl_2_Si_2_O_8_
Locality: Miyakejima, Japan
Source: University of Arizona Mineral Museum
Description: Colorless fragments of crystals
Measured chemistry: (Ca_0.94_Na_0.04_Fe_0.02_)(Al_0.98_Si_0.02_)_2_Si_2.00_O_8_
Pin_id: L00179
Orientation: Laser parallel to (1 1 0). Fiducial mark perpendicular to laser is parallel to -c [0 0 -1]
Raman shift (cm-1)	intensity
120.311	0
124.497	8.214
128.681	787.302
132.862	2039.07
137.042	3240.14
141.219	5067.89
145.394	5725.75
149.567	4197.99
153.738	2054.35
157.907	1254.72
162.073	1129.04
166.237	1521.27
170.4	2708.31
174.559	3830.81
178.717	5439.34
182.873	7655.05
187.026	10183.8
191.178	12186.7
195.327	12001.2
199.474	9708.39
203.618	8389.16
207.761	6364.47
211.902	4616.53
216.04	3496.54
220.176	3515.06
224.31	2832.35
228.442	2119.2
232.572	2482.27
236.7	3504.46
240.825	4643.31
244.948	5328.2
249.07	5795.58
253.189	6712.56
257.306	6741.18
261.42	6107.88
265.533	5793.92
269.643	5979.15
273.752	6043.55
277.858	6247.15
281.962	6679.98
286.064	5951.94
290.164	4147.41
294.262	2794.78
298.358	2227.88
302.451	1744.58
306.543	1183.62
310.632	904.145
314.719	805.58
318.804	1367.44
322.887	1309.32
326.968	420.959
331.047	122.168
335.124	187.443
339.198	528.312
343.271	661.154
347.341	306.939
351.409	325.678
355.475	277.256
359.539	36.789
363.601	283.193
367.661	506.5
371.719	518.838
375.775	220.246
379.828	290.631
383.88	199.857
387.929	127.971
391.977	924.365
396.022	1856.49
400.065	3153.31
404.106	3176.02
408.146	2677.53
412.182	1708.62
416.217	1618.8
420.25	1988.17
424.281	3297.19
428.31	4935.9
432.336	5404.31
436.361	6022.44
440.383	5930.29
444.404	5347.86
448.422	4335.19
452.438	3532.31
456.453	3819.05
460.465	4505.3
464.475	4721
468.483	6096.12
472.489	8570.64
476.493	12974.5
480.495	21427.8
484.495	30840.4
488.493	28182.4
492.489	22074.3
496.482	26492.4
500.474	40080.3
504.464	44061.3
508.451	33800.6
512.437	24764.7
516.421	17850.2
520.402	12714.4
524.382	10645
528.359	8424.62
532.335	6735.13
536.308	5409.87
540.279	5914.65
544.249	7092.62
548.216	10485.7
552.181	16746
556.145	20436.2
560.106	18626.3
564.065	13626.4
568.023	8896.53
571.978	5336.66
575.931	3726.81
579.882	2477
583.831	2127.22
587.779	2407.48
591.724	2467.79
595.667	2248.14
599.608	1338.55
603.547	949.014
607.485	1069.53
611.42	1200.11
615.353	1620.75
619.284	2491.46
623.213	3492.24
627.141	2363.1
631.066	1304.04
634.989	315.082
638.91	426.225
642.829	359.527
646.747	359.311
650.662	95.916
654.575	473.367
658.486	205.758
662.396	25.975
666.303	656.07
670.209	1154.54
674.112	1552.78
678.013	3129.18
681.913	3774.53
685.81	2858.29
689.706	1929.01
693.599	1078.6
697.491	621.756
701.38	783.191
705.268	725.348
709.154	296.143
713.037	436.934
716.919	527.717
720.799	428.496
724.677	869.266
728.553	1130.03
732.427	1500.79
736.299	2521.53
740.169	3892.27
744.037	3753
747.903	2723.72
751.767	2184.43
755.629	2695.12
759.49	3445.81
763.348	4016.5
767.204	3717.16
771.059	2667.82
774.911	1738.46
778.762	1299.1
782.611	1009.72
786.457	1050.32
790.302	380.912
794.145	31.488
797.986	341.975
801.825	332.285
805.662	272.053
809.497	113.35
813.33	516.857
817.162	196.875
820.991	411.059
824.818	76.238
828.644	207.742
832.468	188.885
836.289	43.822
840.109	263.676
843.927	138.096
847.743	339.465
851.557	10.363
855.369	230.963
859.179	171.463
862.988	502.189
866.794	292.227
870.599	872.525
874.401	932.768
878.202	432.957
882.001	603.102
885.798	1763.33
889.593	2403.61
893.386	3273.88
897.177	3164.13
900.966	2974.46
904.754	3224.83
908.539	3125.27
912.323	3365.73
916.105	3686.2
919.885	2946.7
923.663	2287.23
927.439	2557.81
931.213	3118.43
934.985	4409.11
938.756	4689.85
942.525	4920.67
946.291	5209.5
950.056	6300.56
953.819	7163.35
957.58	7329.62
961.339	6902.14
965.097	6874.74
968.852	7779.65
972.606	8624.23
976.358	8516.8
980.108	8537.42
983.856	7229.93
987.602	6431.87
991.346	5333.54
995.089	4675.28
998.829	4340.08
1002.57	4710.88
1006.3	4075.93
1010.04	4112.49
1013.77	3898.26
1017.5	3095.4
1021.23	2482.09
1024.96	2648.98
1028.69	2656.28
1032.41	2834.01
1036.13	2776.6
1039.85	2427.85
1043.57	2316.91
1047.29	2222.47
1051	2553.39
1054.72	2662.59
1058.43	2493.62
1062.14	2825.19
1065.84	2907.32
1069.55	2369.99
1073.25	2563.21
1076.95	2627.03
1080.66	2741.5
1084.35	2675.96
1088.05	2740.91
1091.74	1686.1
1095.44	862.156
1099.13	569.836
1102.82	616.711
1106.51	1495.27
1110.19	1304.15
1113.87	1213.3
1117.56	1402.96
1121.24	1366.35
1124.91	1086.63
1128.59	664.117
1132.27	951.949
1135.94	1261.32
1139.61	1492.3
1143.28	1404.32
1146.95	957.207
1150.61	440.973
1154.28	124.402
1157.94	440.715
1161.6	596.672
1165.26	983.258
1168.91	830.641
1172.57	759.008
1176.22	218.352
1179.87	321.289
1183.52	89.859
1187.17	82.359
1190.81	4.488
1194.46	649.727
1198.1	684.984
1201.74	1101.42
1205.38	659.555
1209.02	209.34
1212.65	160.793
1216.29	787.391
1219.92	969.258
1223.55	1375.17
1227.17	1287.61
1230.8	1235.16
1234.42	676.328
1238.05	56.258
1241.67	140.945
1245.29	301.391
1248.91	562.18
1252.52	1116.92
1256.13	1476.22
1259.75	1435.75
1263.36	1270.56
1266.97	351.547
1270.57	0.273
