Measurement: Raman, 514 nm, ccw, Raman Data Processed
Mineral: Anorthite
Rruff sample: R050104
Ideal chemistry: CaAl_2_Si_2_O_8_
Locality: unknown
Source: Rock Currier
Description: Iridescent slab, labradorite/andesine
Measured chemistry: Ca_0.50_Na_0.47_K_0.03_Al_1.50_Si_2.50_O_8_
Pin_id: L00152
Orientation: Laser parallel to (1 0 1). Fiducial mark perpendicular to laser is parallel to -b [0 -1 0]
Raman shift (cm-1)	intensity
152.403	0
156.555	115.484
160.705	124.718
164.853	5.512
168.998	320.078
173.142	1367.97
177.284	2823.03
181.424	4876.79
185.562	6523.94
189.698	7396.3
193.831	8299.81
197.963	8406.76
202.093	8380.5
206.221	7292.38
210.347	5879.82
214.472	4387.78
218.594	2783.96
222.714	1915.54
226.832	1524.18
230.948	1194
235.063	1199
239.175	1531.12
243.286	1879.14
247.394	2161.28
251.501	2320.46
255.605	2838.48
259.708	3187.58
263.808	3441.19
267.907	3428.26
272.004	3781.8
276.099	4309.11
280.192	4510.75
284.283	4534.48
288.372	4256.09
292.459	3551.36
296.544	2387.31
300.627	1372.01
304.709	848.53
308.788	362.936
312.865	91.189
316.941	167.854
321.015	105.68
325.086	171.576
329.156	101.056
333.224	114.779
337.29	330.443
341.354	160.877
345.416	2.813
349.476	241.169
353.534	193.43
357.591	158.251
361.645	142.273
365.698	65.057
369.748	126.148
373.797	314.292
377.844	338.815
381.889	547.535
385.932	1004.66
389.973	1441.39
394.012	1779.73
398.049	2452.88
402.084	4060.64
406.118	5311.98
410.15	5356.87
414.179	4417.61
418.207	3829.78
422.233	3568.79
426.257	3526.27
430.279	3560.93
434.299	4479.07
438.318	5434.84
442.334	6206.25
446.349	7008.31
450.361	7575.06
454.372	8172.48
458.381	8511.62
462.388	8672.48
466.394	9777.58
470.397	12381.4
474.398	17731.3
478.398	22956.4
482.396	24849.7
486.391	21525.9
490.385	17746.8
494.377	17150.2
498.368	22409.1
502.356	32173.2
506.342	41536.6
510.327	44241
514.31	37595
518.291	25778.5
522.27	16161.5
526.247	10415.5
530.222	7186.43
534.196	5197.04
538.167	4802.06
542.137	4621.37
546.105	4563.36
550.071	4533.47
554.035	4254.42
557.998	4996.48
561.958	6831.61
565.917	7460.97
569.874	6765.54
573.829	5004.4
577.782	3890.59
581.733	3248.98
585.683	2827.53
589.63	2718.17
593.576	2899.92
597.52	3560.76
601.462	3469.7
605.402	3617.72
609.341	3377.83
613.277	3157.03
617.212	2827.33
621.145	2368.72
625.076	1895.22
629.006	1597.88
632.933	1251.86
636.859	1056.34
640.783	639.571
644.705	497.604
648.625	154.203
652.543	113.117
656.46	169.31
660.375	83.319
664.288	132.661
668.199	274.384
672.108	68.337
676.016	5.455
679.921	52.877
683.825	114.654
687.727	155.192
691.628	393.931
695.526	523.056
699.423	494.046
703.318	670.054
707.211	794.714
711.102	873.887
714.992	1224.77
718.879	1047.88
722.765	1097.92
726.649	1191.62
730.532	1659.42
734.412	2002.16
738.291	2385.89
742.168	2886.64
746.043	3352.12
749.916	3437.58
753.788	3826.94
757.658	3985.13
761.526	4229.16
765.392	4389.04
769.257	4645.74
773.119	4746.28
776.98	4579.63
780.839	4731.79
784.697	4867.76
788.552	5787.53
792.406	7002.08
796.258	7298.4
800.108	6900.48
803.957	5111.29
807.804	3802.84
811.649	2752.56
815.492	2310.29
819.333	1243.83
823.173	709.215
827.011	394.271
830.847	13.412
834.681	77.165
838.514	87.924
842.345	28.006
846.174	110.872
850.001	50.749
853.827	134.748
857.651	123.134
861.473	13.745
865.293	2.49
869.112	81.1
872.928	41.335
876.744	75.811
880.557	132.652
884.369	126.661
888.178	160.084
891.987	98.812
895.793	179.006
899.598	326.811
903.401	395.23
907.202	741.229
911.001	830.84
914.799	729.082
918.595	996.938
922.389	1106.4
926.182	1063.47
929.972	1311.17
933.761	1322.48
937.549	1194.43
941.334	1941.49
945.118	1480.14
948.9	1761.95
952.681	2200.39
956.459	2390.47
960.236	2599.21
964.012	3373.6
967.785	3777.74
971.557	4095.61
975.327	4761.28
979.095	5300.74
982.862	5292.75
986.627	4780.31
990.39	4545.95
994.152	4386.57
997.912	4146.75
1001.67	3964.86
1005.43	3608.13
1009.18	3525.47
1012.93	3448.61
1016.68	3515.53
1020.43	3425.3
1024.18	3466.19
1027.93	3565.94
1031.67	3491.04
1035.42	3589.98
1039.16	3455.56
1042.9	3717.52
1046.63	3636.58
1050.37	3604.75
1054.11	3892.15
1057.84	3774.24
1061.57	3548.96
1065.3	3453.3
1069.03	3059.66
1072.75	3040.23
1076.47	3021.53
1080.2	2801.5
1083.92	2558.89
1087.64	2312.37
1091.36	2634.98
1095.07	2222.71
1098.79	1995.6
1102.5	2013.59
1106.21	1918.34
1109.92	1936.37
1113.62	1837.42
1117.33	1479.61
1121.04	1280.9
1124.74	1005.96
1128.44	1145.67
1132.14	1087.59
1135.83	915.779
1139.53	781.785
1143.22	936.682
1146.92	638.244
1150.61	545.381
1154.3	521.957
1157.98	626.525
1161.67	410.002
1165.35	423.508
1169.04	383.396
1172.72	419.213
1176.4	320.709
1180.07	280.848
1183.75	273.244
1187.42	105.873
1191.1	252.824
1194.77	349.109
1198.44	48.793
1202.1	63.906
1205.77	34.535
1209.43	61.508
1213.1	47.041
1216.76	10.111
1220.42	256.781
1224.07	233.049
1227.73	156.914
1231.38	93.334
1235.04	549.703
1238.69	98.977
1242.34	184.057
1245.99	155.018
1249.63	157.078
1253.28	323.959
1256.92	479.633
1260.56	272.385
1264.2	281.09
1267.84	339.477
1271.48	118.566
1275.11	104.371
1278.74	54.871
1282.38	180.836
1286.01	349.41
1289.63	396.619
1293.26	320.197
1296.89	417.221
1300.51	386.041
