Measurement: Raman, 514 nm, ccw, Raman Data Processed
Mineral: Anorthite
Rruff sample: R050104
Ideal chemistry: CaAl_2_Si_2_O_8_
Locality: unknown
Source: Rock Currier
Description: Iridescent slab, labradorite/andesine
Measured chemistry: Ca_0.50_Na_0.47_K_0.03_Al_1.50_Si_2.50_O_8_
Pin_id: L00363
Orientation: Laser parallel to b* (0 1 0). Fiducial mark perpendicular to laser is parallel to c [0 0 1]
Raman shift (cm-1)	intensity
124.675	0
128.84	187.679
133.003	8.159
137.164	211.504
141.323	295.7
145.48	726.055
149.635	1128.42
153.788	1637.04
157.939	1968.41
162.088	2337.83
166.235	3040.84
170.38	3572.63
174.523	4026.49
178.664	4229.36
182.803	4046.87
186.94	3502.62
191.076	2828.59
195.209	2478.95
199.34	2223.72
203.47	2008.09
207.597	1614.29
211.722	1107.73
215.846	552.55
219.967	182.739
224.087	4.151
228.204	27.056
232.32	16.216
236.434	203.732
240.545	631.062
244.655	1139.53
248.763	1549.94
252.869	1804.37
256.973	1852.7
261.075	2245.18
265.175	2251.47
269.273	2513.58
273.369	3098.44
277.463	3522.03
281.556	4051.54
285.646	4226.24
289.734	3772.8
293.821	3054.61
297.905	2152.19
301.988	1299.4
306.069	797.327
310.147	318.505
314.224	182.803
318.299	114.112
322.372	4.364
326.443	17.475
330.512	189.409
334.579	180.215
338.645	119.85
342.708	116.201
346.769	37.227
350.829	83.929
354.887	124.182
358.942	73.983
362.996	111.669
367.048	53.978
371.098	109.877
375.146	41.355
379.192	173.726
383.236	290.45
387.279	600.668
391.319	974.165
395.358	1496.04
399.394	1899.21
403.429	2185.82
407.462	2707.74
411.493	2491.6
415.522	2161.72
419.549	1750.51
423.575	1476.06
427.598	1405.3
431.619	1263.6
435.639	1234.81
439.657	1197.68
443.673	1207.37
447.687	1345.72
451.699	1214.38
455.709	1350.94
459.717	1605.99
463.724	2204.37
467.728	3272.09
471.731	5103.79
475.732	7591.52
479.731	9627.7
483.728	9067.15
487.723	7046.43
491.716	5830.62
495.708	6466.19
499.697	9429.57
503.685	13912.8
507.671	16521
511.655	16673.5
515.637	13153.6
519.617	9249.77
523.596	6054.26
527.572	4192.55
531.547	2703.42
535.52	2072.26
539.491	1497.22
543.46	1136.56
547.427	1100.96
551.393	1133.07
555.356	1118.97
559.318	1305.68
563.278	1743.1
567.236	1821.17
571.192	1647.88
575.147	1078.24
579.099	541.188
583.05	305.708
586.999	111.78
590.946	2.152
594.891	52.732
598.834	45.459
602.776	22.045
606.715	19.024
610.653	19.072
614.589	58.57
618.523	27.001
622.456	66.843
626.386	122.975
630.315	114.553
634.242	159.612
638.167	12.183
642.09	112.246
646.012	147.856
649.931	49.013
653.849	159.493
657.765	74.723
661.679	120.256
665.592	140.574
669.502	60.149
673.411	297.491
677.318	289.7
681.223	245.462
685.126	426.675
689.028	372.133
692.927	450.298
696.825	389.041
700.721	492.55
704.616	461.884
708.508	609.916
712.399	633.271
716.288	566.836
720.175	702.981
724.06	767.284
727.944	825.606
731.825	782.734
735.705	935.385
739.584	1097.34
743.46	1169.08
747.334	1191.09
751.207	1265.1
755.078	1316.37
758.947	1343.37
762.815	1371.39
766.68	1710.32
770.544	1486.3
774.406	1344.06
778.267	1248.51
782.125	1056.17
785.982	921.48
789.837	1037.82
793.69	979.592
797.542	900.541
801.391	666.275
805.239	477.313
809.085	563.669
812.93	287.422
816.772	166.225
820.613	288.852
824.452	28.407
828.29	7.021
832.125	155.728
835.959	10.427
839.791	72.508
843.621	84.473
847.45	71.019
851.277	9.153
855.102	25.61
858.925	70.528
862.746	194.976
866.566	126.115
870.384	32.152
874.2	52.994
878.015	56.522
881.828	143.702
885.639	39.644
889.448	125.423
893.256	83.39
897.061	304.587
900.865	486.045
904.668	308.509
908.468	462.003
912.267	584.569
916.064	616.176
919.86	667.901
923.653	811.696
927.445	694.587
931.236	842.569
935.024	550.606
938.811	849.676
942.596	933.761
946.379	1175.86
950.161	1041.98
953.94	1101.14
957.719	1241.41
961.495	1399.79
965.27	1669.02
969.043	1602.2
972.814	1870.85
976.583	2036.65
980.351	1840.81
984.117	1884.61
987.882	1831.54
991.644	2137.58
995.405	1685.35
999.165	1682.6
1002.92	1854.12
1006.68	1635.7
1010.43	1477.39
1014.18	1708.16
1017.93	1884.46
1021.68	2049.85
1025.43	2114.36
1029.18	1864.35
1032.92	1747.24
1036.66	1756.56
1040.4	1685.59
1044.14	1784.9
1047.88	1680.35
1051.62	1712.02
1055.35	1417.92
1059.08	1483.3
1062.81	1473.99
1066.54	1406.62
1070.27	1535.49
1073.99	1551.63
1077.72	1683.03
1081.44	1536.7
1085.16	1706.66
1088.88	1585.65
1092.59	1561.18
1096.31	1625.02
1100.02	1481.24
1103.73	1439.54
1107.44	1539.01
1111.15	1535.68
1114.86	1315.31
1118.57	1174.25
1122.27	1202.81
1125.97	1092.13
1129.67	1004.21
1133.37	968.334
1137.07	1030.69
1140.76	981.459
1144.45	598.723
1148.15	695.525
1151.84	463.656
1155.53	562.592
1159.21	409.922
1162.9	620.703
1166.58	262.189
1170.26	262.982
1173.94	458.529
1177.62	316.604
1181.3	231.152
1184.97	441.191
1188.65	469.535
1192.32	256.404
1195.99	89.809
1199.66	71.727
1203.33	102.863
1206.99	24.912
1210.65	52.443
1214.32	206.334
1217.98	199.812
1221.64	291.824
1225.29	225.365
1228.95	185.49
1232.6	87.834
1236.26	91.279
1239.91	283.02
1243.56	429.715
1247.2	762.373
1250.85	357.348
1254.49	406.846
1258.13	380.07
1261.78	303.336
1265.41	70.512
1269.05	197.754
1272.69	378.385
1276.32	608.824
1279.95	353.162
1283.59	578.074
1287.21	244.256
1290.84	243
1294.47	359.758
1298.09	118.443
1301.72	422.328
1305.34	640.627
1308.96	0
