Measurement: Raman, 514 nm, ccw, Raman Data Processed
Mineral: Anorthite
Rruff sample: R050104
Ideal chemistry: CaAl_2_Si_2_O_8_
Locality: unknown
Source: Rock Currier
Description: Iridescent slab, labradorite/andesine
Measured chemistry: Ca_0.50_Na_0.47_K_0.03_Al_1.50_Si_2.50_O_8_
Pin_id: L00427
Orientation: Laser parallel to -a* (-1 0 0). Fiducial mark perpendicular to laser is parallel to b [0 1 0]
Raman shift (cm-1)	intensity
135.777	0
139.937	102.632
144.094	222.731
148.25	434.223
152.403	396.787
156.555	407.852
160.705	314.261
164.853	272.729
168.998	532.05
173.142	1138.96
177.284	2400.74
181.424	3685.26
185.562	4655.99
189.698	5358.11
193.831	5603.14
197.963	5926.14
202.093	5721.94
206.221	4958.98
210.347	3714.34
214.472	2334.77
218.594	1185.03
222.714	704.92
226.832	269.667
230.948	38.71
235.063	216.231
239.175	444.409
243.286	656.003
247.394	1002.01
251.501	1278.52
255.605	1501.56
259.708	1736.75
263.808	1866.34
267.907	2078.24
272.004	2395.81
276.099	2843.5
280.192	3022.12
284.283	3241.65
288.372	3001.12
292.459	2301.57
296.544	1593.02
300.627	980.943
304.709	560.885
308.788	229.907
312.865	98.264
316.941	62.329
321.015	8.777
325.086	6.39
329.156	51.066
333.224	159.742
337.29	197.367
341.354	1.089
345.416	85.74
349.476	157.809
353.534	82.422
357.591	136.728
361.645	108.033
365.698	38.242
369.748	50.125
373.797	4.433
377.844	143.651
381.889	359.736
385.932	516.734
389.973	743.462
394.012	969.584
398.049	1533.55
402.084	2557.68
406.118	3316.41
410.15	3204.85
414.179	2590.86
418.207	1893.06
422.233	1544.17
426.257	1474.58
430.279	1489.48
434.299	1726.92
438.318	2077.92
442.334	2526.46
446.349	2948.58
450.361	3587.28
454.372	4178.72
458.381	4757.16
462.388	5901.63
466.394	7650.83
470.397	10290.5
474.398	15060.7
478.398	20025.5
482.396	21136.6
486.391	17307
490.385	13774.9
494.377	13741.1
498.368	18597.5
502.356	26787.9
506.342	33480
510.327	34494.7
514.31	28272.9
518.291	19447.3
522.27	12793.2
526.247	8351.13
530.222	5809.11
534.196	4344.1
538.167	3897.02
542.137	3694.18
546.105	3613.79
550.071	3691.25
554.035	3727.1
557.998	4259.33
561.958	5217.5
565.917	6010.03
569.874	5406.62
573.829	3814.48
577.782	2506.15
581.733	1653.62
585.683	1234.89
589.63	1074.97
593.576	964.861
597.52	835.568
601.462	519.094
605.402	435.44
609.341	373.611
613.277	274.61
617.212	261.427
621.145	259.074
625.076	545.562
629.006	593.937
632.933	514.241
636.859	379.52
640.783	346.829
644.705	179.256
648.625	148.697
652.543	4.895
656.46	12.448
660.375	82.231
664.288	45.13
668.199	9.665
672.108	81.359
676.016	40.022
679.921	59.365
683.825	212.845
687.727	247.102
691.628	291.221
695.526	200.866
699.423	354
703.318	480.352
707.211	929.646
711.102	1139.73
714.992	988.784
718.879	952.581
722.765	1006.7
726.649	1086.21
730.532	1373.34
734.412	1493.31
738.291	1820.3
742.168	2227.03
746.043	2584.61
749.916	2592.03
753.788	2691.32
757.658	2815.45
761.526	2991.44
765.392	3273.29
769.257	3410.84
773.119	3330.84
776.98	3162.26
780.839	3184.55
784.697	3486.69
788.552	4073.69
792.406	4617.56
796.258	4631.29
800.108	4150.8
803.957	3355.27
807.804	2468.83
811.649	1738.15
815.492	1320.7
819.333	703.446
823.173	411.322
827.011	221.766
830.847	67.951
834.681	131.286
838.514	67.743
842.345	142.255
846.174	111.311
850.001	22.889
853.827	62.439
857.651	148.337
861.473	16.041
865.293	67.334
869.112	62.312
872.928	89.057
876.744	156.852
880.557	0.206
884.369	21.269
888.178	128.982
891.987	278.916
895.793	478.542
899.598	537.045
903.401	556.453
907.202	769.758
911.001	909.004
914.799	1012.19
918.595	1091.28
922.389	1085.28
926.182	1108.2
929.972	1102.04
933.761	1362.84
937.549	1449.56
941.334	1420.23
945.118	1565.84
948.9	1511.4
952.681	1757.98
956.459	1837.56
960.236	2263.14
964.012	2838.74
967.785	2941.38
971.557	3093.12
975.327	3335.98
979.095	3821.71
982.862	3762.12
986.627	3602.6
990.39	3422.09
994.152	3200.82
997.912	3046.7
1001.67	2951.47
1005.43	3093.58
1009.18	2957.17
1012.93	3084.53
1016.68	2979.55
1020.43	2876.14
1024.18	2768.68
1027.93	2898.47
1031.67	3001.56
1035.42	3133.63
1039.16	2995.44
1042.9	2980.8
1046.63	2806.34
1050.37	2558.79
1054.11	2814.8
1057.84	2863.36
1061.57	2640.52
1065.3	2711.1
1069.03	2617.9
1072.75	2340.95
1076.47	2387.58
1080.2	2131.07
1083.92	2339.89
1087.64	2076.06
1091.36	2302.8
1095.07	1864.52
1098.79	1804.57
1102.5	1716.82
1106.21	1628.43
1109.92	1714.35
1113.62	1708.43
1117.33	1412.83
1121.04	1348.94
1124.74	1049.99
1128.44	929.066
1132.14	1036.48
1135.83	873.097
1139.53	839.056
1143.22	1060.29
1146.92	679.569
1150.61	578.958
1154.3	563.155
1157.98	489.418
1161.67	348.05
1165.35	598.959
1169.04	435.663
1172.72	516.864
1176.4	332.53
1180.07	345.589
1183.75	96.986
1187.42	120.902
1191.1	184.295
1194.77	375.181
1198.44	290.597
1202.1	237.331
1205.77	74.438
1209.43	99.332
1213.1	87.572
1216.76	16.249
1220.42	98.337
1224.07	173.327
1227.73	310.123
1231.38	172.996
1235.04	177.039
1238.69	253.587
1242.34	113.366
1245.99	95.784
1249.63	206.822
1253.28	378.953
1256.92	378.966
1260.56	251.715
1264.2	428.257
1267.84	289.25
1271.48	353.278
1275.11	32.204
1278.74	215.928
1282.38	619.975
1286.01	271.383
1289.63	510.18
1293.26	295.69
1296.89	0
