Measurement: Raman, 514 nm, ccw, Raman Data Processed
Mineral: Anorthite
Rruff sample: R040059
Ideal chemistry: CaAl_2_Si_2_O_8_
Locality: Miyakejima, Japan
Source: University of Arizona Mineral Museum
Description: Colorless fragments of crystals
Measured chemistry: (Ca_0.94_Na_0.04_Fe_0.02_)(Al_0.98_Si_0.02_)_2_Si_2.00_O_8_
Pin_id: M00453
Orientation: Laser parallel to -c* (0 0 -1). Fiducial mark perpendicular to laser is parallel to a [1 0 0]
Raman shift (cm-1)	intensity
118.956	0
123.129	17.66
127.3	6.27
131.469	205.889
135.636	748.495
139.801	2617.77
143.964	5992.5
148.125	7754.53
152.284	5583.57
156.441	3367.2
160.596	3019.36
164.749	4136.55
168.9	6706.86
173.049	8389.33
177.195	9928.17
181.34	11993
185.483	13634.5
189.624	14360.3
193.762	12881.3
197.899	9538.19
202.034	6751.58
206.166	4632.03
210.297	3420.45
214.425	2457.6
218.552	1903.85
222.676	1569.42
226.799	784.461
230.919	547.338
235.038	856.023
239.154	1740.67
243.269	2944.1
247.381	4091.5
251.492	4354.45
255.6	4617.66
259.707	4611.02
263.811	5004.28
267.914	5847.19
272.014	6569.72
276.113	7421.91
280.209	8543.77
284.304	9467.37
288.396	8952.28
292.487	7470.58
296.575	5331.3
300.662	3115.35
304.746	1820.8
308.829	1417.2
312.909	1374.25
316.988	1751.88
321.065	2499.99
325.139	2848.23
329.212	1726.44
333.283	614.556
337.351	192.678
341.418	39.399
345.483	57.897
349.546	346.075
353.606	371.737
357.665	479.162
361.722	348.486
365.777	0.521
369.83	198.561
373.881	496.036
377.93	933.027
381.977	1299.56
386.023	1175.65
390.066	981.283
394.107	1276.28
398.146	2039.52
402.184	2719.58
406.219	3406.28
410.252	3051.97
414.284	2197.44
418.313	1732.72
422.341	2378.24
426.367	3954.23
430.39	4649.08
434.412	4023.56
438.432	3407.83
442.45	2841.91
446.466	2025.78
450.48	1879.44
454.492	2194.25
458.502	3028.46
462.51	3272.82
466.517	2995.22
470.521	3567.51
474.523	5030.18
478.524	7431.36
482.523	11582.3
486.519	15689.1
490.514	14511.7
494.507	13747.9
498.498	19504.3
502.487	29204.5
506.474	30177.6
510.459	20948
514.442	13010
518.424	8663.38
522.403	6938.02
526.381	6672.08
530.356	5291.1
534.33	3166.36
538.302	2183.91
542.272	1381.22
546.24	1518.29
550.206	1925.08
554.17	2231.57
558.132	2447.76
562.093	2053.7
566.051	1569.4
570.008	924.912
573.963	520.213
577.915	265.311
581.866	150.192
585.815	464.84
589.763	699.266
593.708	893.476
597.651	847.471
601.593	821.25
605.532	604.811
609.47	178.153
613.406	101.248
617.34	44.089
621.272	516.674
625.202	539.023
629.131	331.148
633.057	266.965
636.982	115.885
640.905	65.492
644.825	97.844
648.744	128.541
652.662	266.734
656.577	14.557
660.49	112.842
664.402	406.271
668.312	595.99
672.219	942.574
676.125	2343.45
680.03	3317.03
683.932	3324.94
687.832	2472.77
691.731	1695.44
695.628	1362.91
699.522	1247.47
703.415	1222.82
707.307	874.113
711.196	974.459
715.083	974.438
718.969	794.186
722.853	1023.59
726.735	932.701
730.615	951.529
734.493	1329.97
738.37	2307.33
742.244	2734.78
746.117	2292.31
749.988	2099.74
753.857	2596.9
757.724	3793.79
761.59	4860.41
765.453	5016.39
769.315	3990.77
773.175	2635.28
777.033	1810.18
780.889	1435.5
784.744	1150.28
788.596	536.598
792.447	610.674
796.296	618.027
800.143	509.666
803.989	250.875
807.832	90.719
811.674	150.791
815.514	15.168
819.352	195.391
823.189	155.76
827.023	36.059
830.856	214.326
834.687	105.609
838.516	107.656
842.343	99.568
846.169	216.115
849.992	52.227
853.814	41.973
857.634	13.5
861.453	118.768
865.269	213.873
869.084	448.854
872.897	393.729
876.708	288.475
880.517	153.098
884.325	817.633
888.13	1032.07
891.934	1216.65
895.737	1251.19
899.537	1605.67
903.336	1864.4
907.132	2464.53
910.928	3268.88
914.721	3323.17
918.512	2767.41
922.302	2001.63
926.09	1845.88
929.876	2070.14
933.66	2334.43
937.443	2358.71
941.224	2373.07
945.003	2557.76
948.78	3082.64
952.556	3734.25
956.33	4468.18
960.102	4327.44
963.872	3978.08
967.64	4132.85
971.407	5112.22
975.172	6232.02
978.935	6720.34
982.697	6271.05
986.456	5192.35
990.214	4253.3
993.971	3512.93
997.725	3379.83
1001.48	3701.12
1005.23	3662.41
1008.98	3329.59
1012.73	3128.34
1016.47	2657.6
1020.22	2541.63
1023.96	2631.3
1027.7	2911.27
1031.44	2732.32
1035.17	2314.95
1038.91	1915.01
1042.64	1628.51
1046.37	1629.89
1050.1	1795.56
1053.83	1780.65
1057.56	1232.98
1061.28	1435.54
1065.01	1118.54
1068.73	1191.75
1072.45	1048.03
1076.16	1191.68
1079.88	1619.88
1083.6	1334.31
1087.31	1488.87
1091.02	793.666
1094.73	399.461
1098.44	395.295
1102.14	541.305
1105.85	826.938
1109.55	632.902
1113.25	473.318
1116.95	269.969
1120.65	23.006
1124.34	224.914
1128.04	253.395
1131.73	557.064
1135.42	611.26
1139.11	912.168
1142.79	612.268
1146.48	301.965
1150.16	34.127
1153.84	76.344
1157.52	416.916
1161.2	654.146
1164.88	716.584
1168.56	348.479
1172.23	490.275
1175.9	36.926
1179.57	69.393
1183.24	240.84
1186.9	602.514
1190.57	425.732
1194.23	690.574
1197.89	447.855
1201.55	258.123
1205.21	339.467
1208.87	80.316
1212.52	334.936
1216.18	904.225
1219.83	953.951
1223.48	1054.16
1227.13	690.516
1230.77	673.168
1234.42	264.354
1238.06	43.252
1241.7	121.043
1245.34	538.748
1248.98	947.359
1252.62	1127.29
1256.25	1214.53
1259.88	781.404
1263.51	460.967
1267.14	217.744
1270.77	224.504
1274.4	250.082
1278.02	585.35
1281.65	829.912
1285.27	1144.31
1288.89	438.137
1292.51	230.828
1296.12	113.309
1299.74	395.691
1303.35	158.549
1306.96	171.672
1310.57	680.365
1314.18	814.66
1317.79	912.336
1321.39	928.633
1324.99	513.078
1328.59	269.088
1332.19	35.832
1335.79	151.195
1339.39	177.17
1342.98	512.18
1346.58	1002.07
1350.17	1116.36
1353.76	1178.06
1357.35	819.984
1360.93	664.855
1364.52	123.865
1368.1	36.584
1371.68	140.871
1375.26	172.293
1378.84	843.971
1382.42	1304.75
1385.99	1276.32
1389.57	1372.71
1393.14	1392.74
1396.71	973.945
1400.28	644.412
1403.85	64.164
1407.41	255.623
1410.98	157.568
1414.54	556.199
1418.1	703.512
1421.66	1334.94
1425.21	1548.79
1428.77	1255.86
1432.33	959.535
1435.88	716.562
1439.43	550.156
1442.98	73.387
1446.53	153.809
1450.07	782.207
1453.62	1078.22
1457.16	1258.41
1460.7	1505.42
1464.24	1674.21
1467.78	1785.29
1471.32	1524.98
1474.85	1273.89
1478.38	825.152
1481.91	396.383
1485.44	337
1488.97	1.02
1492.5	425.852
1496.03	723.805
1499.55	1065.49
1503.07	1366.36
1506.59	1320.14
1510.11	1189.62
1513.63	0
