Measurement: Raman, 514 nm, ccw, Raman Data Processed
Mineral: Anorthite
Rruff sample: R040059
Ideal chemistry: CaAl_2_Si_2_O_8_
Locality: Miyakejima, Japan
Source: University of Arizona Mineral Museum
Description: Colorless fragments of crystals
Measured chemistry: (Ca_0.94_Na_0.04_Fe_0.02_)(Al_0.98_Si_0.02_)_2_Si_2.00_O_8_
Pin_id: L00179
Orientation: Laser parallel to (1 1 0). Fiducial mark perpendicular to laser is parallel to -c [0 0 -1]
Raman shift (cm-1)	intensity
121.706	0
125.892	162.318
130.075	1164.76
134.256	2233.73
138.435	3551.15
142.611	4928.84
146.786	4134.5
150.958	1773.58
155.128	459.582
159.296	31.732
163.462	62.389
167.625	186.919
171.786	582.377
175.946	1217.94
180.103	2186.14
184.258	3671.11
188.41	4831.85
192.561	4938.93
196.709	4372.92
200.856	3434.32
205	2423.37
209.142	1290.99
213.281	472.373
217.419	536.879
221.554	414.262
225.688	25.032
229.819	195.579
233.948	643.3
238.075	1284.31
242.2	2176.96
246.322	3058.99
250.443	3269.39
254.561	3479.75
258.677	3489.8
262.791	3259.51
266.903	3378.93
271.013	3660.39
275.121	3239.33
279.226	3377.84
283.33	3496.09
287.431	2965.99
291.53	2513.78
295.627	1643.88
299.722	554.713
303.815	44.246
307.906	193.895
311.995	274.512
316.081	105.949
320.166	82.18
324.248	68.539
328.328	19.492
332.406	176.297
336.482	142.705
340.556	138.643
344.628	94.033
348.697	58.836
352.765	93.027
356.83	136.678
360.894	199.822
364.955	412.527
369.014	744.85
373.071	666.822
377.126	898.387
381.179	1198.11
385.23	875.486
389.279	778.055
393.325	1173.61
397.37	2289.29
401.413	2654.54
405.453	1929.46
409.491	1194.19
413.528	418.756
417.562	183.17
421.594	687.412
425.624	1621.5
429.652	1695.44
433.678	1519.23
437.702	1722.84
441.724	1406.31
445.743	1089.63
449.761	882.801
453.777	855.992
457.79	1411.28
461.802	1863.78
465.811	2428.45
469.819	3454.23
473.824	5181.46
477.827	7424.19
481.829	11090.3
485.828	14200.1
489.825	12230.6
493.82	13080.3
497.813	19833.9
501.804	29116.7
505.793	28760.9
509.78	20820.3
513.765	15167.3
517.748	10511.7
521.729	8938.26
525.708	8186.83
529.685	6106.55
533.659	4096.27
537.632	3045.84
541.603	2435.16
545.571	3404.28
549.538	5153.19
553.503	7001.93
557.465	8270.46
561.426	7008.79
565.385	5026.9
569.341	3134.8
573.296	1922.49
577.248	1217.84
581.199	574.957
585.147	781.994
589.094	818.814
593.038	825.41
596.981	1131.78
600.922	1177.92
604.86	663.84
608.797	279.529
612.731	104.982
616.664	230.162
620.594	665.072
624.523	339.775
628.449	4.562
632.374	110.143
636.296	65.184
640.217	70.238
644.135	165.062
648.052	2.668
651.967	300.121
655.879	186.941
659.79	169.379
663.698	402.191
667.605	574.424
671.51	1130.34
675.413	2308.75
679.313	3073.43
683.212	2878.73
687.109	2102.73
691.004	1612.62
694.897	1132.95
698.788	984.59
702.677	794.223
706.564	603.545
710.449	802.627
714.332	541.332
718.213	619.732
722.092	857.824
725.969	885.623
729.844	1203.12
733.718	1400.35
737.589	2137.3
741.458	2803.96
745.326	2460.34
749.191	2036.44
753.055	2482.27
756.916	2907.83
760.776	3673.12
764.634	3698.16
768.489	3471.96
772.343	2754.36
776.195	1708.62
780.045	1511.92
783.893	1033.51
787.739	627.164
791.583	377.361
795.425	357.287
799.266	127.805
803.104	224.783
806.94	25.23
810.775	42.191
814.608	69.699
818.438	200.533
822.267	139.408
826.094	127.881
829.919	44.131
833.742	156.688
837.563	89.885
841.382	276.424
845.199	182.164
849.014	27.658
852.828	233.012
856.639	319.936
860.449	513.387
864.257	418.443
868.062	593.451
871.866	808.477
875.668	793.527
879.468	748.629
883.267	1343.72
887.063	1938.78
890.857	2113.88
894.65	2458.96
898.44	2374.19
902.229	2569.54
906.016	2664.92
909.801	2940.33
913.584	2945.77
917.365	2441.25
921.144	2576.8
924.922	2662.43
928.697	3418.15
932.471	3943.96
936.242	4509.86
940.012	4815.93
943.78	4582.38
947.546	5009.04
951.311	5015.27
955.073	5645.09
958.834	5022.81
962.592	4823.65
966.349	4736.93
970.104	5275.53
973.857	6464.02
977.608	6718.91
981.357	6187.69
985.105	5726.94
988.85	4436.79
992.594	4089.71
996.336	3900.46
1000.08	4110.4
1003.81	4160.55
1007.55	3561.48
1011.28	3282.73
1015.02	3004.21
1018.75	2872.43
1022.48	2811.51
1026.2	2638.03
1029.93	2498.29
1033.65	2301.51
1037.37	1869.1
1041.09	2273.05
1044.81	2527.22
1048.53	2919.11
1052.24	2958.74
1055.95	2404.28
1059.66	2260.24
1063.37	2016.65
1067.08	1683.5
1070.79	2130.8
1074.49	1978.72
1078.19	2006.46
1081.89	1944.44
1085.59	1382.59
1089.28	1210.69
1092.98	1259.16
1096.67	699.684
1100.36	648.156
1104.05	1196.95
1107.73	846.195
1111.42	825.918
1115.1	696.613
1118.78	970.664
1122.46	1182.58
1126.14	992.934
1129.82	1541.95
1133.49	1253.14
1137.16	1255.78
1140.83	679.207
1144.5	23.328
1148.17	51.953
1151.83	353.047
1155.5	488.465
1159.16	424.461
1162.82	640.691
1166.47	107.27
1170.13	384.492
1173.79	167.637
1177.44	100.879
1181.09	300.082
1184.74	480.031
1188.38	540.719
1192.03	582.254
1195.67	75.336
1199.31	77.781
1202.95	101.938
1206.59	157.289
1210.23	193.727
1213.86	589.195
1217.5	667.828
1221.13	591.41
1224.76	86.52
1228.38	293.609
1232.01	597.434
1235.63	22.75
1239.26	340.984
1242.88	526.617
1246.49	697.078
1250.11	628.223
1253.73	300.406
1257.34	67.938
1260.95	445.445
1264.56	64.098
1268.17	220.641
1271.78	0.371
