Measurement: Raman, 514 nm, ccw, Raman Data Processed
Mineral: Anorthite
Rruff sample: R040059
Ideal chemistry: CaAl_2_Si_2_O_8_
Locality: Miyakejima, Japan
Source: University of Arizona Mineral Museum
Description: Colorless fragments of crystals
Measured chemistry: (Ca_0.94_Na_0.04_Fe_0.02_)(Al_0.98_Si_0.02_)_2_Si_2.00_O_8_
Pin_id: L00234
Orientation: Laser parallel to b* (0 1 0). Fiducial mark perpendicular to laser is parallel to c [0 0 1]
Raman shift (cm-1)	intensity
121.706	0
125.892	157.06
130.075	589.232
134.256	1152.4
138.435	2207.21
142.611	3182.55
146.786	2244.52
150.958	475.363
155.128	585.16
159.296	597.787
163.462	1737.84
167.625	3922.23
171.786	6589.37
175.946	9881.78
180.103	13805.4
184.258	16071.4
188.41	14763.4
192.561	11720.7
196.709	8773.76
200.856	6853.24
205	5379.58
209.142	4323.24
213.281	3115.38
217.419	1976.67
221.554	1187.41
225.688	907.805
229.819	1244
233.948	1895.47
238.075	2966.68
242.2	4550.16
246.322	6132.85
250.443	6142.21
254.561	6375.97
258.677	6316
262.791	6265.98
266.903	6925.65
271.013	7834.92
275.121	8783.78
279.226	9692.25
283.33	10170.4
287.431	8798.76
291.53	6997.99
295.627	4564.15
299.722	2303.8
303.815	1295.56
307.906	928.658
311.995	572.631
316.081	787.195
320.166	1412.38
324.248	1197.67
328.328	362.869
332.406	302.262
336.482	328.182
340.556	115.088
344.628	203.049
348.697	222.484
352.765	293.293
356.83	124.408
360.894	140.85
364.955	396.328
369.014	621.197
373.071	405.498
377.126	269.209
381.179	352.32
385.23	614.873
389.279	1486.89
393.325	2957.28
397.37	4285.05
401.413	5330.38
405.453	5093.47
409.491	3835.78
413.528	2147.7
417.562	1899.19
421.594	3250.33
425.624	5111.35
429.652	4612.52
433.678	3783.07
437.702	3785.33
441.724	2975.08
445.743	1760.88
449.761	1160.46
453.777	1081.74
457.79	1632.95
461.802	1797.72
465.811	1938.05
469.819	3044.53
473.824	4992.11
477.827	7734.84
481.829	12374.6
485.828	15548.8
489.825	13521.3
493.82	13974
497.813	21101.6
501.804	31169.5
505.793	30704.1
509.78	22061
513.765	15939.3
517.748	11287.2
521.729	10021.7
525.708	9318.78
529.685	6627.56
533.659	4074.27
537.632	3006.33
541.603	2810.42
545.571	3987.48
549.538	6093.68
553.503	8311.47
557.465	10006.4
561.426	8790.66
565.385	6274.65
569.341	3698.34
573.296	2160.72
577.248	1262.57
581.199	963.861
585.147	844.598
589.094	534.76
593.038	334.348
596.981	583.332
600.922	561.623
604.86	89.09
608.797	204.83
612.731	200.465
616.664	332.225
620.594	843.85
624.523	664.732
628.449	325.016
632.374	104.693
636.296	415.686
640.217	575.162
644.135	586.25
648.052	384.012
651.967	145.783
655.879	597.834
659.79	373.783
663.698	450.877
667.605	784.416
671.51	1791.06
675.413	3703.9
679.313	5641.97
683.212	3815.41
687.109	2846.92
691.004	2000.82
694.897	1315.01
698.788	1229.09
702.677	612.131
706.564	304.576
710.449	606.393
714.332	627.611
718.213	548.256
722.092	728.326
725.969	747.828
729.844	1136.78
733.718	1895.19
737.589	2783.07
741.458	3130.2
745.326	2755.86
749.191	2360.9
753.055	2885.26
756.916	3350.15
760.776	3625.4
764.634	3472.95
768.489	2954.28
772.343	2701.95
776.195	1938.88
780.045	1388.06
783.893	768.896
787.739	87.504
791.583	223.033
795.425	369.447
799.266	249.652
803.104	80.277
806.94	312.033
810.775	376.422
814.608	151.523
818.438	449.768
822.267	15.371
826.094	151.002
829.919	167.512
833.742	84.617
837.563	17.865
841.382	719.938
845.199	501.562
849.014	43.004
852.828	444.266
856.639	544.387
860.449	1273.77
864.257	1083.35
868.062	523.918
871.866	574.062
875.668	524.668
879.468	884.469
883.267	1634.98
887.063	1725.54
890.857	1866.26
894.65	1776.97
898.44	1917.77
902.229	2558.75
906.016	2599.91
909.801	2871.27
913.584	2602.82
917.365	1945.16
921.144	1968.11
924.922	2791.68
928.697	3415.55
932.471	3879.65
936.242	3973.91
940.012	4367.1
943.78	4390.5
947.546	5304.58
951.311	5995.72
955.073	6692.98
958.834	5699.08
962.592	5365.69
966.349	5457.73
970.104	6274.27
973.857	7901.73
977.608	7960.94
981.357	6911.56
985.105	6333.52
988.85	4769.03
992.594	4523.66
996.336	4792.46
1000.08	5671.66
1003.81	5411.73
1007.55	4133.27
1011.28	3374.26
1015.02	3115.75
1018.75	3527.71
1022.48	3610.16
1026.2	3293.12
1029.93	2447.6
1033.65	1947.79
1037.37	1564.86
1041.09	2109.95
1044.81	2196.01
1048.53	2682.2
1052.24	2547.35
1055.95	1811.85
1059.66	1150.28
1063.37	864.168
1067.08	903.609
1070.79	1853.77
1074.49	1815.68
1078.19	2327.14
1081.89	1889.13
1085.59	1391.31
1089.28	712.426
1092.98	1187.38
1096.67	990.875
1100.36	1242.61
1104.05	1754.51
1107.73	1237.51
1111.42	659.43
1115.1	575.141
1118.78	1323.16
1122.46	1735.91
1126.14	1570.41
1129.82	2256.25
1133.49	2083.23
1137.16	1321.12
1140.83	459.949
1144.5	19.746
1148.17	10.496
1151.83	1131.92
1155.5	1523.99
1159.16	1056.41
1162.82	1259.44
1166.47	453.207
1170.13	147.801
1173.79	56.773
1177.44	439.582
1181.09	846.855
1184.74	1175.2
1188.38	974.773
1192.03	555.75
1195.67	151.535
1199.31	117.223
1202.95	78.68
1206.59	166.203
1210.23	522.684
1213.86	1283.58
1217.5	1066.54
1221.13	918.285
1224.76	154.645
1228.38	93.875
1232.01	520.75
1235.63	327.047
1239.26	1039.3
1242.88	1518.39
1246.49	1712.3
1250.11	1495.17
1253.73	574.551
1257.34	6.086
1260.95	136.668
