Measurement: Raman, 514 nm, ccw, Raman Data Processed
Mineral: Anorthite
Rruff sample: R040059
Ideal chemistry: CaAl_2_Si_2_O_8_
Locality: Miyakejima, Japan
Source: University of Arizona Mineral Museum
Description: Colorless fragments of crystals
Measured chemistry: (Ca_0.94_Na_0.04_Fe_0.02_)(Al_0.98_Si_0.02_)_2_Si_2.00_O_8_
Pin_id: L00234
Orientation: Laser parallel to b* (0 1 0). Fiducial mark perpendicular to laser is parallel to c [0 0 1]
Raman shift (cm-1)	intensity
123.102	0
127.286	100.373
131.469	643.154
135.649	1268.84
139.827	1635.05
144.003	1661.12
148.177	719.572
152.348	217.779
156.517	163.137
160.685	112.186
164.85	830.451
169.012	1940
173.173	3010.23
177.332	4548.81
181.488	6402.11
185.642	7079.67
189.794	7341.9
193.944	7389.69
198.092	6623.76
202.237	5404.61
206.38	4422.78
210.522	3209.27
214.661	2314.78
218.798	1420.66
222.932	1304.66
227.065	1458.91
231.196	1830.42
235.324	2358.11
239.45	4676.64
243.574	6789.85
247.696	7295.75
251.816	7781.77
255.933	7657.85
260.049	7253.91
264.162	7479.73
268.274	8555.14
272.383	9020.12
276.49	9354.77
280.595	9929.31
284.697	10324.3
288.798	9523.08
292.896	7237.41
296.993	4314.41
301.087	2712.23
305.179	1750.2
309.269	718.127
313.357	416.311
317.443	1003.64
321.527	1306.8
325.608	405.051
329.688	317
333.765	170.062
337.84	154.209
341.913	230.83
345.984	144.896
350.053	21.795
354.12	119.914
358.185	280.715
362.248	1040.59
366.308	1859.89
370.367	1768.67
374.423	1076.95
378.478	1204.74
382.53	1472.03
386.58	1888.82
390.628	3034.89
394.674	5508.3
398.718	8640.13
402.76	8450.24
406.799	5998.98
410.837	3257.41
414.873	2355.53
418.906	3033.7
422.938	4973.07
426.967	5223.83
430.994	4146.93
435.02	3321.92
439.043	2752.6
443.064	1784.91
447.083	1065.28
451.1	1215.88
455.115	1774.17
459.128	1981.92
463.139	1870.83
467.147	2100.2
471.154	3126.18
475.159	4330.21
479.161	7041.2
483.162	11445.7
487.161	13595.5
491.157	11465.3
495.151	14054.6
499.144	23153.1
503.134	29678.6
507.123	25830.3
511.109	17293.1
515.093	11941.7
519.075	8062.72
523.055	7327.74
527.034	5873.25
531.01	3458.23
534.984	2312.94
538.956	1927.14
542.926	2220.75
546.894	2634.47
550.86	3757.75
554.824	5601.07
558.786	5712.35
562.746	4743.09
566.704	3190.36
570.66	1992.99
574.614	1152.14
578.565	570.752
582.515	358.795
586.463	46.219
590.409	252.949
594.353	398.893
598.295	66.07
602.235	137.676
606.172	289.785
610.108	71.113
614.042	90.791
617.974	189.359
621.904	22.854
625.832	274.18
629.758	550.623
633.681	287.232
637.603	52.805
641.523	723.002
645.441	477.367
649.357	828.301
653.271	696.51
657.183	205.672
661.093	255.711
665.001	680.75
668.907	1726.63
672.811	2890.3
676.713	3829.47
680.613	4556.59
684.511	3498.34
688.407	2473.87
692.302	1745.48
696.194	1325.61
700.084	465.193
703.972	774.234
707.859	922.748
711.743	860.709
715.626	608.148
719.506	855.088
723.384	581.533
727.261	1297.5
731.136	1702.98
735.008	2304.56
738.879	3298.98
742.748	3516.96
746.614	3496.47
750.479	3161.83
754.342	3241.5
758.203	3644.68
762.062	3670.6
765.919	3707.3
769.774	3225.26
773.627	2243.53
777.479	1404.12
781.328	673.211
785.175	610.877
789.021	716.711
792.864	514.883
796.706	63.074
800.545	369.037
804.383	82.248
808.219	237.297
812.053	164.953
815.885	242.186
819.715	272.904
823.543	82.395
827.369	41.844
831.193	245.754
835.016	179.328
838.836	52.727
842.654	364.246
846.471	228.012
850.286	390.191
854.099	551.625
857.909	703.715
861.718	924.895
865.525	605.438
869.331	537.441
873.134	479.445
876.935	1191.45
880.735	1503.61
884.532	885.816
888.328	1158.14
892.122	1520.65
895.913	1643.34
899.703	2086.29
903.491	1829.59
907.278	1673.31
911.062	1757.6
914.844	2012.44
918.625	1887.9
922.404	2523.85
926.18	2630.22
929.955	2946.89
933.728	3123.82
937.499	3801.12
941.269	4497.9
945.036	4465.27
948.801	5066.75
952.565	5830.77
956.327	5280.07
960.087	4884.97
963.845	4344.59
967.601	5042.24
971.355	5965.54
975.107	5487.86
978.858	5582.25
982.607	5387.23
986.353	4503.73
990.098	3885.28
993.841	4042.25
997.583	3894.73
1001.32	3880.22
1005.06	2603.53
1008.79	2617.28
1012.53	2671.47
1016.26	3316.13
1019.99	3241.24
1023.72	2486.8
1027.45	1491.8
1031.17	1638.31
1034.89	1308.69
1038.61	1981.52
1042.33	2186.42
1046.05	1764.92
1049.77	1396.78
1053.48	1188.17
1057.19	1428.46
1060.9	1349.14
1064.61	1670.48
1068.32	1692.22
1072.02	1584.56
1075.72	1537.59
1079.42	901.32
1083.12	1254.23
1086.82	1267.34
1090.51	1570.28
1094.21	1233.36
1097.9	1310.09
1101.59	1133.85
1105.28	417.367
1108.96	462.355
1112.65	646.406
1116.33	1059.66
1120.01	1842.44
1123.69	1605.38
1127.37	1740.89
1131.04	537.41
1134.71	675.527
1138.39	424.484
1142.06	704.246
1145.72	1484.84
1149.39	1306.18
1153.05	938.109
1156.72	700.469
1160.38	503.258
1164.04	36.336
1167.69	230.086
1171.35	434.57
1175	1009.77
1178.65	855.402
1182.31	451.828
1185.95	130.992
1189.6	7.156
1193.24	203.598
1196.89	367
1200.53	418.973
1204.17	762.223
1207.81	1236.73
1211.44	815.844
1215.07	472.543
1218.71	160.711
1222.34	341.875
1225.97	590.609
1229.59	831.91
1233.22	1353.69
1236.84	1566.44
1240.46	1174.98
1244.08	796.168
1247.7	211.074
1251.32	7.625
1254.93	196.984
1258.54	497.984
1262.15	396.523
1265.76	802.844
