Measurement: Raman, 514 nm, ccw, Raman Data Processed
Mineral: Anorthite
Rruff sample: R050104
Ideal chemistry: CaAl_2_Si_2_O_8_
Locality: unknown
Source: Rock Currier
Description: Iridescent slab, labradorite/andesine
Measured chemistry: Ca_0.50_Na_0.47_K_0.03_Al_1.50_Si_2.50_O_8_
Pin_id: L00152
Orientation: Laser parallel to (1 0 1). Fiducial mark perpendicular to laser is parallel to -b [0 -1 0]
Raman shift (cm-1)	intensity
120.508	0
124.675	64.087
128.84	59.839
133.003	166.074
137.164	603.079
141.323	1154.3
145.48	2185.11
149.635	3674.77
153.788	5700.69
157.939	8414.92
162.088	12491.6
166.235	17813
170.38	22605.6
174.523	27635.2
178.664	30299.4
182.803	28101.1
186.94	23317.5
191.076	18334.6
195.209	14751.7
199.34	11967.3
203.47	10288.8
207.597	9057.92
211.722	6929.3
215.846	4596.9
219.967	2764.14
224.087	1550.24
228.204	781.282
232.32	383.392
236.434	551.325
240.545	605.07
244.655	1002.01
248.763	1592.66
252.869	2574.07
256.973	3246.55
261.075	4119.21
265.175	5476.17
269.273	7289.23
273.369	9439.16
277.463	11340.9
281.556	13565.6
285.646	14296.2
289.734	12769.6
293.821	10427
297.905	8009.79
301.988	5408.1
306.069	3685.59
310.147	2556.86
314.224	1915.98
318.299	1493.14
322.372	896.903
326.443	388.084
330.512	245.549
334.579	180.202
338.645	92.95
342.708	247.781
346.769	534.657
350.829	790.346
354.887	375.604
358.942	31.43
362.996	6.744
367.048	270.739
371.098	472.519
375.146	524.781
379.192	238.499
383.236	69.677
387.279	182.192
391.319	431.282
395.358	833.973
399.394	1189.32
403.429	1373.32
407.462	1664.68
411.493	1692.17
415.522	1255.62
419.549	938.315
423.575	957.828
427.598	1076.16
431.619	1492.3
435.639	1916.37
439.657	2405.74
443.673	2806.31
447.687	3214.64
451.699	3427.29
455.709	3717.87
459.717	4493.86
463.724	6604.34
467.728	10104.4
471.731	15333.8
475.732	21814.1
479.731	26168.1
483.728	24225.1
487.723	18433.8
491.716	15190.2
495.708	17984.5
499.697	26716.1
503.685	37602.1
507.671	44624.3
511.655	43866.3
515.637	34951.1
519.617	24783.2
523.596	16499.1
527.572	11042
531.547	7218.78
535.52	5248.25
539.491	3823.56
543.46	3151.73
547.427	3118.28
551.393	3259.37
555.356	3345.66
559.318	3744.8
563.278	4820.95
567.236	4660.6
571.192	4097.19
575.147	2836.55
579.099	1651.63
583.05	1024.39
586.999	620.816
590.946	486.896
594.891	408.62
598.834	184.973
602.776	110.921
606.715	43.565
610.653	94.3
614.589	24.398
618.523	77.195
622.456	34.321
626.386	166.081
630.315	176.188
634.242	224.789
638.167	120.949
642.09	152.687
646.012	286.995
649.931	178.848
653.849	170.265
657.765	38.769
661.679	32.344
665.592	68.298
669.502	285.366
673.411	461.202
677.318	393.839
681.223	660.952
685.126	914.492
689.028	942.735
692.927	768.547
696.825	806.549
700.721	1011.72
704.616	955.514
708.508	1340.15
712.399	1381.89
716.288	1231.54
720.175	1240.66
724.06	1451.05
727.944	1644.81
731.825	1506.22
735.705	1652.04
739.584	1823.82
743.46	2079.83
747.334	2120.16
751.207	2177.87
755.078	2111.98
758.947	2283.48
762.815	2643.88
766.68	3083.21
770.544	3220.62
774.406	3105.96
778.267	2924.16
782.125	2655.1
785.982	2343.26
789.837	2398.89
793.69	2492.26
797.542	2113.39
801.391	1441.32
805.239	1120.75
809.085	950.157
812.93	724.827
816.772	227.93
820.613	212.933
824.452	115.493
828.29	93.923
832.125	109.567
835.959	136.421
839.791	31.644
843.621	134.738
847.45	225.048
851.277	90.555
855.102	56.367
858.925	23.37
862.746	248.432
866.566	134.341
870.384	67.084
874.2	52.332
878.015	101.064
881.828	24.149
885.639	27.248
889.448	42.933
893.256	555.791
897.061	520.352
900.865	706.633
904.668	683.648
908.468	716.42
912.267	796.053
916.064	889.51
919.86	1061.9
923.653	1148.29
927.445	1180.65
931.236	1154.06
935.024	1127.47
938.811	1395.82
942.596	1610.05
946.379	1953.15
950.161	1940.13
953.94	2059.12
957.719	2256.24
961.495	2613.08
965.27	3039.99
969.043	3314.34
972.814	3759.06
976.583	3961.3
980.351	4177.38
984.117	4124.15
987.882	4079.39
991.644	4051.23
995.405	3919.14
999.165	3901.66
1002.92	3433.66
1006.68	3307.14
1010.43	3439.61
1014.18	3460.78
1017.93	3356.45
1021.68	3540.93
1025.43	3525.7
1029.18	3228.55
1032.92	3249.17
1036.66	3097.01
1040.4	3217.46
1044.14	3698.17
1047.88	3438.6
1051.62	3406.45
1055.35	3187.54
1059.08	3340.91
1062.81	3610.53
1066.54	3616.64
1070.27	3870.81
1073.99	4080.28
1077.72	3904.97
1081.44	3887.07
1085.16	3760.49
1088.88	3572.25
1092.59	3532.36
1096.31	3476.84
1100.02	3397.22
1103.73	3102.69
1107.44	2823.39
1111.15	2436.47
1114.86	2247.85
1118.57	2252.69
1122.27	2249.38
1125.97	1912.23
1129.67	1789.92
1133.37	1455.6
1137.07	1456.42
1140.76	1214.81
1144.45	1021.07
1148.15	1221.59
1151.84	1001.84
1155.53	998.957
1159.21	879.627
1162.9	834.146
1166.58	535.688
1170.26	540.582
1173.94	620.547
1177.62	536.242
1181.3	838.592
1184.97	648.539
1188.65	515.027
1192.32	217.203
1195.99	42.051
1199.66	134.629
1203.33	78.953
1206.99	176.684
1210.65	404.92
1214.32	383.895
1217.98	89.57
1221.64	295.98
1225.29	79.164
1228.95	192.104
1232.6	96.779
1236.26	47.178
1239.91	256.803
1243.56	381.689
1247.2	660.855
1250.85	335.373
1254.49	289.309
1258.13	189.951
1261.78	11.9
1265.41	22.088
1269.05	211.463
1272.69	386.805
1276.32	605.057
1279.95	436.785
1283.59	428.34
1287.21	159.779
1290.84	212.471
1294.47	166.773
1298.09	9.129
1301.72	300.072
1305.34	514.691
