Measurement: Raman, 514 nm, ccw, Raman Data Processed
Mineral: Anorthite
Rruff sample: R050104
Ideal chemistry: CaAl_2_Si_2_O_8_
Locality: unknown
Source: Rock Currier
Description: Iridescent slab, labradorite/andesine
Measured chemistry: Ca_0.50_Na_0.47_K_0.03_Al_1.50_Si_2.50_O_8_
Pin_id: L00412
Orientation: Laser parallel to (-1 -1 0). Fiducial mark perpendicular to laser is parallel to c [0 0 1]
Raman shift (cm-1)	intensity
131.615	0
135.777	2.721
139.937	46.035
144.094	335.427
148.25	914.355
152.403	1481.36
156.555	1709.22
160.705	1668.48
164.853	2049.72
168.998	3195.25
173.142	5008.17
177.284	6854.31
181.424	8388.01
185.562	9198.49
189.698	9480.97
193.831	10087.6
197.963	10873.2
202.093	10773
206.221	9701.96
210.347	7893.82
214.472	5432.23
218.594	3368.27
222.714	2286.63
226.832	1704.35
230.948	1130.4
235.063	1123.81
239.175	1404.69
243.286	1884.87
247.394	2525.67
251.501	2792.14
255.605	3372.78
259.708	3613.39
263.808	3995.54
267.907	4383.8
272.004	5138.91
276.099	5810.34
280.192	6205.97
284.283	6432.81
288.372	5931.88
292.459	4705.21
296.544	3210.32
300.627	2112.76
304.709	1337.41
308.788	634.082
312.865	254.328
316.941	133.473
321.015	187.062
325.086	201.81
329.156	341.423
333.224	531.72
337.29	423.63
341.354	129.033
345.416	138.225
349.476	255.561
353.534	156.48
357.591	268.431
361.645	309.57
365.698	153.75
369.748	7.382
373.797	167.141
377.844	117.801
381.889	396.49
385.932	810.313
389.973	999.185
394.012	1204.04
398.049	1660.1
402.084	2829.04
406.118	3307.44
410.15	2998.31
414.179	2150.4
418.207	1815.09
422.233	1574.11
426.257	1420.7
430.279	1526.05
434.299	1773.6
438.318	2257.93
442.334	2795.84
446.349	3202.35
450.361	3699.47
454.372	4431.54
458.381	4969.62
462.388	5636.98
466.394	7590.94
470.397	10944.9
474.398	16289.1
478.398	20631.4
482.396	21257.7
486.391	18243
490.385	15680.1
494.377	16819.4
498.368	22552.7
502.356	32649.6
506.342	40452.9
510.327	41022.7
514.31	32474.7
518.291	21921.1
522.27	14215.3
526.247	9464.58
530.222	6630.07
534.196	4879.68
538.167	4610.03
542.137	4754.84
546.105	4930.41
550.071	4845.35
554.035	4878.31
557.998	6109.02
561.958	7788.63
565.917	8714.1
569.874	7254.36
573.829	5031.5
577.782	3430.39
581.733	2395.08
585.683	1595.49
589.63	1114.63
593.576	987.489
597.52	995.075
601.462	1042.39
605.402	212.435
609.341	23.806
613.277	65.432
617.212	103.466
621.145	39.088
625.076	42.888
629.006	119.542
632.933	106.897
636.859	144.993
640.783	89.771
644.705	72.293
648.625	101.598
652.543	84.619
656.46	89.331
660.375	2.749
664.288	67.888
668.199	150.759
672.108	139.01
676.016	302.856
679.921	309.038
683.825	319.061
687.727	427.945
691.628	597.837
695.526	567.389
699.423	564.131
703.318	821.404
707.211	914.032
711.102	1075.39
714.992	1393.75
718.879	1229.5
722.765	1213.61
726.649	1412.07
730.532	1941.1
734.412	2487.97
738.291	2528.25
742.168	2719.93
746.043	3022.42
749.916	3190.61
753.788	3458.56
757.658	3668.27
761.526	3648.41
765.392	3904.02
769.257	4221.76
773.119	4645.89
776.98	4454.22
780.839	4427.42
784.697	4786.6
788.552	5808.06
792.406	6686.64
796.258	6529.22
800.108	5878.01
803.957	4172.54
807.804	3114.54
811.649	2277.2
815.492	1913.96
819.333	928.615
823.173	534.302
827.011	211.272
830.847	14.095
834.681	59.68
838.514	111.914
842.345	56.607
846.174	110.274
850.001	56.964
853.827	71.233
857.651	18.831
861.473	207.113
865.293	45.748
869.112	194.23
872.928	24.126
876.744	68.422
880.557	17.489
884.369	198.153
888.178	143.39
891.987	202.422
895.793	151.285
899.598	394.987
903.401	768.54
907.202	1070.95
911.001	1192.33
914.799	962.654
918.595	1281.88
922.389	1257.07
926.182	1368.25
929.972	1380.46
933.761	1409.64
937.549	1485.77
941.334	1451.86
945.118	1818.89
948.9	1989.98
952.681	2341.02
956.459	2597.08
960.236	2939.16
964.012	3237.24
967.785	3757.38
971.557	4223.55
975.327	4917.74
979.095	5283.7
982.862	5063.17
986.627	4448.03
990.39	4220.76
994.152	4065.56
997.912	3945.85
1001.67	3804.79
1005.43	3588.26
1009.18	3131.72
1012.93	3195.21
1016.68	3049.92
1020.43	3002.41
1024.18	2976.98
1027.93	2980.44
1031.67	2992.92
1035.42	3068.11
1039.16	2892.3
1042.9	3070.33
1046.63	3244.69
1050.37	3236.62
1054.11	3528.8
1057.84	3370.93
1061.57	3048.51
1065.3	2980.81
1069.03	2942.81
1072.75	2815.97
1076.47	2717.66
1080.2	2649.73
1083.92	2569.19
1087.64	2254.08
1091.36	2248.14
1095.07	1992.04
1098.79	1826.27
1102.5	2002.54
1106.21	1800.49
1109.92	1802.88
1113.62	1594.57
1117.33	1235.18
1121.04	1246.3
1124.74	1057.18
1128.44	1107.39
1132.14	1247.04
1135.83	1041.67
1139.53	830.441
1143.22	913.6
1146.92	599.227
1150.61	534.287
1154.3	536.416
1157.98	747.252
1161.67	717.623
1165.35	798.365
1169.04	251.277
1172.72	282.691
1176.4	246.609
1180.07	194.045
1183.75	220.02
1187.42	293.477
1191.1	547.389
1194.77	515.852
1198.44	64.119
1202.1	72.799
1205.77	261.055
1209.43	54.525
1213.1	98.262
1216.76	200.312
1220.42	470.768
1224.07	415.82
1227.73	303.68
1231.38	103.662
1235.04	260.508
1238.69	139.146
1242.34	76.156
1245.99	153.908
1249.63	412.895
1253.28	681.402
1256.92	552.709
1260.56	167.184
1264.2	0.441
1267.84	0
