Measurement: Raman, 514 nm, ccw, Raman Data Processed
Mineral: Anorthite
Rruff sample: R050104
Ideal chemistry: CaAl_2_Si_2_O_8_
Locality: unknown
Source: Rock Currier
Description: Iridescent slab, labradorite/andesine
Measured chemistry: Ca_0.50_Na_0.47_K_0.03_Al_1.50_Si_2.50_O_8_
Pin_id: L00084
Orientation: Laser parallel to -c* (0 0 -1). Fiducial mark perpendicular to laser is parallel to a [1 0 0]
Raman shift (cm-1)	intensity
164.853	0
168.998	253.95
173.142	1121.68
177.284	2688.46
181.424	4630.18
185.562	5974.94
189.698	6723.39
193.831	6974.13
197.963	7221.44
202.093	6643.62
206.221	5346.73
210.347	3680.48
214.472	2254.26
218.594	979.912
222.714	449.03
226.832	113.76
230.948	91.771
235.063	120.281
239.175	537.398
243.286	1120.92
247.394	1470.66
251.501	1889.09
255.605	2329.29
259.708	2777.2
263.808	3180.85
267.907	3661.12
272.004	3952.81
276.099	4331.05
280.192	4463.94
284.283	4595.57
288.372	4270.34
292.459	3201.97
296.544	2268.14
300.627	1315.53
304.709	913.104
308.788	379.928
312.865	48.113
316.941	100.254
321.015	53.728
325.086	59.388
329.156	28.141
333.224	111.02
337.29	161.336
341.354	23.108
345.416	162.697
349.476	276.01
353.534	201.457
357.591	120.316
361.645	61.868
365.698	80.876
369.748	262.788
373.797	393.872
377.844	531.91
381.889	848.201
385.932	1272.6
389.973	1684.63
394.012	2112.87
398.049	3004.07
402.084	4620.94
406.118	5554.35
410.15	4902.71
414.179	3768.46
418.207	2866.58
422.233	2289.49
426.257	2003.83
430.279	2038.61
434.299	2453.82
438.318	3164.88
442.334	3905.11
446.349	4677.6
450.361	5684.37
454.372	6573.84
458.381	7922.59
462.388	8741.53
466.394	10517.2
470.397	14060.7
474.398	19653.5
478.398	24267.3
482.396	24661.1
486.391	20558.6
490.385	17994
494.377	19351.8
498.368	25932.5
502.356	36705.1
506.342	44587.7
510.327	43763.3
514.31	33902.2
518.291	23036.3
522.27	14850
526.247	9719.79
530.222	6740.06
534.196	5150.15
538.167	4653.54
542.137	4556.31
546.105	4529.76
550.071	4420.47
554.035	4212.57
557.998	4827.47
561.958	5960.1
565.917	6424.53
569.874	5270.63
573.829	3776.38
577.782	2621.78
581.733	1877.86
585.683	1428.66
589.63	1072.21
593.576	885.5
597.52	1002.55
601.462	802.38
605.402	512.982
609.341	311.368
613.277	158.525
617.212	151.423
621.145	270.059
625.076	282.509
629.006	350.864
632.933	285.326
636.859	316.992
640.783	216.103
644.705	31.764
648.625	88.774
652.543	42.768
656.46	80.749
660.375	115.189
664.288	125.961
668.199	76.875
672.108	138.672
676.016	296.105
679.921	207.473
683.825	325.921
687.727	417.38
691.628	581.008
695.526	653.383
699.423	848.646
703.318	775.774
707.211	1041.47
711.102	1263.96
714.992	1592.32
718.879	1567.83
722.765	1486.91
726.649	1635.98
730.532	2136.82
734.412	2479.64
738.291	2834.82
742.168	3362.68
746.043	3669.64
749.916	3955.79
753.788	4411.75
757.658	4708.56
761.526	4855.2
765.392	5061.39
769.257	5255.73
773.119	5469.54
776.98	5139.52
780.839	5154.38
784.697	5554.87
788.552	6610.89
792.406	7714.12
796.258	7609.19
800.108	6757.28
803.957	5130.65
807.804	3726.43
811.649	2775.97
815.492	2085.36
819.333	1224.25
823.173	598.855
827.011	305.489
830.847	71.17
834.681	51.711
838.514	86.362
842.345	38.215
846.174	157.545
850.001	65.913
853.827	96.239
857.651	25.6
861.473	22.067
865.293	28.747
869.112	103.341
872.928	63.35
876.744	92.823
880.557	45.474
884.369	170.727
888.178	141.562
891.987	12.063
895.793	129.225
899.598	389.114
903.401	589.754
907.202	816.151
911.001	875.348
914.799	804.337
918.595	1014.12
922.389	1118.7
926.182	1088.11
929.972	1289.33
933.761	1240.36
937.549	1387.17
941.334	1285.8
945.118	1526.22
948.9	1831.46
952.681	2143.54
956.459	2359.56
960.236	2506.51
964.012	3177.36
967.785	3709.12
971.557	4246.82
975.327	4962.42
979.095	5357.77
982.862	5285.45
986.627	4793.68
990.39	4546.31
994.152	4399.61
997.912	4152.43
1001.67	4006.76
1005.43	3880.54
1009.18	3520.75
1012.93	3404.56
1016.68	3276.03
1020.43	3500.41
1024.18	3378.88
1027.93	3627.41
1031.67	3655.5
1035.42	3623.21
1039.16	3421.33
1042.9	3548.41
1046.63	3763.22
1050.37	3732.75
1054.11	3635.07
1057.84	3683.67
1061.57	3563.33
1065.3	3217.54
1069.03	3052.75
1072.75	2965.53
1076.47	2878.25
1080.2	2818.08
1083.92	2622.15
1087.64	2323.48
1091.36	2337.09
1095.07	2165.86
1098.79	1970.63
1102.5	2201.69
1106.21	2034.94
1109.92	1904.39
1113.62	1608.14
1117.33	1385.6
1121.04	1210.11
1124.74	1055.33
1128.44	918.837
1132.14	840.741
1135.83	782.062
1139.53	532.905
1143.22	661.322
1146.92	393.382
1150.61	416.939
1154.3	489.635
1157.98	571.995
1161.67	525.887
1165.35	514.18
1169.04	212.737
1172.72	182.54
1176.4	85.659
1180.07	150.178
1183.75	73.109
1187.42	186.473
1191.1	321.061
1194.77	281.047
1198.44	15.525
1202.1	11.621
1205.77	109.096
1209.43	44.516
1213.1	42.201
1216.76	50.908
1220.42	8.406
1224.07	239.391
1227.73	192.416
1231.38	169.84
1235.04	330.469
1238.69	106.93
1242.34	179.734
1245.99	192.781
1249.63	380.57
1253.28	529.566
1256.92	516.676
1260.56	576.52
1264.2	176.68
1267.84	121.924
1271.48	0.861
