Measurement: Raman, 514 nm, ccw, Raman Data Processed
Mineral: Anorthite
Rruff sample: R050104
Ideal chemistry: CaAl_2_Si_2_O_8_
Locality: unknown
Source: Rock Currier
Description: Iridescent slab, labradorite/andesine
Measured chemistry: Ca_0.50_Na_0.47_K_0.03_Al_1.50_Si_2.50_O_8_
Pin_id: L00427
Orientation: Laser parallel to -a* (-1 0 0). Fiducial mark perpendicular to laser is parallel to b [0 1 0]
Raman shift (cm-1)	intensity
134.39	0
138.55	151.475
142.709	129.096
146.865	215.6
151.019	212.733
155.171	109.353
159.322	37.784
163.47	2.426
167.617	148.456
171.761	652.932
175.904	1313.35
180.044	2020.3
184.183	2597.32
188.319	2719.08
192.454	2893.44
196.586	3058.37
200.717	3169.17
204.846	2981.13
208.972	2701.24
213.097	2315.51
217.22	2168.89
221.341	1998.92
225.46	1903.36
229.577	1889.16
233.692	1967.18
237.805	1942.81
241.916	1946.21
246.025	2127.42
250.132	2188.43
254.237	2209.94
258.34	2299.31
262.442	2845.96
266.541	2700.43
270.639	2843.68
274.734	2926.72
278.828	3184.53
282.919	2961.08
287.009	2741.36
291.097	2374.35
295.183	1784.04
299.266	1042.76
303.348	537.716
307.428	315.85
311.507	211.831
315.583	172.367
319.657	120.86
323.729	103.439
327.8	99.528
331.868	60.938
335.935	72.108
339.999	65.709
344.062	176.934
348.123	211.582
352.182	360.441
356.239	269.872
360.294	181.846
364.347	40.332
368.398	118.688
372.448	152.287
376.495	88.502
380.54	7.318
384.584	97.302
388.626	181.375
392.666	417.898
396.704	591.874
400.74	838.298
404.774	1289.17
408.806	1692.47
412.836	1672.2
416.865	1591.24
420.891	1678.5
424.916	1905.13
428.939	1947.16
432.959	2301.58
436.978	2588.36
440.996	2676.51
445.011	2966.01
449.024	2739.86
453.036	2710.03
457.045	3058.52
461.053	3464.32
465.059	4328.5
469.063	5253.06
473.065	7902.03
477.065	11004.9
481.063	12138.7
485.06	10541.1
489.054	8064.94
493.047	7438.12
497.038	8741.63
501.027	12826.4
505.014	17244.8
508.999	19743.7
512.982	18513.7
516.964	13724.8
520.944	9554.13
524.921	6913.7
528.897	4912.65
532.871	3485.93
536.844	2472.21
540.814	2223.9
544.783	2211.89
548.749	2082.11
552.714	2010.65
556.677	2117.55
560.638	2487.72
564.597	3104.1
568.555	3065.65
572.511	2737.36
576.464	2147.15
580.416	2071
584.366	1882.88
588.315	1762.76
592.261	1930.64
596.206	1940.49
600.148	1938.31
604.089	1943.08
608.028	1652.8
611.965	1203.45
615.901	878.02
619.834	519.504
623.766	257.89
627.696	141.165
631.624	21.686
635.551	42.909
639.475	37.739
643.398	106.296
647.318	152.685
651.237	102
655.155	49.906
659.07	44.297
662.984	76.247
666.895	149.823
670.805	341.553
674.713	418.677
678.62	435.175
682.524	576.114
686.427	757.376
690.328	801.226
694.227	977.016
698.124	941.303
702.02	934.908
705.913	990.674
709.805	1070.1
713.695	1067.87
717.584	1199.27
721.47	1051.54
725.355	1038.39
729.238	995.469
733.119	1120.99
736.998	1194.91
740.876	1322.96
744.752	1371.43
748.626	1479.3
752.498	1479.73
756.368	1518.72
760.237	1661.27
764.104	1728.37
767.969	1760.03
771.832	1793.23
775.693	1888.98
779.553	1770.27
783.411	1534.11
787.267	1484.37
791.122	1521.11
794.974	1518.58
798.825	1351.8
802.674	1034.87
806.522	887.672
810.367	681.603
814.211	528.179
818.053	284.953
821.893	198.584
825.732	153.791
829.568	68.552
833.403	9.848
837.236	93.584
841.068	17.678
844.898	11.903
848.726	13.728
852.552	22.918
856.376	28.912
860.199	57.215
864.02	69.366
867.839	94.368
871.656	65.105
875.472	45.469
879.286	3.415
883.098	59.11
886.909	125.187
890.717	147.929
894.524	308.284
898.33	297.312
902.133	419.352
905.935	478.442
909.735	421.577
913.533	518.49
917.33	571.134
921.124	622.519
924.918	704.65
928.709	720.523
932.499	717.147
936.286	910.53
940.073	875.719
943.857	982.886
947.64	1058.31
951.421	1057.42
955.2	1065.92
958.978	1236.62
962.753	1265.35
966.527	1419.04
970.3	1644.48
974.071	1844.66
977.84	2037.46
981.607	2092.4
985.372	2013.42
989.136	1897.4
992.898	1863.93
996.659	1874.41
1000.42	1793.61
1004.17	1786.79
1007.93	1773.32
1011.68	1800.21
1015.43	1928.06
1019.18	1896.35
1022.93	1791.01
1026.68	1770.79
1030.42	1830.84
1034.17	1728.89
1037.91	1707.24
1041.65	1654.44
1045.39	1656.56
1049.12	1675.28
1052.86	1566.19
1056.59	1616.13
1060.33	1581.32
1064.06	1636.68
1067.78	1646.45
1071.51	1691.92
1075.23	1673.76
1078.96	1703.23
1082.68	1764.2
1086.4	1713.98
1090.12	1734.3
1093.83	1660.88
1097.55	1559.22
1101.26	1463.08
1104.97	1443.75
1108.68	1294.74
1112.39	1238.83
1116.1	1178.04
1119.8	1088.52
1123.5	976.762
1127.2	885.051
1130.9	750.953
1134.6	829.597
1138.3	634.132
1141.99	488.715
1145.69	488.335
1149.38	537.235
1153.07	421.156
1156.76	344.241
1160.44	291.762
1164.13	348.348
1167.81	322.076
1171.49	199.107
1175.17	303.115
1178.85	113.941
1182.52	117.901
1186.2	80.957
1189.87	21.253
1193.54	65.75
1197.21	5.285
1200.88	27.974
1204.55	39.866
1208.21	50.06
1211.88	14.116
1215.54	15.627
1219.2	19.255
1222.86	15.365
1226.51	15.758
1230.17	3.61
1233.82	15.829
1237.47	178.595
1241.12	160.703
1244.77	69.159
1248.42	85.032
1252.06	74.128
1255.71	66.682
1259.35	164.612
1262.99	201.924
1266.63	243.826
1270.26	277.178
1273.9	152.686
1277.53	51.082
1281.16	129.081
1284.8	56.63
1288.42	52.625
1292.05	50.239
1295.68	178.124
1299.3	250.696
1302.92	141.469
1306.55	28.294
1310.16	62.959
1313.78	30.527
1317.4	112.2
1321.01	1.59
1324.62	0
