Measurement: Raman, 514 nm, ccw, Raman Data Processed
Mineral: Anorthite
Rruff sample: R040059
Ideal chemistry: CaAl_2_Si_2_O_8_
Locality: Miyakejima, Japan
Source: University of Arizona Mineral Museum
Description: Colorless fragments of crystals
Measured chemistry: (Ca_0.94_Na_0.04_Fe_0.02_)(Al_0.98_Si_0.02_)_2_Si_2.00_O_8_
Pin_id: L00234
Orientation: Laser parallel to b* (0 1 0). Fiducial mark perpendicular to laser is parallel to c [0 0 1]
Raman shift (cm-1)	intensity
121.706	0
125.892	282.077
130.075	559.328
134.256	815.76
138.435	1276.66
142.611	1532.56
146.786	861.217
150.958	12.904
155.128	359.221
159.296	182.379
163.462	432.637
167.625	1317.62
171.786	2235.95
175.946	3161.35
180.103	4561.7
184.258	6369.86
188.41	7705.21
192.561	7818.34
196.709	7889.69
200.856	7289.58
205	5598.32
209.142	3895.62
213.281	2982.22
217.419	2198.68
221.554	1965.22
225.688	1901.99
229.819	2542.11
233.948	3349.36
238.075	4439.85
242.2	6561.66
246.322	8527.32
250.443	8463.67
254.561	8500.62
258.677	8298.1
262.791	8445.93
266.903	9503.93
271.013	10462
275.121	10560.3
279.226	10958.9
283.33	11718.1
287.431	10764.5
291.53	9267.89
295.627	6306.9
299.722	3699.23
303.815	2323.72
307.906	1539.78
311.995	826.992
316.081	785.039
320.166	1304.06
324.248	953.535
328.328	283.416
332.406	182.768
336.482	207.361
340.556	61.734
344.628	29.398
348.697	431.105
352.765	223.625
356.83	31.18
360.894	719.314
364.955	1565.4
369.014	2011.33
373.071	1367.12
377.126	1032.77
381.179	1248.29
385.23	1723.67
389.279	2958.9
393.325	5172.52
397.37	8584.91
401.413	9705.98
405.453	7535.81
409.491	4825.56
413.528	2715.28
417.562	2384.94
421.594	4434.53
425.624	5805.14
429.652	4295.41
433.678	3260.62
437.702	3199.6
441.724	2521.96
445.743	1628.86
449.761	1244.21
453.777	1558.26
457.79	2248.87
461.802	2150.78
465.811	2105.24
469.819	2812.96
473.824	4512.58
477.827	6721.19
481.829	11016
485.828	14252.4
489.825	13248.5
493.82	14346.9
497.813	22209.1
501.804	33421.8
505.793	31942.7
509.78	22588.2
513.765	15768.3
517.748	9840.22
521.729	7305.12
525.708	6399.71
529.685	4743.92
533.659	3017.91
537.632	2311.51
541.603	1844.71
545.571	2837.5
549.538	4169.88
553.503	5144.48
557.465	6166.07
561.426	5387.97
565.385	3788.82
569.341	2309.28
573.296	1219.37
577.248	769.074
581.199	498.393
585.147	427.309
589.094	114.205
593.038	16.531
596.981	400.484
600.922	116.764
604.86	62.033
608.797	223.82
612.731	131.1
616.664	220.412
620.594	741.191
624.523	611.391
628.449	191.102
632.374	70.355
636.296	359.668
640.217	551.605
644.135	509.225
648.052	295.236
651.967	161.291
655.879	632.865
659.79	563.473
663.698	900.887
667.605	1157.93
671.51	2216.51
675.413	4227.31
679.313	4985.38
683.212	4311.03
687.109	2828.7
691.004	1943.94
694.897	1118.13
698.788	1111.85
702.677	535.117
706.564	207.922
710.449	730.223
714.332	392.057
718.213	473.432
722.092	924.369
725.969	734.875
729.844	1464.96
733.718	3304.62
737.589	4193.87
741.458	4111.61
745.326	3315.87
749.191	2524.15
753.055	3189.21
756.916	3221.16
760.776	3678.9
764.634	3392.29
768.489	2789.22
772.343	2416.72
776.195	1529.88
780.045	1109.11
783.893	833.516
787.739	44.715
791.583	29.191
795.425	287.633
799.266	102.055
803.104	44.613
806.94	243.254
810.775	144.387
814.608	126.113
818.438	344.598
822.267	324.949
826.094	25.211
829.919	205.809
833.742	23.047
837.563	18.203
841.382	16.762
845.199	118.562
849.014	166.73
852.828	414.887
856.639	403.027
860.449	610.405
864.257	610.203
868.062	699.159
871.866	829.361
875.668	910.587
879.468	1060.16
883.267	1007.09
887.063	1115.32
890.857	1213.92
894.65	1152.63
898.44	1331.59
902.229	1880.98
906.016	1790.63
909.801	2190.68
913.584	2021.18
917.365	1722.36
921.144	1744.17
924.922	2436.54
928.697	2949.24
932.471	3592.26
936.242	3825.52
940.012	4148.4
943.78	3848.61
947.546	4782.47
951.311	5726.68
955.073	6308.88
958.834	5232.8
962.592	4770.81
966.349	4142.45
970.104	4457.96
973.857	5684.18
977.608	6077.82
981.357	5550.84
985.105	5138.43
988.85	3935.99
992.594	3352.93
996.336	3471.48
1000.08	3971.42
1003.81	3755.06
1007.55	2735.47
1011.28	2386.33
1015.02	2007.68
1018.75	2609.53
1022.48	2691.84
1026.2	2464.65
1029.93	2060.84
1033.65	1761.21
1037.37	1109.72
1041.09	1644.57
1044.81	1660.46
1048.53	2098.47
1052.24	2098.23
1055.95	1355.28
1059.66	1262.97
1063.37	1125.87
1067.08	834.555
1070.79	1633.84
1074.49	1427.52
1078.19	1948.1
1081.89	1649.77
1085.59	1231.1
1089.28	702.199
1092.98	1056.81
1096.67	520.965
1100.36	883.285
1104.05	1296.67
1107.73	1111.4
1111.42	444.797
1115.1	508.047
1118.78	981.547
1122.46	1486.71
1126.14	1353.39
1129.82	1977.09
1133.49	1591.85
1137.16	1287.61
1140.83	664.145
1144.5	38.453
1148.17	160.18
1151.83	718.902
1155.5	988.621
1159.16	849.074
1162.82	859.91
1166.47	461.547
1170.13	433.887
1173.79	103.031
1177.44	210.773
1181.09	855.43
1184.74	1140.72
1188.38	846.535
1192.03	503.199
1195.67	69.102
1199.31	149.875
1202.95	150.367
1206.59	82.258
1210.23	405.691
1213.86	1049.81
1217.5	975.336
1221.13	962.461
1224.76	142.07
1228.38	324.645
1232.01	645.023
1235.63	335.625
1239.26	985.715
1242.88	1105.49
1246.49	1368.29
1250.11	1383.1
1253.73	747.863
1257.34	224.418
1260.95	266.699
1264.56	143.395
1268.17	135.262
