Measurement: Raman, 514 nm, ccw, Raman Data Processed
Mineral: Anorthite
Rruff sample: R050104
Ideal chemistry: CaAl_2_Si_2_O_8_
Locality: unknown
Source: Rock Currier
Description: Iridescent slab, labradorite/andesine
Measured chemistry: Ca_0.50_Na_0.47_K_0.03_Al_1.50_Si_2.50_O_8_
Pin_id: L00369
Orientation: Laser parallel to (0 1 1). Fiducial mark perpendicular to laser is parallel to a [1 0 0]
Raman shift (cm-1)	intensity
123.286	0
127.452	14.792
131.615	67.144
135.777	408.84
139.937	1166.23
144.094	2109.28
148.25	3835.99
152.403	5335.15
156.555	7447.08
160.705	10889.6
164.853	16008.8
168.998	21463.1
173.142	26392.1
177.284	29177.1
181.424	30052.1
185.562	26291.5
189.698	21227.2
193.831	17466.5
197.963	15022.2
202.093	12755.9
206.221	10746
210.347	8839.88
214.472	6300.73
218.594	3754.81
222.714	2164.69
226.832	1360.64
230.948	700.786
235.063	951.51
239.175	1338.81
243.286	2049.55
247.394	3179.85
251.501	4119.77
255.605	5372.25
259.708	6467.15
263.808	7684.59
267.907	9579.39
272.004	12427.2
276.099	15647.8
280.192	18067.2
284.283	20186.1
288.372	19620.2
292.459	16422
296.544	13343.7
300.627	8730.68
304.709	6294.19
308.788	4488.86
312.865	3031.83
316.941	2305.53
321.015	1710.53
325.086	1114.42
329.156	751.897
333.224	744.803
337.29	852.968
341.354	470.29
345.416	98.667
349.476	574.893
353.534	60.576
357.591	143.68
361.645	446.367
365.698	396.832
369.748	322.052
373.797	281.059
377.844	314.577
381.889	69.704
385.932	621.311
389.973	965.384
394.012	1171.94
398.049	1498.96
402.084	1959.39
406.118	1742.64
410.15	1763.36
414.179	1480.71
418.207	1375.68
422.233	1313.27
426.257	1556.53
430.279	1773.62
434.299	2458.65
438.318	3054.61
442.334	3290.62
446.349	3199.33
450.361	3385.44
454.372	3637.94
458.381	3750.05
462.388	4730.27
466.394	7345.6
470.397	10997.6
474.398	16474.4
478.398	20251.3
482.396	21054
486.391	16818.8
490.385	14255.7
494.377	15469.1
498.368	22603.4
502.356	34664
506.342	43729.2
510.327	44247.5
514.31	36042.2
518.291	25706.2
522.27	17178.3
526.247	11014.7
530.222	7085.31
534.196	4595.63
538.167	3744.31
542.137	3166.5
546.105	2771.68
550.071	2683.61
554.035	2511.2
557.998	2991.32
561.958	3516.99
565.917	3743.26
569.874	3264.07
573.829	2291.42
577.782	1412.2
581.733	721.396
585.683	351.992
589.63	190.938
593.576	215.148
597.52	276.447
601.462	130.369
605.402	34.455
609.341	44.379
613.277	113.906
617.212	24.938
621.145	166.508
625.076	39.682
629.006	347.037
632.933	387.602
636.859	407.418
640.783	156.529
644.705	454.945
648.625	582.674
652.543	422.693
656.46	366.029
660.375	191.693
664.288	239.102
668.199	621.338
672.108	742.156
676.016	824.312
679.921	848.424
683.825	1001.75
687.727	1131.58
691.628	1120.99
695.526	860.957
699.423	980.709
703.318	856.34
707.211	1401.96
711.102	1433.65
714.992	1552.26
718.879	1156.48
722.765	1415.22
726.649	1631.07
730.532	2076.37
734.412	2082.35
738.291	2151.85
742.168	2555.99
746.043	2629.7
749.916	2856.33
753.788	2666.16
757.658	2405.34
761.526	2863.27
765.392	3014.8
769.257	3293.27
773.119	3419.49
776.98	2733.64
780.839	2545.45
784.697	2629.73
788.552	2798.74
792.406	2610.5
796.258	2602.5
800.108	2258.77
803.957	1484.29
807.804	1149.02
811.649	823.967
815.492	892.818
819.333	249.533
823.173	224.756
827.011	132.061
830.847	87.859
834.681	118.988
838.514	3.625
842.345	228.477
846.174	31.693
850.001	130.107
853.827	198.98
857.651	119.926
861.473	82.857
865.293	130.131
869.112	166.045
872.928	181.084
876.744	340.424
880.557	11.004
884.369	212.029
888.178	234.688
891.987	182.021
895.793	661.041
899.598	683.895
903.401	972.613
907.202	1010.28
911.001	970.049
914.799	1028.86
918.595	1404.72
922.389	1434.76
926.182	1254.07
929.972	1158.67
933.761	1455.34
937.549	1572.94
941.334	1552.49
945.118	1834.97
948.9	2022.37
952.681	2171.63
956.459	2439.72
960.236	2583.66
964.012	3458.45
967.785	3869.08
971.557	4002.33
975.327	4417.79
979.095	4656.56
982.862	4680.06
986.627	4333.28
990.39	4229.23
994.152	3966.26
997.912	3712.28
1001.67	3318.29
1005.43	3399.15
1009.18	3241.1
1012.93	3334.63
1016.68	3315.94
1020.43	3252.62
1024.18	2933.83
1027.93	2990.21
1031.67	2987.98
1035.42	3415.18
1039.16	3289.5
1042.9	3163.61
1046.63	2934.11
1050.37	2667.35
1054.11	2946.28
1057.84	2933.61
1061.57	2943.71
1065.3	3288.92
1069.03	3461.64
1072.75	3330.03
1076.47	3430.12
1080.2	3486.55
1083.92	3404.33
1087.64	3339.29
1091.36	3639.95
1095.07	2832.39
1098.79	2447.4
1102.5	2551.49
1106.21	2105.54
1109.92	2234.55
1113.62	2280.62
1117.33	2008.16
1121.04	1922.28
1124.74	1498.88
1128.44	1027.9
1132.14	1158.72
1135.83	1002.27
1139.53	841.457
1143.22	1403.65
1146.92	1130.43
1150.61	1034.44
1154.3	905.848
1157.98	852.652
1161.67	265.91
1165.35	648.602
1169.04	882.891
1172.72	468.254
1176.4	770.852
1180.07	748.957
1183.75	65.785
1187.42	54.41
1191.1	295.73
1194.77	510.578
1198.44	361.965
1202.1	340.121
1205.77	11.355
1209.43	356.086
1213.1	245.824
1216.76	60.504
1220.42	180.949
1224.07	227.18
1227.73	47.219
1231.38	272.84
1235.04	901.219
1238.69	348.473
1242.34	1.152
