Measurement: Raman, 514 nm, ccw, Raman Data Processed
Mineral: Anorthite
Rruff sample: R050104
Ideal chemistry: CaAl_2_Si_2_O_8_
Locality: unknown
Source: Rock Currier
Description: Iridescent slab, labradorite/andesine
Measured chemistry: Ca_0.50_Na_0.47_K_0.03_Al_1.50_Si_2.50_O_8_
Pin_id: L00152
Orientation: Laser parallel to (1 0 1). Fiducial mark perpendicular to laser is parallel to -b [0 -1 0]
Raman shift (cm-1)	intensity
126.063	0
130.228	6.082
134.39	76.938
138.55	645.203
142.709	1311.45
146.865	2361.59
151.019	3616.37
155.171	5030.34
159.322	6605.85
163.47	8976.23
167.617	12223.3
171.761	16228.7
175.904	18938.2
180.044	19909.5
184.183	18449.7
188.319	15396.7
192.454	13027.1
196.586	11031
200.717	10321.1
204.846	9193.39
208.972	7578.56
213.097	5636.59
217.22	4033.96
221.341	2203.55
225.46	1021.89
229.577	650.764
233.692	466.055
237.805	414.551
241.916	525.537
246.025	954.68
250.132	1560.74
254.237	2148.47
258.34	2429.07
262.442	3226.75
266.541	4116.45
270.639	5324.74
274.734	6475.07
278.828	8381.45
282.919	9345.9
287.009	9278.42
291.097	8207.23
295.183	6427.82
299.266	4300.47
303.348	2738.55
307.428	1733.83
311.507	1123.47
315.583	716.914
319.657	302.764
323.729	183.685
327.8	47.347
331.868	33.615
335.935	183.454
339.999	153.273
344.062	100.941
348.123	192.275
352.182	249.593
356.239	65.626
360.294	41.801
364.347	229.952
368.398	399.144
372.448	246.518
376.495	179.883
380.54	61.99
384.584	226.563
388.626	401.039
392.666	873.979
396.704	1160.6
400.74	1651.24
404.774	2076.79
408.806	2373.44
412.836	2067.74
416.865	1416.09
420.891	1110.19
424.916	1215.66
428.939	1533.59
432.959	1750.98
436.978	2156.84
440.996	2851.18
445.011	3321.99
449.024	3411.3
453.036	3582.16
457.045	4332.76
461.053	5550.33
465.059	7277.08
469.063	10309.7
473.065	15512.8
477.065	21377.3
481.063	23461.9
485.06	20365.6
489.054	15789.9
493.047	14506.3
497.038	18199.5
501.027	26525.7
505.014	36011.8
508.999	40749.4
512.982	38123.4
516.964	28256.3
520.944	18459.5
524.921	12643.5
528.897	8510.71
532.871	5927.81
536.844	4160.24
540.814	3388.79
544.783	3352.97
548.749	3415.34
552.714	3436.34
556.677	3341.81
560.638	4170.1
564.597	5415.14
568.555	5669.75
572.511	4246.97
576.464	2592.8
580.416	1861.22
584.366	1234.21
588.315	981.755
592.261	884.854
596.206	722.506
600.148	743.712
604.089	899.47
608.028	778.78
611.965	397.642
615.901	367.045
619.834	366.986
623.766	464.443
627.696	339.43
631.624	302.945
635.551	291.977
639.475	319.523
643.398	232.613
647.318	65.295
651.237	24.811
655.155	81.787
659.07	116.344
662.984	32.043
666.895	36.605
670.805	133.299
674.713	89.979
678.62	307.029
682.524	505.18
686.427	463.68
690.328	368.51
694.227	602.326
698.124	661.25
702.02	855.357
705.913	1058.45
709.805	699.842
713.695	804.045
717.584	1381.27
721.47	1322.73
725.355	1354.73
729.238	1109.13
733.119	1362.07
736.998	1739.98
740.876	2240.14
744.752	2393.04
748.626	2384.45
752.498	2290.34
756.368	2760.75
760.237	2967.66
764.104	3261.09
767.969	3298.67
771.832	3459.64
775.693	3630.66
779.553	3589.66
783.411	3187.74
787.267	3251.41
791.122	3281.48
794.974	3362.32
798.825	3035.95
802.674	2573.23
806.522	2051.24
810.367	1503.93
814.211	1215.79
818.053	448.031
821.893	224.408
825.732	140.736
829.568	43.664
833.403	85.543
837.236	165.34
841.068	3.277
844.898	68.619
848.726	70.684
852.552	177.357
856.376	51.514
860.199	182.438
864.02	66.451
867.839	184.525
871.656	205.322
875.472	42.838
879.286	132.445
883.098	28.6
886.909	164.227
890.717	391.451
894.524	486.328
898.33	450.912
902.133	530.215
905.935	774.225
909.735	1112.98
913.533	1310.53
917.33	1561.83
921.124	1586.89
924.918	1421.72
928.709	1550.34
932.499	1814.76
936.286	2034.99
940.073	2011.05
943.857	2244.98
947.64	1963.77
951.421	2380.46
955.2	2622.18
958.978	2935.88
962.753	3166.57
966.527	3469.41
970.3	3842.44
974.071	4258.21
977.84	4491.6
981.607	4916
985.372	5055.61
989.136	4509.04
992.898	4168.95
996.659	3913.14
1000.42	4006.87
1004.17	3722.11
1007.93	3848.87
1011.68	4048.38
1015.43	3915.98
1019.18	3765.7
1022.93	3396.51
1026.68	3417.16
1030.42	3714.33
1034.17	3611.44
1037.91	3997.07
1041.65	3891.31
1045.39	3480.56
1049.12	3605.73
1052.86	3641.27
1056.59	3865.08
1060.33	3836.98
1064.06	3723.67
1067.78	4428.42
1071.51	3909.97
1075.23	3738.35
1078.96	3891.31
1082.68	3716.51
1086.4	3685.22
1090.12	3774.25
1093.83	3625.7
1097.55	3370.58
1101.26	3050.21
1104.97	2920.68
1108.68	2864.96
1112.39	2512.73
1116.1	2608.99
1119.8	2277.66
1123.5	1937.8
1127.2	1627.35
1130.9	1302.26
1134.6	1533.22
1138.3	1201.13
1141.99	1026
1145.69	1133.61
1149.38	1205.81
1153.07	1036.02
1156.76	713.074
1160.44	629.932
1164.13	639.643
1167.81	599.881
1171.49	889.072
1175.17	819.695
1178.85	542.818
1182.52	445.145
1186.2	318.865
1189.87	22.096
1193.54	154.969
1197.21	142.713
1200.88	200.072
1204.55	386.266
1208.21	204.346
1211.88	85.336
1215.54	34.771
1219.2	8.191
1222.86	67.141
1226.51	136.451
1230.17	445.77
1233.82	254.895
1237.47	511.975
1241.12	350.012
1244.77	356.951
1248.42	220.723
1252.06	124.301
1255.71	223.152
1259.35	402.979
1262.99	719.928
1266.63	749.066
1270.26	704.697
1273.9	623.588
1277.53	198.754
1281.16	233.65
1284.8	199.5
1288.42	343.117
1292.05	365.033
1295.68	560.729
1299.3	957.717
1302.92	432.562
1306.55	124.555
1310.16	395.83
1313.78	245.836
1317.4	368.49
1321.01	168.219
1324.62	642.312
1328.24	701.4
