Measurement: Raman, 514 nm, ccw, Raman Data Processed
Mineral: Anorthite
Rruff sample: R040059
Ideal chemistry: CaAl_2_Si_2_O_8_
Locality: Miyakejima, Japan
Source: University of Arizona Mineral Museum
Description: Colorless fragments of crystals
Measured chemistry: (Ca_0.94_Na_0.04_Fe_0.02_)(Al_0.98_Si_0.02_)_2_Si_2.00_O_8_
Pin_id: L00179
Orientation: Laser parallel to (1 1 0). Fiducial mark perpendicular to laser is parallel to -c [0 0 -1]
Raman shift (cm-1)	intensity
117.519	0
121.706	35.725
125.892	435.993
130.075	1727.72
134.256	2594
138.435	4176.05
142.611	6091.32
146.786	5042.39
150.958	2660.24
155.128	1170.18
159.296	496.258
163.462	435.161
167.625	846.161
171.786	1800.26
175.946	2519.08
180.103	3706.86
184.258	5336.71
188.41	6937.98
192.561	7362.93
196.709	6862.29
200.856	6106.78
205	4607.68
209.142	3437.46
213.281	2196.29
217.419	1841.57
221.554	1590.49
225.688	727.33
229.819	839.086
233.948	1427.5
238.075	2127.96
242.2	2982.46
246.322	3973.51
250.443	4203.55
254.561	4219.79
258.677	4224.63
262.791	4078.43
266.903	3831.45
271.013	3933.69
275.121	4045.19
279.226	4345.96
283.33	4099.58
287.431	3270.3
291.53	2536.36
295.627	1684.74
299.722	924.48
303.815	454.976
307.906	255.825
311.995	116.723
316.081	197.387
320.166	287.656
324.248	497.423
328.328	266.617
332.406	15.029
336.482	47.314
340.556	230.291
344.628	284.816
348.697	421.537
352.765	320.278
356.83	252.24
360.894	16.737
364.955	233.156
369.014	538.711
373.071	583.492
377.126	337.494
381.179	240.504
385.23	232.609
389.279	743.57
393.325	1042.84
397.37	1948.45
401.413	2551.06
405.453	2511.63
409.491	1671.68
413.528	951.24
417.562	810.297
421.594	1758.96
425.624	2787.3
429.652	3385.32
433.678	3163.02
437.702	3900.4
441.724	3757.49
445.743	2934.27
449.761	2270.65
453.777	2216.57
457.79	2941.98
461.802	3066.86
465.811	3421.13
469.819	5033.15
473.824	7130.41
477.827	10628.3
481.829	16177.7
485.828	20768.4
489.825	17653.7
493.82	16021.3
497.813	22224.2
501.804	31967.2
505.793	31985.5
509.78	23858.5
513.765	17213
517.748	11641.5
521.729	9548.59
525.708	8539.56
529.685	6556.12
533.659	4503.48
537.632	3856.97
541.603	3929.38
545.571	5631.98
549.538	8366.4
553.503	11303.9
557.465	12941.3
561.426	11108.5
565.385	7965.46
569.341	5112.25
573.296	2898.85
577.248	1935.28
581.199	1441.53
585.147	1357.61
589.094	1243.51
593.038	1519.24
596.981	1574.81
600.922	1270.2
604.86	795.424
608.797	460.48
612.731	445.375
616.664	1230.11
620.594	2004.68
624.523	1699.11
628.449	823.396
632.374	477.605
636.296	471.752
640.217	356.404
644.135	330.322
648.052	64.826
651.967	218.709
655.879	80.758
659.79	56.814
663.698	268.678
667.605	318.506
671.51	883.377
675.413	2250.08
679.313	3146.38
683.212	2932.23
687.109	1871.74
691.004	1384.62
694.897	920.49
698.788	867.826
702.677	474.135
706.564	309.883
710.449	574.908
714.332	529.725
718.213	644.336
722.092	728.744
725.969	712.951
729.844	1206.96
733.718	1510.77
737.589	2474.38
741.458	3017.8
745.326	2571.03
749.191	2244.07
753.055	2636.92
756.916	3489.59
760.776	3942.08
764.634	3934.4
768.489	3676.54
772.343	2698.51
776.195	2010.31
780.045	1461.95
783.893	1013.42
787.739	344.73
791.583	474.43
795.425	515.367
799.266	246.203
803.104	76.439
806.94	255.4
810.775	67.15
814.608	21.699
818.438	319.512
822.267	185.781
826.094	117.902
829.919	212.287
833.742	57.375
837.563	142.922
841.382	123.928
845.199	253.4
849.014	4.287
852.828	67.836
856.639	19.717
860.449	601.422
864.257	643.088
868.062	674.74
871.866	696.33
875.668	537.846
879.468	769.303
883.267	1760.71
887.063	2422.07
890.857	2653.46
894.65	2804.85
898.44	2986.38
902.229	3387.98
906.016	3579.59
909.801	3711.23
913.584	3382.89
917.365	2664.59
921.144	2626.34
924.922	3008.15
928.697	3410.03
932.471	3701.99
936.242	3994.02
940.012	4336.12
943.78	4218.34
947.546	5390.1
951.311	5972.46
955.073	6513.34
958.834	5594.23
962.592	5424.38
966.349	5451.75
970.104	6198.61
973.857	7607.22
977.608	7702.41
981.357	6850.19
985.105	6054.82
988.85	4765.1
992.594	4598.43
996.336	4565.98
1000.08	4470.47
1003.81	4726.2
1007.55	4061.8
1011.28	3548.64
1015.02	3256.05
1018.75	3235.14
1022.48	3473.27
1026.2	3181.8
1029.93	2701.3
1033.65	2520.64
1037.37	2055.7
1041.09	2615.9
1044.81	2666.9
1048.53	3368.18
1052.24	3499.85
1055.95	2912.86
1059.66	2456.07
1063.37	2070.6
1067.08	2064.51
1070.79	2749.02
1074.49	2665.58
1078.19	2911.03
1081.89	2296.22
1085.59	1852.06
1089.28	1367.98
1092.98	1399.7
1096.67	1127.76
1100.36	1345.17
1104.05	1592.59
1107.73	1182.19
1111.42	824.215
1115.1	656.543
1118.78	1210.91
1122.46	1446.99
1126.14	1424.72
1129.82	1704.5
1133.49	1525.17
1137.16	1246.68
1140.83	768.973
1144.5	72.082
1148.17	16
1151.83	760.539
1155.5	975.332
1159.16	710.848
1162.82	717.145
1166.47	364.215
1170.13	172.059
1173.79	39.223
1177.44	350.246
1181.09	480.527
1184.74	741.77
1188.38	594.758
1192.03	379.488
1195.67	165.805
1199.31	6.324
1202.95	43.168
1206.59	194.383
1210.23	297.543
1213.86	748.379
1217.5	1003.58
1221.13	801.883
1224.76	305.543
1228.38	206.773
1232.01	433.43
1235.63	261.48
1239.26	529.203
1242.88	959.711
1246.49	964.988
1250.11	892.223
1253.73	352.059
