Measurement: Raman, 514 nm, ccw, Raman Data Processed
Mineral: Anorthite
Rruff sample: R050104
Ideal chemistry: CaAl_2_Si_2_O_8_
Locality: unknown
Source: Rock Currier
Description: Iridescent slab, labradorite/andesine
Measured chemistry: Ca_0.50_Na_0.47_K_0.03_Al_1.50_Si_2.50_O_8_
Pin_id: L00084
Orientation: Laser parallel to -c* (0 0 -1). Fiducial mark perpendicular to laser is parallel to a [1 0 0]
Raman shift (cm-1)	intensity
121.897	0
126.063	148.341
130.228	154.73
134.39	223.202
138.55	1179.28
142.709	2340.94
146.865	3644.79
151.019	4869.5
155.171	5952.93
159.322	7122.43
163.47	9048.28
167.617	11867.6
171.761	15055.9
175.904	16844.1
180.044	17130.7
184.183	16054.2
188.319	14279.5
192.454	12462.6
196.586	11524.7
200.717	10619.3
204.846	9796.68
208.972	8090.27
213.097	6097
217.22	4260.91
221.341	2317.8
225.46	1330.72
229.577	998.74
233.692	688.826
237.805	935.415
241.916	1506.27
246.025	2165.38
250.132	2722.54
254.237	3189.31
258.34	3874.8
262.442	4793.2
266.541	5827.58
270.639	6972.01
274.734	8869.31
278.828	10727.6
282.919	11699
287.009	11520.8
291.097	9924.74
295.183	7830.49
299.266	5110.83
303.348	3296.77
307.428	2451.38
311.507	1657.96
315.583	957.081
319.657	618.403
323.729	434.589
327.8	373.382
331.868	197.646
335.935	218.233
339.999	128.083
344.062	55.002
348.123	143.4
352.182	313.7
356.239	347.105
360.294	255.913
364.347	14.975
368.398	427.161
372.448	40.571
376.495	142.198
380.54	112.418
384.584	471.312
388.626	677.955
392.666	1116.25
396.704	1329.07
400.74	1690.53
404.774	1966.6
408.806	2293.99
412.836	1753.36
416.865	1188.07
420.891	973.882
424.916	1278.96
428.939	1324.06
432.959	1547.6
436.978	2081.65
440.996	2618.2
445.011	2918.06
449.024	2801.68
453.036	2827.1
457.045	3612.12
461.053	4499.95
465.059	5798.82
469.063	7889.03
473.065	11684
477.065	15733.7
481.063	16304.1
485.06	14003.2
489.054	11634.3
493.047	12264.2
497.038	16631.8
501.027	24333
505.014	31551.6
508.999	34638.7
512.982	30645.1
516.964	21228.4
520.944	13842.4
524.921	8832.09
528.897	5726.4
532.871	4039.22
536.844	2931.68
540.814	2630.83
544.783	2884.85
548.749	2712.72
552.714	2802.91
556.677	2697.35
560.638	3500.49
564.597	4558.07
568.555	4320.02
572.511	3198.44
576.464	1667.27
580.416	1130.61
584.366	647.17
588.315	572.072
592.261	455.281
596.206	187.76
600.148	162.469
604.089	140.363
608.028	39.574
611.965	252.557
615.901	0.064
619.834	65.615
623.766	52.123
627.696	127.74
631.624	56.613
635.551	115.744
639.475	455.17
643.398	387.951
647.318	50.879
651.237	393.592
655.155	224.682
659.07	364.168
662.984	301.252
666.895	112.141
670.805	436.768
674.713	596.66
678.62	727.352
682.524	799.936
686.427	658.49
690.328	505.855
694.227	671.006
698.124	668.219
702.02	891.289
705.913	903.215
709.805	639.68
713.695	751.137
717.584	1489.31
721.47	1288.36
725.355	1262.33
729.238	1098.01
733.119	1410.75
736.998	1819.31
740.876	2341.06
744.752	2452.65
748.626	2435.36
752.498	2576.07
756.368	2702.45
760.237	3041.69
764.104	3051.21
767.969	2927.31
771.832	2836.19
775.693	3093.25
779.553	3107.23
783.411	3025.85
787.267	2985.62
791.122	3350.89
794.974	3515.86
798.825	3254.66
802.674	2771.32
806.522	2111.14
810.367	1664.29
814.211	1080.68
818.053	539.766
821.893	575.309
825.732	486.201
829.568	13.975
833.403	119.375
837.236	80.209
841.068	114.996
844.898	124.223
848.726	63.605
852.552	369.771
856.376	28.201
860.199	231.328
864.02	194.18
867.839	387.922
871.656	148.973
875.472	33.562
879.286	186.557
883.098	83.814
886.909	334.877
890.717	544.646
894.524	437.186
898.33	573.52
902.133	620.783
905.935	991.914
909.735	1395.99
913.533	1720.12
917.33	1643.28
921.124	1586.64
924.918	1597.21
928.709	1639.9
932.499	1897.69
936.286	2181.49
940.073	1883.26
943.857	2231.02
947.64	2441.54
951.421	2405.44
955.2	3397.03
958.978	3189.52
962.753	3067.91
966.527	3329.22
970.3	3685.47
974.071	4146.65
977.84	4431.14
981.607	4851.38
985.372	4677.38
989.136	4272.54
992.898	3564.19
996.659	3480.54
1000.42	3484.02
1004.17	3354.22
1007.93	3377.44
1011.68	3243.35
1015.43	3086.23
1019.18	2958.21
1022.93	2888.41
1026.68	2817.99
1030.42	3097.56
1034.17	3033.75
1037.91	3374.4
1041.65	3079.18
1045.39	3038.64
1049.12	3089.6
1052.86	2935.62
1056.59	3202.16
1060.33	3318.41
1064.06	2947.25
1067.78	3299.01
1071.51	2613.88
1075.23	2790.06
1078.96	2894.36
1082.68	2898.09
1086.4	2755.38
1090.12	3095.56
1093.83	2870.32
1097.55	2461.7
1101.26	2192.03
1104.97	2245.43
1108.68	2303.88
1112.39	2189.43
1116.1	1987.56
1119.8	1874.68
1123.5	1183.06
1127.2	1120
1130.9	774.066
1134.6	1060.95
1138.3	830.219
1141.99	689.715
1145.69	1115
1149.38	1002.77
1153.07	772.953
1156.76	431.234
1160.44	495.891
1164.13	497.078
1167.81	832.922
1171.49	939.453
1175.17	839.262
1178.85	582.801
1182.52	154.293
1186.2	140.809
1189.87	75.27
1193.54	7.445
1197.21	443.695
1200.88	628.953
1204.55	492.773
1208.21	330.684
1211.88	85.727
1215.54	288.957
1219.2	286.211
1222.86	313.414
1226.51	384.121
1230.17	301.34
1233.82	459.496
1237.47	510.426
1241.12	242.699
