Measurement: Raman, 514 nm, ccw, Raman Data Processed
Mineral: Anorthite
Rruff sample: R040059
Ideal chemistry: CaAl_2_Si_2_O_8_
Locality: Miyakejima, Japan
Source: University of Arizona Mineral Museum
Description: Colorless fragments of crystals
Measured chemistry: (Ca_0.94_Na_0.04_Fe_0.02_)(Al_0.98_Si_0.02_)_2_Si_2.00_O_8_
Pin_id: L00163
Orientation: Laser parallel to (0 -1 -1). Fiducial mark perpendicular to laser is parallel to -a [-1 0 0]
Raman shift (cm-1)	intensity
103.545	0
107.74	761.771
111.932	1676.87
116.123	1498.48
120.311	482.394
124.497	839.232
128.681	1941.64
132.862	3308.05
137.042	4345.89
141.219	5891.83
145.394	5309.18
149.567	2393.68
153.738	472.954
157.907	215.732
162.073	615.037
166.237	1487.89
170.4	3391.95
174.559	5121.92
178.717	7287.65
182.873	9259.77
187.026	9178.72
191.178	8014.46
195.327	6228.31
199.474	4931.13
203.618	4213.35
207.761	3285.19
211.902	1936.76
216.04	838.109
220.176	7.02
224.31	77.662
228.442	446.146
232.572	1364.88
236.7	2516.24
240.825	4047.4
244.948	5598.76
249.07	6590.06
253.189	6751.05
257.306	5871.66
261.42	5381.88
265.533	6231.71
269.643	7098.52
273.752	7342.86
277.858	8515.84
281.962	8993.12
286.064	8133.23
290.164	6105.43
294.262	3959.23
298.358	2164.32
302.451	1330.25
306.543	856.623
310.632	793.192
314.719	669.904
318.804	906.789
322.887	1133.73
326.968	290.46
331.047	223.464
335.124	308.876
339.198	35.942
343.271	24.14
347.341	43.509
351.409	444.319
355.475	306.877
359.539	229.085
363.601	1124.32
367.661	1539.02
371.719	1363.18
375.775	1256.8
379.828	1489.88
383.88	1231.06
387.929	1428.45
391.977	2594.78
396.022	3798.33
400.065	4761.18
404.106	4683.73
408.146	3955.95
412.182	2467.85
416.217	1849.42
420.25	2630.66
424.281	5562.62
428.31	5304.33
432.336	3936.21
436.361	3107.89
440.383	2329.78
444.404	1620.63
448.422	996.041
452.438	871.021
456.453	1180.1
460.465	1520.46
464.475	1276.93
468.483	1575.88
472.489	2400.56
476.493	3765.69
480.495	6121.61
484.495	8555.6
488.493	8299.84
492.489	8559.41
496.482	13026.5
500.474	20563.6
504.464	22032.3
508.451	16427.2
512.437	12486.7
516.421	8437.19
520.402	5212.9
524.382	3741.2
528.359	3049.59
532.335	2237.59
536.308	1605.34
540.279	1772.69
544.249	2099.72
548.216	3496.37
552.181	5302.61
556.145	5988.84
560.106	5184.27
564.065	3769.3
568.023	2443.93
571.978	1238.14
575.931	791.945
579.882	505.336
583.831	458.301
587.779	540.818
591.724	262.875
595.667	274.469
599.608	255.6
603.547	236.26
607.485	13.605
611.42	174.33
615.353	96.152
619.284	80.953
623.213	477.307
627.141	193.074
631.066	21.764
634.989	287.314
638.91	346.025
642.829	289.68
646.747	280.811
650.662	236.885
654.575	5.17
658.486	490.744
662.396	901.846
666.303	1098.18
670.209	1816.05
674.112	2894.75
678.013	4621.88
681.913	4572.11
685.81	3247.66
689.706	2319.2
693.599	1471.07
697.491	1284.87
701.38	1265.85
705.268	1064.4
709.154	376.391
713.037	747.99
716.919	1271.03
720.799	1121.87
724.677	1222.34
728.553	1152.44
732.427	1882.19
736.299	2781.58
740.169	3549.57
744.037	3317.15
747.903	2653.08
751.767	2719.53
755.629	3924.99
759.49	5220.76
763.348	5236.09
767.204	4276.2
771.059	3326.4
774.911	2488.36
778.762	1796.63
782.611	1138.47
786.457	929.707
790.302	338.062
794.145	423.477
797.986	757.566
801.825	480.646
805.662	133.715
809.497	156.469
813.33	146.826
817.162	295.791
820.991	22.115
824.818	219.475
828.644	60.564
832.468	318.678
836.289	58.691
840.109	10.871
843.927	249.998
847.743	288.551
851.557	133.275
855.369	105.529
859.179	101.957
862.988	229.055
866.794	286.5
870.599	463.857
874.401	571.166
878.202	218.443
882.001	385.822
885.798	1133.26
889.593	1200.69
893.386	1488.19
897.177	1445.74
900.966	1673.4
904.754	2351.25
908.539	2689.16
912.323	3017.15
916.105	2575.32
919.885	1683.84
923.663	1452.8
927.439	1912.13
931.213	2401.76
934.985	2891.66
938.756	2541.84
942.525	2442.37
946.291	2913.33
950.056	4693.63
953.819	5386.22
957.58	5253.77
961.339	4398
965.097	3980.98
968.852	4206.72
972.606	5022.99
976.358	5665.11
980.108	5723.91
983.856	4514.16
987.602	3688.8
991.346	2715.55
995.089	2192.77
998.829	2279.12
1002.57	2515.31
1006.3	1994.6
1010.04	1558.23
1013.77	1334.54
1017.5	841.268
1021.23	928.77
1024.96	1256.23
1028.69	1414.04
1032.41	1267.56
1036.13	1016.12
1039.85	619.645
1043.57	799.316
1047.29	849.074
1051	1803.37
1054.72	1473.97
1058.43	1095
1062.14	1206.48
1065.84	1106.83
1069.55	1498.77
1073.25	1251.07
1076.95	1616.86
1080.66	1969.48
1084.35	1593.72
1088.05	1408.46
1091.74	433.637
1095.44	309.18
1099.13	435.16
1102.82	771.445
1106.51	1378.27
1110.19	705.633
1113.87	333.176
1117.56	301.527
1121.24	350.535
1124.91	640.234
1128.59	680.238
1132.27	930.844
1135.94	902.156
1139.61	1074.1
1143.28	753.914
1146.95	593.566
1150.61	412.734
1154.28	414.551
1157.94	617.57
1161.6	769.578
1165.26	934.391
1168.91	496.699
