Measurement: Raman, 514 nm, ccw, Raman Data Processed
Mineral: Anorthite
Rruff sample: R050104
Ideal chemistry: CaAl_2_Si_2_O_8_
Locality: unknown
Source: Rock Currier
Description: Iridescent slab, labradorite/andesine
Measured chemistry: Ca_0.50_Na_0.47_K_0.03_Al_1.50_Si_2.50_O_8_
Pin_id: L00412
Orientation: Laser parallel to (-1 -1 0). Fiducial mark perpendicular to laser is parallel to c [0 0 1]
Raman shift (cm-1)	intensity
134.39	0
138.55	89.165
142.709	64.01
146.865	195.672
151.019	235.465
155.171	675.169
159.322	793.062
163.47	1251.63
167.617	2031.88
171.761	2939.83
175.904	4001.13
180.044	4669.64
184.183	5183.73
188.319	4800.43
192.454	4507.43
196.586	4482.47
200.717	4375.1
204.846	3733.42
208.972	2601.95
213.097	1482.35
217.22	707.1
221.341	87.312
225.46	141.379
229.577	110.706
233.692	31.978
237.805	169.039
241.916	565.473
246.025	974.093
250.132	1340.55
254.237	1781.68
258.34	2218
262.442	2970.44
266.541	3508.85
270.639	4113.81
274.734	4795.18
278.828	5635.89
282.919	5880.31
287.009	5631
291.097	4862.46
295.183	3786.3
299.266	2264.63
303.348	1344.29
307.428	749.419
311.507	521.143
315.583	346.063
319.657	54.92
323.729	178.53
327.8	155.595
331.868	65.19
335.935	12.441
339.999	164.437
344.062	249.909
348.123	416.127
352.182	487.853
356.239	313.782
360.294	230.773
364.347	3.649
368.398	209.724
372.448	99.543
376.495	43.974
380.54	28.012
384.584	498.581
388.626	443.414
392.666	707.705
396.704	900.765
400.74	1377.91
404.774	2224.92
408.806	2516.66
412.836	1996.44
416.865	1333.4
420.891	1617.52
424.916	770.77
428.939	690.549
432.959	690.945
436.978	969.971
440.996	1256.15
445.011	1647.8
449.024	2077.82
453.036	2539.45
457.045	3504.59
461.053	5084.48
465.059	7069.78
469.063	10587
473.065	16404.4
477.065	23060.9
481.063	25123
485.06	21335.9
489.054	16617.2
493.047	15361
497.038	19348.3
501.027	27725.2
505.014	36676.5
508.999	41196.4
512.982	37951.3
516.964	28182.3
520.944	18329.2
524.921	12930.7
528.897	8930.62
532.871	6130.68
536.844	4185.29
540.814	3453.47
544.783	3329.62
548.749	3125.04
552.714	3200.01
556.677	3481.7
560.638	4446.43
564.597	5551.95
568.555	5365.18
572.511	4009.06
576.464	2356.59
580.416	1754.77
584.366	1083.6
588.315	750.665
592.261	474.333
596.206	452.112
600.148	411.535
604.089	418.579
608.028	81.231
611.965	31.442
615.901	88.195
619.834	21.472
623.766	126.21
627.696	119.456
631.624	186.299
635.551	257.791
639.475	272.972
643.398	217.854
647.318	24.534
651.237	19.833
655.155	79.079
659.07	39.651
662.984	44.01
666.895	140.456
670.805	104.963
674.713	227.819
678.62	422.985
682.524	490.782
686.427	583.397
690.328	594.152
694.227	771.168
698.124	862.186
702.02	945.466
705.913	1204.25
709.805	985.068
713.695	1165.43
717.584	1438.59
721.47	1481.26
725.355	1449.23
729.238	1346.75
733.119	1453.66
736.998	1838.17
740.876	2273.01
744.752	2367.42
748.626	2436.94
752.498	2435.92
756.368	2757.5
760.237	3096.81
764.104	3173.71
767.969	3357.27
771.832	3466.99
775.693	3531.64
779.553	3365.56
783.411	3063
787.267	2866.53
791.122	2806.24
794.974	2724.93
798.825	2492.14
802.674	2100.7
806.522	1574
810.367	1036.37
814.211	828.445
818.053	388.247
821.893	175.208
825.732	114.703
829.568	23.789
833.403	26.172
837.236	61.187
841.068	120.004
844.898	23.115
848.726	28.688
852.552	121.354
856.376	47.957
860.199	155.415
864.02	9.181
867.839	104.013
871.656	8.091
875.472	50.549
879.286	14.415
883.098	138.227
886.909	175.564
890.717	364.612
894.524	446.401
898.33	500.94
902.133	586.238
905.935	916.305
909.735	1113.16
913.533	1173.85
917.33	1380.46
921.124	1449
924.918	1398.44
928.709	1502.82
932.499	1776.12
936.286	2034.33
940.073	2159.43
943.857	2288.43
947.64	2176.35
951.421	2414.2
955.2	2475.05
958.978	2929.93
962.753	3193.8
966.527	3294.72
970.3	3774.68
974.071	4120.32
977.84	4464.11
981.607	4735.19
985.372	4693
989.136	4423.86
992.898	4172.56
996.659	4063.95
1000.42	3946.49
1004.17	3977.39
1007.93	4119.38
1011.68	4164.35
1015.43	4249.17
1019.18	4095.71
1022.93	3956.43
1026.68	4024.61
1030.42	4362.15
1034.17	3905.33
1037.91	4132.11
1041.65	3934.08
1045.39	3688.27
1049.12	3565.68
1052.86	3617.34
1056.59	3763.24
1060.33	3875.22
1064.06	3834.16
1067.78	3893.31
1071.51	3750.54
1075.23	3694.11
1078.96	3789.75
1082.68	3901.72
1086.4	3724.27
1090.12	3825.93
1093.83	3586.96
1097.55	3352.36
1101.26	3028.15
1104.97	2992.41
1108.68	3025.43
1112.39	2916.51
1116.1	2659.94
1119.8	2483.35
1123.5	2255.98
1127.2	2047.1
1130.9	1623.76
1134.6	1709.99
1138.3	1597.35
1141.99	1412.29
1145.69	1362.24
1149.38	1300.66
1153.07	871.867
1156.76	688.627
1160.44	840.364
1164.13	616.344
1167.81	723.264
1171.49	742.441
1175.17	615.426
1178.85	590.086
1182.52	399.389
1186.2	332.355
1189.87	66.871
1193.54	73.699
1197.21	241.07
1200.88	235.121
1204.55	209.861
1208.21	89.281
1211.88	119.857
1215.54	15.293
1219.2	148.969
1222.86	57.146
1226.51	61.025
1230.17	28.863
1233.82	209.102
1237.47	247.156
1241.12	209.918
1244.77	237.82
1248.42	137.105
1252.06	16.822
1255.71	120.754
1259.35	284.465
1262.99	426.619
1266.63	558.732
1270.26	440.801
1273.9	413.963
1277.53	248.988
1281.16	4.449
1284.8	91.156
1288.42	83.213
1292.05	353.277
1295.68	347.422
1299.3	511.504
1302.92	314.416
1306.55	162.613
1310.16	21.527
