Measurement: Raman, 514 nm, ccw, Raman Data Processed
Mineral: Anorthite
Rruff sample: R050104
Ideal chemistry: CaAl_2_Si_2_O_8_
Locality: unknown
Source: Rock Currier
Description: Iridescent slab, labradorite/andesine
Measured chemistry: Ca_0.50_Na_0.47_K_0.03_Al_1.50_Si_2.50_O_8_
Pin_id: L00363
Orientation: Laser parallel to b* (0 1 0). Fiducial mark perpendicular to laser is parallel to c [0 0 1]
Raman shift (cm-1)	intensity
124.675	0
128.84	5.821
133.003	47.443
137.164	169.604
141.323	447.728
145.48	892.597
149.635	1173.53
153.788	1833.94
157.939	2934.36
162.088	4769.73
166.235	7541.15
170.38	10419.8
174.523	12889.8
178.664	14105.8
182.803	13219.9
186.94	10895.4
191.076	8778.57
195.209	7094.88
199.34	6072.63
203.47	5682.05
207.597	4899.32
211.722	3885.36
215.846	2614.68
219.967	1372.71
224.087	620.647
228.204	176.09
232.32	0.309
236.434	21.257
240.545	157.065
244.655	482.044
248.763	946.555
252.869	1315.12
256.973	1730.94
261.075	2240.9
265.175	2970.92
269.273	3763.91
273.369	4857.76
277.463	6136.45
281.556	7200.02
285.646	7701.6
289.734	7056.74
293.821	5652.99
297.905	4090.91
301.988	2885.48
306.069	1903.61
310.147	1224.81
314.224	877.76
318.299	589.221
322.372	253.018
326.443	87.019
330.512	102.128
334.579	116.273
338.645	16.586
342.708	59.627
346.769	47.972
350.829	0.804
354.887	88.041
358.942	153.815
362.996	109.283
367.048	134.094
371.098	31.448
375.146	76.09
379.192	172.305
383.236	294.237
387.279	510.899
391.319	854.285
395.358	1141.28
399.394	1366.61
403.429	1474.11
407.462	1482.64
411.493	1478.77
415.522	1319.28
419.549	1297.58
423.575	1398.69
427.598	1572.59
431.619	1797.74
435.639	2006.18
439.657	2200.79
443.673	2255.52
447.687	2278.94
451.699	1974.37
455.709	1947.56
459.717	2139.64
463.724	2769.58
467.728	3911.84
471.731	5836.23
475.732	8297.55
479.731	9998.32
483.728	9242.9
487.723	7101.51
491.716	6183.55
495.708	7265.76
499.697	10828.7
503.685	15616.8
507.671	18885
511.655	18957.2
515.637	14922.5
519.617	9898.96
523.596	6558.48
527.572	4503.71
531.547	3079.32
535.52	2365.52
539.491	1755.06
543.46	1475.09
547.427	1592.03
551.393	1560.56
555.356	1651.84
559.318	1876.86
563.278	2343.7
567.236	2429.29
571.192	2136.61
575.147	1477.75
579.099	1104.56
583.05	516.002
586.999	278.11
590.946	180.829
594.891	30.126
598.834	33.941
602.776	54.23
606.715	2.042
610.653	27.062
614.589	128.951
618.523	2.238
622.456	62.597
626.386	18.803
630.315	37.126
634.242	63.525
638.167	152.814
642.09	120.891
646.012	217.88
649.931	119.42
653.849	208.52
657.765	135.198
661.679	126.633
665.592	278.179
669.502	205.473
673.411	422.469
677.318	415.905
681.223	512.841
685.126	521.388
689.028	543.4
692.927	370.666
696.825	441.219
700.721	467.112
704.616	500.198
708.508	616.223
712.399	614.353
716.288	435.724
720.175	616.493
724.06	616.273
727.944	776.05
731.825	777.138
735.705	884.283
739.584	1012.22
743.46	1026.92
747.334	1101.31
751.207	1140.78
755.078	1051.84
758.947	1116.44
762.815	1401.73
766.68	1500.53
770.544	1443.19
774.406	1419.02
778.267	1339.61
782.125	1267.03
785.982	1181.79
789.837	1397.91
793.69	1351.09
797.542	1309.06
801.391	1120.79
805.239	656.258
809.085	543.977
812.93	423.357
816.772	294.184
820.613	305.87
824.452	26.852
828.29	3.324
832.125	70.462
835.959	52.224
839.791	180.694
843.621	1.14
847.45	90.339
851.277	34.822
855.102	10.812
858.925	151.406
862.746	53.483
866.566	109.985
870.384	66.943
874.2	62.686
878.015	14.779
881.828	51.647
885.639	81.635
889.448	135.384
893.256	0.922
897.061	188.274
900.865	277.455
904.668	194.509
908.468	317.469
912.267	435.38
916.064	365.261
919.86	389.232
923.653	420.359
927.445	497.6
931.236	607.982
935.024	398.435
938.811	531.897
942.596	522.336
946.379	737.739
950.161	654.118
953.94	850.484
957.719	1020.87
961.495	1365.25
965.27	1514.62
969.043	1465.98
972.814	1845.97
976.583	1982.06
980.351	1887.46
984.117	1960.84
987.882	1808.83
991.644	1839.94
995.405	1661.68
999.165	1725.37
1002.92	1682.44
1006.68	1551.4
1010.43	1336.46
1014.18	1450.2
1017.93	1562.8
1021.68	1680.62
1025.43	1642.21
1029.18	1460.69
1032.92	1472.9
1036.66	1311.55
1040.4	1433.95
1044.14	1499.11
1047.88	1503.43
1051.62	1479.64
1055.35	1325.14
1059.08	1364.42
1062.81	1374.2
1066.54	1383.14
1070.27	1694.23
1073.99	1729.31
1077.72	1640.72
1081.44	1686.3
1085.16	1857.05
1088.88	1440.98
1092.59	1551.11
1096.31	1459.39
1100.02	1317.97
1103.73	1280
1107.44	1343.98
1111.15	1269.12
1114.86	1129.47
1118.57	972.034
1122.27	1084.44
1125.97	1135.59
1129.67	834.249
1133.37	664.862
1137.07	960.76
1140.76	789.565
1144.45	548.711
1148.15	662.45
1151.84	556.031
1155.53	641.976
1159.21	469.827
1162.9	557.512
1166.58	295.062
1170.26	421.444
1173.94	478.214
1177.62	277.353
1181.3	279.819
1184.97	394.612
1188.65	416.722
1192.32	92.156
1195.99	65.956
1199.66	83.114
1203.33	52.562
1206.99	410.193
1210.65	49.19
1214.32	184.535
1217.98	142.152
1221.64	257.101
1225.29	70.434
1228.95	98.271
1232.6	40.866
1236.26	35.17
1239.91	189.148
1243.56	259.816
1247.2	534.504
1250.85	355.344
1254.49	252.914
1258.13	404.27
1261.78	273.689
1265.41	4.402
1269.05	137.127
1272.69	185.799
1276.32	505.002
1279.95	296.949
1283.59	434.387
1287.21	66.781
1290.84	100.377
1294.47	67.73
1298.09	0.607
