Measurement: Raman, 514 nm, ccw, Raman Data Processed
Mineral: Anorthite
Rruff sample: R040059
Ideal chemistry: CaAl_2_Si_2_O_8_
Locality: Miyakejima, Japan
Source: University of Arizona Mineral Museum
Description: Colorless fragments of crystals
Measured chemistry: (Ca_0.94_Na_0.04_Fe_0.02_)(Al_0.98_Si_0.02_)_2_Si_2.00_O_8_
Pin_id: M00328
Orientation: Laser parallel to (-1 0 -1). Fiducial mark perpendicular to laser is parallel to -b [0 -1 0]
Raman shift (cm-1)	intensity
125.91	0
130.08	36.365
134.248	721.148
138.413	1960.61
142.577	4115.16
146.739	5714.11
150.898	3904.95
155.056	1434.31
159.212	756.799
163.365	1328.04
167.517	2294.05
171.666	3433.01
175.813	5209.83
179.959	7786.89
184.102	10343.1
188.244	10808.9
192.383	10233.4
196.52	7983.76
200.656	4990.58
204.789	3404.36
208.92	2465.5
213.049	1594.42
217.176	821.028
221.302	376.696
225.425	269.758
229.546	86.673
233.665	25.112
237.782	745.174
241.898	1462.76
246.011	1748.76
250.122	2142.66
254.231	2432.16
258.338	2791.23
262.443	2690.16
266.546	2948.93
270.647	3267.44
274.747	3435.62
278.844	3823.45
282.939	4280.96
287.032	4468.14
291.123	3315.32
295.212	1983.89
299.3	1068.01
303.385	404.7
307.468	97.089
311.549	11.842
315.629	71.138
319.706	640.777
323.781	740.583
327.855	490.333
331.926	229.918
335.995	39.266
340.063	61.769
344.128	203.559
348.192	83.869
352.253	39.462
356.313	123.76
360.37	119.019
364.426	75.38
368.479	77.234
372.531	29.195
376.581	440.622
380.629	1101.53
384.674	791.277
388.718	550.342
392.76	466.396
396.8	900.907
400.838	1137.5
404.874	1362.73
408.908	1076.42
412.94	1058.87
416.97	840.984
420.999	892.92
425.025	1654.67
429.049	2436.24
433.072	2237.63
437.092	2008.83
441.111	1539.85
445.127	1100.69
449.142	931.342
453.155	991.821
457.166	1413.34
461.175	1975.59
465.181	2175.66
469.186	2914.54
473.19	3748.63
477.191	6011.59
481.19	9588.03
485.187	14548.4
489.183	13916.8
493.176	11874.2
497.168	15408.9
501.157	24994.3
505.145	29454.5
509.131	21997.6
513.115	14748.8
517.097	10592.3
521.077	9168.23
525.055	8687.35
529.031	6906.78
533.006	4758.02
536.978	3184.17
540.949	2290.46
544.917	2256.48
548.884	3192.24
552.849	4858.07
556.812	6193.38
560.773	6038.44
564.732	4663.38
568.689	3627.97
572.644	2032.35
576.598	1056.52
580.55	580.475
584.499	674.221
588.447	1117.75
592.393	1431.07
596.337	1394.17
600.279	1577.06
604.219	1069.72
608.158	722.158
612.094	244.375
616.029	23.658
619.962	177.994
623.892	679.414
627.821	760.688
631.749	151.971
635.674	256.5
639.597	64.006
643.519	195.355
647.438	414.102
651.356	406.119
655.272	96.975
659.186	160.475
663.098	84.438
667.009	602.062
670.917	584.67
674.824	1105.22
678.728	2223.38
682.631	2654.54
686.532	2116.74
690.432	1436.48
694.329	926.227
698.224	636.461
702.118	884.82
706.01	742.713
709.9	610.246
713.788	507.58
717.674	634.471
721.558	531.043
725.441	627.301
729.322	653.244
733.201	1048.88
737.078	1504.2
740.953	2139.22
744.826	2343.94
748.698	1958.37
752.567	1622.5
756.435	2006.34
760.301	2809.89
764.165	3373.16
768.028	3106.11
771.888	2415.43
775.747	1717.57
779.604	1129.73
783.459	1121.63
787.312	752.873
791.164	438.148
795.013	86.982
798.861	73.969
802.707	115.816
806.551	154.959
810.394	55.311
814.234	441.477
818.073	169.918
821.91	32.631
825.745	232.459
829.578	117.041
833.41	29.102
837.24	165.893
841.068	143.295
844.894	208.82
848.718	280.732
852.54	382.416
856.361	133.908
860.18	345.244
863.997	436.113
867.812	567.168
871.626	418.141
875.438	888.871
879.248	689.613
883.056	500.248
886.862	1040.83
890.667	1331.53
894.469	1582.28
898.27	1603.1
902.07	1374.02
905.867	1744.93
909.663	2295.8
913.457	2247.09
917.249	2147.48
921.039	2158.31
924.827	1729.17
928.614	1950.07
932.399	2251.03
936.182	3162.01
939.964	4043.03
943.744	3823.98
947.521	3814.49
951.298	4126.99
955.072	4537.95
958.845	4737.56
962.615	4531.57
966.384	4756.67
970.152	5490.78
973.917	6113.72
977.681	6747.26
981.443	6648.21
985.203	5709.18
988.962	4532.5
992.719	3775.21
996.474	3449.18
1000.23	3832.92
1003.98	3766.11
1007.73	3501.17
1011.48	3207.4
1015.22	3043.6
1018.97	2823.8
1022.71	2540.6
1026.45	2137.67
1030.19	2025.09
1033.93	2062.79
1037.66	2195.1
1041.4	2035.71
1045.13	1885.79
1048.86	1906.77
1052.59	1909.09
1056.32	2299.39
1060.04	1959.74
1063.77	1961.39
1067.49	1763.02
1071.21	1434.76
1074.93	1647.16
1078.64	1492.6
1082.36	1655.28
1086.07	1798.04
1089.78	1281.88
1093.49	1065.24
1097.2	708.713
1100.91	332.426
1104.61	397.326
1108.32	548.357
1112.02	973.777
1115.72	819.242
1119.41	715.289
1123.11	551.783
1126.8	478.699
1130.5	326.119
1134.19	584.891
1137.88	631.02
1141.56	551.186
1145.25	691.127
1148.93	181.658
1152.62	40.848
1156.3	37.158
1159.98	318.877
1163.65	223.471
1167.33	432.707
1171	352.371
1174.68	297.986
1178.35	78.137
1182.02	131.721
1185.68	422.266
1189.35	63.637
1193.01	280.006
1196.67	475.547
1200.33	490.404
1203.99	279.611
1207.65	43.191
1211.31	22.654
1214.96	71.863
1218.61	39.91
1222.26	553.717
1225.91	609.578
1229.56	611.328
1233.2	600.957
1236.85	510.469
1240.49	306.805
1244.13	301.258
1247.77	246.795
1251.4	651.908
1255.04	746.688
1258.67	890.695
1262.3	516.01
1265.93	739.232
1269.56	771.975
1273.19	473.846
1276.82	155.889
1280.44	339.082
1284.06	479.932
1287.68	509.99
1291.3	948.895
1294.92	737.129
1298.53	334.328
1302.14	210.115
1305.76	104.752
1309.37	419.463
1312.98	399.334
1316.58	662.426
1320.19	904.867
1323.79	876.609
1327.39	663.426
1330.99	391.576
1334.59	169.018
1338.19	1.523
1341.79	35.289
1345.38	279.332
1348.97	65.721
1352.56	311.434
1356.15	935.684
1359.74	790.238
1363.32	1046.94
1366.91	912.391
1370.49	193.051
1374.07	56.596
1377.65	26.182
1381.23	241.838
1384.8	757.664
1388.38	755.314
1391.95	1089.36
1395.52	1343.3
1399.09	1315.54
1402.66	898.562
1406.22	524.057
1409.79	451.42
1413.35	464.055
1416.91	347.455
1420.47	253.805
1424.03	785.686
1427.59	670.803
1431.14	1081.69
1434.69	1055.96
1438.24	1233.71
1441.8	1813.48
1445.34	1514.88
1448.89	1089.81
1452.43	1217.95
1455.98	1034.31
1459.52	1416.17
1463.06	1313.82
1466.6	1164.27
1470.14	1570.89
1473.67	1774.46
1477.2	1801.46
1480.74	1251.59
1484.27	945.895
1487.8	641.523
1491.32	477.598
1494.85	405.316
1498.37	146.887
1501.9	37.211
1505.42	463.285
1508.94	780.922
1512.45	730.156
1515.97	507.711
