Measurement: Raman, 514 nm, ccw, Raman Data Processed
Mineral: Anorthite
Rruff sample: R040059
Ideal chemistry: CaAl_2_Si_2_O_8_
Locality: Miyakejima, Japan
Source: University of Arizona Mineral Museum
Description: Colorless fragments of crystals
Measured chemistry: (Ca_0.94_Na_0.04_Fe_0.02_)(Al_0.98_Si_0.02_)_2_Si_2.00_O_8_
Pin_id: L00163
Orientation: Laser parallel to (0 -1 -1). Fiducial mark perpendicular to laser is parallel to -a [-1 0 0]
Raman shift (cm-1)	intensity
121.706	0
125.892	171.869
130.075	577.201
134.256	2066.05
138.435	4855.52
142.611	8283.67
146.786	7423.52
150.958	3950.92
155.128	2146.07
159.296	1926.43
163.462	2656.48
167.625	4009.12
171.786	5357.44
175.946	7634.45
180.103	10735.4
184.258	13174.2
188.41	12933.4
192.561	10622.8
196.709	7912.15
200.856	4892.23
205	2981.31
209.142	1521.57
213.281	803.089
217.419	394.27
221.554	245.98
225.688	386.174
229.819	23.854
233.948	587.432
238.075	1208.9
242.2	2091.93
246.322	2924.71
250.443	2597.57
254.561	3100.61
258.677	3700.91
262.791	3860.3
266.903	4080.24
271.013	4431.34
275.121	4580.36
279.226	5043.67
283.33	5235.53
287.431	4710.03
291.53	3868.19
295.627	2201.07
299.722	696.203
303.815	82.358
307.906	71.111
311.995	54.831
316.081	120.855
320.166	1036.29
324.248	1101.36
328.328	456.131
332.406	49.366
336.482	65.677
340.556	143.68
344.628	241.692
348.697	369.908
352.765	488.313
356.83	376.902
360.894	65.67
364.955	94.604
369.014	523.718
373.071	963.008
377.126	1452.46
381.179	1611.09
385.23	1110.98
389.279	897.646
393.325	831.504
397.37	955.594
401.413	1014.02
405.453	1062.6
409.491	741.324
413.528	0.197
417.562	30.784
421.594	938.39
425.624	1917.75
429.652	1567.3
433.678	1267.01
437.702	1076.87
441.724	736.892
445.743	37.056
449.761	2.661
453.777	588.78
457.79	1352.43
461.802	1376.37
465.811	1548.45
469.819	2841.58
473.824	5014.01
477.827	8109.95
481.829	13104.9
485.828	16601.8
489.825	14932.6
493.82	16509.7
497.813	25670.7
501.804	37873.1
505.793	36075.1
509.78	24426.3
513.765	16127.6
517.748	11879.2
521.729	11860
525.708	11741.4
529.685	8013.14
533.659	4614.96
537.632	3136.83
541.603	2478.63
545.571	2930.62
549.538	3963.31
553.503	5126.72
557.465	6320.23
561.426	5733.65
565.385	3996.95
569.341	2330.14
573.296	1213.15
577.248	805.551
581.199	638.34
585.147	630.981
589.094	623.467
593.038	1185.79
596.981	1927.93
600.922	1689.9
604.86	781.676
608.797	132.738
612.731	54.102
616.664	205.111
620.594	165.623
624.523	34.356
628.449	184.629
632.374	245.038
636.296	144.604
640.217	213.445
644.135	96.656
648.052	148.629
651.967	142.779
655.879	280.461
659.79	337.285
663.698	363.439
667.605	805.697
671.51	1513.64
675.413	2987.23
679.313	3578.89
683.212	3070.55
687.109	2280.89
691.004	1967.79
694.897	1621.7
698.788	1389.83
702.677	852.172
706.564	843.707
710.449	1124.75
714.332	1125.36
718.213	795.982
722.092	905.719
725.969	905.014
729.844	1163.87
733.718	1662.3
737.589	2220.28
741.458	2557.84
745.326	2214.95
749.191	1961.62
753.055	2177.86
756.916	2323.67
760.776	2479.05
764.634	2283.68
768.489	2316.78
772.343	2088.23
776.195	1588.14
780.045	1086.02
783.893	483.623
787.739	369.561
791.583	450.25
795.425	497.211
799.266	250.959
803.104	179.463
806.94	201.635
810.775	28.68
814.608	262.891
818.438	238.422
822.267	65.689
826.094	60.658
829.919	86.305
833.742	17.404
837.563	170.525
841.382	233.15
845.199	115.141
849.014	26.719
852.828	207.949
856.639	338.824
860.449	342.045
864.257	339.826
868.062	129.977
871.866	299.916
875.668	399.66
879.468	639.209
883.267	778.582
887.063	797.787
890.857	786.869
894.65	885.869
898.44	1114.75
902.229	1663.59
906.016	1962.35
909.801	1941.03
913.584	1909.59
917.365	1587.97
921.144	1856.19
924.922	2444.37
928.697	3052.49
932.471	3770.64
936.242	4298.77
940.012	4896.86
943.78	4724.86
947.546	5112.68
951.311	5155.2
955.073	5224.13
958.834	4624.37
962.592	4896.69
966.349	5397.04
970.104	6925.8
973.857	8271.31
977.608	8058.41
981.357	6677.73
985.105	5626.8
988.85	4640.19
992.594	4163.87
996.336	4170.05
1000.08	4470.17
1003.81	3816.2
1007.55	2787.28
1011.28	2218.8
1015.02	2160.72
1018.75	2752.58
1022.48	2606.95
1026.2	2330.12
1029.93	1673.79
1033.65	1627.96
1037.37	1212.79
1041.09	1864.18
1044.81	1820.35
1048.53	2017.27
1052.24	1690.88
1055.95	1328.89
1059.66	1013.43
1063.37	1124.87
1067.08	1234.68
1070.79	1734.6
1074.49	1624.62
1078.19	1264.76
1081.89	1035.27
1085.59	697.191
1089.28	480.658
1092.98	975.619
1096.67	951.971
1100.36	1629.56
1104.05	688.352
1107.73	218.01
1111.42	1.625
1115.1	149.342
1118.78	840.855
1122.46	1052.95
1126.14	875.441
1129.82	968.201
1133.49	651.059
1137.16	404.584
1140.83	149.445
1144.5	74.086
1148.17	264.168
1151.83	864.18
1155.5	715.881
1159.16	519.254
1162.82	394.277
1166.47	68.609
1170.13	170.854
1173.79	193.26
1177.44	554.297
1181.09	553.07
1184.74	736.387
1188.38	372.857
1192.03	334.926
1195.67	25.824
1199.31	123.424
1202.95	372.02
1206.59	287.043
