Measurement: Raman, 514 nm, ccw, Raman Data Processed
Mineral: Anorthite
Rruff sample: R040059
Ideal chemistry: CaAl_2_Si_2_O_8_
Locality: Miyakejima, Japan
Source: University of Arizona Mineral Museum
Description: Colorless fragments of crystals
Measured chemistry: (Ca_0.94_Na_0.04_Fe_0.02_)(Al_0.98_Si_0.02_)_2_Si_2.00_O_8_
Pin_id: M00124
Orientation: Laser parallel to a* (1 0 0). Fiducial mark perpendicular to laser is parallel to b [0 1 0]
Raman shift (cm-1)	intensity
123.129	0
127.3	116.776
131.469	791.006
135.636	1513.95
139.801	2800.57
143.964	4474.67
148.125	4434.01
152.284	2484.42
156.441	1463.47
160.596	643.939
164.749	266.362
168.9	511.935
173.049	639.736
177.195	934.479
181.34	1304.29
185.483	2672.67
189.624	4316.65
193.762	5605.28
197.899	5288.7
202.034	4367.63
206.166	3132.61
210.297	1585.74
214.425	680.262
218.552	291.931
222.676	105.826
226.799	225.188
230.919	103.934
235.038	369.15
239.154	885.469
243.269	1665.57
247.381	2245.2
251.492	2549.81
255.6	2592.45
259.707	2681.06
263.811	2794.14
267.914	2646.54
272.014	2500.77
276.113	2351.82
280.209	2652.27
284.304	2682.14
288.396	2189.91
292.487	1633.48
296.575	1269.18
300.662	485.146
304.746	50.754
308.829	45.571
312.909	100.748
316.988	48.771
321.065	291.575
325.139	340.628
329.212	168.506
333.283	205.245
337.351	70.814
341.418	76.546
345.483	86.34
349.546	117.438
353.606	89.886
357.665	43.54
361.722	28.234
365.777	136.1
369.83	319.698
373.881	412.648
377.93	624.907
381.977	494.588
386.023	299.155
390.066	421.283
394.107	886.32
398.146	1431.31
402.184	1624.69
406.219	1347.64
410.252	969.786
414.284	591.547
418.313	282.973
422.341	594.074
426.367	1474.96
430.39	1925.64
434.412	1986.12
438.432	2406.4
442.45	2536.5
446.466	2286.42
450.48	1826.15
454.492	1875.45
458.502	2614.26
462.51	2961.99
466.517	3243.57
470.521	4450.97
474.523	6409.19
478.524	9512.99
482.523	14580.4
486.519	19141.7
490.514	16460.9
494.507	14265.7
498.498	19245.3
502.487	28110.2
506.474	28937.8
510.459	20918.2
514.442	15055.2
518.424	10120.1
522.403	8162.59
526.381	7726.71
530.356	6077.37
534.33	3939.41
538.302	3092.46
542.272	2805.63
546.24	3668.01
550.206	5730.69
554.17	8105.84
558.132	9471.43
562.093	8556.95
566.051	6322.38
570.008	4017.72
573.963	2462.99
577.915	1555.92
581.866	1181.02
585.815	1326.05
589.763	1510.99
593.708	1715.86
597.651	1700.65
601.593	1655.35
605.532	1149.98
609.47	774.528
613.406	758.994
617.34	1293.38
621.272	2197.7
625.202	2192
629.131	1356.35
633.057	521.115
636.982	276.332
640.905	331.882
644.825	264.157
648.744	60.419
652.662	211.856
656.577	162.975
660.49	43.066
664.402	77.131
668.312	157.983
672.219	490.69
676.125	1418.59
680.03	2151.33
683.932	2113.69
687.832	1527.41
691.731	1125.5
695.628	710.731
699.522	688.601
703.415	653.959
707.307	218.879
711.196	303.619
715.083	548.164
718.969	482.513
722.853	696.663
726.735	660.615
730.615	744.369
734.493	1427.94
738.37	2301.33
742.244	2664.52
746.117	2097.52
749.988	1700.32
753.857	1912.92
757.724	2645.34
761.59	3487.56
765.453	3669.59
769.315	3171.43
773.175	2423.08
777.033	1784.54
780.889	1245.82
784.744	846.903
788.596	407.802
792.447	338.502
796.296	439.002
800.143	379.234
803.989	309.125
807.832	190.952
811.674	174.046
815.514	124.544
819.352	99.068
823.189	111.569
827.023	26.401
830.856	219.483
834.687	66.237
838.516	36.412
842.343	118.532
846.169	70.138
849.992	18.647
853.814	42.246
857.634	102.982
861.453	103.311
865.269	363.785
869.084	584.148
872.897	534.404
876.708	634.553
880.517	724.621
884.325	1494.61
888.13	1964.52
891.934	2514.53
895.737	2684.52
899.537	2604.49
903.336	2924.5
907.132	2764.51
910.928	2734.47
914.721	2634.43
918.512	2114.38
922.302	1604.4
926.09	1904.41
929.876	2424.44
933.66	3204.5
937.443	3274.59
941.224	3624.69
945.003	3594.83
948.78	4304.83
952.556	4918.15
956.33	5397.56
960.102	4829.33
963.872	4367.91
967.64	4457.75
971.407	5115.85
975.172	6080.51
978.935	6374.2
982.697	5568.9
986.456	4773.98
990.214	3925.71
993.971	3560.88
997.725	3731.31
1001.48	4152.7
1005.23	3906.03
1008.98	3580.42
1012.73	3275.03
1016.47	2710.07
1020.22	2616.3
1023.96	2781.92
1027.7	2607.83
1031.44	2205.96
1035.17	2123.04
1038.91	1694.66
1042.64	1784.48
1046.37	1842.2
1050.1	2359
1053.83	2352
1057.56	1990.74
1061.28	1839.77
1065.01	1551.96
1068.73	1568.18
1072.45	1768.63
1076.16	2059.12
1079.88	2024.04
1083.6	1775.35
1087.31	1576.97
1091.02	889.154
1094.73	631.939
1098.44	495.445
1102.14	658.67
1105.85	941.766
1109.55	715.537
1113.25	430.027
1116.95	484.607
1120.65	439.736
1124.34	629.615
1128.04	996.674
1131.73	1139.83
1135.42	957.809
1139.11	966.744
1142.79	700.463
1146.48	176.902
1150.16	198.066
1153.84	116.955
1157.52	382.305
1161.2	363.084
1164.88	532.908
1168.56	105.467
1172.23	64.385
1175.9	94.762
1179.57	18.631
1183.24	101.67
1186.9	438.889
1190.57	350.785
1194.23	296.604
1197.89	178.375
1201.55	148.697
1205.21	66.1
1208.87	77.576
1212.52	188.072
1216.18	616.738
1219.83	724.453
1223.48	672.225
1227.13	587.189
1230.77	466.527
1234.42	108.807
1238.06	35.979
1241.7	82.082
1245.34	428.053
1248.98	905.904
1252.62	795.502
1256.25	801.205
1259.88	636.107
1263.51	440.754
1267.14	4.998
1270.77	218.705
1274.4	312.129
1278.02	515.822
1281.65	797.521
1285.27	858.74
1288.89	371.037
1292.51	291.352
1296.12	259.789
1299.74	172.586
1303.35	125.764
1306.96	420.264
1310.57	625.527
1314.18	699.246
1317.79	623.213
1321.39	674.57
1324.99	216.855
1328.59	31.713
1332.19	115.396
1335.79	17.611
1339.39	7.971
1342.98	474.48
1346.58	658.449
1350.17	796.939
1353.76	901.674
1357.35	268.52
1360.93	269.416
1364.52	151.301
1368.1	191.852
1371.68	92.535
1375.26	265.975
1378.84	834.424
1382.42	1180.32
1385.99	1072.97
1389.57	1019.06
1393.14	906.295
1396.71	722.344
1400.28	531.412
1403.85	261.34
1407.41	279.467
1410.98	324.188
1414.54	487.992
1418.1	838.531
1421.66	990.652
1425.21	1189.74
1428.77	948.391
1432.33	601.637
1435.88	279.318
1439.43	356.205
1442.98	83.934
1446.53	243.088
1450.07	473.273
1453.62	753.904
1457.16	1014.54
1460.7	1182.99
1464.24	1217.53
1467.78	1158.64
1471.32	896.674
1474.85	579.594
1478.38	184.588
1481.91	59.012
1485.44	141.658
1488.97	10.756
1492.5	284.502
1496.03	371.379
1499.55	559.883
