Measurement: Raman, 514 nm, ccw, Raman Data Processed
Mineral: Anorthite
Rruff sample: R050104
Ideal chemistry: CaAl_2_Si_2_O_8_
Locality: unknown
Source: Rock Currier
Description: Iridescent slab, labradorite/andesine
Measured chemistry: Ca_0.50_Na_0.47_K_0.03_Al_1.50_Si_2.50_O_8_
Pin_id: L00084
Orientation: Laser parallel to -c* (0 0 -1). Fiducial mark perpendicular to laser is parallel to a [1 0 0]
Raman shift (cm-1)	intensity
119.119	0
123.286	318.643
127.452	72.77
131.615	31.063
135.777	581.599
139.937	1322
144.094	1927.06
148.25	2960.03
152.403	4123.21
156.555	6031.82
160.705	9332.38
164.853	14546.8
168.998	20141.5
173.142	24583.1
177.284	26906.8
181.424	27236.1
185.562	23315.9
189.698	18800.9
193.831	15517.7
197.963	13905.7
202.093	12129.3
206.221	10401.8
210.347	8690.77
214.472	6427.33
218.594	3730.92
222.714	2420.79
226.832	1696.02
230.948	1176.67
235.063	1234.49
239.175	1684.72
243.286	2473.08
247.394	3350.62
251.501	4184.91
255.605	5330.28
259.708	6426.28
263.808	7453.8
267.907	9347.57
272.004	12256.4
276.099	15024.3
280.192	17013.5
284.283	18609
288.372	18378.7
292.459	15074.2
296.544	11024.3
300.627	7918.06
304.709	5922.59
308.788	4087.23
312.865	2813.49
316.941	2175.96
321.015	1639.35
325.086	1092.43
329.156	797.022
333.224	810.005
337.29	900.284
341.354	328.792
345.416	56.429
349.476	57.899
353.534	178.063
357.591	289.743
361.645	546.276
365.698	339.537
369.748	171.988
373.797	305.539
377.844	336.089
381.889	36.611
385.932	715.008
389.973	981.156
394.012	883.045
398.049	1142.65
402.084	1694.67
406.118	1459.62
410.15	1292.9
414.179	1114.56
418.207	1231.89
422.233	1028.08
426.257	1133.12
430.279	1295.32
434.299	2045.62
438.318	2640.52
442.334	2684.32
446.349	2526.3
450.361	2669.14
454.372	2930.48
458.381	3206.14
462.388	3811.77
466.394	6319.31
470.397	9964.66
474.398	14607
478.398	17555.6
482.396	17367.4
486.391	14420.8
490.385	12234.1
494.377	14239.8
498.368	20440.9
502.356	30870.1
506.342	38922.3
510.327	38636.4
514.31	30734.8
518.291	21719.3
522.27	14348.1
526.247	9168.74
530.222	5750.89
534.196	3705.11
538.167	3185.63
542.137	2798.42
546.105	2564.28
550.071	2487.74
554.035	2462
557.998	3086.03
561.958	3686.81
565.917	4020.42
569.874	3306.76
573.829	2258.82
577.782	1568.44
581.733	922.604
585.683	370.32
589.63	89.545
593.576	103.201
597.52	322.17
601.462	44.889
605.402	86.113
609.341	167.451
613.277	84.785
617.212	43.926
621.145	146.852
625.076	64.801
629.006	129.316
632.933	355.695
636.859	301.463
640.783	275.602
644.705	236.148
648.625	485.143
652.543	511.59
656.46	351.506
660.375	170.875
664.288	297.703
668.199	638.35
672.108	803.988
676.016	912.627
679.921	653.141
683.825	733.268
687.727	1011.1
691.628	1061.36
695.526	849.711
699.423	644.336
703.318	656.117
707.211	1065.2
711.102	1214.91
714.992	1419.66
718.879	851.322
722.765	870.355
726.649	1196.36
730.532	1942.39
734.412	1977.9
738.291	1881.92
742.168	2065.12
746.043	2117.79
749.916	2402.11
753.788	2492.2
757.658	2236.16
761.526	1994.86
765.392	2307.58
769.257	2755.75
773.119	3083.7
776.98	2518.6
780.839	2256.21
784.697	2155.32
788.552	2348.45
792.406	2532.05
796.258	2333.63
800.108	2011.75
803.957	1198.26
807.804	948.391
811.649	901.691
815.492	978.793
819.333	466.219
823.173	135.566
827.011	54.037
830.847	48.92
834.681	70.486
838.514	30.354
842.345	60.465
846.174	199.969
850.001	55.316
853.827	45.521
857.651	234.541
861.473	286.885
865.293	81.266
869.112	230.113
872.928	128.527
876.744	525.41
880.557	171.623
884.369	303.367
888.178	74.85
891.987	10.09
895.793	154.098
899.598	408.938
903.401	767.676
907.202	852.371
911.001	856.355
914.799	757.559
918.595	911.977
922.389	1022.69
926.182	1130.55
929.972	1042.58
933.761	1203.83
937.549	1067.18
941.334	1179.57
945.118	1506.96
948.9	1728.4
952.681	1999.84
956.459	2066.4
960.236	2096.02
964.012	2824.69
967.785	3089.36
971.557	3306.98
975.327	3579.26
979.095	4009.51
982.862	3760.09
986.627	3192.82
990.39	3189.04
994.152	3349.23
997.912	3133.91
1001.67	2973.67
1005.43	2877.64
1009.18	2528.15
1012.93	2496.4
1016.68	2461.66
1020.43	2693.34
1024.18	2663.06
1027.93	2589.33
1031.67	2376.59
1035.42	2587.01
1039.16	2275.93
1042.9	2456.39
1046.63	2506.83
1050.37	2263.8
1054.11	2610.09
1057.84	2421.81
1061.57	2263.48
1065.3	2473.11
1069.03	2702.24
1072.75	2894.89
1076.47	3087.09
1080.2	2812.9
1083.92	2843.22
1087.64	2481.92
1091.36	2813.81
1095.07	2337.38
1098.79	2065.66
1102.5	2336.77
1106.21	2050.97
1109.92	2152.74
1113.62	1746.69
1117.33	1397.77
1121.04	1481.31
1124.74	1317.34
1128.44	1002.19
1132.14	1242.19
1135.83	897.658
1139.53	746.633
1143.22	1129.5
1146.92	862.246
1150.61	647.25
1154.3	505.035
1157.98	1023.52
1161.67	607.59
1165.35	776.141
1169.04	448.43
1172.72	500.445
1176.4	341.176
1180.07	426.645
1183.75	212.621
1187.42	302.949
1191.1	590.34
1194.77	634.562
1198.44	142.754
1202.1	195.906
1205.77	259.094
1209.43	290.719
1213.1	251.504
1216.76	313.516
1220.42	539.066
1224.07	269.605
1227.73	325.809
1231.38	181.273
1235.04	651.719
1238.69	212.977
1242.34	159.355
1245.99	126.465
1249.63	644.047
1253.28	737.805
1256.92	675.227
1260.56	0
