Measurement: Raman, 514 nm, ccw, Raman Data Processed
Mineral: Anorthite
Rruff sample: R050104
Ideal chemistry: CaAl_2_Si_2_O_8_
Locality: unknown
Source: Rock Currier
Description: Iridescent slab, labradorite/andesine
Measured chemistry: Ca_0.50_Na_0.47_K_0.03_Al_1.50_Si_2.50_O_8_
Pin_id: L00369
Orientation: Laser parallel to (0 1 1). Fiducial mark perpendicular to laser is parallel to a [1 0 0]
Raman shift (cm-1)	intensity
130.228	0
134.39	46.754
138.55	554.996
142.709	1312.05
146.865	2673.77
151.019	4008.64
155.171	4593.57
159.322	4194.86
163.47	3685.84
167.617	3123.67
171.761	3392.04
175.904	4033.48
180.044	5379.1
184.183	6562.37
188.319	6992.74
192.454	7615.17
196.586	8008.57
200.717	8008.67
204.846	7082.99
208.972	5254.78
213.097	3312.06
217.22	1704.25
221.341	493.613
225.46	144.089
229.577	286.981
233.692	350.715
237.805	554.834
241.916	1429.56
246.025	2445.2
250.132	3211.24
254.237	3728.54
258.34	4332.16
262.442	4930.6
266.541	5510.99
270.639	6412.21
274.734	7390.93
278.828	8555.03
282.919	8751.35
287.009	8500.29
291.097	7427.81
295.183	5567
299.266	3376.52
303.348	1838.19
307.428	1020.46
311.507	479.96
315.583	88.12
319.657	290.701
323.729	143.527
327.8	98.042
331.868	289.146
335.935	450.859
339.999	358.201
344.062	119
348.123	120.172
352.182	186.7
356.239	166.144
360.294	330.755
364.347	77.585
368.398	25.104
372.448	141.107
376.495	448.355
380.54	1601.89
384.584	1311.82
388.626	1787.29
392.666	2345.19
396.704	2691.83
400.74	3921.45
404.774	5050.46
408.806	5023.28
412.836	4052.09
416.865	2878.71
420.891	2265.1
424.916	1757.56
428.939	1524.12
432.959	1498.78
436.978	1838.48
440.996	2330.47
445.011	2856.48
449.024	3216.88
453.036	3880.92
457.045	4969.67
461.053	5928.95
465.059	7155.51
469.063	9736.59
473.065	14324.9
477.065	19724.7
481.063	21954.3
485.06	19870.5
489.054	16773.1
493.047	16692.8
497.038	21195.1
501.027	31386.2
505.014	42057.1
508.999	46501.1
512.982	41700.3
516.964	28870.1
520.944	18263.4
524.921	11953.5
528.897	8044.89
532.871	5511.56
536.844	4319.98
540.814	4043.15
544.783	4205.03
548.749	3931.92
552.714	3943.27
556.677	4071.12
560.638	4982.39
564.597	6344.16
568.555	6162.44
572.511	4518.21
576.464	2775.35
580.416	1927.82
584.366	1124.59
588.315	940.665
592.261	721.279
596.206	789.953
600.148	526.915
604.089	583.123
608.028	256.576
611.965	43.206
615.901	167.963
619.834	143.16
623.766	116.447
627.696	123.805
631.624	81.807
635.551	60.6
639.475	95.035
643.398	128.492
647.318	36.838
651.237	321.793
655.155	266.18
659.07	310.984
662.984	133.287
666.895	72.264
670.805	632.996
674.713	492.633
678.62	587.367
682.524	705.902
686.427	777.467
690.328	837.508
694.227	1048.82
698.124	837.428
702.02	1136.59
705.913	1333.89
709.805	1560.98
713.695	3024.57
717.584	2497.11
721.47	2053.28
725.355	2098.11
729.238	2244.54
733.119	2484.92
736.998	2854.51
740.876	3569.82
744.752	3819.73
748.626	4207
752.498	4365.97
756.368	4571.32
760.237	4824.33
764.104	5155.98
767.969	5346.09
771.832	5297.51
775.693	5326.53
779.553	5241.12
783.411	5115.31
787.267	5672.66
791.122	6586.13
794.974	6819.01
798.825	5839.48
802.674	4670.99
806.522	3520.25
810.367	2631.75
814.211	2016.73
818.053	1189.56
821.893	561.66
825.732	305.316
829.568	76.314
833.403	60.318
837.236	33.57
841.068	53.953
844.898	72.428
848.726	33.822
852.552	168.322
856.376	16.973
860.199	153.582
864.02	124.301
867.839	42.836
871.656	220.879
875.472	109.727
879.286	18.512
883.098	1.031
886.909	226.957
890.717	280.576
894.524	566.92
898.33	626.018
902.133	876.855
905.935	1232.43
909.735	1371.77
913.533	1812.88
917.33	1984.81
921.124	2144.6
924.918	2142.3
928.709	2154.99
932.499	2138.79
936.286	2488.61
940.073	2236.52
943.857	2652.45
947.64	2541.4
951.421	2999.36
955.2	3155.22
958.978	4038.93
962.753	3875.47
966.527	4717.87
970.3	5643.14
974.071	6336.29
977.84	6515.94
981.607	6409.78
985.372	6227.01
989.136	5793.66
992.898	5177.44
996.659	5155.87
1000.42	4794.73
1004.17	4332.14
1007.93	4148.52
1011.68	4453.31
1015.43	4346.31
1019.18	4208.67
1022.93	3837.54
1026.68	3611.53
1030.42	3748.02
1034.17	3763
1037.91	4202.54
1041.65	4071.99
1045.39	4002.76
1049.12	3974.82
1052.86	3779.42
1056.59	3896.31
1060.33	3876.39
1064.06	3743.87
1067.78	3810.4
1071.51	3696.2
1075.23	3395.32
1078.96	3295.4
1082.68	3004.45
1086.4	2985.88
1090.12	3109.66
1093.83	3224.18
1097.55	3111.33
1101.26	2420.55
1104.97	2407.89
1108.68	2230.23
1112.39	1848.62
1116.1	1794.09
1119.8	2052.07
1123.5	1614.07
1127.2	1312.65
1130.9	627.078
1134.6	819.562
1138.3	620.211
1141.99	230.857
1145.69	900.584
1149.38	1077.76
1153.07	873.531
1156.76	678.016
1160.44	509.209
1164.13	307.975
1167.81	443.287
1171.49	707.195
1175.17	586.609
1178.85	596.365
1182.52	436.125
1186.2	899.166
1189.87	212.404
1193.54	142.66
1197.21	49.744
1200.88	240.453
1204.55	471.266
1208.21	582.129
1211.88	263.701
1215.54	404.799
1219.2	192.285
1222.86	111.631
1226.51	288.086
1230.17	603.111
1233.82	585.531
1237.47	815.479
1241.12	890.619
1244.77	770.617
