Measurement: Raman, 514 nm, ccw, Raman Data Processed
Mineral: Anorthite
Rruff sample: R050104
Ideal chemistry: CaAl_2_Si_2_O_8_
Locality: unknown
Source: Rock Currier
Description: Iridescent slab, labradorite/andesine
Measured chemistry: Ca_0.50_Na_0.47_K_0.03_Al_1.50_Si_2.50_O_8_
Pin_id: L00427
Orientation: Laser parallel to -a* (-1 0 0). Fiducial mark perpendicular to laser is parallel to b [0 1 0]
Raman shift (cm-1)	intensity
133.003	0
137.164	25.92
141.323	198.256
145.48	363.18
149.635	420.362
153.788	445.131
157.939	401.81
162.088	373.429
166.235	367.72
170.38	599.489
174.523	1243.9
178.664	2239.65
182.803	3233.31
186.94	4081.49
191.076	4458.78
195.209	4763.69
199.34	4678.97
203.47	4381.83
207.597	3732.03
211.722	2632.27
215.846	1594.18
219.967	808.889
224.087	633.536
228.204	209.524
232.32	153.231
236.434	246.484
240.545	442.552
244.655	770.06
248.763	1047.49
252.869	1188.94
256.973	1291.48
261.075	1363.59
265.175	1561.46
269.273	1821.88
273.369	1976.64
277.463	2231.58
281.556	2533.64
285.646	2445.86
289.734	2063.26
293.821	1591.87
297.905	1072.58
301.988	606.289
306.069	316.257
310.147	109.018
314.224	105.986
318.299	57.803
322.372	44.231
326.443	114.443
330.512	139.347
334.579	149.827
338.645	51.49
342.708	116.732
346.769	84.015
350.829	182.543
354.887	156.594
358.942	142.28
362.996	94.598
367.048	41.431
371.098	4.36
375.146	93.991
379.192	181.678
383.236	221.488
387.279	376.343
391.319	560.094
395.358	1030.79
399.394	1830.52
403.429	2489.75
407.462	2886.73
411.493	2679.57
415.522	2070.64
419.549	1714.73
423.575	1498.23
427.598	1488.3
431.619	1566.01
435.639	1725.37
439.657	2089.39
443.673	2469.08
447.687	3041.45
451.699	3206.51
455.709	3637.27
459.717	4255.71
463.724	5172.7
467.728	6774.34
471.731	9396.47
475.732	13360.2
479.731	16659.1
483.728	15779.9
487.723	12647.7
491.716	10394
495.708	11896.5
499.697	16705.5
503.685	23440.7
507.671	27322.8
511.655	26267
515.637	19878.1
519.617	13296
523.596	8575.35
527.572	5713.8
531.547	4012.27
535.52	3422.86
539.491	2998.95
543.46	2828.99
547.427	2967.09
551.393	2885.24
555.356	3046.03
559.318	3589.87
563.278	4459.75
567.236	4596.63
571.192	3903.43
575.147	2742.17
579.099	1904.8
583.05	1417.66
586.999	1192.75
590.946	1131.07
594.891	1010.3
598.834	1035.43
602.776	924.468
606.715	823.419
610.653	713.283
614.589	642.064
618.523	629.765
622.456	695.387
626.386	736.942
630.315	718.463
634.242	642.991
638.167	430.558
642.09	393.194
646.012	241.899
649.931	115.648
653.849	21.45
657.765	17.683
661.679	129.667
665.592	59.483
669.502	67.875
673.411	10.23
677.318	19.408
681.223	33.615
685.126	120.576
689.028	97.715
692.927	165.216
696.825	232.118
700.721	296.724
704.616	334.217
708.508	498.114
712.399	576.006
716.288	572.573
720.175	666.088
724.06	758.058
727.944	851.939
731.825	1092.65
735.705	1249.06
739.584	1549.97
743.46	1711.74
747.334	1922.42
751.207	2047.66
755.078	2146.52
758.947	2172.95
762.815	2346.28
766.68	2437.52
770.544	2517.68
774.406	2350.75
778.267	2238.73
782.125	2288.62
785.982	2603.42
789.837	3177.13
793.69	3606.75
797.542	3369.27
801.391	2840.69
805.239	2176.02
809.085	2220.96
812.93	1217.49
816.772	712.787
820.613	379.903
824.452	273.086
828.29	141.758
832.125	85.961
835.959	11.897
839.791	7.181
843.621	11.113
847.45	78.835
851.277	23.076
855.102	41.744
858.925	26.875
862.746	98.679
866.566	79.298
870.384	52.592
874.2	83.482
878.015	4.199
881.828	78.576
885.639	56.748
889.448	201.772
893.256	316.664
897.061	361.429
900.865	466.069
904.668	510.596
908.468	666.028
912.267	769.414
916.064	731.693
919.86	758.863
923.653	860.93
927.445	856.895
931.236	903.761
935.024	875.531
938.811	947.214
942.596	985.81
946.379	1208.33
950.161	1205.76
953.94	1297.16
957.719	1399.57
961.495	1757.92
965.27	2032.22
969.043	2278.53
972.814	2614.9
976.583	2839.28
980.351	2829.54
984.117	2784.17
987.882	2603.07
991.644	2604.25
995.405	2303.33
999.165	2311.12
1002.92	2296.38
1006.68	2130.34
1010.43	2115.55
1014.18	1945.46
1017.93	2084.01
1021.68	2255.9
1025.43	2289.22
1029.18	2197.55
1032.92	2157.68
1036.66	1987.62
1040.4	2173.31
1044.14	2310.14
1047.88	2163.26
1051.62	2085.38
1055.35	1921.08
1059.08	1888.11
1062.81	1900
1066.54	1674.66
1070.27	1826.47
1073.99	1670.43
1077.72	1557.56
1081.44	1437.86
1085.16	1436.35
1088.88	1335.02
1092.59	1325.9
1096.31	1269.01
1100.02	1277.34
1103.73	1295.63
1107.44	1182.4
1111.15	1111.68
1114.86	972.427
1118.57	904.925
1122.27	871.194
1125.97	798.169
1129.67	701.054
1133.37	587.891
1137.07	719.001
1140.76	548.379
1144.45	421.411
1148.15	425.608
1151.84	312.682
1155.53	510.717
1159.21	388.478
1162.9	398.667
1166.58	563.938
1170.26	184.845
1173.94	299.115
1177.62	241.739
1181.3	221.648
1184.97	364.768
1188.65	354.265
1192.32	83.158
1195.99	40.462
1199.66	27.813
1203.33	83.771
1206.99	5.522
1210.65	113.164
1214.32	178.275
1217.98	214.703
1221.64	75.545
1225.29	88.869
1228.95	152.783
1232.6	114.477
1236.26	274.732
1239.91	186.12
1243.56	311.077
1247.2	480.867
1250.85	234.928
1254.49	262.618
1258.13	297.388
1261.78	37.956
1265.41	23.432
1269.05	189.808
1272.69	289.998
1276.32	418.028
1279.95	250.902
1283.59	380.1
1287.21	296.409
1290.84	83.621
1294.47	103.631
1298.09	34.097
