Measurement: Raman, 514 nm, ccw, Raman Data Processed
Mineral: Anorthite
Rruff sample: R040059
Ideal chemistry: CaAl_2_Si_2_O_8_
Locality: Miyakejima, Japan
Source: University of Arizona Mineral Museum
Description: Colorless fragments of crystals
Measured chemistry: (Ca_0.94_Na_0.04_Fe_0.02_)(Al_0.98_Si_0.02_)_2_Si_2.00_O_8_
Pin_id: L00163
Orientation: Laser parallel to (0 -1 -1). Fiducial mark perpendicular to laser is parallel to -a [-1 0 0]
Raman shift (cm-1)	intensity
123.102	0
127.286	23.499
131.469	1136.61
135.649	3146.76
139.827	6245.68
144.003	8472.67
148.177	6014.1
152.348	2905.22
156.517	1260.08
160.685	1847.26
164.85	3353.72
169.012	5134.68
173.173	7099.93
177.332	10768.4
181.488	13369.6
185.642	13732.6
189.794	12162.8
193.944	9809.81
198.092	6303.62
202.237	3804.74
206.38	2673.66
210.522	1882.53
214.661	991.756
218.798	64.757
222.932	439.494
227.065	225.35
231.196	86.934
235.324	503.533
239.45	1861.22
243.574	2974.32
247.696	3105.02
251.816	3442.29
255.933	3858.65
260.049	3779.59
264.162	3888.37
268.274	4377.06
272.383	4825.63
276.49	5204.08
280.595	5692.43
284.697	5890.67
288.798	4971.09
292.896	3406.53
296.993	1638.14
301.087	691.525
305.179	285.075
309.269	122.243
313.357	70.832
317.443	548.408
321.527	1205.69
325.608	621.226
329.688	94.771
333.765	62.359
337.84	57.196
341.913	128.337
345.984	103.334
350.053	324.151
354.12	60.961
358.185	57.146
362.248	262.729
366.308	677.832
370.367	882.576
374.423	1059.61
378.478	1461.02
382.53	1618.83
386.58	1106.02
390.628	1033.23
394.674	1614.53
398.718	2513.14
402.76	2300.78
406.799	2027.78
410.837	1214.44
414.873	790.953
418.906	1017.32
422.938	2073.58
426.967	2489.8
430.994	2455.97
435.02	1752.08
439.043	1408.15
443.064	474.164
447.083	160.127
451.1	359.031
455.115	786.693
459.128	1112.41
463.139	1160.52
467.147	1806.48
471.154	2972.92
475.159	4318.21
479.161	7271.77
483.162	11945.9
487.161	13887.7
491.157	11523.5
495.151	14525.8
499.144	24437.3
503.134	31129.6
507.123	26437
511.109	17504.6
515.093	12043.3
519.075	9523.83
523.055	9611.63
527.034	8011.13
531.01	4733.07
534.984	3145.12
538.956	2157.11
542.926	1959.1
546.894	2161.48
550.86	3555.05
554.824	5279.55
558.786	5304.27
562.746	4218.85
566.704	2653.3
570.66	1827.63
574.614	1031.81
578.565	625.855
582.515	239.738
586.463	453.461
590.409	897.016
594.353	1350.4
598.295	1223.6
602.235	1176.62
606.172	378.316
610.108	288.459
614.042	150.455
617.974	67.654
621.904	146.152
625.832	95.008
629.758	246.107
633.681	147.623
637.603	230.635
641.523	150.605
645.441	313.135
649.357	697.475
653.271	498.758
657.183	13.697
661.093	27.574
665.001	487.428
668.907	1442.72
672.811	2156.07
676.713	2757.73
680.613	3621.44
684.511	3219.51
688.407	2650.16
692.302	1879.76
696.194	1279.71
700.084	1064.63
703.972	1353.13
707.859	1331.04
711.743	1279.72
715.626	976.791
719.506	992.912
723.384	939.336
727.261	1324.49
731.136	1549.06
735.008	2082.74
738.879	2355.96
742.748	2708.7
746.614	2810.97
750.479	2402.76
754.342	2454.06
758.203	2794.89
762.062	3045.23
765.919	3232.03
769.774	2628.88
773.627	1924.63
777.479	1206.05
781.328	812.48
785.175	934.781
789.021	956.508
792.864	565.271
796.706	120.355
800.545	224.512
804.383	218.941
808.219	151.871
812.053	174.82
815.885	215.598
819.715	105.451
823.543	116.531
827.369	21.086
831.193	307.471
835.016	162.557
838.836	113.234
842.654	210.062
846.471	162.057
850.286	263.619
854.099	564.436
857.909	434.74
861.718	334.596
865.525	194.002
869.331	362.975
873.134	251.619
876.935	909.871
880.735	847.756
884.532	485.297
888.328	872.518
892.122	1539.45
895.913	1646.09
899.703	1952.35
903.491	1818.2
907.278	1713.64
911.062	2198.7
914.844	2413.36
918.625	2197.66
922.404	2461.61
926.18	2385.35
929.955	2978.8
933.728	3261.98
937.499	4485
941.269	4957.39
945.036	4719.26
948.801	4938.95
952.565	4980.45
956.327	4687.44
960.087	4937.99
963.845	5115.24
967.601	6018.22
971.355	7057.51
975.107	7013.72
978.858	6501.02
982.607	6035.08
986.353	5072.62
990.098	4264.97
993.841	3819.86
997.583	3453.23
1001.32	3324.92
1005.06	2611.85
1008.79	2344.27
1012.53	2426.89
1016.26	2608.6
1019.99	2267.98
1023.72	1932.29
1027.45	1397.58
1031.17	1563.92
1034.89	1620.55
1038.61	2068.56
1042.33	1828.64
1046.05	1471.85
1049.77	1121.67
1053.48	1141.2
1057.19	1510.47
1060.9	1569.47
1064.61	1908.22
1068.32	1826.74
1072.02	1525.09
1075.72	1434.13
1079.42	1174.28
1083.12	1186.32
1086.82	1360.56
1090.51	1356.99
1094.21	1295.33
1097.9	784.861
1101.59	545.264
1105.28	176.27
1108.96	237.57
1112.65	779.307
1116.33	1001.3
1120.01	1323.68
1123.69	997.348
1127.37	662.637
1131.04	219.902
1134.71	439.504
1138.39	361.598
1142.06	506.086
1145.72	1222.89
1149.39	762.246
1153.05	575.617
1156.72	140.977
1160.38	380.859
1164.04	215.945
1167.69	618.633
1171.35	551.859
1175	1054.19
1178.65	747.066
1182.31	416.324
1185.95	7.418
1189.6	0
