Measurement: Raman, 514 nm, ccw, Raman Data Processed
Mineral: Anorthite
Rruff sample: R040059
Ideal chemistry: CaAl_2_Si_2_O_8_
Locality: Miyakejima, Japan
Source: University of Arizona Mineral Museum
Description: Colorless fragments of crystals
Measured chemistry: (Ca_0.94_Na_0.04_Fe_0.02_)(Al_0.98_Si_0.02_)_2_Si_2.00_O_8_
Pin_id: M00453
Orientation: Laser parallel to -c* (0 0 -1). Fiducial mark perpendicular to laser is parallel to a [1 0 0]
Raman shift (cm-1)	intensity
118.956	0
123.129	6.376
127.3	101.987
131.469	751.504
135.636	772.422
139.801	1077.01
143.964	2170.93
148.125	1991.8
152.284	761.012
156.441	286.654
160.596	245.273
164.749	375.017
168.9	845.102
173.049	1745.44
177.195	3024.27
181.34	3936.93
185.483	5189.31
189.624	5527.62
193.762	5181.73
197.899	4222.17
202.034	3649.41
206.166	3434.47
210.297	3068.1
214.425	2320.6
218.552	1692.14
222.676	1532.81
226.799	915.53
230.919	812.806
235.038	1249.99
239.154	1725.66
243.269	2091.96
247.381	2985.76
251.492	3539.48
255.6	3615.43
259.707	3377.03
263.811	3077.85
267.914	2957.14
272.014	3207.96
276.113	3467.25
280.209	3826.04
284.304	3948.25
288.396	3366.01
292.487	2416.01
296.575	1677.06
300.662	1028.6
304.746	570.311
308.829	691.967
312.909	603.547
316.988	695.017
321.065	636.391
325.139	666.258
329.212	416.938
333.283	97.161
337.351	163.174
341.418	144.353
345.483	103.504
349.546	139.786
353.606	204.318
357.665	170.148
361.722	27.245
365.777	244.736
369.83	266.098
373.881	196.896
377.93	377.123
381.977	286.799
386.023	275.992
390.066	524.746
394.107	1062.52
398.146	1298.42
402.184	1512.36
406.219	1744.66
410.252	1656.49
414.284	1067.94
418.313	669.012
422.341	1159.79
426.367	2060.31
430.39	2680.54
434.412	2190.49
438.432	1800.17
442.45	1669.59
446.466	1098.72
450.48	778.15
454.492	747.881
458.502	1375.17
462.51	1484.06
466.517	1311.09
470.521	1987.66
474.523	2783.77
478.524	4170.87
482.523	5988
486.519	8006.67
490.514	7169.81
494.507	6997.33
498.498	10006.8
502.487	14532.1
506.474	15146
510.459	11524
514.442	8731.45
518.424	5573.26
522.403	3377.75
526.381	2821.15
530.356	2328.71
534.33	1396.03
538.302	1422.8
542.272	1280.33
546.24	2028.62
550.206	3483.72
554.17	4739.46
558.132	5407.23
562.093	4367.71
566.051	3111.79
570.008	1781.23
573.963	1089.97
577.915	768.045
581.866	675.824
585.815	903.311
589.763	710.5
593.708	767.396
597.651	684.002
601.593	830.314
605.532	726.33
609.47	212.043
613.406	102.559
617.34	312.312
621.272	696.859
625.202	1061.1
629.131	565.066
633.057	131.242
636.982	151.82
640.905	164.707
644.825	360.035
648.744	270.672
652.662	85.773
656.577	168.537
660.49	80.988
664.402	184.238
668.312	237.59
672.219	398.404
676.125	1366.16
680.03	2096.3
683.932	1912.08
687.832	1320.82
691.731	852.711
695.628	385.252
699.522	536.727
703.415	557.688
707.307	171.98
711.196	17.525
715.083	416.6
718.969	265.301
722.853	343.695
726.735	241.729
730.615	399.459
734.493	1006.94
738.37	1534.17
742.244	1901.15
746.117	1367.91
749.988	1204.44
753.857	1620.76
757.724	2456.87
761.59	3262.77
765.453	3247.21
769.315	2604.17
773.175	2097.75
777.033	1411.6
780.889	1166.55
784.744	811.33
788.596	246.602
792.447	218.268
796.296	570.695
800.143	621.494
803.989	334.604
807.832	153.146
811.674	302.65
815.514	3.486
819.352	1.129
823.189	144.368
827.023	102.594
830.856	97.1
834.687	37.213
838.516	82.197
842.343	451.262
846.169	410.145
849.992	18.934
853.814	496.625
857.634	414.387
861.453	691.986
865.269	686.518
869.084	620.793
872.897	508.055
876.708	35.193
880.517	129.812
884.325	1048.77
888.13	1047.88
891.934	1157.37
895.737	956.984
899.537	966.74
903.336	1646.75
907.132	1626.9
910.928	2307.14
914.721	2447.48
918.512	1797.94
922.302	1028.57
926.09	1319.42
929.876	1770.46
933.66	2011.74
937.443	1703.17
941.224	1924.78
945.003	1976.73
948.78	2868.58
952.556	3607.84
956.33	4141.68
960.102	3660.1
963.872	3064.61
967.64	2976.27
971.407	3208.13
975.172	3782.47
978.935	4297.77
982.697	3691
986.456	3121.61
990.214	2045.58
993.971	1836.14
997.725	1792.06
1001.48	2777.34
1005.23	2283.87
1008.98	1661.32
1012.73	1269.05
1016.47	797.285
1020.22	1190.97
1023.96	1689.87
1027.7	1809.06
1031.44	1583.44
1035.17	1092.59
1038.91	938.395
1042.64	1084.08
1046.37	1235.08
1050.1	1873.46
1053.83	2062.79
1057.56	1624.91
1061.28	1637.51
1065.01	1191.04
1068.73	1084.93
1072.45	1789.44
1076.16	1923.48
1079.88	2279.51
1083.6	2144.27
1087.31	2429.28
1091.02	814.531
1094.73	709.938
1098.44	655.641
1102.14	761.41
1105.85	1387.53
1109.55	586.641
1113.25	414.348
1116.95	211.598
1120.65	60.926
1124.34	517.012
1128.04	435.074
1131.73	874.766
1135.42	873.277
1139.11	922.953
1142.79	548.352
1146.48	79.824
1150.16	140.727
1153.84	139.848
1157.52	543.156
1161.2	899.922
1164.88	738.418
1168.56	266.73
1172.23	184.895
1175.9	106.652
1179.57	46.957
1183.24	261.031
1186.9	871.973
1190.57	341.996
1194.23	411.309
1197.89	321.867
1201.55	331.016
1205.21	189.488
1208.87	272.895
1212.52	623.062
1216.18	1118.34
1219.83	1394.21
1223.48	1169.52
1227.13	819.332
1230.77	708.863
1234.42	428.035
1238.06	410.43
1241.7	562.441
1245.34	1044.24
1248.98	1802.94
1252.62	1328.82
1256.25	1430.6
1259.88	1059.56
1263.51	680
1267.14	428.863
1270.77	499.992
1274.4	879.105
1278.02	1209.14
1281.65	1439.14
1285.27	1287.51
1288.89	663.906
1292.51	529.527
1296.12	433.41
1299.74	78.344
1303.35	118.438
1306.96	729.656
1310.57	1210.27
1314.18	1135
1317.79	1294.1
1321.39	1217.74
1324.99	623.426
1328.59	113.168
1332.19	103.582
1335.79	226.363
1339.39	152.074
1342.98	514.441
1346.58	1109.84
1350.17	1172.02
1353.76	1203.7
1357.35	414.078
1360.93	325.711
1364.52	165.422
1368.1	154.172
1371.68	154.73
1375.26	269.297
1378.84	972.359
1382.42	1574.68
1385.99	1273.47
1389.57	1273.36
1393.14	1343.35
1396.71	1092.98
1400.28	519.004
1403.85	453.102
1407.41	556.762
1410.98	178.695
1414.54	598.004
1418.1	1032.31
1421.66	1573.43
1425.21	1626.76
1428.77	1155.86
1432.33	1021.72
1435.88	833.836
1439.43	803.824
1442.98	692.965
1446.53	1300.12
1450.07	1916.29
1453.62	2436.53
1457.16	2926.72
1460.7	2905.45
1464.24	2697.88
1467.78	2401.43
1471.32	1969.88
1474.85	1154.08
1478.38	839.625
1481.91	538.582
1485.44	878.973
1488.97	261.594
1492.5	316.363
1496.03	778.148
1499.55	1097.27
1503.07	1065.28
1506.59	1407.57
1510.11	1123.46
1513.63	872.531
