Measurement: Raman, 514 nm, ccw, Raman Data Processed
Mineral: Anorthite
Rruff sample: R050104
Ideal chemistry: CaAl_2_Si_2_O_8_
Locality: unknown
Source: Rock Currier
Description: Iridescent slab, labradorite/andesine
Measured chemistry: Ca_0.50_Na_0.47_K_0.03_Al_1.50_Si_2.50_O_8_
Pin_id: L00369
Orientation: Laser parallel to (0 1 1). Fiducial mark perpendicular to laser is parallel to a [1 0 0]
Raman shift (cm-1)	intensity
134.39	0
138.55	84.564
142.709	185.584
146.865	657.447
151.019	1443.94
155.171	2065.83
159.322	2222.81
163.47	1754.14
167.617	862.403
171.761	746.742
175.904	1377.07
180.044	2795.23
184.183	4542.96
188.319	5768.22
192.454	6806.35
196.586	7413.73
200.717	7896.09
204.846	7005.73
208.972	5129.01
213.097	3326.98
217.22	2025.56
221.341	1010.64
225.46	633.992
229.577	810.034
233.692	1062.18
237.805	1234.16
241.916	1993.37
246.025	3050.58
250.132	3757.35
254.237	4094.61
258.34	4518.1
262.442	5064.68
266.541	5562.24
270.639	6077.9
274.734	6861.49
278.828	7619.77
282.919	7654.72
287.009	7242.38
291.097	6480.78
295.183	4817.99
299.266	2965.71
303.348	1606.49
307.428	884.372
311.507	334.297
315.583	54.464
319.657	182.84
323.729	191.252
327.8	81.934
331.868	260.83
335.935	360.511
339.999	500.956
344.062	139.137
348.123	1.232
352.182	177.532
356.239	160.199
360.294	245.592
364.347	40.656
368.398	7.154
372.448	418.128
376.495	671.569
380.54	882.645
384.584	1457.47
388.626	1938.8
392.666	2349.29
396.704	2950.95
400.74	4277.21
404.774	5859.87
408.806	5859.72
412.836	4569.95
416.865	3310.07
420.891	2487.11
424.916	1968.43
428.939	1535.11
432.959	1684.15
436.978	2028.55
440.996	2549.32
445.011	3186.48
449.024	3613.58
453.036	4422.04
457.045	5530.56
461.053	6474.5
465.059	7496.38
469.063	9983.89
473.065	14905.6
477.065	20511.7
481.063	22932.1
485.06	20790.6
489.054	17741.3
493.047	17707.3
497.038	22491.4
501.027	32638.5
505.014	43494.7
508.999	48565.4
512.982	43131.8
516.964	29511.7
520.944	18514.3
524.921	12069.5
528.897	8198.77
532.871	5716.87
536.844	4512.76
540.814	4253.3
544.783	4552.93
548.749	4291.44
552.714	4304.65
556.677	4415.58
560.638	5593.22
564.597	6828.69
568.555	6579.9
572.511	4911.9
576.464	3184.61
580.416	2195.94
584.366	1596.86
588.315	1156.37
592.261	1028.47
596.206	968.168
600.148	755.455
604.089	653.339
608.028	308.815
611.965	98.848
615.901	120.354
619.834	24.205
623.766	59.604
627.696	66.177
631.624	87.367
635.551	0.944
639.475	105.157
643.398	118.538
647.318	1.938
651.237	164.429
655.155	191.514
659.07	263.307
662.984	54.865
666.895	98.378
670.805	259.13
674.713	530.788
678.62	698.704
682.524	625.078
686.427	675.173
690.328	865.148
694.227	1059.65
698.124	968.533
702.02	1077.24
705.913	1343.85
709.805	1479.03
713.695	1773.82
717.584	2087.11
721.47	2035.72
725.355	2043.91
729.238	2264.6
733.119	2604.17
736.998	2997.47
740.876	3601.46
744.752	3864.39
748.626	4354.74
752.498	4482.74
756.368	4886.41
760.237	5102.73
764.104	5437.38
767.969	5690.69
771.832	5686.98
775.693	5675.43
779.553	5533.3
783.411	5430.68
787.267	6069.21
791.122	7270.77
794.974	7642.4
798.825	6866.53
802.674	5372.73
806.522	3987.86
810.367	2890.17
814.211	2307.21
818.053	1436.55
821.893	628.199
825.732	360.078
829.568	183.626
833.403	111.96
837.236	156.981
841.068	31.565
844.898	97.479
848.726	212.39
852.552	122.276
856.376	20.987
860.199	108.513
864.02	91.981
867.839	40.314
871.656	202.51
875.472	119.72
879.286	39.723
883.098	38.45
886.909	246.307
890.717	163.76
894.524	275.942
898.33	589.938
902.133	791.735
905.935	1111.29
909.735	1273.65
913.533	1412.81
917.33	1526.76
921.124	1729.54
924.918	1770.2
928.709	1931.81
932.499	2075.37
936.286	1984.95
940.073	2117.49
943.857	2171.99
947.64	2217.41
951.421	2741.73
955.2	3003.86
958.978	3456.82
962.753	3751.59
966.527	4454.19
970.3	5366.62
974.071	5983.88
977.84	6308.81
981.607	6252.71
985.372	5740.37
989.136	5348.59
992.898	4942.41
996.659	4975.39
1000.42	4620.04
1004.17	4140.94
1007.93	3921.91
1011.68	3829.93
1015.43	3878.63
1019.18	3917.58
1022.93	3674.9
1026.68	3529.02
1030.42	3555.15
1034.17	3236.64
1037.91	3624.51
1041.65	3616.6
1045.39	3763.59
1049.12	3716.38
1052.86	3739.88
1056.59	3501.3
1060.33	3392.59
1064.06	3306.55
1067.78	3423.21
1071.51	3343.98
1075.23	3105.93
1078.96	2738.23
1082.68	2660.08
1086.4	2550.49
1090.12	2605.61
1093.83	2493.47
1097.55	2221.72
1101.26	2253.03
1104.97	2247.2
1108.68	1982.24
1112.39	1532.13
1116.1	1466.98
1119.8	1593.91
1123.5	1258.68
1127.2	1181.77
1130.9	800.254
1134.6	955.393
1138.3	393.346
1141.99	221.623
1145.69	427.363
1149.38	641.092
1153.07	650.062
1156.76	582.264
1160.44	497.752
1164.13	357.586
1167.81	305.787
1171.49	357.385
1175.17	277.896
1178.85	312.588
1182.52	361.68
1186.2	265.326
1189.87	31.529
1193.54	166.09
1197.21	35.439
1200.88	146.637
1204.55	265.408
1208.21	354.236
1211.88	161.506
1215.54	247.486
1219.2	206.207
1222.86	99.527
1226.51	178.057
1230.17	134.256
1233.82	0.957
1237.47	313.746
1241.12	294.605
