Measurement: Raman, 514 nm, ccw, Raman Data Processed
Mineral: Aragonite
Rruff sample: R040078
Ideal chemistry: CaCO_3_
Locality: Molina, Aragon, Spain
Source: University of Arizona Mineral Museum
Description: Orange pseudohexagonal prisms
Measured chemistry: Ca_1.00_CO_3_
Pin_id: L00114
Orientation: Laser parallel to -b* (0 -1 0). Fiducial mark perpendicular to laser is parallel to -c [0 0 -1]
Raman shift (cm-1)	intensity
50.765	0
54.966	78.346
59.164	61.39
63.36	111.129
67.554	98.715
71.747	36.749
75.937	20.132
80.125	77.883
84.311	118.155
88.496	187.713
92.678	302.388
96.858	429.042
101.036	488.484
105.212	556.581
109.387	654.277
113.559	674.526
117.729	637.297
121.897	601.559
126.063	556.288
130.228	580.466
134.39	543.117
138.55	616.072
142.709	731.179
146.865	953.261
151.019	1531.45
155.171	1761.87
159.322	993.574
163.47	597.509
167.617	416.706
171.761	426.141
175.904	402.829
180.044	401.756
184.183	436.908
188.319	548.297
192.454	613.914
196.586	670.764
200.717	845.822
204.846	896.125
208.972	1687.64
213.097	3116.25
217.22	3176.93
221.341	1660.03
225.46	852.598
229.577	553.344
233.692	450.012
237.805	354.089
241.916	279.192
246.025	262.907
250.132	273.042
254.237	195.244
258.34	173.397
262.442	171.005
266.541	198.804
270.639	269.794
274.734	322.103
278.828	589.28
282.919	833.755
287.009	796.384
291.097	499.255
295.183	333.711
299.266	237.178
303.348	149.375
307.428	135.735
311.507	85.349
315.583	95.91
319.657	111.853
323.729	93.146
327.8	102.324
331.868	64.405
335.935	76.392
339.999	65.695
344.062	76.096
348.123	31.592
352.182	83.55
356.239	37.225
360.294	35.895
364.347	36.199
368.398	83.277
372.448	48.261
376.495	47.305
380.54	70.695
384.584	17.757
388.626	54.037
392.666	59.412
396.704	4.012
400.74	8.619
404.774	26.47
408.806	10.239
412.836	54.643
416.865	18.398
420.891	84.635
424.916	26.69
428.939	13.643
432.959	16.858
436.978	22.213
440.996	39.838
445.011	43.168
449.024	4.377
453.036	17.212
457.045	40.612
461.053	30.398
465.059	1.452
469.063	6.971
473.065	34.149
477.065	6.13
481.063	11.43
485.06	20.412
489.054	43.177
493.047	17.933
497.038	53.373
501.027	16.177
505.014	8.109
508.999	54.952
512.982	50.803
516.964	14.354
520.944	51.651
524.921	17.428
528.897	48.541
532.871	46.358
536.844	22.172
540.814	0.002
544.783	64.793
548.749	84.556
552.714	5.686
556.677	3.036
560.638	15.38
564.597	4.229
568.555	64.708
572.511	57.328
576.464	59.557
580.416	45.893
584.366	61.491
588.315	18.039
592.261	13.547
596.206	8.932
600.148	21.552
604.089	23.162
608.028	50.456
611.965	8.241
615.901	60.391
619.834	65.186
623.766	30.294
627.696	19.409
631.624	12.307
635.551	28.485
639.475	10.076
643.398	41.979
647.318	14.441
651.237	37.391
655.155	116.32
659.07	25.409
662.984	33.965
666.895	41.548
670.805	61.176
674.713	90.758
678.62	56.292
682.524	118.108
686.427	113.869
690.328	99.546
694.227	133.195
698.124	307.774
702.02	1304.36
705.913	4864.48
709.805	1106.8
713.695	287.137
717.584	132.124
721.47	115.735
725.355	59.282
729.238	78.196
733.119	48.44
736.998	118.828
740.876	82.991
744.752	53.809
748.626	58.208
752.498	57.413
756.368	85.771
760.237	45.263
764.104	63.514
767.969	16.295
771.832	66.885
775.693	63.02
779.553	75.085
783.411	63.024
787.267	5.103
791.122	24.085
794.974	40.46
798.825	56.656
802.674	49.449
806.522	27.561
810.367	1.626
814.211	91.222
818.053	79.769
821.893	38.384
825.732	92.851
829.568	25.25
833.403	64.451
837.236	1.689
841.068	59.212
844.898	55.888
848.726	35.106
852.552	136.282
856.376	27.447
860.199	93.583
864.02	45.693
867.839	9.213
871.656	24.849
875.472	88.092
879.286	54.995
883.098	16.911
886.909	63.79
890.717	44.519
894.524	40.298
898.33	35.074
902.133	35.833
905.935	55.526
909.735	64.226
913.533	92.711
917.33	69.41
921.124	85.184
924.918	73.88
928.709	43.562
932.499	100.23
936.286	71.887
940.073	10.386
943.857	76.71
947.64	91.312
951.421	55.938
955.2	107.604
958.978	14.09
962.753	7.274
966.527	59.937
970.3	0.405
974.071	92.159
977.84	53.274
981.607	122.854
985.372	108.389
989.136	6.467
992.898	12.88
996.659	85.336
1000.42	59.651
1004.17	114.629
1007.93	29.264
1011.68	102.002
1015.43	33.829
1019.18	147.774
1022.93	76.5
1026.68	130.225
1030.42	101.839
1034.17	97.581
1037.91	105.294
1041.65	104.657
1045.39	140.212
1049.12	138.266
1052.86	211.879
1056.59	174.078
1060.33	332.967
1064.06	204.126
1067.78	298.217
1071.51	470.136
1075.23	672.313
1078.96	1345.22
1082.68	7682.23
1086.4	53956.7
1090.12	3985.41
1093.83	715.367
1097.55	375.446
1101.26	277.553
1104.97	277.612
1108.68	220.675
1112.39	100.474
1116.1	81.702
1119.8	144.457
1123.5	136.408
1127.2	151.472
1130.9	118.772
1134.6	125.089
1138.3	67.703
1141.99	95.38
1145.69	19.057
1149.38	11.075
1153.07	79.198
1156.76	63.803
1160.44	51.977
1164.13	93.457
1167.81	72.39
1171.49	9.114
1175.17	45.129
1178.85	60.663
1182.52	100.832
1186.2	107.658
1189.87	99.444
1193.54	142.079
1197.21	56.078
1200.88	30.582
1204.55	72.575
1208.21	70.362
1211.88	129.784
1215.54	78.97
1219.2	51.602
1222.86	127.052
1226.51	85.311
1230.17	25.18
1233.82	192.936
1237.47	130.061
1241.12	79.699
1244.77	145.345
1248.42	127.916
1252.06	154.595
1255.71	143.05
1259.35	35.699
1262.99	194.655
1266.63	119.711
1270.26	123.52
1273.9	144.37
1277.53	204.968
1281.16	155.42
1284.8	123.878
1288.42	141.159
1292.05	58.886
1295.68	50.322
1299.3	81.32
1302.92	13.771
1306.55	95.853
1310.16	87.678
1313.78	60.047
1317.4	77.808
1321.01	53.053
1324.62	37.84
1328.24	29.537
1331.85	8.288
1335.45	224.571
1339.06	114.46
1342.66	120.583
1346.27	96.028
1349.87	138.536
1353.47	173.037
1357.07	99.389
1360.66	15.593
1364.26	17.237
1367.85	35.989
1371.44	39.859
1375.04	14.1
1378.62	133.695
1382.21	190.677
1385.8	226.451
1389.38	155.396
1392.96	112.617
1396.54	157.895
1400.12	49.256
1403.7	9.269
1407.28	103.581
1410.85	109.719
1414.42	137.477
1417.99	228.565
1421.56	146.277
1425.13	238.834
1428.7	163.887
1432.26	102.727
1435.83	70.094
1439.39	37.026
1442.95	53.589
1446.51	78.216
1450.06	136.987
1453.62	135.074
1457.17	229.937
1460.73	334.956
1464.28	535.658
1467.83	269.397
1471.37	271.997
1474.92	173.985
1478.46	102.477
1482.01	147.819
1485.55	6.998
1489.09	147.517
1492.63	40.764
1496.16	39.109
1499.7	124.742
1503.23	153.312
1506.76	143.594
1510.29	156.436
1513.82	48.721
1517.35	52.922
