Measurement: Raman, 514 nm, ccw, Raman Data Processed
Mineral: Aragonite
Rruff sample: R060195
Ideal chemistry: CaCO_3_
Locality: Cicov Hill, Horenec, Czech Republic
Source: Marcus Origlieri
Description: Colorless transparent elongated prismatic crystal
Measured chemistry: Ca_1.00_CO_3_
Pin_id: L01257
Orientation: Laser parallel to c* (0 0 1). Fiducial mark perpendicular to laser is parallel to a [1 0 0]
Raman shift (cm-1)	intensity
100.883	0
105.815	20.4717
110.744	221.491
115.671	477.835
120.596	363.054
125.519	296.356
130.439	237.496
135.356	467.024
140.271	715.805
145.184	1752.91
150.094	3265.09
155.002	7593.79
159.908	5149.54
164.811	1607.22
169.711	617.215
174.61	596.835
179.505	614.673
184.399	623.028
189.29	634.24
194.178	927.256
199.064	859.378
203.948	931.457
208.829	1652.73
213.708	1453.83
218.585	1473.15
223.459	652.845
228.33	381.749
233.199	250.365
238.066	160.48
242.93	281.345
247.792	204.492
252.651	127.488
257.508	257.022
262.363	189.567
267.215	379.065
272.064	409.451
276.912	556.205
281.756	320.623
286.598	280.839
291.438	263.372
296.276	165.654
301.111	126.134
305.943	42.2695
310.773	20.127
315.601	46.877
320.426	9.29492
325.248	114.14
330.068	75.1201
334.886	44.3086
339.701	113.706
344.514	22.1709
349.324	102.513
354.132	174.343
358.938	149.389
363.741	58.5537
368.541	183.31
373.339	159.118
378.135	50.8213
382.928	8.08398
387.718	23.3828
392.506	59.2568
397.292	118.329
402.075	142.366
406.856	0.682617
411.634	144.398
416.41	44.5381
421.183	98.8711
425.954	195.38
430.722	61.6953
435.488	105.853
440.251	26.0752
445.012	90.0176
449.77	88.0898
454.526	70.1162
459.28	33.0185
464.03	68.8897
468.779	181.268
473.525	84.0801
478.268	110.868
483.009	184.685
487.747	211.303
492.483	179.185
497.217	63.2383
501.948	134.357
506.676	198.787
511.402	119.766
516.125	144.75
520.846	64.1172
525.565	145.672
530.281	306.248
534.994	131.883
539.705	205.152
544.413	298.092
549.119	37.1016
553.822	87.6387
558.523	250.014
563.222	193.734
567.917	90.5078
572.611	220.91
577.302	25.4023
581.99	51.7734
586.676	183.578
591.359	135.932
596.04	134.791
600.718	152.338
605.394	152.707
610.067	68.0352
614.737	226.041
619.406	218.016
624.071	233.928
628.734	105.389
633.395	207.394
638.053	184.764
642.708	92.8652
647.361	157.389
652.012	150.01
656.66	181.797
661.305	26.3594
665.948	146.115
670.588	125.859
675.226	143.303
679.861	320.863
684.494	174.246
689.124	175.676
693.752	396.912
698.377	460.367
702.999	1616.18
707.619	2213.03
712.237	488.885
716.852	407.525
721.464	162.986
726.074	216.422
730.681	335.221
735.286	242.285
739.888	96.6816
744.488	290.168
749.085	144.25
753.68	15.3281
758.272	235.519
762.861	258.805
767.448	192.586
772.033	216.498
776.614	39.4102
781.194	311.273
785.77	61.4922
790.345	207.707
794.916	74.8438
799.485	289.881
804.052	116.766
808.616	277.902
813.177	115.74
817.736	277.449
822.292	73.8945
826.846	150.793
831.397	62.2383
835.945	147.143
840.491	355.451
845.035	104.523
849.576	87.1504
854.114	149.857
858.65	48.6016
863.183	221.176
867.713	53.9043
872.241	63.8301
876.767	321.779
881.29	264.576
885.81	196.199
890.328	63.9629
894.843	163.277
899.356	15.4902
903.866	205.482
908.373	289.385
912.878	99.1875
917.38	56.373
921.88	77.2754
926.377	19.5215
930.872	305.779
935.364	21.6895
939.853	6.17969
944.34	181.094
948.824	257.379
953.306	184.172
957.785	156.4
962.261	244.268
966.735	255.852
971.207	143.543
975.675	124.537
980.141	153.635
984.605	196.707
989.066	142.625
993.524	332.004
997.98	221.33
1002.43	122.291
1006.88	314.603
1011.33	27.8418
1015.78	80.5879
1020.22	359.383
1024.66	106.018
1029.1	267.029
1033.53	68.332
1037.97	193.541
1042.4	148.576
1046.82	297.906
1051.25	171.434
1055.67	77.8496
1060.09	404.668
1064.51	256.834
1068.92	156.1
1073.33	390.236
1077.74	554.723
1082.15	4647.89
1086.55	26681.6
1090.95	4266.76
1095.35	566.373
1099.75	255.916
1104.14	227.688
1108.53	371.85
1112.92	174.865
1117.31	129.889
1121.69	243.725
1126.07	320.85
1130.45	133.791
1134.82	251.711
1139.19	5.3457
1143.57	228.791
1147.93	142.84
1152.3	278.412
1156.66	290.543
1161.02	64.9238
1165.38	202.244
1169.73	157.484
1174.08	283.383
1178.43	116.891
1182.78	285.031
1187.12	171.619
1191.46	24.0996
1195.8	4.5
1200.14	5.09766
1204.47	136.789
1208.8	297.16
1213.13	35.2832
1217.46	83.6113
1221.78	181.441
1226.1	138.629
1230.42	74.1191
1234.73	103.561
1239.04	448.93
1243.35	444.566
1247.66	55.7812
1251.97	203.176
1256.27	252.465
1260.57	61.1172
1264.86	44.6445
1269.16	488.379
1273.45	245.648
1277.74	217.254
1282.03	215.891
1286.31	471.68
1290.59	188.184
1294.87	408.215
1299.14	315.715
1303.42	334.844
1307.69	185.848
1311.95	611.516
1316.22	315.926
1320.48	291.094
1324.74	279.762
1329	30.6992
1333.26	313.551
1337.51	252.387
1341.76	388.797
1346	477.59
1350.25	156.387
1354.49	255.828
1358.73	220.781
1362.96	159.785
1367.2	94.9961
1371.43	266.387
1375.66	202.894
1379.88	153.141
1384.11	296.496
1388.33	81.207
1392.54	236.418
1396.76	31.7148
1400.97	244.789
1405.18	146.559
1409.39	48.6328
1413.59	353.848
1417.8	237.543
1421.99	348.527
1426.19	260.519
1430.38	203.195
1434.58	144.344
1438.77	44.4219
1442.95	188.512
1447.13	95.3984
1451.32	128.32
1455.49	39.7305
1459.67	381.5
1463.84	581.863
1468.01	151.195
1472.18	187.594
1476.35	91.4219
1480.51	279.664
1484.67	205.676
1488.83	370.547
1492.98	75.1562
1497.13	422.141
1501.28	60.5078
1505.43	506.797
1509.57	379.492
1513.71	307.688
1517.85	226.644
1521.99	470.91
1526.12	431.707
1530.25	248.836
1534.38	492.856
1538.5	371.586
1542.62	492.559
1546.74	109.961
1550.86	498.281
1554.98	290.082
1559.09	552.684
1563.2	302.535
1567.31	342.519
1571.41	0
