Measurement: Raman, 514 nm, ccw, Raman Data Processed
Mineral: Aragonite
Rruff sample: R060195
Ideal chemistry: CaCO_3_
Locality: Cicov Hill, Horenec, Czech Republic
Source: Marcus Origlieri
Description: Colorless transparent elongated prismatic crystal
Measured chemistry: Ca_1.00_CO_3_
Pin_id: L01257
Orientation: Laser parallel to c* (0 0 1). Fiducial mark perpendicular to laser is parallel to a [1 0 0]
Raman shift (cm-1)	intensity
100.883	0
105.815	60.5381
110.744	258.375
115.671	330.038
120.596	206.831
125.519	189.443
130.439	244.36
135.356	406.713
140.271	563.484
145.184	1287.92
150.094	2862.91
155.002	6976.88
159.908	4143.19
164.811	1132.22
169.711	576.268
174.61	320.96
179.505	456.06
184.399	680.439
189.29	652.429
194.178	621.196
199.064	576.972
203.948	722.769
208.829	1238.8
213.708	1322.5
218.585	1320.72
223.459	557.607
228.33	328.652
233.199	271.308
238.066	149.537
242.93	128.8
247.792	303.133
252.651	108.546
257.508	216.164
262.363	156.299
267.215	120.023
272.064	285.443
276.912	269.863
281.756	328.671
286.598	374.962
291.438	272.466
296.276	132.053
301.111	145.431
305.943	43.6504
310.773	20.7773
315.601	119.974
320.426	146.326
325.248	17.7305
330.068	30.3799
334.886	63.6357
339.701	14.9746
344.514	11.8086
349.324	50.4453
354.132	92.1982
358.938	74.7324
363.741	85.7393
368.541	156.864
373.339	66.2158
378.135	22.1074
382.928	66.0986
387.718	102.638
392.506	14.7685
397.292	101.981
402.075	6.09375
406.856	45.1992
411.634	125.007
416.41	141.378
421.183	16.7002
425.954	59.0684
430.722	99.1738
435.488	197.743
440.251	1.48242
445.012	253.102
449.77	6.13672
454.526	105.824
459.28	142.953
464.03	111.635
468.779	30.123
473.525	136.648
478.268	64.1934
483.009	61.4121
487.747	115.522
492.483	167.598
497.217	132.654
501.948	171.594
506.676	33.7285
511.402	17.4316
516.125	10.2559
520.846	96.7617
525.565	201.523
530.281	108.111
534.994	167.902
539.705	78.5898
544.413	78.6875
549.119	105.133
553.822	120.113
558.523	113.512
563.222	91.7441
567.917	163.125
572.611	8.3125
577.302	262.672
581.99	288.897
586.676	49.6465
591.359	127.049
596.04	221.334
600.718	53.1406
605.394	59.9453
610.067	88.8086
614.737	353.727
619.406	140.346
624.071	228.086
628.734	219.783
633.395	175.988
638.053	313.363
642.708	128.857
647.361	132.346
652.012	103.469
656.66	108.438
661.305	317.623
665.948	57.4746
670.588	177.902
675.226	73.1133
679.861	101.125
684.494	437.315
689.124	261.543
693.752	19.5723
698.377	398.543
702.999	1160.12
707.619	2014.48
712.237	422.606
716.852	194.19
721.464	164.363
726.074	230.125
730.681	50.7012
735.286	160.074
739.888	44.1309
744.488	158.1
749.085	109.285
753.68	134.869
758.272	16.3242
762.861	26.1016
767.448	233.143
772.033	272.303
776.614	129.891
781.194	126.309
785.77	70.8047
790.345	178.221
794.916	265.047
799.485	240.828
804.052	318.481
808.616	208.457
813.177	238.881
817.736	378.723
822.292	187.543
826.846	60.9629
831.397	157.115
835.945	269.441
840.491	143.893
845.035	101.207
849.576	83.4102
854.114	150.527
858.65	259.652
863.183	39.4668
867.713	201.463
872.241	191.93
876.767	320.35
881.29	253.924
885.81	114.977
890.328	92.9453
894.843	332.234
899.356	300.615
903.866	216.096
908.373	25.0703
912.878	52.7617
917.38	111.475
921.88	154.135
926.377	232.898
930.872	215.394
935.364	342.416
939.853	114.727
944.34	140.619
948.824	184.334
953.306	341.844
957.785	101.756
962.261	212.918
966.735	139.398
971.207	213.926
975.675	210.045
980.141	257.002
984.605	208.627
989.066	292.141
993.524	28.9824
997.98	297.732
1002.43	301.147
1006.88	66.043
1011.33	87.666
1015.78	5.125
1020.22	86.0508
1024.66	76.4727
1029.1	19.6855
1033.53	303.537
1037.97	84.9863
1042.4	119.217
1046.82	213.352
1051.25	73.9766
1055.67	269.801
1060.09	94.7715
1064.51	118.334
1068.92	263.527
1073.33	516.338
1077.74	477.232
1082.15	2866.74
1086.55	25657.3
1090.95	3436.1
1095.35	549.566
1099.75	167.916
1104.14	215.779
1108.53	280.799
1112.92	169.098
1117.31	151.154
1121.69	179.973
1126.07	125.272
1130.45	212.826
1134.82	209.613
1139.19	55.6328
1143.57	9.5625
1147.93	342.506
1152.3	171.629
1156.66	214.332
1161.02	130.965
1165.38	163.606
1169.73	117.863
1174.08	356.606
1178.43	217.539
1182.78	235.662
1187.12	228.955
1191.46	84.5449
1195.8	254.529
1200.14	138.619
1204.47	186.402
1208.8	212.807
1213.13	96.1973
1217.46	291.471
1221.78	80.7812
1226.1	116.75
1230.42	338.199
1234.73	265.109
1239.04	58.0312
1243.35	366.727
1247.66	214.484
1251.97	52.9961
1256.27	393.922
1260.57	244.586
1264.86	86.6992
1269.16	304.086
1273.45	229.215
1277.74	393.562
1282.03	249.832
1286.31	225.949
1290.59	56.2617
1294.87	501.289
1299.14	344.406
1303.42	247.074
1307.69	245.867
1311.95	357.719
1316.22	277.277
1320.48	220.559
1324.74	317.481
1329	176.426
1333.26	7.04297
1337.51	198.078
1341.76	389.664
1346	292.648
1350.25	569.473
1354.49	201.375
1358.73	428.871
1362.96	242.731
1367.2	106.019
1371.43	148.992
1375.66	255.406
1379.88	255.008
1384.11	379.641
1388.33	182.793
1392.54	175.113
1396.76	208.106
1400.97	511.152
1405.18	87.3164
1409.39	261.707
1413.59	167.219
1417.8	155.777
1421.99	294.141
1426.19	149.887
1430.38	124.309
1434.58	31.4336
1438.77	198.457
1442.95	264.57
1447.13	193.512
1451.32	163.812
1455.49	344.766
1459.67	541.754
1463.84	499.449
1468.01	96.5273
1472.18	219.07
1476.35	257.188
1480.51	48.418
1484.67	212.941
1488.83	138.312
1492.98	462.617
1497.13	371.152
1501.28	517.219
1505.43	535.539
1509.57	210.176
1513.71	251.914
1517.85	67.7461
1521.99	370.008
1526.12	253.652
1530.25	403.152
1534.38	267.387
1538.5	52.0195
1542.62	497.398
1546.74	280.137
1550.86	463.902
1554.98	247.969
1559.09	122.383
1563.2	327.699
1567.31	290.367
1571.41	0
