Measurement: Raman, 514 nm, ccw, Raman Data Processed
Mineral: Aragonite
Rruff sample: R060195
Ideal chemistry: CaCO_3_
Locality: Cicov Hill, Horenec, Czech Republic
Source: Marcus Origlieri
Description: Colorless transparent elongated prismatic crystal
Measured chemistry: Ca_1.00_CO_3_
Pin_id: L01088
Orientation: Laser parallel to b* (0 1 0). Fiducial mark perpendicular to laser is parallel to c [0 0 1]
Raman shift (cm-1)	intensity
100.883	0
105.815	131.221
110.744	2.49902
115.671	157.719
120.596	113.387
125.519	153.018
130.439	197.13
135.356	211.751
140.271	673.726
145.184	1592.93
150.094	769.631
155.002	909.519
159.908	812.231
164.811	777.616
169.711	430.849
174.61	253.549
179.505	401.521
184.399	542.859
189.29	534.669
194.178	543.238
199.064	611.595
203.948	813.563
208.829	1007.08
213.708	720.238
218.585	615.225
223.459	370.095
228.33	271.316
233.199	264.169
238.066	72.3711
242.93	326.505
247.792	127.836
252.651	233.802
257.508	151.688
262.363	199.33
267.215	337.347
272.064	435.288
276.912	356.982
281.756	299.471
286.598	325.628
291.438	239.066
296.276	82.9766
301.111	237.166
305.943	239.225
310.773	80.1885
315.601	59.6914
320.426	64.1631
325.248	125.029
330.068	125.538
334.886	36.1494
339.701	162.512
344.514	7.66211
349.324	44.4619
354.132	71.5938
358.938	86.8926
363.741	31.2979
368.541	94.7832
373.339	173.449
378.135	73.585
382.928	36.167
387.718	72.8037
392.506	165.525
397.292	236.465
402.075	49.5645
406.856	177.78
411.634	143.125
416.41	178.027
421.183	205.791
425.954	138.172
430.722	163.784
435.488	130.365
440.251	91.0078
445.012	149.703
449.77	125.713
454.526	36.8838
459.28	65.6367
464.03	19.5771
468.779	170.066
473.525	320.092
478.268	218.142
483.009	77.5635
487.747	307.873
492.483	131.065
497.217	156.693
501.948	89.6279
506.676	242.102
511.402	37.2754
516.125	15.917
520.846	136.272
525.565	171.915
530.281	241.003
534.994	249.047
539.705	231.748
544.413	100.627
549.119	163.916
553.822	2.41504
558.523	193.743
563.222	64.9551
567.917	116.956
572.611	188.662
577.302	69.7256
581.99	209.053
586.676	121.944
591.359	121.139
596.04	229.488
600.718	105.504
605.394	209.315
610.067	94.168
614.737	40.5156
619.406	126.328
624.071	83.6738
628.734	50.8086
633.395	178.188
638.053	13.1074
642.708	147.562
647.361	212.107
652.012	175.725
656.66	280.555
661.305	254.098
665.948	38.1152
670.588	247.537
675.226	327.283
679.861	148.582
684.494	267.414
689.124	117.363
693.752	147.598
698.377	355.727
702.999	1582.68
707.619	2215.45
712.237	249.809
716.852	258.262
721.464	296.148
726.074	248.236
730.681	114.266
735.286	263.066
739.888	276.019
744.488	215.481
749.085	162.805
753.68	345.293
758.272	151.596
762.861	190.949
767.448	223.506
772.033	77.2578
776.614	201.168
781.194	162.693
785.77	170.842
790.345	155.74
794.916	258.412
799.485	37.9004
804.052	168.127
808.616	166.228
813.177	17.2969
817.736	254.762
822.292	191.57
826.846	121.484
831.397	95.5801
835.945	145.387
840.491	370.988
845.035	20.2246
849.576	142.273
854.114	49.1367
858.65	160.592
863.183	82.5117
867.713	99.5469
872.241	282.531
876.767	172.42
881.29	201.133
885.81	72.1133
890.328	150.711
894.843	211.709
899.356	189.06
903.866	161.197
908.373	35.0625
912.878	178.523
917.38	119.074
921.88	114.926
926.377	181.928
930.872	226.266
935.364	43.1016
939.853	85.9336
944.34	217.363
948.824	157.555
953.306	73.1836
957.785	239.342
962.261	10.9531
966.735	91.6289
971.207	271.641
975.675	56.7344
980.141	276
984.605	187.428
989.066	40.9805
993.524	87.8789
997.98	18.8184
1002.43	196.559
1006.88	47.0859
1011.33	154.065
1015.78	1.56836
1020.22	159.014
1024.66	26.1621
1029.1	37.3008
1033.53	99.6836
1037.97	120.301
1042.4	407.838
1046.82	60.3418
1051.25	86.2012
1055.67	245.494
1060.09	377.43
1064.51	150.512
1068.92	181.695
1073.33	399.176
1077.74	292.688
1082.15	3051.18
1086.55	30362.4
1090.95	2469.54
1095.35	345.697
1099.75	157.775
1104.14	68.9199
1108.53	154.469
1112.92	234.672
1117.31	18.9688
1121.69	75.6758
1126.07	80.7109
1130.45	200.272
1134.82	193.109
1139.19	148.459
1143.57	170.004
1147.93	228.916
1152.3	192.031
1156.66	50.2832
1161.02	258.879
1165.38	43.8105
1169.73	301.822
1174.08	42.7324
1178.43	98.709
1182.78	42.377
1187.12	118.6
1191.46	252.119
1195.8	46.7383
1200.14	136.629
1204.47	167.514
1208.8	131.787
1213.13	227.555
1217.46	37.752
1221.78	156.254
1226.1	209.742
1230.42	39.6895
1234.73	198.232
1239.04	140.578
1243.35	117.482
1247.66	205.416
1251.97	216.365
1256.27	133.035
1260.57	336.897
1264.86	277.004
1269.16	169.867
1273.45	172.242
1277.74	357.711
1282.03	191.943
1286.31	99.3184
1290.59	143.902
1294.87	210.547
1299.14	205.363
1303.42	309.852
1307.69	94.2129
1311.95	201.953
1316.22	125.482
1320.48	159.643
1324.74	203.644
1329	108.42
1333.26	49.4102
1337.51	294.812
1341.76	459.758
1346	511.596
1350.25	267.906
1354.49	289.596
1358.73	315.389
1362.96	374.236
1367.2	201.945
1371.43	178.18
1375.66	311.465
1379.88	231.527
1384.11	406.998
1388.33	224.602
1392.54	7.83984
1396.76	77.0019
1400.97	110.424
1405.18	213.648
1409.39	164.574
1413.59	178.119
1417.8	166.197
1421.99	110.068
1426.19	266.674
1430.38	118.578
1434.58	195.158
1438.77	249.641
1442.95	105.111
1447.13	363.703
1451.32	107.818
1455.49	149.367
1459.67	351.338
1463.84	463.803
1468.01	124.764
1472.18	308.254
1476.35	128.508
1480.51	185.971
1484.67	387.389
1488.83	252.685
1492.98	344.662
1497.13	303.867
1501.28	305.32
1505.43	356.75
1509.57	107.961
1513.71	118.894
1517.85	240.965
1521.99	338.91
1526.12	291.125
1530.25	257.41
1534.38	58.4883
1538.5	267.41
1542.62	535.008
1546.74	383.606
1550.86	400.059
1554.98	186.582
1559.09	217
1563.2	180.273
1567.31	73.6094
1571.41	0
