Measurement: Raman, 514 nm, ccw, Raman Data Processed
Mineral: Aragonite
Rruff sample: R060195
Ideal chemistry: CaCO_3_
Locality: Cicov Hill, Horenec, Czech Republic
Source: Marcus Origlieri
Description: Colorless transparent elongated prismatic crystal
Measured chemistry: Ca_1.00_CO_3_
Pin_id: L01577
Orientation: Laser parallel to a* (1 0 0). Fiducial mark perpendicular to laser is parallel to b [0 1 0]
Raman shift (cm-1)	intensity
100.883	0
105.815	73.1562
110.744	279.188
115.671	233.516
120.596	172.606
125.519	16.5762
130.439	216.252
135.356	374.198
140.271	363.271
145.184	668.66
150.094	865.151
155.002	1266.2
159.908	1121.47
164.811	1539.31
169.711	743.467
174.61	499.138
179.505	508.53
184.399	655.415
189.29	366.15
194.178	521.935
199.064	792.715
203.948	938.661
208.829	1481.21
213.708	985.509
218.585	282.42
223.459	159.934
228.33	278.544
233.199	230.802
238.066	311.769
242.93	315.118
247.792	257.862
252.651	272.123
257.508	281.269
262.363	252.43
267.215	124.478
272.064	231.076
276.912	41.1768
281.756	155.035
286.598	149.7
291.438	27.1211
296.276	153.214
301.111	108.404
305.943	236.171
310.773	131.558
315.601	58.1367
320.426	91.8516
325.248	15.8037
330.068	92.8965
334.886	139.533
339.701	33.2715
344.514	198.826
349.324	74.4121
354.132	47.125
358.938	95.8672
363.741	79.1269
368.541	39.0195
373.339	87.6152
378.135	58.5488
382.928	83.1035
387.718	40.1191
392.506	6.125
397.292	92.1562
402.075	117.984
406.856	220.795
411.634	180.867
416.41	4.79297
421.183	87.875
425.954	29.4629
430.722	37.2422
435.488	75.0664
440.251	47.9922
445.012	3.49805
449.77	213.356
454.526	15.6016
459.28	225.459
464.03	135.318
468.779	10.1641
473.525	211.625
478.268	42.5801
483.009	246.533
487.747	41.5586
492.483	168.373
497.217	1.80469
501.948	240.918
506.676	301.326
511.402	139.625
516.125	42.1367
520.846	207.658
525.565	42.3145
530.281	211.824
534.994	230.022
539.705	104.334
544.413	211.266
549.119	184.996
553.822	87.2109
558.523	359.857
563.222	247.856
567.917	74.3691
572.611	155.809
577.302	140.893
581.99	235.045
586.676	198.746
591.359	185.975
596.04	153.041
600.718	240.572
605.394	105.26
610.067	222.44
614.737	383.603
619.406	126.273
624.071	51.0508
628.734	33.3281
633.395	48.6992
638.053	166.352
642.708	194.426
647.361	71.0996
652.012	249.852
656.66	161.435
661.305	347.197
665.948	29.2656
670.588	177.977
675.226	324.062
679.861	226.537
684.494	110.217
689.124	141.248
693.752	243.766
698.377	250.754
702.999	107.25
707.619	161.713
712.237	346.59
716.852	286.707
721.464	305.621
726.074	218.977
730.681	186.959
735.286	285.58
739.888	208.227
744.488	193.629
749.085	118.519
753.68	67.3633
758.272	108.447
762.861	173.584
767.448	210.934
772.033	98.4609
776.614	105.338
781.194	109.951
785.77	110.557
790.345	199.596
794.916	123.416
799.485	72.4219
804.052	145.611
808.616	76.0293
813.177	90.9004
817.736	437.217
822.292	84.0684
826.846	154.082
831.397	106.424
835.945	127.272
840.491	248.959
845.035	164.705
849.576	342.365
854.114	668.104
858.65	89.1894
863.183	133.619
867.713	212.641
872.241	201.91
876.767	128.443
881.29	227.379
885.81	182.344
890.328	166.353
894.843	139.965
899.356	151.732
903.866	290.543
908.373	7.82812
912.878	217.408
917.38	200.441
921.88	125.818
926.377	171.072
930.872	52.0039
935.364	7.36133
939.853	170.182
944.34	27.5781
948.824	11.0059
953.306	161.58
957.785	216.418
962.261	31.252
966.735	367.82
971.207	130.359
975.675	92.8945
980.141	216.514
984.605	316.242
989.066	64.2148
993.524	125.693
997.98	45.5859
1002.43	115.012
1006.88	113.445
1011.33	188.166
1015.78	355.781
1020.22	110.107
1024.66	187.139
1029.1	186.652
1033.53	45.4297
1037.97	230.32
1042.4	199.248
1046.82	242.617
1051.25	71.3691
1055.67	51.5098
1060.09	494.965
1064.51	341.336
1068.92	261.201
1073.33	244.787
1077.74	358.074
1082.15	2763.56
1086.55	26545.5
1090.95	3205.61
1095.35	572.219
1099.75	106.289
1104.14	264.719
1108.53	13.1758
1112.92	124.734
1117.31	221.207
1121.69	72.5469
1126.07	275.121
1130.45	424.953
1134.82	355.352
1139.19	23.8438
1143.57	496.379
1147.93	265.688
1152.3	158.367
1156.66	276.348
1161.02	100.535
1165.38	130.496
1169.73	282.695
1174.08	81.5977
1178.43	494.617
1182.78	128.539
1187.12	301.523
1191.46	64.7656
1195.8	42
1200.14	262.168
1204.47	47.6367
1208.8	284.137
1213.13	249.816
1217.46	385.473
1221.78	443.801
1226.1	457.148
1230.42	350.473
1234.73	203.805
1239.04	445.258
1243.35	435.18
1247.66	91.8672
1251.97	10.043
1256.27	539.566
1260.57	168.523
1264.86	434.066
1269.16	322.336
1273.45	363.957
1277.74	167.5
1282.03	526.742
1286.31	438.383
1290.59	261.269
1294.87	426.832
1299.14	456.238
1303.42	356.41
1307.69	308.023
1311.95	124.148
1316.22	304.394
1320.48	292.801
1324.74	523.656
1329	539.574
1333.26	57.4531
1337.51	420.57
1341.76	71.4102
1346	389.559
1350.25	326.559
1354.49	393.492
1358.73	455.238
1362.96	141.805
1367.2	19.1836
1371.43	264.332
1375.66	54.9023
1379.88	316.699
1384.11	25.7773
1388.33	382.992
1392.54	110.047
1396.76	122.805
1400.97	142.078
1405.18	133.238
1409.39	87.4023
1413.59	66.3594
1417.8	132.918
1421.99	297.266
1426.19	164.926
1430.38	410.684
1434.58	211.242
1438.77	486.09
1442.95	389.723
1447.13	248.867
1451.32	134.996
1455.49	309.707
1459.67	384.117
1463.84	284.715
1468.01	171.223
1472.18	90.9023
1476.35	295.223
1480.51	294.035
1484.67	264.539
1488.83	241.043
1492.98	393.363
1497.13	391.613
1501.28	373.434
1505.43	591.344
1509.57	176.719
1513.71	510.094
1517.85	443.203
1521.99	504.117
1526.12	389.106
1530.25	397.57
1534.38	412.867
1538.5	453.91
1542.62	43.0508
1546.74	330.856
1550.86	438.379
1554.98	531.551
1559.09	110.148
1563.2	422.668
1567.31	174.648
1571.41	0
