Measurement: Raman, 514 nm, ccw, Raman Data Processed
Mineral: Aragonite
Rruff sample: R060195
Ideal chemistry: CaCO_3_
Locality: Cicov Hill, Horenec, Czech Republic
Source: Marcus Origlieri
Description: Colorless transparent elongated prismatic crystal
Measured chemistry: Ca_1.00_CO_3_
Pin_id: L01577
Orientation: Laser parallel to a* (1 0 0). Fiducial mark perpendicular to laser is parallel to b [0 1 0]
Raman shift (cm-1)	intensity
100.883	0
105.815	78.2212
110.744	95.6914
115.671	258.842
120.596	189.505
125.519	179.608
130.439	184.895
135.356	287.966
140.271	596.255
145.184	1987.41
150.094	664.614
155.002	414.689
159.908	552.059
164.811	1109.46
169.711	600.66
174.61	392.445
179.505	379.649
184.399	507.266
189.29	703.795
194.178	746.074
199.064	415.235
203.948	454.716
208.829	673.58
213.708	609.143
218.585	409.003
223.459	302.252
228.33	167.109
233.199	199.923
238.066	140.301
242.93	182.191
247.792	126.306
252.651	86.7383
257.508	265.829
262.363	226.096
267.215	243.959
272.064	336.782
276.912	402.567
281.756	201.199
286.598	160.824
291.438	101.642
296.276	144.215
301.111	57.3057
305.943	57.7022
310.773	136.6
315.601	57.874
320.426	53.4863
325.248	193.42
330.068	124.016
334.886	81.9043
339.701	77.041
344.514	9.85938
349.324	63.1914
354.132	36.793
358.938	34.6133
363.741	102.032
368.541	130.285
373.339	34.706
378.135	27.2744
382.928	104.144
387.718	55.1065
392.506	4.91699
397.292	152.671
402.075	87.2412
406.856	73.9981
411.634	80.0264
416.41	130.725
421.183	44.6055
425.954	92.9356
430.722	10.4834
435.488	62.0459
440.251	113.792
445.012	104.383
449.77	170.127
454.526	41.4756
459.28	149.188
464.03	54.044
468.779	69.9434
473.525	28.7881
478.268	152.913
483.009	111.041
487.747	59.8193
492.483	100.552
497.217	187.672
501.948	124.585
506.676	106.188
511.402	148.674
516.125	288.399
520.846	77.126
525.565	180.816
530.281	169.522
534.994	193.587
539.705	50.8506
544.413	151.757
549.119	286.394
553.822	126.144
558.523	174.419
563.222	77.8887
567.917	180.22
572.611	105.392
577.302	74.5478
581.99	71.333
586.676	143.141
591.359	2.25586
596.04	310.998
600.718	145.634
605.394	94.2529
610.067	270.28
614.737	76.9121
619.406	297.322
624.071	167.329
628.734	185.989
633.395	142.231
638.053	60.2998
642.708	118.2
647.361	211.606
652.012	146.31
656.66	133.016
661.305	165.533
665.948	140.289
670.588	300.56
675.226	223.856
679.861	194.749
684.494	63.9678
689.124	231.253
693.752	223.321
698.377	341.634
702.999	1917.59
707.619	2330.45
712.237	268.397
716.852	189.988
721.464	222.61
726.074	32.168
730.681	231.349
735.286	175.599
739.888	216.83
744.488	133.525
749.085	27.1299
753.68	255.693
758.272	196.678
762.861	15.668
767.448	77.3232
772.033	189.245
776.614	123.106
781.194	69.6934
785.77	117.228
790.345	136.628
794.916	241.178
799.485	146.542
804.052	225.713
808.616	124.75
813.177	138.767
817.736	162.594
822.292	166.522
826.846	211.297
831.397	252.08
835.945	3.50781
840.491	86.8613
845.035	229.004
849.576	69.1035
854.114	215.303
858.65	157.291
863.183	210.922
867.713	266.797
872.241	154.525
876.767	145.434
881.29	159.867
885.81	40.1406
890.328	125.418
894.843	240.498
899.356	126.853
903.866	193.717
908.373	16.2188
912.878	74.6035
917.38	188.305
921.88	35.0742
926.377	36.3672
930.872	75.6836
935.364	209.94
939.853	140.846
944.34	157.014
948.824	110.182
953.306	9.17969
957.785	36.0645
962.261	227.717
966.735	19.4219
971.207	246.336
975.675	189.897
980.141	74.3926
984.605	7.61523
989.066	230.916
993.524	80.2422
997.98	160.51
1002.43	113.67
1006.88	124.822
1011.33	186.102
1015.78	32.1035
1020.22	47.8223
1024.66	15.4609
1029.1	6.21875
1033.53	45.3066
1037.97	88.1035
1042.4	11.5449
1046.82	129.172
1051.25	36.6016
1055.67	207.238
1060.09	359.627
1064.51	305.965
1068.92	144.391
1073.33	385.883
1077.74	688.008
1082.15	3682.19
1086.55	39394.4
1090.95	4402.88
1095.35	495.316
1099.75	254.471
1104.14	201.166
1108.53	332.75
1112.92	214.615
1117.31	177.264
1121.69	115.147
1126.07	194.539
1130.45	131.029
1134.82	206.863
1139.19	1.85547
1143.57	9.5293
1147.93	373.098
1152.3	28.3516
1156.66	83.1934
1161.02	237.277
1165.38	57.1953
1169.73	213.103
1174.08	77.3418
1178.43	93.8926
1182.78	343.047
1187.12	23.2441
1191.46	51.4727
1195.8	159.004
1200.14	105.228
1204.47	101.451
1208.8	45.6445
1213.13	93.2891
1217.46	133.441
1221.78	197.598
1226.1	165.156
1230.42	368.154
1234.73	40.3359
1239.04	150.106
1243.35	194.57
1247.66	175.69
1251.97	47.8535
1256.27	288.551
1260.57	187.137
1264.86	82.2461
1269.16	225.881
1273.45	46.5801
1277.74	336.652
1282.03	277.893
1286.31	188.356
1290.59	158.758
1294.87	495.863
1299.14	108.008
1303.42	179.434
1307.69	389.736
1311.95	90.0098
1316.22	226.707
1320.48	231.019
1324.74	172.893
1329	98.1152
1333.26	283.272
1337.51	16.75
1341.76	257.959
1346	264.389
1350.25	433.56
1354.49	35.3652
1358.73	267.977
1362.96	140.885
1367.2	39.6504
1371.43	142.197
1375.66	249.65
1379.88	33.8926
1384.11	200.023
1388.33	184.99
1392.54	74.8633
1396.76	179.084
1400.97	119.039
1405.18	193.699
1409.39	253.94
1413.59	257.336
1417.8	441.652
1421.99	72.9141
1426.19	106.209
1430.38	48.3105
1434.58	134.344
1438.77	221.084
1442.95	4.96289
1447.13	209.451
1451.32	160.324
1455.49	379.32
1459.67	212.693
1463.84	312.713
1468.01	107.068
1472.18	259.178
1476.35	286.078
1480.51	301.568
1484.67	217.338
1488.83	302.978
1492.98	3.16406
1497.13	408.492
1501.28	149.361
1505.43	263.531
1509.57	321.994
1513.71	185.793
1517.85	336.9
1521.99	66.0254
1526.12	238.818
1530.25	459.16
1534.38	356.922
1538.5	132.957
1542.62	221.012
1546.74	440.094
1550.86	286.164
1554.98	256.139
1559.09	204.832
1563.2	15.7988
1567.31	65.9492
1571.41	0
