Measurement: Raman, 514 nm, ccw, Raman Data Processed
Mineral: Aragonite
Rruff sample: R060195
Ideal chemistry: CaCO_3_
Locality: Cicov Hill, Horenec, Czech Republic
Source: Marcus Origlieri
Description: Colorless transparent elongated prismatic crystal
Measured chemistry: Ca_1.00_CO_3_
Pin_id: L01088
Orientation: Laser parallel to b* (0 1 0). Fiducial mark perpendicular to laser is parallel to c [0 0 1]
Raman shift (cm-1)	intensity
100.883	0
105.815	68.7529
110.744	388.073
115.671	678.694
120.596	429.901
125.519	393.413
130.439	422.598
135.356	643.206
140.271	1161.96
145.184	2426.83
150.094	6423.93
155.002	13557.4
159.908	7001.85
164.811	1871.55
169.711	826.562
174.61	674.779
179.505	659.573
184.399	776.902
189.29	646.449
194.178	825.489
199.064	704.828
203.948	814.866
208.829	1647.19
213.708	1589.91
218.585	1579.16
223.459	797.973
228.33	400.682
233.199	131.672
238.066	432.373
242.93	213.661
247.792	341.331
252.651	247.326
257.508	251.279
262.363	319.316
267.215	22.3613
272.064	384.035
276.912	447.195
281.756	387.978
286.598	211.709
291.438	238.144
296.276	184.793
301.111	61.9668
305.943	142.725
310.773	11.2109
315.601	125.477
320.426	63.1582
325.248	208.334
330.068	16.5332
334.886	30.1211
339.701	227.547
344.514	2.5918
349.324	10.8965
354.132	28.373
358.938	89.3242
363.741	92.3828
368.541	111.805
373.339	60.7617
378.135	50.1504
382.928	35.9824
387.718	21.6875
392.506	21.9102
397.292	142.592
402.075	89.0938
406.856	194.703
411.634	41.7285
416.41	162.225
421.183	100.676
425.954	275.219
430.722	15.9941
435.488	82.4609
440.251	7.01562
445.012	43.4453
449.77	206.242
454.526	192.316
459.28	96.0684
464.03	153.449
468.779	130.935
473.525	129.332
478.268	39.6113
483.009	384.676
487.747	112.707
492.483	103.508
497.217	302.789
501.948	80.2949
506.676	92.7227
511.402	293.793
516.125	142.734
520.846	62.1836
525.565	263.578
530.281	56.2852
534.994	18.418
539.705	95.8945
544.413	196.74
549.119	22.4121
553.822	238.762
558.523	129.721
563.222	164.92
567.917	132.891
572.611	246.412
577.302	166.652
581.99	223.955
586.676	75.1719
591.359	170.619
596.04	127.844
600.718	93.8106
605.394	347.744
610.067	148.82
614.737	169.928
619.406	177.227
624.071	155.799
628.734	128.502
633.395	201.705
638.053	285.744
642.708	88.6953
647.361	157.385
652.012	49.2891
656.66	60.9531
661.305	173.201
665.948	25.3477
670.588	257.562
675.226	200.033
679.861	234.518
684.494	149.582
689.124	241.824
693.752	184.219
698.377	490.625
702.999	1380.48
707.619	1863.29
712.237	329.967
716.852	78.6465
721.464	28.9531
726.074	138.238
730.681	274.481
735.286	283.361
739.888	218.285
744.488	44.9375
749.085	27.2656
753.68	211.603
758.272	10.0273
762.861	5.55469
767.448	227.037
772.033	200.754
776.614	42.0898
781.194	234.541
785.77	254.981
790.345	8.23633
794.916	233.553
799.485	249.647
804.052	227.019
808.616	266.633
813.177	127.994
817.736	251.545
822.292	424.635
826.846	21.0938
831.397	28.9004
835.945	50.1641
840.491	13.373
845.035	112.418
849.576	298.047
854.114	349.809
858.65	122.027
863.183	373.475
867.713	189.182
872.241	96.1992
876.767	148.803
881.29	247.752
885.81	292.309
890.328	315.621
894.843	114.912
899.356	261.287
903.866	217.44
908.373	209.863
912.878	153.824
917.38	78.2852
921.88	257.195
926.377	243.531
930.872	145.682
935.364	245.498
939.853	169.316
944.34	203.156
948.824	359.115
953.306	254.348
957.785	257.385
962.261	166.658
966.735	284.637
971.207	181.44
975.675	99.9102
980.141	423.719
984.605	73.4394
989.066	98.1445
993.524	195.736
997.98	85.2559
1002.43	263.455
1006.88	87.5195
1011.33	214.625
1015.78	57.6289
1020.22	171.721
1024.66	220.877
1029.1	243.219
1033.53	196.082
1037.97	219.455
1042.4	281.812
1046.82	354.055
1051.25	20.6133
1055.67	72.4141
1060.09	304.918
1064.51	51.1426
1068.92	190.822
1073.33	287.258
1077.74	662.541
1082.15	2873.55
1086.55	31093.2
1090.95	3066.02
1095.35	582.137
1099.75	157.863
1104.14	274.352
1108.53	137.793
1112.92	145.418
1117.31	270.652
1121.69	152.523
1126.07	224.66
1130.45	248.523
1134.82	190.441
1139.19	215.625
1143.57	124.211
1147.93	156.238
1152.3	218.777
1156.66	85.5234
1161.02	241.16
1165.38	310.215
1169.73	89.2852
1174.08	330.449
1178.43	9.17188
1182.78	46.1914
1187.12	483.883
1191.46	283.531
1195.8	133.984
1200.14	2.62891
1204.47	97.4023
1208.8	209.973
1213.13	86.4023
1217.46	161.691
1221.78	181.016
1226.1	129.481
1230.42	153.531
1234.73	106.809
1239.04	162.297
1243.35	175.547
1247.66	460.051
1251.97	292.246
1256.27	345.469
1260.57	45.1602
1264.86	391.152
1269.16	98.5938
1273.45	225.578
1277.74	88.3047
1282.03	270.977
1286.31	321.914
1290.59	64.3008
1294.87	397.891
1299.14	492.75
1303.42	378.152
1307.69	262.527
1311.95	130.644
1316.22	343.363
1320.48	208.867
1324.74	474.367
1329	195.394
1333.26	290.418
1337.51	144.941
1341.76	343.656
1346	366.5
1350.25	17.1289
1354.49	169.707
1358.73	352.438
1362.96	20.7422
1367.2	3.32031
1371.43	143.34
1375.66	279.09
1379.88	194.297
1384.11	148.613
1388.33	108.586
1392.54	396.023
1396.76	124.16
1400.97	134.402
1405.18	273.055
1409.39	8.63672
1413.59	243.234
1417.8	289.348
1421.99	140.473
1426.19	5.90625
1430.38	8.88672
1434.58	140.312
1438.77	150.879
1442.95	136.793
1447.13	286.894
1451.32	185.703
1455.49	385.176
1459.67	274.894
1463.84	611.906
1468.01	300.344
1472.18	203.418
1476.35	162.16
1480.51	203.137
1484.67	208.949
1488.83	315.16
1492.98	165.414
1497.13	190.035
1501.28	200.043
1505.43	207.894
1509.57	223.805
1513.71	374.121
1517.85	199.481
1521.99	93.8516
1526.12	282.305
1530.25	424.922
1534.38	157.051
1538.5	40.1641
1542.62	475.332
1546.74	254.223
1550.86	391.238
1554.98	35.3867
1559.09	51.8242
1563.2	139.977
1567.31	233.051
1571.41	0
