Measurement: Raman, 514 nm, ccw, Raman Data Processed
Mineral: Aragonite
Rruff sample: R060195
Ideal chemistry: CaCO_3_
Locality: Cicov Hill, Horenec, Czech Republic
Source: Marcus Origlieri
Description: Colorless transparent elongated prismatic crystal
Measured chemistry: Ca_1.00_CO_3_
Pin_id: L01257
Orientation: Laser parallel to c* (0 0 1). Fiducial mark perpendicular to laser is parallel to a [1 0 0]
Raman shift (cm-1)	intensity
100.883	0
105.815	2.66504
110.744	160.034
115.671	241.206
120.596	217.466
125.519	352.926
130.439	420.76
135.356	611.219
140.271	593.916
145.184	1515.74
150.094	961.332
155.002	1007.94
159.908	840.357
164.811	1202.18
169.711	810.795
174.61	490.219
179.505	748.381
184.399	810.094
189.29	873.9
194.178	1118.03
199.064	792.512
203.948	665.443
208.829	851.737
213.708	677.026
218.585	708.782
223.459	540.115
228.33	374.856
233.199	282.04
238.066	332.435
242.93	398.999
247.792	406.093
252.651	242.766
257.508	337.366
262.363	195.19
267.215	386.179
272.064	479.465
276.912	389.879
281.756	362.554
286.598	372.959
291.438	226.881
296.276	126.62
301.111	93.5137
305.943	16.251
310.773	135.265
315.601	226.135
320.426	5.24609
325.248	84.5059
330.068	197.874
334.886	180.191
339.701	64.5156
344.514	156.33
349.324	50.4971
354.132	120.054
358.938	145.15
363.741	129.589
368.541	35.6416
373.339	99.8965
378.135	154.256
382.928	68.4922
387.718	17.084
392.506	127.02
397.292	20.4336
402.075	154.352
406.856	53.2451
411.634	47.7617
416.41	22.6172
421.183	32.4336
425.954	54.6904
430.722	51.7373
435.488	103.726
440.251	56.6426
445.012	88.1172
449.77	191.531
454.526	116.147
459.28	38.8633
464.03	11.4941
468.779	132.547
473.525	68.3164
478.268	84.7637
483.009	97.4531
487.747	160.676
492.483	175.932
497.217	155.08
501.948	0.15625
506.676	118.852
511.402	142.1
516.125	101.277
520.846	1.60938
525.565	52.8359
530.281	107.545
534.994	58.3555
539.705	125.348
544.413	14.9297
549.119	80.0293
553.822	64.291
558.523	142.615
563.222	148.596
567.917	191.822
572.611	219.451
577.302	0.126953
581.99	132.445
586.676	230.856
591.359	151.453
596.04	24.2715
600.718	42.0762
605.394	243.619
610.067	200.406
614.737	160.815
619.406	155.889
624.071	17.6543
628.734	9.37891
633.395	274.012
638.053	196.092
642.708	328.26
647.361	147.654
652.012	153.713
656.66	89.2227
661.305	287.291
665.948	191.791
670.588	229.287
675.226	196.361
679.861	154.262
684.494	113.891
689.124	154.92
693.752	29.4961
698.377	507.473
702.999	1970.1
707.619	1813.84
712.237	235.164
716.852	144.129
721.464	14.832
726.074	203.391
730.681	178.356
735.286	21.0137
739.888	131.121
744.488	166.496
749.085	243.51
753.68	209.207
758.272	25.2168
762.861	229.404
767.448	91.2441
772.033	184.914
776.614	64.7481
781.194	205.106
785.77	42.6113
790.345	280.432
794.916	7.39258
799.485	84.8535
804.052	276.791
808.616	241.543
813.177	222.619
817.736	281.742
822.292	260.285
826.846	364.881
831.397	252.527
835.945	51.709
840.491	134.488
845.035	133.779
849.576	309.908
854.114	241.791
858.65	235.397
863.183	151.535
867.713	136.908
872.241	135.84
876.767	35.2148
881.29	141.816
885.81	252.34
890.328	174.715
894.843	251.231
899.356	85.6797
903.866	244.152
908.373	115.894
912.878	281.592
917.38	313.728
921.88	74.3984
926.377	184.129
930.872	15.3496
935.364	626.805
939.853	188.045
944.34	200.039
948.824	104.941
953.306	217.848
957.785	122.652
962.261	297.283
966.735	331.582
971.207	341.117
975.675	146.178
980.141	170.088
984.605	201.055
989.066	179.111
993.524	168.639
997.98	219.338
1002.43	276.754
1006.88	302.156
1011.33	115.148
1015.78	281.004
1020.22	128.555
1024.66	345.69
1029.1	71.6621
1033.53	125.018
1037.97	7.83984
1042.4	127.264
1046.82	285.211
1051.25	127.697
1055.67	155.324
1060.09	498.008
1064.51	333.033
1068.92	269.328
1073.33	179.065
1077.74	362.144
1082.15	3852.18
1086.55	28191.2
1090.95	3838.12
1095.35	380.514
1099.75	515.275
1104.14	224.547
1108.53	189.065
1112.92	123.072
1117.31	171.185
1121.69	283.527
1126.07	190.205
1130.45	338.853
1134.82	125.564
1139.19	265.834
1143.57	315.334
1147.93	124.891
1152.3	351.674
1156.66	10.9531
1161.02	83.2441
1165.38	76.4824
1169.73	162.152
1174.08	381.084
1178.43	43.4043
1182.78	85.9531
1187.12	266.256
1191.46	153.045
1195.8	69.2715
1200.14	262.67
1204.47	53.9961
1208.8	79.1465
1213.13	230.582
1217.46	136.481
1221.78	165.129
1226.1	199.865
1230.42	52.5684
1234.73	263.004
1239.04	290.344
1243.35	46.4141
1247.66	290.701
1251.97	141.834
1256.27	258.24
1260.57	335.223
1264.86	179.824
1269.16	435.281
1273.45	319.309
1277.74	224.816
1282.03	345.523
1286.31	68.8008
1290.59	389.106
1294.87	195.707
1299.14	284.531
1303.42	242.125
1307.69	484.707
1311.95	213.148
1316.22	308.629
1320.48	207.199
1324.74	244.969
1329	275.137
1333.26	260.637
1337.51	284.406
1341.76	84.6953
1346	181.215
1350.25	321.879
1354.49	343.891
1358.73	92.7812
1362.96	349.793
1367.2	177.531
1371.43	126.144
1375.66	273.418
1379.88	317
1384.11	219.894
1388.33	39.3555
1392.54	320.648
1396.76	140.059
1400.97	144.547
1405.18	203.711
1409.39	44.1992
1413.59	153.516
1417.8	89.0391
1421.99	126.219
1426.19	212.043
1430.38	1.34375
1434.58	334.574
1438.77	81.0781
1442.95	109.039
1447.13	69.6172
1451.32	42.7305
1455.49	35.1836
1459.67	100.34
1463.84	262.91
1468.01	384.453
1472.18	47.1328
1476.35	292.906
1480.51	189.25
1484.67	515.012
1488.83	221.633
1492.98	256.473
1497.13	273.078
1501.28	386.414
1505.43	110.582
1509.57	434.43
1513.71	91.5859
1517.85	394.18
1521.99	422.051
1526.12	332.195
1530.25	33.2188
1534.38	352.246
1538.5	222.481
1542.62	160.973
1546.74	180.379
1550.86	281.523
1554.98	297.152
1559.09	265.934
1563.2	285.027
1567.31	244.461
1571.41	0
