Measurement: Raman, 514 nm, ccw, Raman Data Processed
Mineral: Aragonite
Rruff sample: R040078
Ideal chemistry: CaCO_3_
Locality: Molina, Aragon, Spain
Source: University of Arizona Mineral Museum
Description: Orange pseudohexagonal prisms
Measured chemistry: Ca_1.00_CO_3_
Pin_id: L00114
Orientation: Laser parallel to -b* (0 -1 0). Fiducial mark perpendicular to laser is parallel to -c [0 0 -1]
Raman shift (cm-1)	intensity
50.765	0
54.966	146.808
59.164	241.373
63.36	363.253
67.554	256.946
71.747	53.495
75.937	115.263
80.125	91.149
84.311	199.514
88.496	281.825
92.678	482.731
96.858	687.906
101.036	887.063
105.212	1173.06
109.387	1544.42
113.559	2097.18
117.729	1894.31
121.897	1042.24
126.063	1011.6
130.228	1181.35
134.39	1461.34
138.55	2234.51
142.709	4024.81
146.865	7801.01
151.019	19665.2
155.171	31159.5
159.322	13146.7
163.47	4717.27
167.617	2112.31
171.761	1255.42
175.904	861.76
180.044	632.605
184.183	615.714
188.319	524.615
192.454	566.726
196.586	556.677
200.717	620.692
204.846	1079.1
208.972	1419.79
213.097	2136.07
217.22	2566.08
221.341	1354.16
225.46	861.454
229.577	574.452
233.692	369.716
237.805	226.874
241.916	69.958
246.025	199.207
250.132	258.775
254.237	89.467
258.34	52.277
262.442	67.014
266.541	23.17
270.639	33.308
274.734	107.781
278.828	260.793
282.919	501.622
287.009	452.386
291.097	252.076
295.183	227.272
299.266	44.201
303.348	33.876
307.428	15.582
311.507	92.472
315.583	64.002
319.657	36.7
323.729	2.157
327.8	30.854
331.868	2.072
335.935	15.147
339.999	29.423
344.062	153.173
348.123	40.782
352.182	16.72
356.239	110.792
360.294	97.062
364.347	55.466
368.398	45.834
372.448	62.174
376.495	124.884
380.54	38.985
384.584	16.983
388.626	70.579
392.666	153.341
396.704	89.87
400.74	37.446
404.774	74.92
408.806	151.992
412.836	60.312
416.865	10.073
420.891	153.938
424.916	95.146
428.939	75.99
432.959	21.123
436.978	82.267
440.996	210.799
445.011	106.823
449.024	74.899
453.036	80.899
457.045	46.844
461.053	112.007
465.059	67.604
469.063	40.677
473.065	107.382
477.065	83.58
481.063	35.542
485.06	56.484
489.054	38.548
493.047	142.2
497.038	128.169
501.027	87.425
505.014	5.522
508.999	186.029
512.982	153.219
516.964	82.586
520.944	64.107
524.921	116.146
528.897	56.176
532.871	132.083
536.844	15.811
540.814	53.265
544.783	94.496
548.749	163.845
552.714	56.731
556.677	68.929
560.638	14.149
564.597	139.761
568.555	42.528
572.511	62.756
576.464	4.996
580.416	95.563
584.366	177.859
588.315	84.819
592.261	38.468
596.206	82.266
600.148	113.868
604.089	93.387
608.028	14.719
611.965	20.97
615.901	82.651
619.834	161.777
623.766	109.862
627.696	24.307
631.624	11.818
635.551	77.31
639.475	133.503
643.398	86.048
647.318	63.632
651.237	59.408
655.155	148.151
659.07	99.818
662.984	80.799
666.895	53.459
670.805	139.494
674.713	163.734
678.62	144.853
682.524	126.036
686.427	77.809
690.328	84.623
694.227	154.122
698.124	308.941
702.02	741.128
705.913	3971.38
709.805	1035.14
713.695	279.205
717.584	212.931
721.47	85.329
725.355	88.378
729.238	76.772
733.119	170.179
736.998	144.151
740.876	147.568
744.752	6.694
748.626	65.289
752.498	149.95
756.368	165.785
760.237	145.442
764.104	72.761
767.969	38.442
771.832	81.144
775.693	257.235
779.553	129.267
783.411	53.124
787.267	13.344
791.122	38.603
794.974	114.794
798.825	161.387
802.674	52.896
806.522	23.577
810.367	17.765
814.211	76.341
818.053	187.583
821.893	159.635
825.732	115.771
829.568	59.684
833.403	74.829
837.236	68.459
841.068	228.373
844.898	150.82
848.726	4.604
852.552	168.532
856.376	174.282
860.199	223.078
864.02	170.209
867.839	23.034
871.656	2.739
875.472	24.675
879.286	183.771
883.098	159.159
886.909	184.402
890.717	37.583
894.524	21.717
898.33	153.649
902.133	131.949
905.935	93.206
909.735	157.23
913.533	124.25
917.33	25.155
921.124	41.113
924.918	218.096
928.709	102.956
932.499	239.468
936.286	175.265
940.073	100.636
943.857	54.958
947.64	162.521
951.421	228.974
955.2	272.505
958.978	82.744
962.753	22.27
966.527	25.919
970.3	78.775
974.071	162.454
977.84	214.771
981.607	127.385
985.372	74.278
989.136	27.035
992.898	66.561
996.659	181.381
1000.42	246.358
1004.17	225.923
1007.93	131.33
1011.68	36.232
1015.43	32.13
1019.18	184.891
1022.93	247.07
1026.68	206.211
1030.42	155.479
1034.17	116.025
1037.91	88.528
1041.65	143.455
1045.39	402.335
1049.12	367.878
1052.86	440.902
1056.59	321.792
1060.33	382.141
1064.06	243.993
1067.78	227.247
1071.51	545.172
1075.23	911.207
1078.96	1468.81
1082.68	5207
1086.4	53905.4
1090.12	4223.08
1093.83	718.12
1097.55	502.521
1101.26	488.305
1104.97	512.11
1108.68	310.42
1112.39	251.07
1116.1	184.059
1119.8	67.048
1123.5	111.808
1127.2	317.86
1130.9	381.953
1134.6	396.129
1138.3	119.035
1141.99	201.951
1145.69	71.521
1149.38	35.127
1153.07	165.462
1156.76	207.159
1160.44	279.182
1164.13	288.487
1167.81	86.167
1171.49	24.492
1175.17	4.563
1178.85	196.62
1182.52	204.116
1186.2	284.597
1189.87	345.12
1193.54	321.325
1197.21	60.951
1200.88	145.97
1204.55	150.432
1208.21	96.14
1211.88	300.682
1215.54	394.745
1219.2	368.498
1222.86	312.342
1226.51	168.396
1230.17	113.96
1233.82	250.621
1237.47	233.149
1241.12	385.012
1244.77	417.684
1248.42	510.076
1252.06	461.625
1255.71	262.892
1259.35	134.208
1262.99	169.133
1266.63	249.643
1270.26	260.317
1273.9	330.568
1277.53	610.427
1281.16	529.93
1284.8	439.032
1288.42	328.207
1292.05	171.756
1295.68	2.542
1299.3	105.602
1302.92	57.055
1306.55	149.624
1310.16	172.12
1313.78	420.222
1317.4	224.513
1321.01	148.498
1324.62	32.678
1328.24	43.745
1331.85	40.547
1335.45	102.567
1339.06	232.853
1342.66	443.186
1346.27	454.605
1349.87	436.503
1353.47	247.662
1357.07	217.725
1360.66	138.04
1364.26	48.502
1367.85	98.649
1371.44	180.012
1375.04	149.793
1378.62	437.533
1382.21	483.865
1385.8	529.312
1389.38	414.283
1392.96	208.387
1396.54	222.687
1400.12	165.696
1403.7	32.439
1407.28	284.37
1410.85	282.386
1414.42	484.175
1417.99	667.816
1421.56	699.732
1425.13	627.669
1428.7	256.968
1432.26	186.288
1435.83	92.616
1439.39	14.518
1442.95	9.373
1446.51	259.841
1450.06	352.208
1453.62	386.562
1457.17	756.401
1460.73	1558.35
1464.28	2010.01
1467.83	668.618
1471.37	386.496
1474.92	303.837
1478.46	49.19
1482.01	180.504
1485.55	117.182
1489.09	256.727
1492.63	306.119
1496.16	356.335
1499.7	394.046
1503.23	455.876
1506.76	645.838
1510.29	515.307
1513.82	162.88
1517.35	36.439
