Measurement: Raman, 514 nm, ccw, Raman Data Processed
Mineral: Aragonite
Rruff sample: R040078
Ideal chemistry: CaCO_3_
Locality: Molina, Aragon, Spain
Source: University of Arizona Mineral Museum
Description: Orange pseudohexagonal prisms
Measured chemistry: Ca_1.00_CO_3_
Pin_id: L00299
Orientation: Laser parallel to c* (0 0 1). Fiducial mark perpendicular to laser is parallel to -a [-1 0 0]
Raman shift (cm-1)	intensity
114.949	0
119.119	8.135
123.286	125.796
127.452	34.042
131.615	118.26
135.777	164.701
139.937	723.475
144.094	1310.3
148.25	719.383
152.403	602.121
156.555	614.125
160.705	616.876
164.853	634.221
168.998	202.701
173.142	144.792
177.284	303.124
181.424	489.606
185.562	720.275
189.698	1001.52
193.831	899.506
197.963	477.708
202.093	451.801
206.221	693.838
210.347	905.933
214.472	976.655
218.594	564.195
222.714	319.126
226.832	61.048
230.948	166.753
235.063	52.21
239.175	56.602
243.286	47.055
247.394	137.531
251.501	89.029
255.605	127.971
259.708	119.116
263.808	2.724
267.907	14.237
272.004	270.09
276.099	308.312
280.192	412.848
284.283	370.66
288.372	321.722
292.459	216.439
296.544	77.05
300.627	117.479
304.709	178.935
308.788	62.708
312.865	68.663
316.941	78.492
321.015	25.53
325.086	65.689
329.156	31.22
333.224	6.412
337.29	3.567
341.354	68.542
345.416	15.339
349.476	30.498
353.534	128.421
357.591	73.159
361.645	94.066
365.698	37.914
369.748	21.523
373.797	42.369
377.844	51.092
381.889	108.601
385.932	156.025
389.973	128.255
394.012	9.677
398.049	36.569
402.084	65.657
406.118	67.373
410.15	78.293
414.179	188.344
418.207	60.577
422.233	20.239
426.257	114.485
430.279	71.122
434.299	137.33
438.318	198.428
442.334	127.474
446.349	135.78
450.361	192.749
454.372	138.513
458.381	75.696
462.388	96.814
466.394	80.386
470.397	134.955
474.398	92.233
478.398	101.667
482.396	181.075
486.391	157.782
490.385	233.937
494.377	86.737
498.368	8.983
502.356	101.834
506.342	118.169
510.327	45.297
514.31	95.251
518.291	3.993
522.27	183.578
526.247	89.755
530.222	143.378
534.196	117.82
538.167	59.006
542.137	69.062
546.105	142.985
550.071	23.226
554.035	126.537
557.998	118.014
561.958	65.134
565.917	40.337
569.874	83.756
573.829	248.983
577.782	77.084
581.733	68.116
585.683	54.083
589.63	60.937
593.576	7.274
597.52	83.597
601.462	84.723
605.402	17.174
609.341	148.153
613.277	41.107
617.212	43.489
621.145	27.446
625.076	68.359
629.006	75.34
632.933	177.976
636.859	121.304
640.783	15.266
644.705	100.803
648.625	145.864
652.543	122.436
656.46	87.666
660.375	93.444
664.288	100.878
668.199	98.084
672.108	160.148
676.016	203.019
679.921	63.943
683.825	142.683
687.727	158.259
691.628	209.991
695.526	421.692
699.423	1851.98
703.318	3545.7
707.211	2932.74
711.102	572.611
714.992	132.225
718.879	250.894
722.765	86.287
726.649	120.164
730.532	209.41
734.412	299.031
738.291	107.549
742.168	3.603
746.043	211.978
749.916	139.472
753.788	227.419
757.658	84.277
761.526	59.146
765.392	236.99
769.257	176.266
773.119	202.744
776.98	66.429
780.839	82.732
784.697	179.08
788.552	165.018
792.406	275.678
796.258	159.187
800.108	64.76
803.957	70.288
807.804	125.688
811.649	130.884
815.492	175.573
819.333	170.723
823.173	86.2
827.011	88.18
830.847	136.661
834.681	91.141
838.514	85.646
842.345	27.955
846.174	23.819
850.001	70.558
853.827	244.946
857.651	89.016
861.473	173.056
865.293	26.723
869.112	110.239
872.928	203.707
876.744	256.827
880.557	99.963
884.369	27.051
888.178	35.439
891.987	17.503
895.793	79.203
899.598	51.309
903.401	193.664
907.202	105.747
911.001	157.794
914.799	169.579
918.595	161.34
922.389	152.759
926.182	123.96
929.972	305.422
933.761	216.39
937.549	178.047
941.334	438.443
945.118	289.122
948.9	127.321
952.681	117.224
956.459	137.95
960.236	188.509
964.012	269.175
967.785	221.685
971.557	363.445
975.327	264.01
979.095	258.922
982.862	170.36
986.627	185.509
990.39	148.863
994.152	153.883
997.912	52.882
1001.67	165.499
1005.43	137.154
1009.18	94.851
1012.93	207.767
1016.68	349.044
1020.43	121.005
1024.18	262.102
1027.93	167.921
1031.67	74.645
1035.42	93.373
1039.16	243.99
1042.9	304.79
1046.63	104.326
1050.37	135.589
1054.11	216.483
1057.84	76.533
1061.57	396.742
1065.3	407.174
1069.03	497.168
1072.75	585.892
1076.47	826.089
1080.2	1765.97
1083.92	20625.9
1087.64	26915.9
1091.36	2145.43
1095.07	585.129
1098.79	324.945
1102.5	384.343
1106.21	183.599
1109.92	153.584
1113.62	27.067
1117.33	41.937
1121.04	260.655
1124.74	209.275
1128.44	7.682
1132.14	211.243
1135.83	52.224
1139.53	111.146
1143.22	99.015
1146.92	247.399
1150.61	287.293
1154.3	275.743
1157.98	4.297
1161.67	29.073
1165.35	38.408
1169.04	177.765
1172.72	146.315
1176.4	104.857
1180.07	313.175
1183.75	325.847
1187.42	343.195
1191.1	79.003
1194.77	154.358
1198.44	190.97
1202.1	245.428
1205.77	388.432
1209.43	291.214
1213.1	234.58
1216.76	126.794
1220.42	259.961
1224.07	333.277
1227.73	654.652
1231.38	677.133
1235.04	493.072
1238.69	323.686
1242.34	433.477
1245.99	482.887
1249.63	502.65
1253.28	191.576
1256.92	360.119
1260.56	397.512
1264.2	473.982
1267.84	330.605
1271.48	386.799
1275.11	221.664
1278.74	87.75
1282.38	167.439
1286.01	126.871
1289.63	109.824
1293.26	213.502
1296.89	263.998
1300.51	184.748
1304.13	373.963
1307.75	241.949
1311.37	110.316
1314.99	111.439
1318.6	86.111
1322.22	32.125
1325.83	59.07
1329.44	105.363
1333.05	221.332
1336.66	235.551
1340.26	209.734
1343.87	273.322
1347.47	287.328
1351.07	191.145
1354.67	154.33
1358.27	156.914
1361.86	28.938
1365.46	330.75
1369.05	312.986
1372.64	126.379
1376.23	38.006
1379.82	295.271
1383.41	195.287
1386.99	225.178
1390.57	103.041
1394.16	241.369
1397.74	228.18
1401.32	425.857
1404.89	318.014
1408.47	250.982
1412.04	508.398
1415.61	438.223
1419.18	78.055
1422.75	219.896
1426.32	104.684
1429.89	53.508
1433.45	15.42
1437.01	272.756
1440.58	287.863
1444.13	268.027
1447.69	449.947
1451.25	309.695
1454.81	520.068
1458.36	216.906
1461.91	481.398
1465.46	568.363
1469.01	446.039
1472.56	169.955
1476.1	315.127
1479.64	517.775
1483.19	432.781
1486.73	472.234
1490.27	462.033
1493.81	572.836
1497.34	375.113
1500.88	210.281
1504.41	219.24
1507.94	302.986
1511.47	15.365
1515	210.008
1518.53	0
