Measurement: Raman, 514 nm, ccw, Raman Data Processed
Mineral: Aragonite
Rruff sample: R040078
Ideal chemistry: CaCO_3_
Locality: Molina, Aragon, Spain
Source: University of Arizona Mineral Museum
Description: Orange pseudohexagonal prisms
Measured chemistry: Ca_1.00_CO_3_
Pin_id: L00344
Orientation: Laser parallel to a* (1 0 0). Fiducial mark perpendicular to laser is parallel to b [0 1 0]
Raman shift (cm-1)	intensity
106.604	0
110.777	27.961
114.949	173.407
119.119	123.197
123.286	116.376
127.452	45.007
131.615	16.814
135.777	141.243
139.937	274.311
144.094	563.481
148.25	1304.4
152.403	2774.66
156.555	2680.02
160.705	1873.04
164.853	1273.24
168.998	421.013
173.142	174.459
177.284	386.372
181.424	733.906
185.562	344.032
189.698	198.875
193.831	257.084
197.963	493.682
202.093	1090
206.221	2646.66
210.347	1814.67
214.472	612.433
218.594	213.551
222.714	157.912
226.832	132.119
230.948	208.449
235.063	68.767
239.175	131.806
243.286	231.757
247.394	326.077
251.501	294.624
255.605	198.808
259.708	222.796
263.808	61.66
267.907	141.303
272.004	52.703
276.099	1.263
280.192	84.976
284.283	65.902
288.372	116.386
292.459	75.877
296.544	87.212
300.627	68.638
304.709	105.996
308.788	75.301
312.865	52.593
316.941	26.977
321.015	125.155
325.086	133.278
329.156	64.505
333.224	32.246
337.29	126.02
341.354	58.865
345.416	71.207
349.476	138.453
353.534	112.361
357.591	107.299
361.645	39.196
365.698	113.357
369.748	89.781
373.797	142.207
377.844	83.905
381.889	96.906
385.932	150.348
389.973	181.178
394.012	87.044
398.049	94.706
402.084	126.672
406.118	209.02
410.15	72.833
414.179	159.287
418.207	185.707
422.233	77.212
426.257	105.918
430.279	64.756
434.299	162.553
438.318	193.242
442.334	97.387
446.349	120.01
450.361	109.723
454.372	174.559
458.381	78.982
462.388	130.373
466.394	122.541
470.397	225.225
474.398	55.283
478.398	79.31
482.396	150.692
486.391	177.425
490.385	135.968
494.377	88.104
498.368	41.905
502.356	188.458
506.342	142.933
510.327	89.339
514.31	38.304
518.291	135.482
522.27	179.151
526.247	127.872
530.222	63.939
534.196	144.577
538.167	128.933
542.137	72.143
546.105	62.993
550.071	134.504
554.035	174.325
557.998	168.135
561.958	100.761
565.917	30.27
569.874	129.61
573.829	160.961
577.782	112.188
581.733	174.089
585.683	21.64
589.63	265.777
593.576	109.941
597.52	92.227
601.462	97.635
605.402	60.032
609.341	60.474
613.277	66.951
617.212	19.32
621.145	1.064
625.076	118.953
629.006	150.132
632.933	119.893
636.859	4.992
640.783	9.203
644.705	55.756
648.625	191.562
652.543	124.588
656.46	24.962
660.375	73.361
664.288	96.129
668.199	111.449
672.108	126.144
676.016	2.23
679.921	106.338
683.825	83.011
687.727	74.931
691.628	117.324
695.526	10.768
699.423	99.338
703.318	211.848
707.211	366.994
711.102	82.803
714.992	49.774
718.879	105.431
722.765	177.386
726.649	455.004
730.532	179.775
734.412	425.693
738.291	110.108
742.168	4.349
746.043	232.485
749.916	78.405
753.788	45.586
757.658	11.852
761.526	121.97
765.392	231.35
769.257	126.671
773.119	111.348
776.98	32.035
780.839	183.074
784.697	71.461
788.552	201.406
792.406	149.563
796.258	117.072
800.108	45.552
803.957	81.243
807.804	179.997
811.649	110.056
815.492	128.429
819.333	25.648
823.173	56.326
827.011	42.716
830.847	129.92
834.681	128.031
838.514	5.963
842.345	93.382
846.174	41.523
850.001	218.06
853.827	1015.61
857.651	264.488
861.473	162.43
865.293	80.334
869.112	68.072
872.928	225.991
876.744	343.865
880.557	1.953
884.369	10.135
888.178	2.427
891.987	44.746
895.793	142.041
899.598	159.573
903.401	56.997
907.202	64.166
911.001	109.864
914.799	157.394
918.595	224.915
922.389	221.236
926.182	188.508
929.972	173.417
933.761	100.927
937.549	138.372
941.334	243.031
945.118	340.262
948.9	75.725
952.681	52.654
956.459	69.758
960.236	244.688
964.012	221.847
967.785	178.537
971.557	223.548
975.327	267.269
979.095	134.41
982.862	41.757
986.627	159.384
990.39	167.9
994.152	185.4
997.912	198.747
1001.67	87.578
1005.43	24.301
1009.18	113.737
1012.93	224.637
1016.68	453.188
1020.43	102.205
1024.18	172.459
1027.93	0.669
1031.67	156.246
1035.42	194.281
1039.16	292.312
1042.9	418.753
1046.63	266.543
1050.37	256.461
1054.11	225.164
1057.84	233.168
1061.57	501.806
1065.3	830.414
1069.03	479.027
1072.75	457.128
1076.47	584.984
1080.2	1383.23
1083.92	18431.5
1087.64	19469.8
1091.36	1677.22
1095.07	515.146
1098.79	502.98
1102.5	211.223
1106.21	188.733
1109.92	216.938
1113.62	232.93
1117.33	290.864
1121.04	368.564
1124.74	346.021
1128.44	113.355
1132.14	41.544
1135.83	131.619
1139.53	209.12
1143.22	177.109
1146.92	336.38
1150.61	414.891
1154.3	151.604
1157.98	48.761
1161.67	7.678
1165.35	59.978
1169.04	132.142
1172.72	241.66
1176.4	228.914
1180.07	306.48
1183.75	173.481
1187.42	93.928
1191.1	176.079
1194.77	80.218
1198.44	307.279
1202.1	321.651
1205.77	495.601
1209.43	308.239
1213.1	152.075
1216.76	224.738
1220.42	327.042
1224.07	220.165
1227.73	329.441
1231.38	584.157
1235.04	606.282
1238.69	606.838
1242.34	376.953
1245.99	236.98
1249.63	346.824
1253.28	136.494
1256.92	415.548
1260.56	364.745
1264.2	432.638
1267.84	550.533
1271.48	518.044
1275.11	345.351
1278.74	102.311
1282.38	108.773
1286.01	115.003
1289.63	30.128
1293.26	248.257
1296.89	371.251
1300.51	114.012
1304.13	193.159
1307.75	214.402
1311.37	124.312
1314.99	4.419
1318.6	33.938
1322.22	60.582
1325.83	139.715
1329.44	257.588
1333.05	345.215
1336.66	422.479
1340.26	178.941
1343.87	154.73
1347.47	50.428
1351.07	166.441
1354.67	192.525
1358.27	296.678
1361.86	301.371
1365.46	466.188
1369.05	470.412
1372.64	135.582
1376.23	110.307
1379.82	217.021
1383.41	168.758
1386.99	139.717
1390.57	179.572
1394.16	208.939
1397.74	427.287
1401.32	601.148
1404.89	487.303
1408.47	475.816
1412.04	515.936
1415.61	338.385
1419.18	3.254
1422.75	28.648
1426.32	22.232
1429.89	65.949
1433.45	248.83
1437.01	406.967
1440.58	402.52
1444.13	457.014
1447.69	561.266
1451.25	593.412
1454.81	607.209
1458.36	328.49
1461.91	388.4
1465.46	387.969
1469.01	276.697
1472.56	301.936
1476.1	553.219
1479.64	782.635
1483.19	623.303
1486.73	643.906
1490.27	625.648
1493.81	637.799
1497.34	361.846
1500.88	248.619
1504.41	208.023
1507.94	229.193
1511.47	6.561
1515	234.826
1518.53	0
