Measurement: Raman, 514 nm, ccw, Raman Data Processed
Mineral: Aragonite
Rruff sample: R060195
Ideal chemistry: CaCO_3_
Locality: Cicov Hill, Horenec, Czech Republic
Source: Marcus Origlieri
Description: Colorless transparent elongated prismatic crystal
Measured chemistry: Ca_1.00_CO_3_
Pin_id: L01088
Orientation: Laser parallel to b* (0 1 0). Fiducial mark perpendicular to laser is parallel to c [0 0 1]
Raman shift (cm-1)	intensity
100.883	0
105.815	203.831
110.744	77.6938
115.671	119.016
120.596	263.291
125.519	150.107
130.439	171.554
135.356	349.272
140.271	552.974
145.184	2039.36
150.094	681.674
155.002	573.498
159.908	666.566
164.811	1239.65
169.711	355.519
174.61	468.892
179.505	353.63
184.399	516.988
189.29	571.301
194.178	582.295
199.064	462.124
203.948	521.741
208.829	983.238
213.708	582.395
218.585	553.34
223.459	359.979
228.33	315.567
233.199	185.114
238.066	195.574
242.93	97.7158
247.792	157.102
252.651	311.143
257.508	56.6435
262.363	145.365
267.215	212.207
272.064	318.562
276.912	273.829
281.756	311.874
286.598	265.812
291.438	253.225
296.276	132.161
301.111	167.556
305.943	226.44
310.773	35.4639
315.601	144.86
320.426	10.6895
325.248	18.3154
330.068	135.027
334.886	112.044
339.701	23.3496
344.514	152.929
349.324	177.631
354.132	33.2422
358.938	201.684
363.741	141.33
368.541	22.1641
373.339	153.684
378.135	34.8603
382.928	2.79883
387.718	124.693
392.506	85.1455
397.292	89.793
402.075	63.1211
406.856	17.5625
411.634	11.919
416.41	88.6748
421.183	115.084
425.954	245.046
430.722	144.134
435.488	91.4482
440.251	149.773
445.012	91.9873
449.77	38.9824
454.526	244.562
459.28	68.2363
464.03	65.1777
468.779	191.183
473.525	94.9316
478.268	113.753
483.009	72.6523
487.747	111.835
492.483	21.3203
497.217	88.2852
501.948	235.658
506.676	138.513
511.402	102.59
516.125	89.9121
520.846	55.667
525.565	153.6
530.281	125.641
534.994	40.54
539.705	222.365
544.413	185.756
549.119	57.7559
553.822	183.495
558.523	54.0772
563.222	238.911
567.917	57.3018
572.611	177.115
577.302	152.619
581.99	139.083
586.676	106.286
591.359	203.775
596.04	158.263
600.718	220.688
605.394	157.664
610.067	180.721
614.737	102.706
619.406	136.934
624.071	110.206
628.734	254.454
633.395	156.754
638.053	142.334
642.708	105.598
647.361	194.795
652.012	40.6055
656.66	13.1924
661.305	138.647
665.948	42.6289
670.588	171.618
675.226	335.354
679.861	248.678
684.494	64.8789
689.124	31.0762
693.752	251.846
698.377	477.204
702.999	1294.22
707.619	3028.8
712.237	526.268
716.852	129.574
721.464	253.957
726.074	52.4082
730.681	164.156
735.286	93.6914
739.888	98.249
744.488	74.9258
749.085	117.812
753.68	257.603
758.272	179.355
762.861	330.667
767.448	91.5537
772.033	121.026
776.614	61.543
781.194	182.804
785.77	51.1133
790.345	228.977
794.916	103.871
799.485	199.947
804.052	40.7773
808.616	88.5742
813.177	223.208
817.736	169.731
822.292	97.1641
826.846	42.3867
831.397	183.662
835.945	75.666
840.491	182.82
845.035	223.566
849.576	147.301
854.114	154.215
858.65	203.385
863.183	48.3711
867.713	86.8574
872.241	42.625
876.767	80.1973
881.29	178.357
885.81	131.361
890.328	124.523
894.843	37.5645
899.356	188.697
903.866	230.908
908.373	102.699
912.878	64.3574
917.38	40.1895
921.88	37.0156
926.377	62.6934
930.872	240.109
935.364	45.959
939.853	115.158
944.34	107.275
948.824	119.404
953.306	125.326
957.785	135.607
962.261	95.7715
966.735	17.5449
971.207	193.398
975.675	88.832
980.141	209.15
984.605	243.662
989.066	28.6445
993.524	91.2051
997.98	186.346
1002.43	72.332
1006.88	40.0449
1011.33	5.21875
1015.78	154.018
1020.22	216.934
1024.66	87.6094
1029.1	242.043
1033.53	45.3281
1037.97	244.309
1042.4	80.6426
1046.82	102.889
1051.25	99.0312
1055.67	101.484
1060.09	201.086
1064.51	221.381
1068.92	331.344
1073.33	188.623
1077.74	496.69
1082.15	2779.88
1086.55	37397.7
1090.95	3594.66
1095.35	632.322
1099.75	282.191
1104.14	121.201
1108.53	135.731
1112.92	214.68
1117.31	54.6309
1121.69	6.03516
1126.07	130.273
1130.45	196.609
1134.82	173.738
1139.19	131.812
1143.57	213.357
1147.93	49.9062
1152.3	337.119
1156.66	139.299
1161.02	266.219
1165.38	16.2168
1169.73	274.383
1174.08	129.227
1178.43	103.93
1182.78	343.057
1187.12	135.107
1191.46	188.244
1195.8	71.6094
1200.14	226.426
1204.47	45.5996
1208.8	124.623
1213.13	98.8496
1217.46	186.008
1221.78	139.891
1226.1	11.7383
1230.42	172.711
1234.73	250.648
1239.04	249.43
1243.35	41.2871
1247.66	190.807
1251.97	129.051
1256.27	252.717
1260.57	39.4023
1264.86	196.961
1269.16	195.324
1273.45	157.217
1277.74	175.326
1282.03	180.852
1286.31	261
1290.59	103.697
1294.87	391.365
1299.14	166.01
1303.42	307.629
1307.69	188.506
1311.95	378.688
1316.22	23.1875
1320.48	190.941
1324.74	294.477
1329	58.3047
1333.26	342.445
1337.51	19.9785
1341.76	122.393
1346	228.01
1350.25	196.873
1354.49	145.277
1358.73	39.9551
1362.96	429.494
1367.2	61.6621
1371.43	193.705
1375.66	36.9219
1379.88	102.809
1384.11	73.4941
1388.33	142.891
1392.54	166.986
1396.76	105.781
1400.97	348.717
1405.18	287.685
1409.39	180.014
1413.59	72.3965
1417.8	180.383
1421.99	53.209
1426.19	228.059
1430.38	133.799
1434.58	173.109
1438.77	210.33
1442.95	235.426
1447.13	187.289
1451.32	47.1602
1455.49	51.4512
1459.67	324.062
1463.84	522.588
1468.01	308.65
1472.18	24.3379
1476.35	161.092
1480.51	90.5879
1484.67	137.443
1488.83	349.881
1492.98	222.728
1497.13	231.277
1501.28	99.7812
1505.43	323.139
1509.57	337.582
1513.71	208.115
1517.85	47.9844
1521.99	359.053
1526.12	123.633
1530.25	265.998
1534.38	432.535
1538.5	313.023
1542.62	238
1546.74	203.295
1550.86	94.2207
1554.98	143.004
1559.09	383.658
1563.2	298.391
1567.31	143.65
1571.41	0
