Measurement: Raman, 514 nm, ccw, Raman Data Processed
Mineral: Aragonite
Rruff sample: R040078
Ideal chemistry: CaCO_3_
Locality: Molina, Aragon, Spain
Source: University of Arizona Mineral Museum
Description: Orange pseudohexagonal prisms
Measured chemistry: Ca_1.00_CO_3_
Pin_id: L00344
Orientation: Laser parallel to a* (1 0 0). Fiducial mark perpendicular to laser is parallel to b [0 1 0]
Raman shift (cm-1)	intensity
105.212	0
109.387	8.255
113.559	13.023
117.729	92.394
121.897	34.781
126.063	64.95
130.228	47.981
134.39	82.153
138.55	479.717
142.709	1717.95
146.865	1033.02
151.019	1173.36
155.171	1456.67
159.322	1152.13
163.47	1125.98
167.617	568.69
171.761	511.395
175.904	1257
180.044	2978.36
184.183	1978.55
188.319	807.599
192.454	728.361
196.586	1150.92
200.717	3078.42
204.846	9433.62
208.972	10562.2
213.097	3542.94
217.22	1396.57
221.341	663.26
225.46	369.35
229.577	276.491
233.692	222.418
237.805	219.145
241.916	542.873
246.025	1179.93
250.132	1387.73
254.237	1071.06
258.34	965.879
262.442	900.797
266.541	377.574
270.639	187.226
274.734	245.224
278.828	232.134
282.919	346.768
287.009	187.902
291.097	140.474
295.183	73.399
299.266	55.279
303.348	35.101
307.428	0.653
311.507	74.892
315.583	41.582
319.657	43.861
323.729	48.226
327.8	36.8
331.868	44.933
335.935	21.629
339.999	34.308
344.062	57.066
348.123	41.968
352.182	43.721
356.239	69.242
360.294	54.421
364.347	106.461
368.398	91.18
372.448	7.395
376.495	52.108
380.54	45.264
384.584	61.197
388.626	126.995
392.666	110.657
396.704	65.9
400.74	30.17
404.774	69.884
408.806	138.992
412.836	25.914
416.865	47.93
420.891	139.847
424.916	127.306
428.939	76.147
432.959	55.205
436.978	81.744
440.996	168.063
445.011	103.531
449.024	73.988
453.036	94.182
457.045	105.11
461.053	136.003
465.059	36.489
469.063	78.185
473.065	76.878
477.065	109.133
481.063	45.123
485.06	41.007
489.054	46.756
493.047	74.088
497.038	129.883
501.027	52.528
505.014	71.923
508.999	76.719
512.982	112.928
516.964	58.243
520.944	55.756
524.921	78.883
528.897	28.715
532.871	47.241
536.844	77.124
540.814	139.953
544.783	114.299
548.749	135.705
552.714	14.022
556.677	119.072
560.638	124.555
564.597	46.317
568.555	103.02
572.511	33.604
576.464	17.574
580.416	82.111
584.366	88.519
588.315	53.333
592.261	41.875
596.206	96.864
600.148	13.373
604.089	43.261
608.028	42.841
611.965	50.514
615.901	63.859
619.834	103.037
623.766	6.94
627.696	9.43
631.624	108.362
635.551	121.127
639.475	36.609
643.398	108.265
647.318	0.811
651.237	82.352
655.155	188.263
659.07	40.909
662.984	14.416
666.895	59.959
670.805	3.169
674.713	157.984
678.62	106.732
682.524	73.163
686.427	77.487
690.328	121.162
694.227	79.67
698.124	289.651
702.02	817.526
705.913	2817.19
709.805	671.736
713.695	294.591
717.584	547.823
721.47	196.948
725.355	97.113
729.238	164.002
733.119	159.795
736.998	105.291
740.876	83.215
744.752	29.859
748.626	69.581
752.498	191.901
756.368	135.09
760.237	52.432
764.104	73.513
767.969	22.177
771.832	86.916
775.693	75.559
779.553	106.584
783.411	25.751
787.267	41.921
791.122	1.102
794.974	96.051
798.825	70.979
802.674	47.276
806.522	54.413
810.367	93.125
814.211	119.482
818.053	244.285
821.893	139.798
825.732	59.379
829.568	67.126
833.403	140.272
837.236	68.965
841.068	162.59
844.898	5.484
848.726	68.366
852.552	237.236
856.376	144.29
860.199	105.514
864.02	70.307
867.839	76.102
871.656	113.906
875.472	70.26
879.286	35.33
883.098	76.827
886.909	92.688
890.717	99.798
894.524	55.121
898.33	129.78
902.133	89.749
905.935	96.628
909.735	143.762
913.533	7.65
917.33	123.6
921.124	93.051
924.918	188.977
928.709	151.786
932.499	173.642
936.286	179.39
940.073	71.804
943.857	67.914
947.64	178.676
951.421	300.812
955.2	164.357
958.978	72.002
962.753	22.665
966.527	73.288
970.3	41.227
974.071	47.886
977.84	15.898
981.607	105.015
985.372	100.522
989.136	1.309
992.898	11.923
996.659	82.281
1000.42	203.74
1004.17	245.33
1007.93	13.172
1011.68	38.409
1015.43	173.378
1019.18	321.37
1022.93	253.292
1026.68	160.156
1030.42	139.077
1034.17	140.697
1037.91	142.556
1041.65	233.638
1045.39	332.208
1049.12	344.261
1052.86	266.715
1056.59	218.347
1060.33	439.554
1064.06	301.066
1067.78	312.282
1071.51	463.973
1075.23	625.396
1078.96	1246.78
1082.68	5618.55
1086.4	45391
1090.12	3552.55
1093.83	814.448
1097.55	405.84
1101.26	437.247
1104.97	408.91
1108.68	140.498
1112.39	181.532
1116.1	73.479
1119.8	155.055
1123.5	306.172
1127.2	166.92
1130.9	198.929
1134.6	211.892
1138.3	103.068
1141.99	125.796
1145.69	1.757
1149.38	104.644
1153.07	236.531
1156.76	209.349
1160.44	92.472
1164.13	205.937
1167.81	85.436
1171.49	20.302
1175.17	72.12
1178.85	193.192
1182.52	199.326
1186.2	291.253
1189.87	195.242
1193.54	155.726
1197.21	55.837
1200.88	165.134
1204.55	193.651
1208.21	192.577
1211.88	351.216
1215.54	379.314
1219.2	226.764
1222.86	184.634
1226.51	141.213
1230.17	81.007
1233.82	272.851
1237.47	309.468
1241.12	385.119
1244.77	390.518
1248.42	276.173
1252.06	331.255
1255.71	266.152
1259.35	70.974
1262.99	185.597
1266.63	279.909
1270.26	323.631
1273.9	326.863
1277.53	382.182
1281.16	355.062
1284.8	217.508
1288.42	149.942
1292.05	21.257
1295.68	127.608
1299.3	72.551
1302.92	37.674
1306.55	11.173
1310.16	116.571
1313.78	187.585
1317.4	84.86
1321.01	172.139
1324.62	108.758
1328.24	65.579
1331.85	41.454
1335.45	87.354
1339.06	162.396
1342.66	236.562
1346.27	151.087
1349.87	325.766
1353.47	192.65
1357.07	166.413
1360.66	110.295
1364.26	113.733
1367.85	217.002
1371.44	151.089
1375.04	233.079
1378.62	274.24
1382.21	340.558
1385.8	319.918
1389.38	268.182
1392.96	266.031
1396.54	243.736
1400.12	289.964
1403.7	194.39
1407.28	262.342
1410.85	331.202
1414.42	331.554
1417.99	457.963
1421.56	470.51
1425.13	400.5
1428.7	100.078
1432.26	45.627
1435.83	93.607
1439.39	130.016
1442.95	277.793
1446.51	206.586
1450.06	436.678
1453.62	261.892
1457.17	516.864
1460.73	621.244
1464.28	883.451
1467.83	705.643
1471.37	301.472
1474.92	231.746
1478.46	190.158
1482.01	311.242
1485.55	163.816
1489.09	288.334
1492.63	242.775
1496.16	227.646
1499.7	324.744
1503.23	364.406
1506.76	356.822
1510.29	317.344
1513.82	123.826
1517.35	104.117
1520.88	0
