Measurement: Raman, 514 nm, ccw, Raman Data Processed
Mineral: Aragonite
Rruff sample: R040078
Ideal chemistry: CaCO_3_
Locality: Molina, Aragon, Spain
Source: University of Arizona Mineral Museum
Description: Orange pseudohexagonal prisms
Measured chemistry: Ca_1.00_CO_3_
Pin_id: L00344
Orientation: Laser parallel to a* (1 0 0). Fiducial mark perpendicular to laser is parallel to b [0 1 0]
Raman shift (cm-1)	intensity
98.251	0
102.428	4.625
106.604	125.654
110.777	149.061
114.949	222.767
119.119	213.337
123.286	260.984
127.452	206.934
131.615	256.146
135.777	375.945
139.937	1196.71
144.094	2412.5
148.25	639.374
152.403	357.064
156.555	548.741
160.705	1058.46
164.853	949.245
168.998	314.39
173.142	191.817
177.284	291.498
181.424	379.542
185.562	269.125
189.698	259.636
193.831	316.245
197.963	343.995
202.093	563.896
206.221	1226.81
210.347	993.676
214.472	813.558
218.594	534.402
222.714	218.165
226.832	217.969
230.948	78.788
235.063	78.347
239.175	99.478
243.286	112.231
247.394	206.022
251.501	147.703
255.605	128.88
259.708	93.585
263.808	28.181
267.907	86.629
272.004	71.83
276.099	74.123
280.192	180.994
284.283	317.659
288.372	275.636
292.459	152.54
296.544	74.676
300.627	71.985
304.709	42.448
308.788	17.303
312.865	31.012
316.941	15.128
321.015	50.756
325.086	61.656
329.156	27.49
333.224	13.363
337.29	32.62
341.354	13.487
345.416	45.167
349.476	16.587
353.534	0.693
357.591	8.027
361.645	56.815
365.698	0.462
369.748	26.24
373.797	30.911
377.844	19.52
381.889	23.358
385.932	9.821
389.973	47.181
394.012	17.689
398.049	41.021
402.084	43.396
406.118	32.466
410.15	74.974
414.179	98.245
418.207	89.719
422.233	13.73
426.257	16.122
430.279	62.888
434.299	64.875
438.318	144.912
442.334	11.103
446.349	57.154
450.361	95.329
454.372	145.338
458.381	82.512
462.388	107.348
466.394	79.383
470.397	163.404
474.398	16.038
478.398	29.776
482.396	117.938
486.391	129.28
490.385	124.685
494.377	84.337
498.368	35.726
502.356	84.378
506.342	85.166
510.327	38.058
514.31	44.456
518.291	75.559
522.27	42.284
526.247	34.961
530.222	33.28
534.196	72.167
538.167	76.447
542.137	113.135
546.105	44.742
550.071	108.329
554.035	60.894
557.998	76.39
561.958	14.81
565.917	62.131
569.874	100.221
573.829	92.444
577.782	102.647
581.733	15.542
585.683	26.955
589.63	0.538
593.576	97.299
597.52	25.123
601.462	74.532
605.402	22.604
609.341	100.006
613.277	77.394
617.212	28.688
621.145	5.105
625.076	43.279
629.006	57.571
632.933	142.402
636.859	30.297
640.783	64.389
644.705	119.188
648.625	76.098
652.543	59.94
656.46	23.032
660.375	3.702
664.288	104.765
668.199	65.232
672.108	80.71
676.016	58.114
679.921	95.302
683.825	97.721
687.727	88.709
691.628	138.771
695.526	135.713
699.423	478.871
703.318	2082.68
707.211	3040.43
711.102	467.938
714.992	160.581
718.879	145.591
722.765	163.775
726.649	107.812
730.532	51.15
734.412	160.123
738.291	62.072
742.168	118.757
746.043	64.278
749.916	121.433
753.788	92.305
757.658	5.302
761.526	18.01
765.392	70.935
769.257	133.421
773.119	73.945
776.98	5.823
780.839	0.22
784.697	45.583
788.552	136.074
792.406	63.701
796.258	37.914
800.108	15.156
803.957	15.256
807.804	166.219
811.649	22.222
815.492	98.706
819.333	58.702
823.173	31.869
827.011	30.636
830.847	136.18
834.681	60.939
838.514	47.712
842.345	32.415
846.174	56.251
850.001	7.846
853.827	174.771
857.651	117.486
861.473	112.098
865.293	14.661
869.112	41.209
872.928	117.801
876.744	165.4
880.557	69.93
884.369	85.359
888.178	54.849
891.987	1.33
895.793	44.834
899.598	5.838
903.401	106.353
907.202	37.817
911.001	67.791
914.799	118.172
918.595	74.687
922.389	82.312
926.182	39.945
929.972	18.312
933.761	103.462
937.549	121.116
941.334	144.787
945.118	165.399
948.9	47.783
952.681	75.362
956.459	182.011
960.236	93.477
964.012	139.223
967.785	144.928
971.557	112.669
975.327	43.412
979.095	175.032
982.862	83.932
986.627	71.855
990.39	119.118
994.152	88.175
997.912	13.771
1001.67	101.201
1005.43	63.334
1009.18	3.324
1012.93	71.007
1016.68	132.707
1020.43	71.537
1024.18	81.645
1027.93	118.479
1031.67	136.313
1035.42	66.175
1039.16	173.458
1042.9	203.613
1046.63	197.916
1050.37	172.698
1054.11	105.106
1057.84	247.449
1061.57	407.535
1065.3	389.579
1069.03	358.908
1072.75	496.271
1076.47	683.368
1080.2	1748.6
1083.92	27134.9
1087.64	22050.1
1091.36	2015.24
1095.07	551.396
1098.79	364.91
1102.5	241.218
1106.21	197.418
1109.92	203.667
1113.62	159.203
1117.33	182.553
1121.04	228.801
1124.74	170.627
1128.44	44.512
1132.14	25.233
1135.83	23.275
1139.53	109.971
1143.22	115.209
1146.92	231.271
1150.61	163.14
1154.3	240.58
1157.98	44.314
1161.67	2.943
1165.35	130.085
1169.04	119.035
1172.72	168.614
1176.4	115.322
1180.07	238.723
1183.75	158.198
1187.42	87.443
1191.1	35.198
1194.77	11.559
1198.44	120.178
1202.1	235.55
1205.77	233.424
1209.43	182.303
1213.1	187.176
1216.76	58.726
1220.42	127.864
1224.07	239.727
1227.73	216.388
1231.38	347.472
1235.04	325.563
1238.69	240.172
1242.34	107.934
1245.99	124.467
1249.63	155.252
1253.28	188.429
1256.92	159.653
1260.56	137.401
1264.2	179.182
1267.84	256.858
1271.48	172.126
1275.11	89.982
1278.74	85.151
1282.38	91.766
1286.01	83.405
1289.63	49.666
1293.26	228.24
1296.89	147.222
1300.51	37.416
1304.13	151.111
1307.75	86.458
1311.37	18.187
1314.99	93.517
1318.6	8.691
1322.22	0.905
1325.83	95.037
1329.44	51.876
1333.05	157.984
1336.66	163.974
1340.26	149.678
1343.87	145.266
1347.47	120.66
1351.07	75.965
1354.67	152.3
1358.27	127.579
1361.86	192.193
1365.46	287.312
1369.05	292.225
1372.64	177.775
1376.23	12.622
1379.82	139.293
1383.41	108.129
1386.99	116.82
1390.57	55.019
1394.16	163.167
1397.74	290.36
1401.32	456.48
1404.89	291.942
1408.47	256.354
1412.04	249.599
1415.61	225.338
1419.18	12.119
1422.75	28.958
1426.32	74.979
1429.89	25.185
1433.45	105.991
1437.01	227.676
1440.58	178.743
1444.13	249.271
1447.69	242.928
1451.25	260.671
1454.81	249.627
1458.36	157.514
1461.91	313.225
1465.46	540.324
1469.01	318.621
1472.56	231.947
1476.1	219.56
1479.64	388.597
1483.19	427.643
1486.73	406.405
1490.27	456.062
1493.81	326.491
1497.34	158.291
1500.88	140.271
1504.41	164.827
1507.94	170.268
1511.47	4.453
1515	133.452
1518.53	0
