Measurement: Raman, 514 nm, ccw, Raman Data Processed
Mineral: Aragonite
Rruff sample: R060195
Ideal chemistry: CaCO_3_
Locality: Cicov Hill, Horenec, Czech Republic
Source: Marcus Origlieri
Description: Colorless transparent elongated prismatic crystal
Measured chemistry: Ca_1.00_CO_3_
Pin_id: L01577
Orientation: Laser parallel to a* (1 0 0). Fiducial mark perpendicular to laser is parallel to b [0 1 0]
Raman shift (cm-1)	intensity
100.883	0
105.815	29.7705
110.744	259.307
115.671	183.447
120.596	115.272
125.519	265.591
130.439	348.6
135.356	451.649
140.271	338.444
145.184	1115.09
150.094	1181.79
155.002	2739.8
159.908	1987.26
164.811	1147.04
169.711	636.805
174.61	622.509
179.505	1375.83
184.399	2141.33
189.29	1043.47
194.178	933.31
199.064	1504.9
203.948	2979.63
208.829	7980.5
213.708	3425.69
218.585	859.861
223.459	503.575
228.33	401.166
233.199	374.455
238.066	329.05
242.93	413.7
247.792	823.18
252.651	1012.69
257.508	676.114
262.363	809.863
267.215	625.082
272.064	313.192
276.912	351.492
281.756	326.503
286.598	283.803
291.438	116.914
296.276	14.6904
301.111	85.6816
305.943	3.90137
310.773	11.5625
315.601	150.192
320.426	172.486
325.248	131.485
330.068	49.2666
334.886	100.125
339.701	120.905
344.514	53.1357
349.324	4.93848
354.132	11.7334
358.938	128.95
363.741	66.4199
368.541	45.6152
373.339	14.6836
378.135	36.9199
382.928	101.807
387.718	100.142
392.506	66.3428
397.292	17.4346
402.075	212.253
406.856	148.143
411.634	10.2227
416.41	95.6387
421.183	152.685
425.954	78.6631
430.722	231.656
435.488	117.143
440.251	77.4658
445.012	62.3916
449.77	164.926
454.526	85.7275
459.28	74.6162
464.03	168.153
468.779	96.4228
473.525	203.674
478.268	237.842
483.009	75.7715
487.747	45.75
492.483	150.337
497.217	95.3486
501.948	116.69
506.676	9.19043
511.402	68.249
516.125	131.496
520.846	202.406
525.565	49.8047
530.281	48.8027
534.994	168.509
539.705	68.5342
544.413	46.3135
549.119	185.959
553.822	27.2754
558.523	140.099
563.222	84.1103
567.917	118.723
572.611	134.318
577.302	130.711
581.99	197.037
586.676	249.889
591.359	104.076
596.04	86.0312
600.718	114.705
605.394	201.955
610.067	67.9629
614.737	263.092
619.406	102.283
624.071	104.186
628.734	192.221
633.395	169.451
638.053	42.5547
642.708	222.707
647.361	89.9336
652.012	345.6
656.66	100.426
661.305	243.795
665.948	167.512
670.588	101.543
675.226	156.135
679.861	295.162
684.494	112.346
689.124	39.459
693.752	236
698.377	269.59
702.999	946.106
707.619	1091.94
712.237	162.83
716.852	298.961
721.464	138.92
726.074	171.824
730.681	246.107
735.286	270.109
739.888	225.418
744.488	53.791
749.085	248.359
753.68	20.7422
758.272	141.139
762.861	77.0312
767.448	161.935
772.033	63.709
776.614	276.69
781.194	182.404
785.77	130.031
790.345	240.082
794.916	214.057
799.485	118.871
804.052	249.377
808.616	266.428
813.177	309.342
817.736	91.6699
822.292	36.8828
826.846	39.8008
831.397	271.227
835.945	348.629
840.491	169.523
845.035	159.932
849.576	287.361
854.114	304.565
858.65	196.443
863.183	3.93945
867.713	233.512
872.241	155.359
876.767	123.459
881.29	214.065
885.81	116.865
890.328	206.336
894.843	74.9727
899.356	305.848
903.866	34.0449
908.373	109.84
912.878	102.045
917.38	55.0332
921.88	101.787
926.377	227.914
930.872	5.71289
935.364	139.775
939.853	127.772
944.34	197.986
948.824	292.66
953.306	169.412
957.785	103.938
962.261	296.5
966.735	116.719
971.207	143.029
975.675	172.459
980.141	80.2227
984.605	11.2773
989.066	68.1367
993.524	183.201
997.98	103.553
1002.43	206.611
1006.88	128.107
1011.33	258.428
1015.78	40.4844
1020.22	46.498
1024.66	222.012
1029.1	193.16
1033.53	97.4219
1037.97	255.883
1042.4	82.3848
1046.82	217.232
1051.25	228.025
1055.67	174.029
1060.09	280.373
1064.51	305.453
1068.92	245.062
1073.33	97.4785
1077.74	307.893
1082.15	2645.56
1086.55	24873.4
1090.95	3336.28
1095.35	672.744
1099.75	143.914
1104.14	182.365
1108.53	230.791
1112.92	5.84961
1117.31	61.3828
1121.69	259.873
1126.07	169.065
1130.45	161.662
1134.82	192.725
1139.19	302.691
1143.57	176.815
1147.93	194.432
1152.3	109.785
1156.66	189.225
1161.02	337.328
1165.38	268.031
1169.73	153.031
1174.08	59.7656
1178.43	238.522
1182.78	186.127
1187.12	296.703
1191.46	340.32
1195.8	45.0586
1200.14	194.236
1204.47	174.59
1208.8	115.904
1213.13	212.16
1217.46	158.641
1221.78	411.92
1226.1	76.9922
1230.42	154.572
1234.73	272.125
1239.04	179.398
1243.35	338.69
1247.66	347.897
1251.97	233.18
1256.27	316
1260.57	44.6172
1264.86	32.2871
1269.16	87.0059
1273.45	425.781
1277.74	230.346
1282.03	323.508
1286.31	238.723
1290.59	224.852
1294.87	103.219
1299.14	204.078
1303.42	209.629
1307.69	247.391
1311.95	338.106
1316.22	435.668
1320.48	145.633
1324.74	108.547
1329	144.973
1333.26	256.523
1337.51	285.695
1341.76	19.793
1346	392.137
1350.25	428.621
1354.49	72.5352
1358.73	136.023
1362.96	320.977
1367.2	237.434
1371.43	223.59
1375.66	282.981
1379.88	109.766
1384.11	316.758
1388.33	251.055
1392.54	79.6992
1396.76	353.609
1400.97	184.125
1405.18	231.508
1409.39	361.234
1413.59	85.1172
1417.8	446.789
1421.99	278.848
1426.19	149.727
1430.38	129.078
1434.58	221.394
1438.77	180.004
1442.95	337.668
1447.13	316.418
1451.32	83.6445
1455.49	224.305
1459.67	369.406
1463.84	542.633
1468.01	292.891
1472.18	135.852
1476.35	394.051
1480.51	206.84
1484.67	152.246
1488.83	440.981
1492.98	379.891
1497.13	232.445
1501.28	262.469
1505.43	559.227
1509.57	375.859
1513.71	457.164
1517.85	188.16
1521.99	29.1797
1526.12	185.086
1530.25	609.953
1534.38	40.625
1538.5	482.008
1542.62	427.606
1546.74	128.266
1550.86	10.8555
1554.98	319.609
1559.09	120.481
1563.2	39.207
1567.31	66.5
1571.41	0
