Measurement: Raman, 514 nm, ccw, Raman Data Processed
Mineral: Aragonite
Rruff sample: R040078
Ideal chemistry: CaCO_3_
Locality: Molina, Aragon, Spain
Source: University of Arizona Mineral Museum
Description: Orange pseudohexagonal prisms
Measured chemistry: Ca_1.00_CO_3_
Pin_id: L00114
Orientation: Laser parallel to -b* (0 -1 0). Fiducial mark perpendicular to laser is parallel to -c [0 0 -1]
Raman shift (cm-1)	intensity
50.765	0
54.966	47.386
59.164	158.593
63.36	309.127
67.554	242.769
71.747	40
75.937	145.436
80.125	332.132
84.311	345.482
88.496	319.974
92.678	434.264
96.858	636.07
101.036	864.09
105.212	907.119
109.387	1044.59
113.559	1209.76
117.729	1318.61
121.897	937.088
126.063	937.228
130.228	965.973
134.39	950.296
138.55	1064.97
142.709	1420.83
146.865	2034.76
151.019	4056.86
155.171	6045.27
159.322	3457.99
163.47	2664.43
167.617	1249.48
171.761	936.85
175.904	812.586
180.044	1098.64
184.183	850.968
188.319	648.722
192.454	587.917
196.586	743.222
200.717	1065.15
204.846	2342.95
208.972	2380.01
213.097	942.415
217.22	657.339
221.341	493.506
225.46	292.24
229.577	417.063
233.692	352.861
237.805	294.46
241.916	300.662
246.025	461.792
250.132	586.261
254.237	354.045
258.34	315.576
262.442	253.884
266.541	80.443
270.639	28.547
274.734	106.452
278.828	300.659
282.919	263.097
287.009	105.703
291.097	150.129
295.183	220.906
299.266	220.981
303.348	105.189
307.428	109.525
311.507	223.987
315.583	77.575
319.657	6.669
323.729	82.175
327.8	102.548
331.868	71.546
335.935	45.671
339.999	102.916
344.062	231.255
348.123	86.695
352.182	56.212
356.239	166.805
360.294	130.59
364.347	109.481
368.398	38.721
372.448	51.149
376.495	142.039
380.54	36.062
384.584	39.641
388.626	38.732
392.666	92.365
396.704	15.642
400.74	92.508
404.774	44.863
408.806	133.368
412.836	69.656
416.865	37.727
420.891	121.194
424.916	80.909
428.939	63.334
432.959	33.256
436.978	83.805
440.996	121.06
445.011	48.96
449.024	13.682
453.036	42.616
457.045	114.823
461.053	178.778
465.059	18.603
469.063	49.432
473.065	107.285
477.065	213.547
481.063	68.886
485.06	68.806
489.054	55.084
493.047	146.887
497.038	145.109
501.027	58.854
505.014	7.084
508.999	129.153
512.982	98.887
516.964	25.619
520.944	36.996
524.921	121.356
528.897	166.401
532.871	135.959
536.844	31.204
540.814	14.155
544.783	201.816
548.749	294.41
552.714	53.94
556.677	34.648
560.638	144.382
564.597	148.549
568.555	103.244
572.511	57.291
576.464	51.189
580.416	182.199
584.366	193.225
588.315	114.666
592.261	22.263
596.206	148.302
600.148	154.476
604.089	241.471
608.028	69.999
611.965	9.928
615.901	167.888
619.834	324.317
623.766	159.715
627.696	106.42
631.624	114.901
635.551	186.258
639.475	242.622
643.398	112.794
647.318	2.836
651.237	10.729
655.155	270.172
659.07	248.804
662.984	48.65
666.895	49.804
670.805	111.699
674.713	208.385
678.62	310.682
682.524	168.203
686.427	35.52
690.328	162.751
694.227	212.606
698.124	372.021
702.02	184.5
705.913	330.075
709.805	157.042
713.695	304.951
717.584	309.114
721.47	180.086
725.355	152.795
729.238	85.882
733.119	236.618
736.998	369.57
740.876	138.012
744.752	11.684
748.626	141.685
752.498	282.964
756.368	313.401
760.237	226.064
764.104	43.055
767.969	59.971
771.832	109.879
775.693	311.062
779.553	281.274
783.411	20.327
787.267	70.739
791.122	34.581
794.974	231.286
798.825	249.353
802.674	116.353
806.522	37.565
810.367	15.679
814.211	184.736
818.053	402.681
821.893	211.154
825.732	110.062
829.568	47.634
833.403	26.467
837.236	195.094
841.068	369.498
844.898	298.385
848.726	115.946
852.552	744.627
856.376	415.984
860.199	424.667
864.02	343.385
867.839	172.112
871.656	8.971
875.472	70.246
879.286	207.827
883.098	326.248
886.909	355.475
890.717	83.78
894.524	30.95
898.33	87.749
902.133	376.258
905.935	314.493
909.735	292.994
913.533	178.504
917.33	116.552
921.124	34.988
924.918	323.507
928.709	372.093
932.499	430.592
936.286	185.339
940.073	108.604
943.857	96.763
947.64	345.016
951.421	403.604
955.2	356.374
958.978	184.531
962.753	32.808
966.527	21.158
970.3	160.057
974.071	298.546
977.84	277.149
981.607	205.918
985.372	154.688
989.136	126.454
992.898	42.146
996.659	340.597
1000.42	399.413
1004.17	489.837
1007.93	119.499
1011.68	118.885
1015.43	121.636
1019.18	291.99
1022.93	360.706
1026.68	531.911
1030.42	310.252
1034.17	220.182
1037.91	169.959
1041.65	306.95
1045.39	377.017
1049.12	507.61
1052.86	578.464
1056.59	348.254
1060.33	408.857
1064.06	82.337
1067.78	322.049
1071.51	630.354
1075.23	989.862
1078.96	1529.57
1082.68	4839.17
1086.4	48259.3
1090.12	3718.82
1093.83	778.984
1097.55	607.279
1101.26	726.943
1104.97	746.636
1108.68	403.189
1112.39	212.402
1116.1	42.439
1119.8	172.018
1123.5	381.921
1127.2	531.859
1130.9	591.771
1134.6	591.535
1138.3	154.189
1141.99	155.09
1145.69	165.353
1149.38	28.143
1153.07	418.102
1156.76	608.538
1160.44	387.32
1164.13	548.363
1167.81	149.278
1171.49	88.312
1175.17	0.393
1178.85	257.777
1182.52	475.418
1186.2	543.048
1189.87	503.01
1193.54	400.641
1197.21	18.895
1200.88	215.656
1204.55	181.934
1208.21	229.407
1211.88	514.409
1215.54	728.944
1219.2	553.425
1222.86	557.898
1226.51	243.906
1230.17	141.289
1233.82	348.889
1237.47	482.019
1241.12	464.702
1244.77	697.595
1248.42	750.701
1252.06	722.74
1255.71	404.059
1259.35	125.859
1262.99	237.091
1266.63	267.477
1270.26	518.071
1273.9	697.661
1277.53	976.959
1281.16	786.016
1284.8	474.935
1288.42	423.196
1292.05	39.478
1295.68	132.977
1299.3	66.97
1302.92	2.207
1306.55	257.085
1310.16	508.017
1313.78	650.39
1317.4	507.449
1321.01	279.285
1324.62	171.495
1328.24	137.096
1331.85	3.904
1335.45	234.823
1339.06	335.26
1342.66	712.981
1346.27	661.887
1349.87	520.984
1353.47	521.436
1357.07	276.664
1360.66	134.4
1364.26	131.955
1367.85	189.516
1371.44	417.496
1375.04	293.506
1378.62	775.814
1382.21	850.4
1385.8	894.436
1389.38	727.865
1392.96	400.178
1396.54	342.607
1400.12	173.094
1403.7	153.955
1407.28	434.133
1410.85	658.146
1414.42	787.779
1417.99	993.836
1421.56	951.76
1425.13	897.953
1428.7	457.645
1432.26	346.752
1435.83	136.975
1439.39	45.266
1442.95	265.502
1446.51	373.873
1450.06	807.959
1453.62	635.451
1457.17	1339
1460.73	1632.48
1464.28	2206.04
1467.83	1149.17
1471.37	641.287
1474.92	320.711
1478.46	90.699
1482.01	306.953
1485.55	249.076
1489.09	612.273
1492.63	626.518
1496.16	700.895
1499.7	771.539
1503.23	910.068
1506.76	1017.33
1510.29	815.742
1513.82	415.062
1517.35	82.371
