Measurement: Raman, 514 nm, ccw, Raman Data Processed
Mineral: Aragonite
Rruff sample: R040078
Ideal chemistry: CaCO_3_
Locality: Molina, Aragon, Spain
Source: University of Arizona Mineral Museum
Description: Orange pseudohexagonal prisms
Measured chemistry: Ca_1.00_CO_3_
Pin_id: L00299
Orientation: Laser parallel to c* (0 0 1). Fiducial mark perpendicular to laser is parallel to -a [-1 0 0]
Raman shift (cm-1)	intensity
110.777	0
114.949	37.291
119.119	1.996
123.286	1.661
127.452	61.233
131.615	155.917
135.777	292.01
139.937	1183.79
144.094	1729.33
148.25	639.082
152.403	440.69
156.555	592.943
160.705	930.987
164.853	824.963
168.998	281.003
173.142	165.137
177.284	159.292
181.424	345.519
185.562	371.839
189.698	611.977
193.831	671.719
197.963	471.567
202.093	384.479
206.221	675.528
210.347	791.746
214.472	767.213
218.594	557.984
222.714	257.016
226.832	168.993
230.948	145.38
235.063	49.509
239.175	86.562
243.286	87.673
247.394	151.292
251.501	101.389
255.605	109.133
259.708	64.232
263.808	62.634
267.907	86.386
272.004	78.342
276.099	221.417
280.192	269.863
284.283	336.15
288.372	341.938
292.459	299.115
296.544	190.784
300.627	85.295
304.709	96.92
308.788	75.959
312.865	88.164
316.941	89.413
321.015	12.748
325.086	54.58
329.156	42.596
333.224	41.532
337.29	12.41
341.354	58.247
345.416	8.056
349.476	51.624
353.534	65.268
357.591	65.545
361.645	100.724
365.698	156.318
369.748	70.548
373.797	47.942
377.844	92.078
381.889	6.792
385.932	126.253
389.973	111.144
394.012	67.675
398.049	8.134
402.084	121.942
406.118	142.725
410.15	51.725
414.179	135.319
418.207	76.978
422.233	57.569
426.257	55.743
430.279	4.474
434.299	116.746
438.318	124.45
442.334	116.174
446.349	67.711
450.361	137.252
454.372	32.528
458.381	129.973
462.388	90.328
466.394	6.476
470.397	153.234
474.398	41.06
478.398	0.397
482.396	230.561
486.391	111.716
490.385	116.05
494.377	80.457
498.368	43.183
502.356	76.705
506.342	69.077
510.327	31.108
514.31	90.884
518.291	60.733
522.27	42.188
526.247	86.935
530.222	120.226
534.196	91.466
538.167	80.616
542.137	119.434
546.105	125.396
550.071	11.262
554.035	57.018
557.998	44.235
561.958	104.872
565.917	20.387
569.874	83.973
573.829	116.529
577.782	146.006
581.733	144.891
585.683	5.672
589.63	29.027
593.576	31.771
597.52	86.086
601.462	108.128
605.402	13.734
609.341	140.858
613.277	68.708
617.212	88.411
621.145	15.54
625.076	82.631
629.006	110.916
632.933	99.223
636.859	50.726
640.783	24.107
644.705	54.118
648.625	187.865
652.543	54.971
656.46	21.746
660.375	57.853
664.288	57.991
668.199	174.938
672.108	86.647
676.016	148.483
679.921	65.925
683.825	126.065
687.727	173.429
691.628	163.803
695.526	293.765
699.423	1052.93
703.318	3083.56
707.211	3060.49
711.102	567.775
714.992	92.948
718.879	107.483
722.765	93.418
726.649	100.635
730.532	170.018
734.412	185.654
738.291	85.93
742.168	95.752
746.043	209.415
749.916	204.231
753.788	208.414
757.658	129.764
761.526	19.744
765.392	126.702
769.257	195.012
773.119	134.995
776.98	43.134
780.839	33.882
784.697	206.868
788.552	113.55
792.406	159.651
796.258	148.427
800.108	117.118
803.957	9.017
807.804	14.596
811.649	196.229
815.492	204.697
819.333	114.978
823.173	170.507
827.011	45.328
830.847	194.48
834.681	106.224
838.514	160.449
842.345	34.166
846.174	61.924
850.001	49.601
853.827	206.523
857.651	196.757
861.473	62.9
865.293	54.751
869.112	159.396
872.928	45.965
876.744	307.228
880.557	77.447
884.369	73.362
888.178	33.876
891.987	29.933
895.793	160.622
899.598	90.933
903.401	121.316
907.202	71.34
911.001	131.288
914.799	130.969
918.595	180.85
922.389	178.224
926.182	187.401
929.972	276.821
933.761	166.114
937.549	65.675
941.334	391.663
945.118	190.389
948.9	149.251
952.681	147.786
956.459	185.984
960.236	161.697
964.012	110.713
967.785	169.641
971.557	218.33
975.327	316.692
979.095	154.837
982.862	153.301
986.627	101.022
990.39	151.322
994.152	133.354
997.912	161.728
1001.67	130.921
1005.43	169.649
1009.18	58.453
1012.93	196.717
1016.68	225.714
1020.43	164.521
1024.18	239.897
1027.93	32.24
1031.67	94.749
1035.42	52.847
1039.16	219.006
1042.9	528.479
1046.63	225.353
1050.37	94.089
1054.11	212.334
1057.84	219.747
1061.57	597.923
1065.3	356.504
1069.03	404.083
1072.75	551.831
1076.47	859.179
1080.2	2017.43
1083.92	23955.1
1087.64	28602.4
1091.36	2150.22
1095.07	497.563
1098.79	405.067
1102.5	292.938
1106.21	330.108
1109.92	67.766
1113.62	146.104
1117.33	202.57
1121.04	229.437
1124.74	105.817
1128.44	100.991
1132.14	78.134
1135.83	24.302
1139.53	92.225
1143.22	64.505
1146.92	278.028
1150.61	251.015
1154.3	246.927
1157.98	95.41
1161.67	2.182
1165.35	5.791
1169.04	87.923
1172.72	100.253
1176.4	130.959
1180.07	247.022
1183.75	291.258
1187.42	166.539
1191.1	105.278
1194.77	60.553
1198.44	124.012
1202.1	167.193
1205.77	260.466
1209.43	273.188
1213.1	216.747
1216.76	189.552
1220.42	221.542
1224.07	253.605
1227.73	341.528
1231.38	443.136
1235.04	442.932
1238.69	334.146
1242.34	323.702
1245.99	353.386
1249.63	233.061
1253.28	81.868
1256.92	271.365
1260.56	259.792
1264.2	407.742
1267.84	415.176
1271.48	312.401
1275.11	229.398
1278.74	116.112
1282.38	160.4
1286.01	114.733
1289.63	80.834
1293.26	133.516
1296.89	306.471
1300.51	99.578
1304.13	311.939
1307.75	163.715
1311.37	74.972
1314.99	183.829
1318.6	46.097
1322.22	55.679
1325.83	75.157
1329.44	84.243
1333.05	42.67
1336.66	199.396
1340.26	276.434
1343.87	323.658
1347.47	171.047
1351.07	78.353
1354.67	45.102
1358.27	70.784
1361.86	146.629
1365.46	262.495
1369.05	349.46
1372.64	205.884
1376.23	210.566
1379.82	209.757
1383.41	341.876
1386.99	203.207
1390.57	122.54
1394.16	223.012
1397.74	102.758
1401.32	399.922
1404.89	346.477
1408.47	295.494
1412.04	487.395
1415.61	300.785
1419.18	131.807
1422.75	184.541
1426.32	130.711
1429.89	121.979
1433.45	172.971
1437.01	322.76
1440.58	249.338
1444.13	217.326
1447.69	391.551
1451.25	378.176
1454.81	385.016
1458.36	239.486
1461.91	371.295
1465.46	764.494
1469.01	466.969
1472.56	189.289
1476.1	283.26
1479.64	416.447
1483.19	219.574
1486.73	464.488
1490.27	440.861
1493.81	478.076
1497.34	446.709
1500.88	405.756
1504.41	228.377
1507.94	304.189
1511.47	5.033
1515	74.553
1518.53	0
