Measurement: Raman, 514 nm, ccw, Raman Data Processed
Mineral: Aragonite
Rruff sample: R040078
Ideal chemistry: CaCO_3_
Locality: Molina, Aragon, Spain
Source: University of Arizona Mineral Museum
Description: Orange pseudohexagonal prisms
Measured chemistry: Ca_1.00_CO_3_
Pin_id: L00299
Orientation: Laser parallel to c* (0 0 1). Fiducial mark perpendicular to laser is parallel to -a [-1 0 0]
Raman shift (cm-1)	intensity
113.559	0
117.729	135.863
121.897	65.568
126.063	71.399
130.228	141.556
134.39	230.291
138.55	306.922
142.709	576.084
146.865	1133.51
151.019	1969.52
155.171	1901.55
159.322	908.935
163.47	466.95
167.617	286.79
171.761	186.572
175.904	282.5
180.044	268.468
184.183	422.523
188.319	676.748
192.454	798.837
196.586	577.481
200.717	557.242
204.846	764.249
208.972	1361.77
213.097	2031.61
217.22	1796.73
221.341	1005.08
225.46	632.681
229.577	409.507
233.692	271.264
237.805	85.423
241.916	170.717
246.025	266.162
250.132	379.736
254.237	163.784
258.34	168.652
262.442	38.738
266.541	105.034
270.639	40.862
274.734	231.981
278.828	348.593
282.919	685.075
287.009	604.75
291.097	352.127
295.183	256.896
299.266	206.081
303.348	183.539
307.428	74.643
311.507	198.51
315.583	73.526
319.657	211.589
323.729	52.676
327.8	134.819
331.868	147.994
335.935	66.284
339.999	134.6
344.062	177.859
348.123	14.471
352.182	14.954
356.239	108.748
360.294	160.357
364.347	108.007
368.398	69.694
372.448	177.417
376.495	119.375
380.54	140.063
384.584	127.841
388.626	189.652
392.666	119.19
396.704	160.271
400.74	147.142
404.774	165.078
408.806	172.258
412.836	214.58
416.865	103.145
420.891	238.034
424.916	177.159
428.939	105.357
432.959	33.799
436.978	122.31
440.996	201.158
445.011	120.919
449.024	52.262
453.036	61.052
457.045	159.77
461.053	218.203
465.059	163.063
469.063	131.552
473.065	22.38
477.065	141.037
481.063	79.31
485.06	40.056
489.054	78.242
493.047	3.436
497.038	175.498
501.027	73.717
505.014	11.557
508.999	38.418
512.982	97.681
516.964	85.7
520.944	73.181
524.921	20.887
528.897	138.424
532.871	35.663
536.844	2.82
540.814	149.863
544.783	166.817
548.749	133.367
552.714	19.895
556.677	106.669
560.638	33.252
564.597	2.321
568.555	134.256
572.511	9.304
576.464	127.117
580.416	133.63
584.366	229.934
588.315	136.295
592.261	52.436
596.206	88.949
600.148	85.231
604.089	70.979
608.028	67.129
611.965	52.875
615.901	101.08
619.834	136.505
623.766	31.644
627.696	24.528
631.624	59.969
635.551	96.69
639.475	81.208
643.398	86.597
647.318	23.712
651.237	47.097
655.155	160.706
659.07	159.956
662.984	87.045
666.895	0.038
670.805	32.189
674.713	250.3
678.62	173.095
682.524	155.396
686.427	240.15
690.328	203.172
694.227	184.469
698.124	686.693
702.02	2438.66
705.913	3010.6
709.805	1007.92
713.695	249.562
717.584	287.354
721.47	178.48
725.355	160.15
729.238	208.969
733.119	122.859
736.998	373.152
740.876	193.021
744.752	107.804
748.626	135.269
752.498	271.476
756.368	221.095
760.237	39.436
764.104	75.878
767.969	124.66
771.832	39.319
775.693	208.073
779.553	59.932
783.411	145.97
787.267	15.889
791.122	31.974
794.974	139.786
798.825	185.002
802.674	32.199
806.522	109.504
810.367	73.865
814.211	83.031
818.053	299.784
821.893	224.996
825.732	251.438
829.568	108.261
833.403	114.802
837.236	100.768
841.068	286.736
844.898	98.776
848.726	124.614
852.552	141.632
856.376	37.285
860.199	173.022
864.02	108.512
867.839	204.437
871.656	10.251
875.472	134.885
879.286	90.061
883.098	144.995
886.909	219.251
890.717	133.559
894.524	81.748
898.33	142.036
902.133	306.457
905.935	350.253
909.735	83.988
913.533	157.607
917.33	231.233
921.124	94.911
924.918	358.662
928.709	232.635
932.499	345.848
936.286	229.441
940.073	121.037
943.857	214.036
947.64	337.832
951.421	280.154
955.2	330.439
958.978	173.861
962.753	102.061
966.527	194.873
970.3	114.832
974.071	108.344
977.84	21.443
981.607	229.984
985.372	164.826
989.136	98.336
992.898	121.461
996.659	210.727
1000.42	154.824
1004.17	309.789
1007.93	73.52
1011.68	177.475
1015.43	92.02
1019.18	363.992
1022.93	366.949
1026.68	323.041
1030.42	79.211
1034.17	362.973
1037.91	293.734
1041.65	268.314
1045.39	437.545
1049.12	562.898
1052.86	428.48
1056.59	272.447
1060.33	475.707
1064.06	410.582
1067.78	274.121
1071.51	501.709
1075.23	764.938
1078.96	1288.09
1082.68	6751.39
1086.4	39805.8
1090.12	3528.73
1093.83	772.488
1097.55	335.66
1101.26	508.762
1104.97	591.467
1108.68	264.148
1112.39	216.453
1116.1	119.15
1119.8	181.326
1123.5	133.971
1127.2	265.539
1130.9	378.66
1134.6	294.727
1138.3	2.248
1141.99	205.633
1145.69	144.744
1149.38	7.723
1153.07	130.301
1156.76	316.844
1160.44	438.928
1164.13	261.283
1167.81	327.176
1171.49	109.277
1175.17	40.082
1178.85	221.93
1182.52	353.119
1186.2	253.629
1189.87	387.379
1193.54	157.918
1197.21	6.252
1200.88	234.084
1204.55	271.195
1208.21	197.805
1211.88	574.918
1215.54	490.41
1219.2	406.244
1222.86	376.076
1226.51	328.646
1230.17	373.271
1233.82	411.328
1237.47	507.33
1241.12	600.596
1244.77	524.059
1248.42	478.574
1252.06	660.771
1255.71	532.203
1259.35	283.418
1262.99	486.016
1266.63	355.852
1270.26	614.916
1273.9	393.906
1277.53	673.186
1281.16	539.084
1284.8	314.9
1288.42	391.783
1292.05	197.107
1295.68	129.205
1299.3	274.504
1302.92	57.721
1306.55	70.354
1310.16	171.475
1313.78	344.582
1317.4	354.398
1321.01	180.244
1324.62	198.457
1328.24	97.508
1331.85	34.924
1335.45	122.107
1339.06	287.732
1342.66	271.631
1346.27	207.359
1349.87	372.598
1353.47	277.814
1357.07	241.957
1360.66	316.426
1364.26	250.779
1367.85	184.949
1371.44	239.514
1375.04	198.363
1378.62	331.311
1382.21	563.707
1385.8	516.053
1389.38	547.592
1392.96	428.346
1396.54	555.135
1400.12	257.281
1403.7	9.969
1407.28	367.576
1410.85	409.285
1414.42	237.318
1417.99	584.537
1421.56	672.613
1425.13	495.375
1428.7	307.771
1432.26	154.086
1435.83	179.232
1439.39	25.266
1442.95	215.99
1446.51	110.377
1450.06	246.836
1453.62	110.742
1457.17	607.762
1460.73	618.684
1464.28	926.17
1467.83	567.9
1471.37	395.068
1474.92	410.43
1478.46	54.633
1482.01	332.359
1485.55	61.164
1489.09	431.295
1492.63	262.91
1496.16	346.922
1499.7	384.34
1503.23	266.174
1506.76	575.387
1510.29	589.129
1513.82	0
