Measurement: Raman, 514 nm, ccw, Raman Data Processed
Mineral: Arfvedsonite
Rruff sample: R040127
Ideal chemistry: NaNa_2_(Fe^2+^_4_Fe^3+^)Si_8_O_22_(OH)_2_
Locality: Mont Saint-Hilaire, Rouville County, Quebec, Canada
Source: Bob Downs
Description: Black prismatic crystal associated with white analcime, R040128
Measured chemistry: (Na_0.61_K_0.39_)Na_2.00_(Fe^2+^_2.40_Mg_0.80_Mn_0.75_Ca_0.05_)_=4_(Fe^3+^_0.60_Al_0.25_Mn_0.15_)(Si_0.99_Ti_0.01_)_8_O_22_((OH)_0.67_F_0.33_)_2_
Pin_id: L01975
Orientation: Laser parallel to b* (0 1 0). Fiducial mark perpendicular to laser is parallel to c [0 0 1]
Raman shift (cm-1)	intensity
159.692	0
164.62	3151.45
169.544	2904
174.465	2520.61
179.384	2614.28
184.3	3345.14
189.213	8510.97
194.123	13428.1
199.03	15291
203.934	15072
208.836	3330.95
213.735	2068.33
218.631	1079.05
223.524	592.045
228.414	601.731
233.302	679.637
238.186	148.985
243.068	79.4473
247.947	114.684
252.823	253.416
257.697	26.9707
262.567	65.4785
267.435	147.869
272.3	89.8486
277.162	33.1641
282.021	281.19
286.878	242.436
291.732	263.62
296.583	224.25
301.431	97.29
306.276	269.57
311.119	791.797
315.958	671.886
320.795	613.187
325.629	601.334
330.461	614.146
335.289	758.336
340.115	1694.19
344.938	3233.18
349.759	5108.74
354.576	8483.93
359.391	6859.75
364.203	5937.88
369.012	4727.56
373.818	3940.73
378.622	3335.31
383.423	2911.41
388.221	2432.99
393.016	2063.97
397.809	1701.13
402.598	1559.45
407.386	1214.11
412.17	1711.36
416.951	1763.83
421.73	1859.03
426.506	1280.27
431.279	1036.77
436.05	1099.04
440.818	640.671
445.583	248.279
450.345	159.102
455.105	66.1943
459.861	18.2383
464.615	9.64453
469.367	267.261
474.115	257.386
478.861	378.096
483.604	275.299
488.345	591.013
493.082	1017.91
497.817	1100.64
502.55	1446.37
507.279	1741.93
512.006	2166.38
516.73	2900.86
521.451	3631.46
526.17	5115.25
530.886	6900.28
535.599	8389.74
540.31	8653
545.017	7526.42
549.723	6916.55
554.425	6471.04
559.125	5984.19
563.822	5643.15
568.516	5466.22
573.207	5112.73
577.896	3356.8
582.583	2128.55
587.266	1022.97
591.947	530.929
596.625	127.337
601.3	37.1523
605.973	74.2812
610.643	80.7471
615.311	14.3359
619.975	29.7432
624.637	86.8389
629.297	62.0635
633.953	273.529
638.607	440.516
643.259	686.061
647.907	792.179
652.553	979.888
657.197	1392.2
661.837	2198.11
666.475	4019.95
671.111	6687.21
675.743	9859.36
680.373	8742.53
685.001	5667.56
689.625	4409.04
694.247	4460.26
698.867	4746.05
703.483	5290.57
708.097	5550.69
712.709	5694.7
717.318	5905.79
721.924	5923.23
726.527	5605.05
731.128	5215.23
735.726	4540.26
740.322	3832.55
744.915	3467.25
749.505	3026.05
754.093	2499.81
758.678	2436.21
763.26	1978.38
767.84	2005.15
772.417	1495.46
776.992	1366.16
781.564	1182.76
786.133	997.974
790.7	946.812
795.264	647.293
799.825	419.437
804.384	338.255
808.94	23.7236
813.494	168.434
818.045	50.0254
822.593	28.6445
827.139	128.333
831.682	191.865
836.223	32.0127
840.761	8.5957
845.296	74.7842
849.829	122.888
854.359	545.485
858.887	622.054
863.412	817.627
867.934	1282.24
872.454	1961.94
876.971	3068.84
881.486	2846.93
885.998	3230.52
890.507	3286.56
895.014	3198.12
899.518	3197.07
904.02	3028.35
908.519	2935.06
913.016	2378.31
917.51	2005.07
922.001	2025.38
926.49	1805.11
930.976	1915.25
935.46	1538.88
939.941	1663.01
944.42	2060.73
948.896	2067.91
953.369	2216.71
957.84	2410.87
962.309	2603.35
966.774	2648.37
971.238	3249.78
975.698	3849.36
980.156	4432.23
984.612	4736.42
989.065	4900.1
993.516	4399.18
997.964	3897.2
1002.41	3536.21
1006.85	3323.88
1011.29	3323.35
1015.73	3280.6
1020.16	3162.62
1024.6	2701.51
1029.03	2796.48
1033.46	2618.34
1037.88	2529.02
1042.3	2506.45
1046.72	2492.73
1051.14	2609.27
1055.56	2739
1059.97	2706.67
1064.38	2744.13
1068.79	2919.04
1073.19	2737.08
1077.59	2964
1081.99	2765.29
1086.39	2809.64
1090.79	2867.57
1095.18	2577.28
1099.57	2658.3
1103.95	2301.87
1108.34	2305.93
1112.72	2301.74
1117.1	1986.24
1121.48	1984.01
1125.85	1882.47
1130.23	1352.67
1134.6	1160.81
1138.96	854.073
1143.33	776.058
1147.69	653.849
1152.05	467.576
1156.41	388.054
1160.76	249.724
1165.11	47.2363
1169.46	145.721
1173.81	23.8223
1178.16	42.8789
1182.5	186.773
1186.84	6.31641
1191.18	66.835
1195.51	139.714
1199.84	118.027
1204.17	172.211
1208.5	15
1212.83	69.3877
1217.15	6.6084
1221.47	34.2158
1225.79	170.209
1230.1	6.97559
1234.41	81.9883
1238.73	79.6279
1243.03	260.13
1247.34	129.763
1251.64	125.022
1255.94	36.6426
1260.24	43.7529
1264.54	213.971
1268.83	232.013
1273.12	7.26269
1277.41	125.251
1281.69	247.902
1285.98	51.8027
1290.26	285.955
1294.54	300.517
1298.81	89.624
1303.09	120.143
1307.36	147.961
1311.63	217.242
1315.89	235.748
1320.16	216.489
1324.42	180.642
1328.68	249.742
1332.93	269.985
1337.19	13.3994
1341.44	110.286
1345.69	119.674
1349.94	341.254
1354.18	294.927
1358.42	272.791
1362.66	318.666
1366.9	118.949
1371.13	283.944
1375.37	202.185
1379.6	133.844
1383.82	209.411
1388.05	201.546
1392.27	275.482
1396.49	115.595
1400.71	267.651
1404.92	235.732
1409.14	167.774
1413.35	293.681
1417.56	267.056
1421.76	224.236
1425.97	210.694
1430.17	255.815
1434.37	300.782
1438.56	362.729
1442.76	357.702
1446.95	266.695
1451.14	309.301
1455.33	141.01
1459.51	195.918
1463.69	200.809
1467.87	434.863
1472.05	201.133
1476.22	333.53
1480.4	223.452
1484.57	286.188
1488.73	26.4766
1492.9	159.966
1497.06	364.79
1501.22	323.71
1505.38	140.582
1509.54	188.924
1513.69	182.452
1517.84	51.0059
1521.99	21.873
1526.14	66.8096
1530.28	355.231
1534.42	381.438
1538.56	474.948
1542.7	151.677
1546.83	440.265
1550.97	74.3584
1555.1	201.931
1559.22	228.09
1563.35	0
