Measurement: Raman, 514 nm, ccw, Raman Data Processed
Mineral: Arfvedsonite
Rruff sample: R040127
Ideal chemistry: NaNa_2_(Fe^2+^_4_Fe^3+^)Si_8_O_22_(OH)_2_
Locality: Mont Saint-Hilaire, Rouville County, Quebec, Canada
Source: Bob Downs
Description: Black prismatic crystal associated with white analcime, R040128
Measured chemistry: (Na_0.61_K_0.39_)Na_2.00_(Fe^2+^_2.40_Mg_0.80_Mn_0.75_Ca_0.05_)_=4_(Fe^3+^_0.60_Al_0.25_Mn_0.15_)(Si_0.99_Ti_0.01_)_8_O_22_((OH)_0.67_F_0.33_)_2_
Pin_id: M00441
Orientation: Laser parallel to a* (1 0 0). Fiducial mark perpendicular to laser is parallel to -b [0 -1 0]
Raman shift (cm-1)	intensity
125.123	0
130.07	1741.52
135.014	1696.93
139.955	5547.01
144.894	2870.88
149.83	1256.03
154.762	2784.52
159.692	2633.45
164.62	5579.88
169.544	5279.27
174.465	3595.13
179.384	3562.55
184.3	4834.35
189.213	7312.66
194.123	9650.32
199.03	11134.9
203.934	9670.6
208.836	4355.97
213.735	3099.58
218.631	1751.96
223.524	974.41
228.414	643.992
233.302	434.984
238.186	345.769
243.068	428.447
247.947	174.039
252.823	186.096
257.697	58.9629
262.567	125.238
267.435	253.154
272.3	521.09
277.162	67.3711
282.021	145.641
286.878	104.328
291.732	746.336
296.583	1494.02
301.431	2853.89
306.276	4517.31
311.119	5440.74
315.958	6678.3
320.795	6087.88
325.629	4950.93
330.461	4050.64
335.289	3293.8
340.115	3566.87
344.938	3941.28
349.759	4595.97
354.576	5262.27
359.391	5347.39
364.203	5067.78
369.012	4971.54
373.818	4569.55
378.622	4642.7
383.423	4337.8
388.221	4629.78
393.016	4546.34
397.809	4312.73
402.598	4659.78
407.386	4009.64
412.17	4002.14
416.951	3528.63
421.73	3090.24
426.506	2589.82
431.279	1805.45
436.05	1363.43
440.818	794.445
445.583	175.018
450.345	66.8262
455.105	422.822
459.861	230.81
464.615	84.8848
469.367	203.049
474.115	28.5938
478.861	46.3184
483.604	551.174
488.345	967.15
493.082	1588.43
497.817	2235.09
502.55	3014.33
507.279	3849.7
512.006	4645.69
516.73	6120.18
521.451	8049.18
526.17	10585.7
530.886	13792
535.599	15145.4
540.31	14281.9
545.017	12319.6
549.723	10243.7
554.425	9040.3
559.125	8440.98
563.822	8351.98
568.516	8560.43
573.207	8334.15
577.896	7306.7
582.583	5966.03
587.266	4970.88
591.947	4388.43
596.625	3761.51
601.3	3557.06
605.973	3033.93
610.643	2496.99
615.311	1995.67
619.975	1382.91
624.637	1225.06
629.297	986.9
633.953	980.396
638.607	1147.53
643.259	1087.27
647.907	1450.58
652.553	1937.44
657.197	3322.8
661.837	7015.7
666.475	10995.3
671.111	16679.6
675.743	17326.2
680.373	12411
685.001	6505.07
689.625	4124.08
694.247	3522.27
698.867	2777.73
703.483	2533.99
708.097	2526.94
712.709	2346.77
717.318	2205.48
721.924	1769.62
726.527	1647.27
731.128	1487.23
735.726	1283.27
740.322	1292.88
744.915	1031.12
749.505	1030.79
754.093	930.886
758.678	1008.95
763.26	1004.84
767.84	1022.5
772.417	1064.92
776.992	1192.07
781.564	1346.94
786.133	1265.52
790.7	1095.78
795.264	836.49
799.825	609.344
804.384	275.553
808.94	33.0371
813.494	137.834
818.045	440.455
822.593	469.893
827.139	549.848
831.682	296.494
836.223	111.512
840.761	72.1533
845.296	134.941
849.829	294.769
854.359	328.197
858.887	1010.39
863.412	1186.44
867.934	1798.37
872.454	2487.23
876.971	3215.04
881.486	3757.82
885.998	4309.61
890.507	4693.43
895.014	4944.33
899.518	4746.35
904.02	4582.58
908.519	4578.34
913.016	4338.6
917.51	3987.54
922.001	3676.3
926.49	3496.68
930.976	3526.86
935.46	3375.82
939.941	3616.1
944.42	3727.31
948.896	4336.48
953.369	4582.33
957.84	5148.4
962.309	5971.23
966.774	6879.47
971.238	7860.31
975.698	8418.8
980.156	8492.98
984.612	7635.89
989.065	7106.94
993.516	6211.87
997.964	5792.06
1002.41	5377.5
1006.85	4983.75
1011.29	5035.99
1015.73	4938.05
1020.16	5057.41
1024.6	4987.61
1029.03	5040.05
1033.46	5361.01
1037.88	5967.69
1042.3	6215.51
1046.72	6453.1
1051.14	6544.32
1055.56	6861.01
1059.97	6916.87
1064.38	7161.65
1068.79	7338.8
1073.19	7668.39
1077.59	7179
1081.99	7052.36
1086.39	6939.44
1090.79	7066.1
1095.18	6953.47
1099.57	6751.53
1103.95	6808.67
1108.34	6766.72
1112.72	6547.17
1117.1	6157.74
1121.48	5676.34
1125.85	5457.07
1130.23	5149.19
1134.6	4777.08
1138.96	4674.72
1143.33	3057.86
1147.69	2646.94
1152.05	1803.93
1156.41	958.027
1160.76	378.713
1165.11	5.33008
1169.46	133.086
1173.81	85.2227
1178.16	205.861
1182.5	72.1289
1186.84	58.293
1191.18	122.133
1195.51	53.9082
1199.84	228.99
1204.17	102.186
1208.5	91.4688
1212.83	232.309
1217.15	33.6348
1221.47	244.217
1225.79	254.75
1230.1	164.016
1234.41	242.029
1238.73	223.012
1243.03	208.869
1247.34	259.725
1251.64	175.129
1255.94	39.0723
1260.24	143.834
1264.54	276.409
1268.83	2.85449
1273.12	112.768
1277.41	322.292
1281.69	212.686
1285.98	171.82
1290.26	317.64
1294.54	76.7568
1298.81	102.144
1303.09	131.228
1307.36	208.363
1311.63	266.991
1315.89	43.1758
1320.16	244.995
1324.42	93.0654
1328.68	151.134
1332.93	168.615
1337.19	118.113
1341.44	46.4219
1345.69	120.785
1349.94	197.522
1354.18	52.3369
1358.42	86.6074
1362.66	61.5469
1366.9	7.81348
1371.13	172.464
1375.37	173.874
1379.6	215.509
1383.82	217.705
1388.05	125.819
1392.27	297.306
1396.49	294.956
1400.71	349.469
1404.92	332.867
1409.14	229.552
1413.35	389.737
1417.56	410.305
1421.76	476.881
1425.97	271.121
1430.17	240.815
1434.37	220.527
1438.56	316.919
1442.76	208.393
1446.95	366.542
1451.14	513.699
1455.33	324.759
1459.51	420.624
1463.69	344.153
1467.87	261.765
1472.05	260.393
1476.22	285.797
1480.4	266.338
1484.57	337.506
1488.73	123.998
1492.9	158.018
1497.06	69.6699
1501.22	216.662
1505.38	267.693
1509.54	214.957
1513.69	179.043
1517.84	366.6
1521.99	94.6016
1526.14	122.975
1530.28	168.027
1534.42	106.139
1538.56	82.0469
1542.7	92.8223
1546.83	229.143
1550.97	215.775
1555.1	249.141
1559.22	76.0352
1563.35	211.525
1567.47	211.227
