Measurement: Raman, 514 nm, ccw, Raman Data Processed
Mineral: Arfvedsonite
Rruff sample: R040127
Ideal chemistry: NaNa_2_(Fe^2+^_4_Fe^3+^)Si_8_O_22_(OH)_2_
Locality: Mont Saint-Hilaire, Rouville County, Quebec, Canada
Source: Bob Downs
Description: Black prismatic crystal associated with white analcime, R040128
Measured chemistry: (Na_0.61_K_0.39_)Na_2.00_(Fe^2+^_2.40_Mg_0.80_Mn_0.75_Ca_0.05_)_=4_(Fe^3+^_0.60_Al_0.25_Mn_0.15_)(Si_0.99_Ti_0.01_)_8_O_22_((OH)_0.67_F_0.33_)_2_
Pin_id: M00446
Orientation: Laser parallel to (-1 0 -1). Fiducial mark perpendicular to laser is parallel to -b [0 -1 0]
Raman shift (cm-1)	intensity
155.995	0
160.925	1762.38
165.851	5094.33
170.775	4345.44
175.695	1001.38
180.613	139.16
185.528	2104.57
190.44	5444.71
195.35	8775.31
200.256	11666.5
205.16	7988.35
210.061	6098.64
214.959	6697.16
219.854	5586.16
224.747	4197.46
229.636	3232.48
234.523	3018.53
239.407	2486.78
244.288	2401
249.166	1834.52
254.042	1145.27
258.915	1571.68
263.784	331.348
268.651	328.176
273.516	359.215
278.377	361.844
283.236	115.82
288.092	429.523
292.945	1320.56
297.795	1974.7
302.642	2153.31
307.487	2888.92
312.329	3153.39
317.168	3187.43
322.004	2439.86
326.838	2163.25
331.668	1811.84
336.496	2488.66
341.321	3221.48
346.144	4636.03
350.963	6522.95
355.78	7757.74
360.594	8439.6
365.405	7808.83
370.214	6927.82
375.019	6097.89
379.822	5773.88
384.622	5031.59
389.42	4292.84
394.215	3486.98
399.006	2899.15
403.795	3000.62
408.582	3241.12
413.365	4048.45
418.146	4702.46
422.924	4508.71
427.7	3409.58
432.472	2372.59
437.242	1458.59
442.009	785.234
446.774	67.6172
451.535	181.668
456.294	20.7227
461.05	71.7305
465.804	433.766
470.554	544.426
475.302	0.558594
480.047	81.8633
484.79	373.34
489.529	760.402
494.266	1439.41
499.001	2626.72
503.732	3376.53
508.461	4122.33
513.187	4822.27
517.911	6013.32
522.631	7746.48
527.349	10624.8
532.065	13154.8
536.777	14696.6
541.487	13641.3
546.194	11411.7
550.898	9774.84
555.6	8496.02
560.299	8147.28
564.995	7372.33
569.689	7011.33
574.38	6610.02
579.068	4734.65
583.754	2738.88
588.437	1480.8
593.117	574.316
597.794	237.473
602.469	103.012
607.141	311.695
611.81	535.613
616.477	546.879
621.141	60.9531
625.802	54.5
630.461	476.285
635.117	467.684
639.77	821.812
644.421	949.945
649.069	1485.96
653.714	2374.99
658.357	4156.7
662.997	8000.84
667.634	12405.5
672.269	18046.1
676.901	19433
681.53	13207.5
686.157	6966.19
690.781	3954.17
695.402	3227.27
700.021	2682.44
704.637	2681.58
709.251	2344.88
713.861	2382.3
718.469	2552.39
723.075	2191.18
727.678	2499.77
732.278	2942.35
736.876	2494.59
741.47	2587.36
746.063	1759.07
750.652	1273.4
755.239	929.785
759.824	776.562
764.406	666.828
768.985	507.852
773.561	286.016
778.135	499.184
782.706	119.812
787.275	466.176
791.841	319.992
796.404	555.938
800.965	347.023
805.523	316.961
810.079	331.312
814.632	69.1836
819.182	113.793
823.73	87.4219
828.275	264.164
832.818	141.84
837.358	383.469
841.895	139.16
846.43	194.422
850.962	86.5391
855.491	466.531
860.018	888.375
864.543	1282.14
869.064	1877.88
873.583	2632.66
878.1	3238.6
882.614	3791.85
887.125	3906.81
891.634	4058.64
896.14	4104.41
900.644	4975.36
905.145	5162.96
909.644	5272.57
914.14	5339.53
918.633	5489.7
923.124	5305.83
927.612	5314.29
932.098	5235.11
936.581	5435.71
941.061	5808.94
945.539	6285.35
950.015	7297.78
954.487	8379.55
958.958	9674.3
963.425	11737.8
967.89	14190.5
972.353	16636.7
976.813	18269
981.271	17202.3
985.726	14050.2
990.178	10986
994.628	8479.54
999.075	6740.39
1003.52	5838.53
1007.96	5218.78
1012.4	4925.84
1016.84	5328.86
1021.27	5020.56
1025.71	4764.36
1030.13	4840.97
1034.56	4862.38
1038.99	5307.56
1043.41	5082.03
1047.83	5380
1052.24	5874
1056.66	6231.81
1061.07	6677.66
1065.48	7472.49
1069.89	7297.11
1074.29	7174.91
1078.69	6885.51
1083.09	6622.35
1087.49	6967.22
1091.88	7172.1
1096.28	7974.69
1100.66	8059.43
1105.05	7987.72
1109.43	7974.88
1113.82	7351.96
1118.2	7286.82
1122.57	6879.43
1126.95	6275.68
1131.32	5583.23
1135.69	5235.33
1140.05	4549.53
1144.42	4223.32
1148.78	3311.56
1153.14	3041.26
1157.5	1651.23
1161.85	757.438
1166.2	365.606
1170.55	90.4688
1174.9	582.789
1179.24	4.78906
1183.58	31.6445
1187.92	226.285
1192.26	205.691
1196.6	221.43
1200.93	75.9844
1205.26	101.93
1209.58	13.3828
1213.91	134.812
1218.23	4.32031
1222.55	211.004
1226.87	104.832
1231.18	163.606
1235.49	361.664
1239.8	155.879
1244.11	150.394
1248.41	224.484
1252.72	137.699
1257.02	228.629
1261.32	191.102
1265.61	323.547
1269.9	293.086
1274.19	388.973
1278.48	369.473
1282.77	214.769
1287.05	334.777
1291.33	396.168
1295.61	339.523
1299.88	584.824
1304.15	169.152
1308.42	564.137
1312.69	506.519
1316.96	221.844
1321.22	504.281
1325.48	555.356
1329.74	646.465
1334	173.273
1338.25	624.91
1342.5	270.188
1346.75	392.879
1351	371.106
1355.24	34.4844
1359.48	34.4219
1363.72	408.328
1367.96	490.363
1372.19	169.398
1376.42	542.547
1380.65	242.941
1384.88	342.41
1389.11	316.086
1393.33	606.008
1397.55	417.992
1401.76	553.707
1405.98	276.367
1410.19	504.418
1414.4	77.5469
1418.61	548.402
1422.82	145.707
1427.02	138.957
1431.22	217.809
1435.42	637.812
1439.61	230.039
1443.81	133.164
1448	314.34
1452.18	67.4961
1456.37	130.477
1460.56	569.867
1464.74	393.738
1468.92	395.531
1473.09	58.1641
1477.27	393.426
1481.44	523.961
1485.61	265.492
1489.78	354.394
1493.94	243.504
1498.1	294.156
1502.26	219.664
1506.42	478.371
1510.58	108.832
1514.73	161.609
1518.88	327.832
1523.03	531
1527.17	283.621
1531.32	240.762
1535.46	11.6875
1539.6	312.078
1543.73	379.453
1547.87	497.055
1552	35.0898
1556.13	508.742
1560.26	177.551
1564.38	297.852
1568.5	155.875
