Measurement: Raman, 514 nm, ccw, Raman Data Processed
Mineral: Arfvedsonite
Rruff sample: R040127
Ideal chemistry: NaNa_2_(Fe^2+^_4_Fe^3+^)Si_8_O_22_(OH)_2_
Locality: Mont Saint-Hilaire, Rouville County, Quebec, Canada
Source: Bob Downs
Description: Black prismatic crystal associated with white analcime, R040128
Measured chemistry: (Na_0.61_K_0.39_)Na_2.00_(Fe^2+^_2.40_Mg_0.80_Mn_0.75_Ca_0.05_)_=4_(Fe^3+^_0.60_Al_0.25_Mn_0.15_)(Si_0.99_Ti_0.01_)_8_O_22_((OH)_0.67_F_0.33_)_2_
Pin_id: M00441
Orientation: Laser parallel to a* (1 0 0). Fiducial mark perpendicular to laser is parallel to -b [0 -1 0]
Raman shift (cm-1)	intensity
160.925	0
165.851	1277.8
170.775	1017.18
175.695	259.301
180.613	662.949
185.528	2461.52
190.44	5107.01
195.35	7823.81
200.256	9474.01
205.16	6471.87
210.061	3068.76
214.959	1854.55
219.854	1155.86
224.747	1377.46
229.636	1044.81
234.523	987.58
239.407	1079.99
244.288	960.049
249.166	868.139
254.042	774.24
258.915	812.777
263.784	703.271
268.651	94.4981
273.516	35.8066
278.377	264.057
283.236	346.182
288.092	286.389
292.945	465.098
297.795	550.734
302.642	1111.69
307.487	2169.97
312.329	2765.56
317.168	3153.76
322.004	2835.59
326.838	2496.9
331.668	2568.45
336.496	3026.19
341.321	5225.38
346.144	5854.38
350.963	7622.44
355.78	8487.41
360.594	8058.98
365.405	7189.43
370.214	6366.74
375.019	5784.65
379.822	5394.02
384.622	4940.29
389.42	4632.87
394.215	3850.29
399.006	3369.97
403.795	3150.69
408.582	3069.73
413.365	3086.58
418.146	3273.87
422.924	2871.22
427.7	2845.44
432.472	1799.37
437.242	1255.61
442.009	789.082
446.774	176.963
451.535	228.846
456.294	217.414
461.05	331.502
465.804	164.75
470.554	87.6484
475.302	88.1387
480.047	198.086
484.79	466.592
489.529	1022.96
494.266	1692.55
499.001	2469.5
503.732	3073.89
508.461	4176.87
513.187	4537.64
517.911	5764.41
522.631	7761.27
527.349	10132.3
532.065	12849
536.777	13591
541.487	13418.3
546.194	11531.9
550.898	10087.1
555.6	9181.8
560.299	8805.38
564.995	8160.69
569.689	7433.89
574.38	6692.04
579.068	5329.08
583.754	3796.95
588.437	2836.41
593.117	2237.44
597.794	1980.25
602.469	1839.91
607.141	1560.18
611.81	1379.75
616.477	982.816
621.141	925.383
625.802	692.906
630.461	687.434
635.117	816.91
639.77	1108.47
644.421	1468.92
649.069	1878.62
653.714	2612.86
658.357	4652.22
662.997	6812.73
667.634	10386.7
672.269	14626.1
676.901	15571.4
681.53	10887.3
686.157	6788.19
690.781	5119.69
695.402	5107.65
700.021	5105.84
704.637	5318.43
709.251	5694.17
713.861	5742.73
718.469	6048.57
723.075	5565.68
727.678	5091.76
732.278	4931.67
736.876	4217.91
741.47	3649.03
746.063	3277.36
750.652	2667.89
755.239	2171.2
759.824	1996.09
764.406	1773.43
768.985	1890.13
773.561	1507.08
778.135	1194
782.706	1247.72
787.275	982.441
791.841	620.429
796.404	482.705
800.965	286.276
805.523	162.023
810.079	247.235
814.632	352.899
819.182	242.156
823.73	475.083
828.275	407.788
832.818	219.129
837.358	242.917
841.895	132.902
846.43	306.951
850.962	603.459
855.491	1118.51
860.018	1643.15
864.543	2346.4
869.064	3267.31
873.583	4233.89
878.1	4845.15
882.614	5409.09
887.125	5539.73
891.634	5680.1
896.14	5333.24
900.644	4960.17
905.145	4517.05
909.644	4051.5
914.14	3827.43
918.633	3656.3
923.124	3448.24
927.612	3339.98
932.098	3073.78
936.581	2888.74
941.061	3179.96
945.539	3678.02
950.015	3703.07
954.487	4242.57
958.958	4794.05
963.425	5155.41
967.89	6036.98
972.353	7136.27
976.813	7579.27
981.271	7828.42
985.726	8101.65
990.178	7702.1
994.628	7379.8
999.075	6730.9
1003.52	6514.34
1007.96	6309.09
1012.4	6382.19
1016.84	6416.7
1021.27	6047.06
1025.71	5984.28
1030.13	5915.64
1034.56	5981.48
1038.99	6128.04
1043.41	6597.82
1047.83	6554.81
1052.24	6540.32
1056.66	6665.42
1061.07	6712.64
1065.48	6708.14
1069.89	7116.86
1074.29	6910.36
1078.69	6936.32
1083.09	6659.89
1087.49	6531.25
1091.88	6596.55
1096.28	6554.29
1100.66	6488.26
1105.05	6252.91
1109.43	5737.16
1113.82	5197.47
1118.2	4558.15
1122.57	4196.98
1126.95	3732.94
1131.32	3280.01
1135.69	2553.61
1140.05	2137.53
1144.42	1789.65
1148.78	1472.86
1153.14	924.365
1157.5	433.606
1161.85	240.959
1166.2	180.775
1170.55	11.7832
1174.9	156.697
1179.24	164.209
1183.58	217.068
1187.92	192.971
1192.26	102.103
1196.6	123.709
1200.93	72.832
1205.26	137.705
1209.58	90.3281
1213.91	17.4336
1218.23	354.9
1222.55	195.717
1226.87	313.348
1231.18	187.762
1235.49	333.334
1239.8	286.924
1244.11	336.353
1248.41	325.641
1252.72	165.115
1257.02	168.504
1261.32	216.139
1265.61	347.467
1269.9	210.068
1274.19	255.776
1278.48	380.505
1282.77	392.69
1287.05	358.503
1291.33	454.741
1295.61	173.258
1299.88	273.282
1304.15	439.516
1308.42	381.377
1312.69	236.598
1316.96	353.237
1321.22	231.675
1325.48	8.47949
1329.74	253.219
1334	86.1103
1338.25	51.2012
1342.5	68.2422
1346.75	138.835
1351	468.099
1355.24	120.457
1359.48	244.945
1363.72	182.75
1367.96	95.0303
1372.19	148.691
1376.42	138.438
1380.65	147.841
1384.88	305.54
1389.11	2.21191
1393.33	126.671
1397.55	2.64551
1401.76	360.007
1405.98	113.108
1410.19	214.929
1414.4	99.0898
1418.61	356.665
1422.82	202.378
1427.02	184.794
1431.22	389.74
1435.42	214.075
1439.61	450.199
1443.81	330.957
1448	154.939
1452.18	176.98
1456.37	322.785
1460.56	277.258
1464.74	323.197
1468.92	357.487
1473.09	274.007
1477.27	364.388
1481.44	294.744
1485.61	63.6758
1489.78	261.805
1493.94	322.289
1498.1	104.902
1502.26	28.168
1506.42	272.316
1510.58	5.81836
1514.73	261.461
1518.88	174.551
1523.03	94.1465
1527.17	126.978
1531.32	142.949
1535.46	204.416
1539.6	180.836
1543.73	49.5527
1547.87	204.363
1552	206.721
1556.13	251.598
1560.26	20.4453
1564.38	243.842
1568.5	77.8828
