Measurement: Raman, 514 nm, ccw, Raman Data Processed
Mineral: Arfvedsonite
Rruff sample: R040127
Ideal chemistry: NaNa_2_(Fe^2+^_4_Fe^3+^)Si_8_O_22_(OH)_2_
Locality: Mont Saint-Hilaire, Rouville County, Quebec, Canada
Source: Bob Downs
Description: Black prismatic crystal associated with white analcime, R040128
Measured chemistry: (Na_0.61_K_0.39_)Na_2.00_(Fe^2+^_2.40_Mg_0.80_Mn_0.75_Ca_0.05_)_=4_(Fe^3+^_0.60_Al_0.25_Mn_0.15_)(Si_0.99_Ti_0.01_)_8_O_22_((OH)_0.67_F_0.33_)_2_
Pin_id: M00446
Orientation: Laser parallel to (-1 0 -1). Fiducial mark perpendicular to laser is parallel to -b [0 -1 0]
Raman shift (cm-1)	intensity
121.41	0
126.36	131.75
131.306	4501.3
136.25	8629
141.19	16901.2
146.128	12287.4
151.063	5625.91
155.995	3918.25
160.925	4595.43
165.851	7487.47
170.775	7242.44
175.695	5431.06
180.613	6471.79
185.528	10449.8
190.44	15903.1
195.35	21471.7
200.256	25014.4
205.16	22341.6
210.061	20974.6
214.959	20732.3
219.854	16461.4
224.747	12842.2
229.636	10889.1
234.523	10523.9
239.407	10248.5
244.288	10187.6
249.166	8874.03
254.042	7320.91
258.915	6551.17
263.784	4146.18
268.651	3183.94
273.516	1448.89
278.377	327.203
283.236	591.688
288.092	1200.43
292.945	697.32
297.795	446.926
302.642	194.934
307.487	1105.5
312.329	1576.31
317.168	1069.75
322.004	864.644
326.838	931.727
331.668	1046.55
336.496	1568.24
341.321	2727.1
346.144	4692.34
350.963	7921.06
355.78	11012.1
360.594	13038.2
365.405	12560.7
370.214	12041.1
375.019	11020.8
379.822	10491.1
384.622	9400.03
389.42	7511.46
394.215	5786.56
399.006	4607.68
403.795	4288.29
408.582	5255.6
413.365	7374.27
418.146	8387.86
422.924	8049.31
427.7	6542.84
432.472	3787.63
437.242	2193.52
442.009	934.875
446.774	668.68
451.535	459.367
456.294	325.152
461.05	20.6484
465.804	566.609
470.554	433.609
475.302	231.379
480.047	34.625
484.79	110.609
489.529	360.68
494.266	1053.44
499.001	1864.83
503.732	2907.98
508.461	3431.89
513.187	4365.52
517.911	5774.84
522.631	7663.83
527.349	11369.5
532.065	15237
536.777	17207.7
541.487	16492.1
546.194	14093.8
550.898	11752.4
555.6	10064.6
560.299	9216.16
564.995	8745.94
569.689	8009.48
574.38	7366.06
579.068	5228.37
583.754	2754.25
588.437	1091.38
593.117	418.754
597.794	217.562
602.469	162.019
607.141	197.09
611.81	160.684
616.477	241.996
621.141	409.422
625.802	514.332
630.461	1683.52
635.117	1864.91
639.77	2649.06
644.421	2284.98
649.069	3044.22
653.714	4393.65
658.357	6800.84
662.997	11206.6
667.634	18653.5
672.269	27104
676.901	29255.7
681.53	20261.3
686.157	11286.8
690.781	7276.68
695.402	6125.96
700.021	5659.53
704.637	5319.18
709.251	4808.15
713.861	4829.3
718.469	4214.7
723.075	4565.36
727.678	3913.32
732.278	3460.07
736.876	3087.3
741.47	2396.83
746.063	1701.14
750.652	1745.48
755.239	1427.89
759.824	1116.54
764.406	944.746
768.985	1136.94
773.561	793.09
778.135	406.156
782.706	634.18
787.275	779.836
791.841	383.371
796.404	583.664
800.965	255.828
805.523	32.4141
810.079	39.7031
814.632	316.551
819.182	534.859
823.73	439.074
828.275	477.062
832.818	355.715
837.358	276.973
841.895	22.2812
846.43	583.363
850.962	859.664
855.491	1182.29
860.018	2274.11
864.543	3014.43
869.064	4738.93
873.583	6845.02
878.1	8895.64
882.614	10118.2
887.125	10937.3
891.634	11365.2
896.14	10864
900.644	10407.6
905.145	10143
909.644	9520.19
914.14	8116.91
918.633	7330.12
923.124	6090.92
927.612	5537.75
932.098	5008.4
936.581	5322.14
941.061	5613.73
945.539	6547.18
950.015	7497.69
954.487	8245.04
958.958	8082.33
963.425	7549.8
967.89	8220.91
972.353	9583.16
976.813	10630.3
981.271	11148.2
985.726	10886.4
990.178	10199.3
994.628	8840.57
999.075	8464.19
1003.52	8245.26
1007.96	8803.78
1012.4	9271.67
1016.84	9592.93
1021.27	9175.53
1025.71	8119.46
1030.13	7453.71
1034.56	6929.25
1038.99	7042.13
1043.41	7336.89
1047.83	7281.83
1052.24	7471.24
1056.66	7883.46
1061.07	8737
1065.48	9448.36
1069.89	9187
1074.29	8527.95
1078.69	7776.03
1083.09	7357.54
1087.49	7536.23
1091.88	8204.02
1096.28	9247.05
1100.66	9821.49
1105.05	10271
1109.43	10367.3
1113.82	10109.2
1118.2	9887.81
1122.57	9929.53
1126.95	8914.45
1131.32	8270.95
1135.69	7492.84
1140.05	6847.31
1144.42	6389.13
1148.78	5233.85
1153.14	3816.47
1157.5	2378.65
1161.85	1105.18
1166.2	129.793
1170.55	124.074
1174.9	373.668
1179.24	80.4258
1183.58	95.1953
1187.92	83.2617
1192.26	226.769
1196.6	156.234
1200.93	209.469
1205.26	27.9141
1209.58	184.156
1213.91	37.168
1218.23	104.973
1222.55	31.2891
1226.87	22.8516
1231.18	48.4297
1235.49	295.938
1239.8	405.578
1244.11	53.3594
1248.41	287.82
1252.72	506.152
1257.02	213.012
1261.32	527.852
1265.61	267.988
1269.9	431.348
1274.19	355.348
1278.48	498.93
1282.77	650.059
1287.05	463.719
1291.33	577.828
1295.61	315.297
1299.88	380.144
1304.15	502.223
1308.42	509.098
1312.69	732.539
1316.96	653.125
1321.22	573.238
1325.48	278.238
1329.74	542.789
1334	613.824
1338.25	652.938
1342.5	185.871
1346.75	592.938
1351	252.035
1355.24	333.922
1359.48	308.984
1363.72	8.96094
1367.96	29.2539
1372.19	156.812
1376.42	411.523
1380.65	571.117
1384.88	614.59
1389.11	483.512
1393.33	198.941
1397.55	485.852
1401.76	496.668
1405.98	483.969
1410.19	269.785
1414.4	596.285
1418.61	699.328
1422.82	830.457
1427.02	428.941
1431.22	359.168
1435.42	572.379
1439.61	345.094
1443.81	728.856
1448	231.887
1452.18	565.711
1456.37	357.379
1460.56	239.977
1464.74	218.894
1468.92	195.34
1473.09	306.191
1477.27	463.957
1481.44	234.453
1485.61	90.9492
1489.78	226.223
1493.94	478.316
1498.1	109.711
1502.26	154.644
1506.42	305.961
1510.58	193.906
1514.73	257.527
1518.88	373.223
1523.03	234.539
1527.17	132.332
1531.32	63.2031
