Measurement: Raman, 514 nm, ccw, Raman Data Processed
Mineral: Arfvedsonite
Rruff sample: R040127
Ideal chemistry: NaNa_2_(Fe^2+^_4_Fe^3+^)Si_8_O_22_(OH)_2_
Locality: Mont Saint-Hilaire, Rouville County, Quebec, Canada
Source: Bob Downs
Description: Black prismatic crystal associated with white analcime, R040128
Measured chemistry: (Na_0.61_K_0.39_)Na_2.00_(Fe^2+^_2.40_Mg_0.80_Mn_0.75_Ca_0.05_)_=4_(Fe^3+^_0.60_Al_0.25_Mn_0.15_)(Si_0.99_Ti_0.01_)_8_O_22_((OH)_0.67_F_0.33_)_2_
Pin_id: M00386
Orientation: Laser parallel to -c* (0 0 -1). Fiducial mark perpendicular to laser is parallel to -a [-1 0 0]
Raman shift (cm-1)	intensity
125.123	0
130.07	586.25
135.014	1473.61
139.955	4666.38
144.894	1773.99
149.83	1061.81
154.762	1914.14
159.692	2770.95
164.62	4005.78
169.544	3845.03
174.465	2532.56
179.384	3117.95
184.3	3737.14
189.213	5580.05
194.123	7871.73
199.03	8690.84
203.934	7119.67
208.836	3523.58
213.735	2420.82
218.631	1357.15
223.524	742.754
228.414	659.883
233.302	611.836
238.186	491.859
243.068	215.371
247.947	180.344
252.823	33.5195
257.697	91.0508
262.567	363.789
267.435	235.848
272.3	22.6797
277.162	99.918
282.021	162.633
286.878	71.0469
291.732	474.633
296.583	1146.17
301.431	2006.02
306.276	2824.92
311.119	3890.53
315.958	4427.83
320.795	3802.53
325.629	3157.56
330.461	2506.8
335.289	1992.29
340.115	2450.02
344.938	2713.17
349.759	2931.97
354.576	3277.23
359.391	3020.61
364.203	2934.08
369.012	3016.58
373.818	2804.09
378.622	2467.59
383.423	2670.67
388.221	2550.41
393.016	2463.3
397.809	2297.02
402.598	2101.54
407.386	2089.18
412.17	2473.75
416.951	1934.79
421.73	2137.83
426.506	1571.61
431.279	1142.74
436.05	806.621
440.818	466.445
445.583	101.305
450.345	48.2383
455.105	81.0039
459.861	92.7148
464.615	505.633
469.367	162.117
474.115	340.828
478.861	2.625
483.604	772.606
488.345	1060.75
493.082	1418.91
497.817	1694.35
502.55	2364.53
507.279	2592.24
512.006	3474.57
516.73	3988.2
521.451	5054.44
526.17	7819.23
530.886	9359.56
535.599	9708.58
540.31	9011.35
545.017	7589.68
549.723	6582.65
554.425	5875.75
559.125	5680.33
563.822	5469.99
568.516	5656.9
573.207	5643.09
577.896	4340.2
582.583	2953.92
587.266	1960.07
591.947	1385.55
596.625	1289.6
601.3	661.121
605.973	665.621
610.643	358.008
615.311	449.203
619.975	49.5352
624.637	146.144
629.297	88.6445
633.953	347.844
638.607	227.144
643.259	305.566
647.907	307.109
652.553	1562.75
657.197	1901.46
661.837	4050.22
666.475	7171.04
671.111	11323.2
675.743	12336.4
680.373	7766.95
685.001	4450.94
689.625	2576.42
694.247	2252.49
698.867	1881.31
703.483	1979.34
708.097	2070.35
712.709	1968.29
717.318	1777.38
721.924	1258.29
726.527	1183.63
731.128	1441.04
735.726	869.738
740.322	755.668
744.915	932.66
749.505	537.691
754.093	917.703
758.678	1132.11
763.26	668.941
767.84	762.59
772.417	1008.47
776.992	729.562
781.564	933.394
786.133	593.199
790.7	803.969
795.264	561.129
799.825	482.594
804.384	422.078
808.94	386.652
813.494	323.039
818.045	16.3008
822.593	68.918
827.139	169.07
831.682	73.9297
836.223	402.109
840.761	82.8164
845.296	117.5
849.829	84.1406
854.359	2.79688
858.887	519.016
863.412	514.508
867.934	654.184
872.454	1272.13
876.971	1726.38
881.486	1846.96
885.998	2134.91
890.507	2743.25
895.014	2880.07
899.518	3168.63
904.02	3410.14
908.519	2960.48
913.016	3544.47
917.51	3274.16
922.001	2726.65
926.49	2889.08
930.976	2689.61
935.46	2616.27
939.941	3282.44
944.42	3284.25
948.896	3868.77
953.369	4189.06
957.84	5027.54
962.309	5951.16
966.774	7223.17
971.238	8783.82
975.698	9329.8
980.156	8920.43
984.612	7407.07
989.065	5510.69
993.516	4300.08
997.964	3821.22
1002.41	3474.63
1006.85	3376.77
1011.29	3145.66
1015.73	2574.55
1020.16	2902.5
1024.6	3161.39
1029.03	2823.32
1033.46	3408.05
1037.88	3050.6
1042.3	3400.75
1046.72	3708
1051.14	3989.42
1055.56	3887.8
1059.97	4214.54
1064.38	4726.58
1068.79	4488.53
1073.19	4584.79
1077.59	4622.54
1081.99	4331.16
1086.39	4280.06
1090.79	4584.82
1095.18	4895.04
1099.57	4729.99
1103.95	4713.22
1108.34	4219.38
1112.72	3954.39
1117.1	4043.07
1121.48	3556.76
1125.85	3250.03
1130.23	2667.72
1134.6	2371.14
1138.96	2145.07
1143.33	1875.9
1147.69	1789.8
1152.05	1096.17
1156.41	578.34
1160.76	406.309
1165.11	82.3008
1169.46	109.359
1173.81	49.3164
1178.16	24.3789
1182.5	35.4766
1186.84	222.531
1191.18	191.027
1195.51	23.5703
1199.84	162.367
1204.17	50.6914
1208.5	277.066
1212.83	318.211
1217.15	28.582
1221.47	92.0742
1225.79	447.547
1230.1	273.676
1234.41	214.18
1238.73	59.9219
1243.03	63.8789
1247.34	55.0664
1251.64	417.996
1255.94	122.309
1260.24	176.144
1264.54	332.066
1268.83	105.344
1273.12	105.043
1277.41	406.812
1281.69	116.238
1285.98	238.793
1290.26	232.5
1294.54	398.328
1298.81	361.481
1303.09	533.262
1307.36	516.383
1311.63	312.574
1315.89	286.18
1320.16	787.453
1324.42	373.496
1328.68	490.176
1332.93	452.231
1337.19	469.027
1341.44	531.898
1345.69	732.289
1349.94	395.992
1354.18	190.918
1358.42	663.652
1362.66	603.086
1366.9	397.137
1371.13	602.512
1375.37	342.137
1379.6	363.914
1383.82	627.477
1388.05	387.684
1392.27	284.918
1396.49	769.359
1400.71	481.574
1404.92	642.766
1409.14	741.031
1413.35	176.848
1417.56	488.879
1421.76	544.164
1425.97	617.359
1430.17	399.113
1434.37	288.594
1438.56	550.172
1442.76	132.43
1446.95	192.844
1451.14	476.75
1455.33	276.336
1459.51	203.809
1463.69	82.6523
1467.87	217.398
1472.05	284.387
1476.22	515.172
1480.4	365.203
1484.57	124.016
1488.73	258.113
1492.9	287.769
1497.06	114.883
1501.22	95.0742
1505.38	640.141
1509.54	189.277
1513.69	199.16
1517.84	388.031
1521.99	249.227
1526.14	96.1797
1530.28	578.371
1534.42	194.902
1538.56	110.785
1542.7	534.012
1546.83	863.523
1550.97	458.199
1555.1	473.527
1559.22	280.68
1563.35	445.023
1567.47	155.027
