Measurement: Raman, 514 nm, ccw, Raman Data Processed
Mineral: Arfvedsonite
Rruff sample: R040127
Ideal chemistry: NaNa_2_(Fe^2+^_4_Fe^3+^)Si_8_O_22_(OH)_2_
Locality: Mont Saint-Hilaire, Rouville County, Quebec, Canada
Source: Bob Downs
Description: Black prismatic crystal associated with white analcime, R040128
Measured chemistry: (Na_0.61_K_0.39_)Na_2.00_(Fe^2+^_2.40_Mg_0.80_Mn_0.75_Ca_0.05_)_=4_(Fe^3+^_0.60_Al_0.25_Mn_0.15_)(Si_0.99_Ti_0.01_)_8_O_22_((OH)_0.67_F_0.33_)_2_
Pin_id: L01975
Orientation: Laser parallel to b* (0 1 0). Fiducial mark perpendicular to laser is parallel to c [0 0 1]
Raman shift (cm-1)	intensity
183.071	0
187.985	1811.87
192.896	6455.38
197.803	9623.9
202.709	12773.1
207.611	3535.13
212.51	4799.9
217.407	4640.51
222.301	3270.51
227.192	1894.83
232.08	2631.66
236.965	4392.62
241.848	4901.67
246.728	5483.8
251.604	4615.67
256.479	3274.55
261.35	2258.67
266.218	1374.77
271.084	503.098
275.947	44.5312
280.807	832.383
285.664	572.982
290.518	53.9033
295.37	373.867
300.219	1181.87
305.065	2473.85
309.908	4793.86
314.749	5779.25
319.586	6108.59
324.421	4390.25
329.253	2686.09
334.083	1630.9
338.909	2008.21
343.733	2505.48
348.554	3210.49
353.372	3936.08
358.187	4507.33
363	4185.96
367.81	3622.93
372.617	3127.31
377.421	2702.46
382.223	2513.14
387.022	2454.33
391.818	2377.46
396.611	1974.04
401.401	1621.67
406.189	1934.36
410.974	2326.59
415.756	3433.01
420.536	3734.09
425.312	3192.55
430.086	2176.27
434.858	1161.91
439.626	249.55
444.392	9.67969
449.155	224.363
453.915	93.3047
458.672	203.224
463.427	531.974
468.179	657.004
472.928	808.433
477.675	641.497
482.419	760.391
487.16	1238.12
491.898	1691.79
496.634	2298.42
501.367	3035.21
506.097	3988.95
510.825	4385.27
515.549	5020.26
520.271	5823.05
524.991	7404.97
529.707	10559.3
534.421	14007
539.132	15381.2
543.841	13610
548.547	11133.8
553.25	9022.27
557.95	7349.45
562.648	6652.01
567.343	6862.25
572.035	7101.78
576.724	6522.41
581.411	4663.94
586.095	2314.66
590.777	998.257
595.456	331.979
600.132	161.225
604.805	59.543
609.476	77.376
614.144	56.8838
618.809	124.272
623.472	51.8594
628.132	22.7383
632.789	271.687
637.444	534.538
642.096	953.002
646.745	1355.13
651.392	1840.47
656.036	2678.88
660.677	3976.18
665.316	6839.38
669.952	12273.5
674.585	19613.6
679.216	18617.7
683.844	9810.38
688.469	4826.27
693.092	2890.02
697.712	2034.17
702.329	1558.94
706.944	1235.9
711.556	1094.84
716.166	939.513
720.773	857.389
725.377	859.314
729.978	729.68
734.577	872.636
739.173	658.992
743.767	683.275
748.358	456.069
752.946	496.916
757.532	243.759
762.115	251.557
766.695	207.272
771.273	174.188
775.848	331.457
780.421	406.152
784.991	402.961
789.558	470.911
794.123	710.035
798.685	876.371
803.245	716.95
807.802	467.815
812.356	159.166
816.907	95.6064
821.456	209.184
826.003	256.877
830.547	252.71
835.088	243.445
839.627	68.6133
844.163	40.7119
848.696	4.41406
853.227	23.3633
857.755	66.499
862.281	249.216
866.804	268.826
871.324	399.373
875.842	962.993
880.357	1165.57
884.87	1726.38
889.38	2113.12
893.888	2313.82
898.393	2859.5
902.895	3146.15
907.395	3837.43
911.892	4096.39
916.387	4635.91
920.879	5170.82
925.368	5214.84
929.855	5121.71
934.339	5014.26
938.821	5571.71
943.301	6252.79
947.777	6800.86
952.251	7346.49
956.723	8693.2
961.192	10541.9
965.658	13163.4
970.122	16648
974.583	20226.6
979.042	21646.2
983.498	20169
987.952	15328.5
992.403	11456.5
996.852	8397.75
1001.3	6438.26
1005.74	5180.06
1010.18	4392.18
1014.62	4072.61
1019.06	3482.35
1023.49	3300.41
1027.92	3004.78
1032.35	2933.5
1036.78	2968.58
1041.2	3279.96
1045.62	3617.98
1050.04	3967.23
1054.45	4482
1058.87	5141.84
1063.28	6044.28
1067.68	6588.68
1072.09	6799.74
1076.49	6043.32
1080.89	5530.63
1085.29	5015.47
1089.69	5364.79
1094.08	5483.58
1098.47	6187.78
1102.86	6458.21
1107.24	6821.8
1111.63	6789.64
1116.01	6717.91
1120.38	6547.11
1124.76	6487.35
1129.13	6294.35
1133.5	5938.2
1137.87	5548.66
1142.24	5284.14
1146.6	4721.59
1150.96	4009
1155.32	3188.46
1159.67	1729.73
1164.03	658.273
1168.38	284.008
1172.72	26.9316
1177.07	35.291
1181.41	80.2051
1185.75	62.1133
1190.09	75.7002
1194.43	116.418
1198.76	7.80957
1203.09	158.075
1207.42	68.2217
1211.75	84.0225
1216.07	74.1699
1220.39	60.8477
1224.71	175.473
1229.02	119.833
1233.34	56.3799
1237.65	98.7637
1241.96	150.269
1246.26	42.7031
1250.57	111.86
1254.87	123.29
1259.17	271.354
1263.46	209.243
1267.76	287.015
1272.05	186.719
1276.34	309.185
1280.62	138.904
1284.91	362.883
1289.19	202.128
1293.47	216.095
1297.74	268.119
1302.02	467.376
1306.29	301.144
1310.56	269.382
1314.83	358.24
1319.09	259.16
1323.35	285.058
1327.61	483.245
1331.87	498.526
1336.12	295.369
1340.38	232.659
1344.63	284.667
1348.87	163.756
1353.12	159.321
1357.36	337.125
1361.6	239.455
1365.84	223.804
1370.08	121.325
1374.31	250.817
1378.54	53.9072
1382.77	262.097
1386.99	87.5537
1391.22	85.3603
1395.44	121.971
1399.66	307.747
1403.87	128.435
1408.09	84.3135
1412.3	165.062
1416.51	53.7568
1420.71	77.8701
1424.92	269.745
1429.12	191.394
1433.32	191.764
1437.51	99.8418
1441.71	195.048
1445.9	275.715
1450.09	213.029
1454.28	68.5762
1458.46	169.757
1462.65	183.884
1466.83	206.332
1471	204.852
1475.18	143.874
1479.35	211.584
1483.52	211.186
1487.69	130.381
1491.86	141.894
1496.02	71.7432
1500.18	248.956
1504.34	66.3369
1508.5	200.852
1512.65	5.77734
1516.8	8.22168
1520.95	122.024
1525.1	65.8144
1529.24	180.41
1533.39	6.0293
1537.53	1.76074
1541.66	249.976
1545.8	96.6543
1549.93	189.404
1554.06	7.61133
1558.19	231.046
1562.32	85.9551
