Measurement: Raman, 514 nm, ccw, Raman Data Processed
Mineral: Arfvedsonite
Rruff sample: R040127
Ideal chemistry: NaNa_2_(Fe^2+^_4_Fe^3+^)Si_8_O_22_(OH)_2_
Locality: Mont Saint-Hilaire, Rouville County, Quebec, Canada
Source: Bob Downs
Description: Black prismatic crystal associated with white analcime, R040128
Measured chemistry: (Na_0.61_K_0.39_)Na_2.00_(Fe^2+^_2.40_Mg_0.80_Mn_0.75_Ca_0.05_)_=4_(Fe^3+^_0.60_Al_0.25_Mn_0.15_)(Si_0.99_Ti_0.01_)_8_O_22_((OH)_0.67_F_0.33_)_2_
Pin_id: M00441
Orientation: Laser parallel to a* (1 0 0). Fiducial mark perpendicular to laser is parallel to -b [0 -1 0]
Raman shift (cm-1)	intensity
176.925	0
181.842	240.381
186.757	2309.79
191.668	4098.69
196.577	6685.91
201.483	8365.93
206.386	3474.69
211.286	1723.78
216.183	1898.5
221.078	862.982
225.969	763.539
230.858	1671.84
235.744	2666.89
240.628	2887.61
245.508	3055.95
250.386	2910.68
255.26	2701.83
260.132	2075.58
265.001	1741.46
269.868	1073.58
274.731	254.172
279.592	158.793
284.45	322.824
289.305	298.873
294.157	40.3398
299.007	639.633
303.854	1438.38
308.698	2419.99
313.539	3079.2
318.377	3479.59
323.213	3004.88
328.046	2597.38
332.876	2706.57
337.703	3503.6
342.527	5082.82
347.349	6819.41
352.168	7686.94
356.984	7442.17
361.797	6850.19
366.608	5841.94
371.415	5183.42
376.22	4716.13
381.023	4598.14
385.822	3986.7
390.619	3722.55
395.413	3011.85
400.204	2521.99
404.992	2248.92
409.778	2451.66
414.561	2507.1
419.341	2447.97
424.118	2213.81
428.893	1882.22
433.665	1266.06
438.434	696.398
443.201	113.164
447.964	313.19
452.725	427.147
457.483	468.477
462.239	205.273
466.991	137.957
471.741	58.9844
476.489	450.094
481.233	551.502
485.975	847.383
490.714	1566.04
495.45	2580.7
500.184	3577.49
504.915	4531.51
509.643	5247.87
514.368	6034.64
519.091	7466.97
523.811	9516.11
528.528	12306.4
533.243	14700.8
537.955	14943.3
542.664	13853.2
547.37	12096.7
552.074	10900.2
556.775	9891.64
561.473	9222.47
566.169	8984.71
570.862	8330.51
575.552	6972.88
580.24	5577.25
584.925	4136.34
589.607	3009.76
594.286	2459.17
598.963	2133.45
603.637	1816.37
608.309	1499.19
612.977	1220.4
617.643	1055.91
622.307	817.148
626.967	769.705
631.625	803.678
636.281	1600.64
640.933	1488.61
645.583	1791.6
650.231	2475.33
654.875	3089.72
659.517	4345.89
664.157	7184.28
668.793	11797.3
673.427	15161.3
678.059	14014.8
682.687	8846.44
687.313	5525.69
691.937	4495.26
696.557	4305.04
701.175	4548.65
705.791	4642.97
710.403	4967.56
715.014	5084.58
719.621	5122.18
724.226	4743.63
728.828	4783.13
733.428	4414.9
738.025	3820.31
742.619	3314.13
747.21	2769.24
751.799	2468.92
756.386	2128.09
760.969	1674.64
765.551	1690.52
770.129	1380.6
774.705	1158.84
779.278	972.254
783.849	891.85
788.417	807.5
792.982	617.641
797.545	365.853
802.105	60.2402
806.663	261.676
811.217	336.113
815.77	446.402
820.319	477.5
824.867	482.906
829.411	278.441
833.953	180.022
838.492	10.5254
843.029	203.637
847.563	717.096
852.094	1144.05
856.623	1770.52
861.15	2577.76
865.673	3234.2
870.194	4569.47
874.713	5614.34
879.229	6493.84
883.742	7289.97
888.253	7145.94
892.761	6783.27
897.267	6342.52
901.77	5758.63
906.27	5555.88
910.768	4970.52
915.263	4835.32
919.756	4550.86
924.246	4245.14
928.734	3954.11
933.219	3696.46
937.701	3894
942.181	4045.58
946.658	4546.27
951.133	4922.05
955.605	5458.11
960.075	6055.8
964.542	7131.93
969.006	8226.81
973.468	8887.86
977.928	9637.56
982.385	9573.23
986.839	8999.44
991.291	8285.85
995.74	7569.65
1000.19	6954.97
1004.63	6557.77
1009.07	6432.03
1013.51	6450.77
1017.95	6353.97
1022.38	6494.64
1026.81	5847.82
1031.24	5680.54
1035.67	6136.03
1040.09	6544.94
1044.51	6528.64
1048.93	6886.04
1053.35	6916.63
1057.76	6981.34
1062.17	7063.03
1066.58	7493.53
1070.99	7078.75
1075.39	7133.68
1079.79	6722.28
1084.19	7005.28
1088.59	6992.98
1092.98	6905.38
1097.37	6541.19
1101.76	6669.75
1106.15	6040.07
1110.53	5552.27
1114.91	4853.75
1119.29	4438.85
1123.67	4018.41
1128.04	3363.65
1132.41	3038.89
1136.78	2531.72
1141.15	2180.73
1145.51	1725.89
1149.87	1182.79
1154.23	666.402
1158.59	375.666
1162.94	125.488
1167.29	79.7402
1171.64	174.637
1175.98	29.2852
1180.33	257.641
1184.67	201.445
1189.01	148.644
1193.34	261.438
1197.68	70.3555
1202.01	77.3828
1206.34	139.787
1210.66	204.379
1214.99	165.504
1219.31	128.557
1223.63	339.32
1227.94	173.316
1232.26	130.656
1236.57	446.562
1240.88	360.08
1245.19	429.463
1249.49	507.863
1253.79	196.205
1258.09	158.828
1262.39	339.787
1266.68	238.174
1270.97	321.193
1275.26	337.996
1279.55	494.828
1283.84	438.527
1288.12	309.293
1292.4	221.023
1296.67	187.555
1300.95	213.846
1305.22	239.369
1309.49	232.135
1313.76	269.096
1318.03	286.799
1322.29	86.1602
1326.55	198.541
1330.81	415.514
1335.06	23.0781
1339.31	188.217
1343.56	34.3379
1347.81	147.832
1352.06	118.42
1356.3	178.207
1360.54	300.426
1364.78	85.8945
1369.02	208.301
1373.25	327.568
1377.48	90.5762
1381.71	119.256
1385.94	154.893
1390.16	52.0938
1394.38	8.92773
1398.6	157.539
1402.82	80.8828
1407.03	204.027
1411.24	388.047
1415.45	224.24
1419.66	417.416
1423.87	204.861
1428.07	303.955
1432.27	223.492
1436.46	305.557
1440.66	380.281
1444.85	219.834
1449.04	279.129
1453.23	307.227
1457.42	419.117
1461.6	313.086
1465.78	369.088
1469.96	375.981
1474.14	122.035
1478.31	235.209
1482.48	310.522
1486.65	274.107
1490.82	325.545
1494.98	567.803
1499.14	218.148
1503.3	21.1113
1507.46	308.199
1511.61	36.0859
1515.77	182.293
1519.92	339.668
1524.06	135.533
1528.21	321.812
1532.35	253.022
1536.49	31.2852
1540.63	12.8359
