Measurement: Raman, 514 nm, ccw, Raman Data Processed
Mineral: Arfvedsonite
Rruff sample: R040127
Ideal chemistry: NaNa_2_(Fe^2+^_4_Fe^3+^)Si_8_O_22_(OH)_2_
Locality: Mont Saint-Hilaire, Rouville County, Quebec, Canada
Source: Bob Downs
Description: Black prismatic crystal associated with white analcime, R040128
Measured chemistry: (Na_0.61_K_0.39_)Na_2.00_(Fe^2+^_2.40_Mg_0.80_Mn_0.75_Ca_0.05_)_=4_(Fe^3+^_0.60_Al_0.25_Mn_0.15_)(Si_0.99_Ti_0.01_)_8_O_22_((OH)_0.67_F_0.33_)_2_
Pin_id: M00386
Orientation: Laser parallel to -c* (0 0 -1). Fiducial mark perpendicular to laser is parallel to -a [-1 0 0]
Raman shift (cm-1)	intensity
131.306	0
136.25	2909.78
141.19	13831.8
146.128	5422.08
151.063	1394.67
155.995	449.644
160.925	4626.1
165.851	6301.3
170.775	4404.11
175.695	1154.38
180.613	454.984
185.528	1198.14
190.44	3659.65
195.35	6604.36
200.256	8472.31
205.16	6725.92
210.061	7243.41
214.959	8238.55
219.854	6008.35
224.747	5176
229.636	4091.75
234.523	4420.3
239.407	5007.15
244.288	5175.93
249.166	4549.12
254.042	3346.52
258.915	3035.14
263.784	1747.4
268.651	605.445
273.516	351.156
278.377	144.215
283.236	656.324
288.092	389.652
292.945	367.949
297.795	840.016
302.642	1578.02
307.487	3109.43
312.329	4441.11
317.168	4670.39
322.004	3587.23
326.838	2647.53
331.668	1808.87
336.496	1518.22
341.321	1967.35
346.144	2600.18
350.963	3323.23
355.78	4044.39
360.594	3882.14
365.405	3333.21
370.214	2487.34
375.019	1895.34
379.822	1792.56
384.622	1787.71
389.42	1253.93
394.215	1028.78
399.006	966.207
403.795	645.168
408.582	1076.64
413.365	2142.61
418.146	2446.06
422.924	2500.29
427.7	2259
432.472	1165.92
437.242	571.606
442.009	121.484
446.774	318.711
451.535	298.59
456.294	74.2383
461.05	369.644
465.804	169.641
470.554	398.769
475.302	288.514
480.047	415.154
484.79	563.158
489.529	1004.78
494.266	1637.59
499.001	1940.6
503.732	2881.67
508.461	3377.77
513.187	3999.85
517.911	4755.81
522.631	6021.85
527.349	8626.72
532.065	11262.5
536.777	12454.2
541.487	11746.8
546.194	9896.78
550.898	8178.87
555.6	6743.02
560.299	5975.56
564.995	5736.02
569.689	5887.03
574.38	5964.89
579.068	4304.4
583.754	2612.22
588.437	1155.04
593.117	405.883
597.794	304.211
602.469	633.41
607.141	304.719
611.81	148.371
616.477	156.191
621.141	148.91
625.802	278.113
630.461	210.578
635.117	612.777
639.77	865.941
644.421	1475.06
649.069	1638.77
653.714	2430.78
658.357	3471.61
662.997	5775.34
667.634	10050
672.269	16627.9
676.901	18547.1
681.53	11351.7
686.157	6205.68
690.781	3367.63
695.402	2786.31
700.021	1642.4
704.637	1467.55
709.251	1259.36
713.861	1023.62
718.469	960.918
723.075	790.781
727.678	859.723
732.278	917.031
736.876	498.516
741.47	465.394
746.063	656.949
750.652	362.398
755.239	331.207
759.824	182.863
764.406	225.555
768.985	165.277
773.561	238.832
778.135	324.602
782.706	333.297
787.275	383.973
791.841	470.684
796.404	504.496
800.965	802.449
805.523	659.586
810.079	202.621
814.632	205.508
819.182	27.9297
823.73	379.402
828.275	158.055
832.818	281.371
837.358	126.988
841.895	271.973
846.43	301.242
850.962	195.402
855.491	221.363
860.018	262.621
864.543	521.598
869.064	462.328
873.583	494.227
878.1	696.852
882.614	1013.71
887.125	1355.68
891.634	1945.41
896.14	2442.05
900.644	3213.7
905.145	3667.56
909.644	4298.3
914.14	4946.75
918.633	5402.01
923.124	5792.06
927.612	5519.89
932.098	5206.72
936.581	5219.6
941.061	5315.38
945.539	5896.22
950.015	6908.26
954.487	8041.51
958.958	9867.5
963.425	12643.5
967.89	15666.2
972.353	18757.5
976.813	20117.7
981.271	18559.4
985.726	14544.2
990.178	10840.4
994.628	8013.96
999.075	6224.23
1003.52	4973.7
1007.96	4021.57
1012.4	3634.68
1016.84	3201.04
1021.27	3421.79
1025.71	2896.86
1030.13	3079.27
1034.56	3319
1038.99	3343.06
1043.41	3858.91
1047.83	4264.36
1052.24	4630.89
1056.66	5340.25
1061.07	5706.39
1065.48	6610.98
1069.89	6981.51
1074.29	6396.63
1078.69	5740.25
1083.09	5014.66
1087.49	5341.54
1091.88	5650.38
1096.28	6163.35
1100.66	6775.59
1105.05	7105.47
1109.43	7166.33
1113.82	7069.05
1118.2	7391.88
1122.57	7159.06
1126.95	6905.56
1131.32	6217.94
1135.69	5806.78
1140.05	5414.9
1144.42	4930.23
1148.78	4223.3
1153.14	3554.41
1157.5	2096.94
1161.85	1101.38
1166.2	319.047
1170.55	235.613
1174.9	249.266
1179.24	76.1914
1183.58	164.168
1187.92	98.4609
1192.26	215.691
1196.6	39.4453
1200.93	51.7109
1205.26	138.781
1209.58	383.074
1213.91	220.211
1218.23	52.375
1222.55	89.3516
1226.87	159.824
1231.18	363.66
1235.49	48.3711
1239.8	276.234
1244.11	29.168
1248.41	27.2266
1252.72	280.75
1257.02	328.606
1261.32	188.871
1265.61	241.602
1269.9	277.344
1274.19	201.07
1278.48	100.469
1282.77	163.957
1287.05	401.898
1291.33	569.301
1295.61	198.965
1299.88	363.059
1304.15	218.801
1308.42	251.309
1312.69	296.852
1316.96	428.5
1321.22	396.965
1325.48	331.613
1329.74	261.422
1334	469.633
1338.25	171.152
1342.5	559.664
1346.75	141.594
1351	393.598
1355.24	93.0781
1359.48	161.633
1363.72	306.043
1367.96	284.715
1372.19	51.293
1376.42	93.3633
1380.65	396.168
1384.88	142.695
1389.11	44.0859
1393.33	115.492
1397.55	305.59
1401.76	269.711
1405.98	90.0234
1410.19	160.738
1414.4	84.457
1418.61	105.164
1422.82	90.2188
1427.02	415.777
1431.22	200.481
1435.42	11.4883
1439.61	481.824
1443.81	319.676
1448	94.9844
1452.18	235.148
1456.37	265.219
1460.56	388.465
1464.74	441.469
1468.92	294.633
1473.09	212.266
1477.27	439.738
1481.44	85.2109
1485.61	270.914
1489.78	447.008
1493.94	432.949
1498.1	153.586
1502.26	176.402
1506.42	129.133
1510.58	145.019
1514.73	392.727
1518.88	163.746
1523.03	462.762
1527.17	114.18
1531.32	292.891
1535.46	460.137
1539.6	179.844
1543.73	247.797
1547.87	209.027
1552	1.02344
1556.13	274.516
1560.26	359.938
1564.38	145.438
1568.5	19.9023
