Measurement: Raman, 514 nm, ccw, Raman Data Processed
Mineral: Arfvedsonite
Rruff sample: R040127
Ideal chemistry: NaNa_2_(Fe^2+^_4_Fe^3+^)Si_8_O_22_(OH)_2_
Locality: Mont Saint-Hilaire, Rouville County, Quebec, Canada
Source: Bob Downs
Description: Black prismatic crystal associated with white analcime, R040128
Measured chemistry: (Na_0.61_K_0.39_)Na_2.00_(Fe^2+^_2.40_Mg_0.80_Mn_0.75_Ca_0.05_)_=4_(Fe^3+^_0.60_Al_0.25_Mn_0.15_)(Si_0.99_Ti_0.01_)_8_O_22_((OH)_0.67_F_0.33_)_2_
Pin_id: M00446
Orientation: Laser parallel to (-1 0 -1). Fiducial mark perpendicular to laser is parallel to -b [0 -1 0]
Raman shift (cm-1)	intensity
158.46	0
163.388	2094.63
168.313	2999.5
173.235	933.422
178.155	857.426
183.071	1914
187.985	4337.97
192.896	7889.91
197.803	9326.48
202.709	10653.4
207.611	4154.28
212.51	3013.87
217.407	2114.13
222.301	1453.33
227.192	868.504
232.08	553.316
236.965	458.594
241.848	298.051
246.728	120.914
251.604	278.441
256.479	95.9258
261.35	62.6523
266.218	162.156
271.084	48.3789
275.947	173.957
280.807	224.805
285.664	103.344
290.518	213.465
295.37	785.223
300.219	1456.07
305.065	2581.77
309.908	3878.79
314.749	5347.5
319.586	5611.53
324.421	4567.35
329.253	4128.32
334.083	3273.56
338.909	2819.39
343.733	3006.4
348.554	3572.44
353.372	3878.2
358.187	4131.65
363	4123.38
367.81	3819.18
372.617	3461.67
377.421	3172.14
382.223	3490.04
387.022	3517.37
391.818	3473.7
396.611	3099.75
401.401	3097.9
406.189	2934.32
410.974	3048.11
415.756	3098.32
420.536	2891.14
425.312	2681.4
430.086	2158.71
434.858	1540.69
439.626	1455.1
444.392	746.699
449.155	283.191
453.915	2.40625
458.672	30.0469
463.427	317.875
468.179	246.504
472.928	609.262
477.675	462.727
482.419	792.523
487.16	1436.46
491.898	2433.66
496.634	2346.38
501.367	3119.64
506.097	3650.42
510.825	4391.86
515.549	5285.05
520.271	6739.39
524.991	8920.73
529.707	11550.2
534.421	13529.1
539.132	13601.8
543.841	12017
548.547	10448.2
553.25	8870.68
557.95	8175.58
562.648	7916.55
567.343	8411
572.035	7763.89
576.724	7070.72
581.411	5157.67
586.095	3078.29
590.777	1880.5
595.456	1159.23
600.132	909.309
604.805	723.211
609.476	529.664
614.144	339.652
618.809	45.8984
623.472	238.273
628.132	207.371
632.789	100.164
637.444	60.6797
642.096	650.984
646.745	470.961
651.392	1269.24
656.036	2071.48
660.677	3767.02
665.316	7288.82
669.952	12356.3
674.585	16334.4
679.216	13995.8
683.844	7790.26
688.469	4209.87
693.092	2820.15
697.712	2622.14
702.329	2640.1
706.944	3175.79
711.556	2670.26
716.166	2304.97
720.773	1978.12
725.377	1917.4
729.978	1672.78
734.577	1746.23
739.173	1345.74
743.767	1211.29
748.358	1239.86
752.946	1203.43
757.532	1231.9
762.115	1311.92
766.695	1369.84
771.273	1359.2
775.848	1288.77
780.421	1248.18
784.991	1232.84
789.558	1265.53
794.123	1079.25
798.685	915.996
803.245	594.766
807.802	227.551
812.356	196.016
816.907	36.668
821.456	336.492
826.003	416.137
830.547	155.012
835.088	139
839.627	90.0664
844.163	95.8945
848.696	101.481
853.227	282.652
857.755	533.953
862.281	743.582
866.804	1019.13
871.324	1340.96
875.842	1943.79
880.357	2157.12
884.87	3057.98
889.38	3305.41
893.888	3134.51
898.393	3337.53
902.895	3445.47
907.395	3556.61
911.892	3186.48
916.387	2973.25
920.879	2605.97
925.368	2544.79
929.855	2644.11
934.339	2726.89
938.821	2666.21
943.301	2859.31
947.777	3313.75
952.251	3752.91
956.723	3774.92
961.192	4330.33
965.658	4979.43
970.122	5980
974.583	6512.36
979.042	6295.5
983.498	6263.32
987.952	5330.73
992.403	4627.89
996.852	4473.3
1001.3	3674.91
1005.74	3192.04
1010.18	3756.46
1014.62	3659.13
1019.06	3686.08
1023.49	3418.72
1027.92	3782.15
1032.35	3939.06
1036.78	4258.94
1041.2	4822.93
1045.62	4847.23
1050.04	5211.21
1054.45	5455.34
1058.87	5613.27
1063.28	5864.67
1067.68	6328.54
1072.09	6480.44
1076.49	6154.49
1080.89	6022.02
1085.29	5817.45
1089.69	5863.63
1094.08	6511.01
1098.47	6320.93
1102.86	6581.14
1107.24	5833.19
1111.63	5797.54
1116.01	5511.84
1120.38	4909.45
1124.76	4454
1129.13	4106.56
1133.5	3674.05
1137.87	3082.36
1142.24	2869
1146.6	2317.89
1150.96	1728.79
1155.32	926.457
1159.67	479.734
1164.03	181.43
1168.38	95.8867
1172.72	27.8594
1177.07	8.05469
1181.41	36.2539
1185.75	247.961
1190.09	21.8672
1194.43	142.848
1198.76	58.8984
1203.09	235.863
1207.42	46.3086
1211.75	30.9492
1216.07	66.7539
1220.39	89.3477
1224.71	194.602
1229.02	146.969
1233.34	71.2734
1237.65	144.152
1241.96	97.1133
1246.26	65.1914
1250.57	215.918
1254.87	168.211
1259.17	306.027
1263.46	130.559
1267.76	73.125
1272.05	97.1406
1276.34	294.434
1280.62	221.961
1284.91	265.711
1289.19	67.5156
1293.47	216.289
1297.74	82.3242
1302.02	143.617
1306.29	271.461
1310.56	214.91
1314.83	186.481
1319.09	123.922
1323.35	369.793
1327.61	357.234
1331.87	288.266
1336.12	472.066
1340.38	372.996
1344.63	323.871
1348.87	298.59
1353.12	420.477
1357.36	602.883
1361.6	282.473
1365.84	421.988
1370.08	163.496
1374.31	187.453
1378.54	404.949
1382.77	170.363
1386.99	214.988
1391.22	487.875
1395.44	492.094
1399.66	532.418
1403.87	530.633
1408.09	390.852
1412.3	698.078
1416.51	428.398
1420.71	393.184
1424.92	360.488
1429.12	610.019
1433.32	578.684
1437.51	536.301
1441.71	402.394
1445.9	563.957
1450.09	345.473
1454.28	355.906
1458.46	268.227
1462.65	326.922
1466.83	418.75
1471	233.867
1475.18	209.07
1479.35	397.477
1483.52	505.902
1487.69	90.4844
1491.86	336.219
1496.02	358.16
1500.18	95.1875
1504.34	434.832
1508.5	294.988
1512.65	253.367
1516.8	235.938
1520.95	162.836
1525.1	417.871
1529.24	171.555
1533.39	145.859
1537.53	15.4258
