Measurement: Raman, 514 nm, ccw, Raman Data Processed
Mineral: Arfvedsonite
Rruff sample: R040127
Ideal chemistry: NaNa_2_(Fe^2+^_4_Fe^3+^)Si_8_O_22_(OH)_2_
Locality: Mont Saint-Hilaire, Rouville County, Quebec, Canada
Source: Bob Downs
Description: Black prismatic crystal associated with white analcime, R040128
Measured chemistry: (Na_0.61_K_0.39_)Na_2.00_(Fe^2+^_2.40_Mg_0.80_Mn_0.75_Ca_0.05_)_=4_(Fe^3+^_0.60_Al_0.25_Mn_0.15_)(Si_0.99_Ti_0.01_)_8_O_22_((OH)_0.67_F_0.33_)_2_
Pin_id: M00386
Orientation: Laser parallel to -c* (0 0 -1). Fiducial mark perpendicular to laser is parallel to -a [-1 0 0]
Raman shift (cm-1)	intensity
128.833	0
133.778	2729.28
138.72	22386.6
143.66	20102.4
148.596	4469.78
153.53	449.523
158.46	1035.5
163.388	4418.61
168.313	4193.41
173.235	547.045
178.155	45.6191
183.071	1220.64
187.985	4417.82
192.896	8881.78
197.803	11906
202.709	14253.1
207.611	18035.5
212.51	21984.5
217.407	18623.2
222.301	13779.8
227.192	11772.7
232.08	11694
236.965	12758.5
241.848	13422.5
246.728	12988.5
251.604	10705.1
256.479	8302.2
261.35	7223.34
266.218	5164.24
271.084	3857.7
275.947	908.455
280.807	300.348
285.664	809.891
290.518	623.141
295.37	430.867
300.219	2016.12
305.065	4581.16
309.908	7546.34
314.749	8760.71
319.586	7624.84
324.421	4490.41
329.253	2597.16
334.083	758.854
338.909	6.15625
343.733	289.781
348.554	1056.81
353.372	1373.34
358.187	2518.62
363	2989.94
367.81	3045.09
372.617	2853.8
377.421	3185.96
382.223	3371.6
387.022	3623.11
391.818	3244.81
396.611	2682.68
401.401	2332.65
406.189	2488.69
410.974	4197.75
415.756	5873.8
420.536	6380.93
425.312	5571.58
430.086	3411.96
434.858	1789.59
439.626	519.861
444.392	160.898
449.155	136.606
453.915	164.938
458.672	504.346
463.427	635.6
468.179	939.723
472.928	526.938
477.675	457.926
482.419	855.551
487.16	1687.99
491.898	2352.3
496.634	3272.28
501.367	4626.27
506.097	5384.59
510.825	5615.2
515.549	6194.08
520.271	7442.21
524.991	10216.5
529.707	14729.2
534.421	18923.1
539.132	18864.2
543.841	16431.7
548.547	13021.1
553.25	10561.4
557.95	8609.55
562.648	8230.79
567.343	8599.9
572.035	9161.24
576.724	8151.89
581.411	4752.68
586.095	2187.42
590.777	951.371
595.456	114.195
600.132	104.92
604.805	84.4316
609.476	53.4453
614.144	0.201172
618.809	126.248
623.472	265.004
628.132	377.793
632.789	738.047
637.444	1304.83
642.096	1831.07
646.745	2450.48
651.392	3698.33
656.036	5442.62
660.677	8410.38
665.316	14572.6
669.952	24869.3
674.585	33566.5
679.216	26201.5
683.844	13317.7
688.469	7485.99
693.092	4366.82
697.712	3474.39
702.329	2725.65
706.944	2411.77
711.556	1905.52
716.166	1792.42
720.773	1427.68
725.377	1334.93
729.978	1157.48
734.577	934.484
739.173	891.209
743.767	766.094
748.358	623.123
752.946	727.033
757.532	373.471
762.115	613.127
766.695	536.514
771.273	515.293
775.848	826.982
780.421	886.344
784.991	720.408
789.558	915.217
794.123	1294.79
798.685	1093.87
803.245	1536.36
807.802	923.439
812.356	637.439
816.907	114.367
821.456	191.185
826.003	154.295
830.547	45.7012
835.088	122.238
839.627	257.393
844.163	200.713
848.696	109.826
853.227	119.607
857.755	151.922
862.281	40.8496
866.804	75.7871
871.324	227.412
875.842	221.512
880.357	414.383
884.87	711.201
889.38	796.141
893.888	835.893
898.393	871.578
902.895	1069.02
907.395	1261.72
911.892	1525.98
916.387	1799.12
920.879	2141.63
925.368	2136.03
929.855	2257.28
934.339	2015.77
938.821	2090.03
943.301	2222.22
947.777	2977.97
952.251	2562.9
956.723	2807.83
961.192	3001.12
965.658	3893.06
970.122	4696.68
974.583	5666.72
979.042	5922.48
983.498	5188.48
987.952	4519.52
992.403	3449.69
996.852	2959.41
1001.3	2614.4
1005.74	2332.43
1010.18	2374.5
1014.62	2379.46
1019.06	2473.87
1023.49	2556.54
1027.92	2936.89
1032.35	2975.92
1036.78	3383.6
1041.2	4071.93
1045.62	4406.93
1050.04	5063.61
1054.45	6275.41
1058.87	7586.4
1063.28	8712.14
1067.68	9852.36
1072.09	9489.97
1076.49	8115.37
1080.89	7534.85
1085.29	6849.76
1089.69	7716.85
1094.08	8580.03
1098.47	9603.28
1102.86	10558.4
1107.24	11103.9
1111.63	11109.5
1116.01	12120.9
1120.38	13075.2
1124.76	13156.4
1129.13	11807.4
1133.5	10217.9
1137.87	9444.92
1142.24	8599.18
1146.6	7861.68
1150.96	6962.4
1155.32	5197.31
1159.67	2702.39
1164.03	836.617
1168.38	472.969
1172.72	9.42188
1177.07	108.941
1181.41	97.6992
1185.75	0.03125
1190.09	37.5
1194.43	108.082
1198.76	173.828
1203.09	341.457
1207.42	65.9805
1211.75	167.844
1216.07	83.7969
1220.39	0.105469
1224.71	180.547
1229.02	220.734
1233.34	321.871
1237.65	186.777
1241.96	344.578
1246.26	276.277
1250.57	564.211
1254.87	332.062
1259.17	418.109
1263.46	693.852
1267.76	559.266
1272.05	677.34
1276.34	565.023
1280.62	720.273
1284.91	848.039
1289.19	451.293
1293.47	963.016
1297.74	1135.18
1302.02	1122.73
1306.29	1299.69
1310.56	1567.43
1314.83	1259.57
1319.09	1360
1323.35	1575.45
1327.61	1603.12
1331.87	1841.34
1336.12	1481.47
1340.38	1486.99
1344.63	1629.94
1348.87	1337.05
1353.12	1455.12
1357.36	1629.29
1361.6	1550.54
1365.84	1706.32
1370.08	1078.17
1374.31	1184.64
1378.54	1205.33
1382.77	1337.07
1386.99	1073.66
1391.22	1224.38
1395.44	877.836
1399.66	885.945
1403.87	767.438
1408.09	728.027
1412.3	982.027
1416.51	668.082
1420.71	973.797
1424.92	714.856
1429.12	872.457
1433.32	604.508
1437.51	517.488
1441.71	279.816
1445.9	161.234
1450.09	393.594
1454.28	392.656
1458.46	243.801
1462.65	36.1016
1466.83	245.34
1471	241.898
1475.18	185.512
1479.35	72.3555
1483.52	243.402
1487.69	69.625
1491.86	90.082
1496.02	48.8555
1500.18	94.9375
1504.34	6.00391
1508.5	144.609
1512.65	318.293
1516.8	165.66
1520.95	238.672
1525.1	389.731
1529.24	367.68
1533.39	395.523
1537.53	274.203
1541.66	457.066
1545.8	267.754
1549.93	190.863
1554.06	16.3477
1558.19	144.766
1562.32	553.641
1566.44	216.309
1570.56	0
