Measurement: Raman, 514 nm, ccw, Raman Data Processed
Mineral: Arfvedsonite
Rruff sample: R040127
Ideal chemistry: NaNa_2_(Fe^2+^_4_Fe^3+^)Si_8_O_22_(OH)_2_
Locality: Mont Saint-Hilaire, Rouville County, Quebec, Canada
Source: Bob Downs
Description: Black prismatic crystal associated with white analcime, R040128
Measured chemistry: (Na_0.61_K_0.39_)Na_2.00_(Fe^2+^_2.40_Mg_0.80_Mn_0.75_Ca_0.05_)_=4_(Fe^3+^_0.60_Al_0.25_Mn_0.15_)(Si_0.99_Ti_0.01_)_8_O_22_((OH)_0.67_F_0.33_)_2_
Pin_id: L01975
Orientation: Laser parallel to b* (0 1 0). Fiducial mark perpendicular to laser is parallel to c [0 0 1]
Raman shift (cm-1)	intensity
158.46	0
163.388	2465.94
168.313	4073.87
173.235	2577.52
178.155	1701.76
183.071	1998.79
187.985	5512.26
192.896	10385.4
197.803	13820.5
202.709	17192.9
207.611	4575.24
212.51	4223.04
217.407	3918.88
222.301	3216.68
227.192	2796.6
232.08	2103.77
236.965	1981.23
241.848	2196.55
246.728	2160.87
251.604	1670.88
256.479	1239.2
261.35	793.961
266.218	416.711
271.084	48.1045
275.947	83.4863
280.807	259.528
285.664	598.81
290.518	380.91
295.37	120.831
300.219	504.729
305.065	638.658
309.908	1147.95
314.749	1471.75
319.586	1378.66
324.421	852.24
329.253	884.821
334.083	794.777
338.909	884.076
343.733	1389.83
348.554	2220.09
353.372	3773.14
358.187	4401.57
363	4565.57
367.81	4499.09
372.617	3585.67
377.421	3259.05
382.223	3144.86
387.022	2820.84
391.818	2233.95
396.611	1851.34
401.401	1471.06
406.189	1468.03
410.974	2169.15
415.756	2969.69
420.536	3836.03
425.312	2848.81
430.086	2068.81
434.858	1162.51
439.626	611.61
444.392	665.295
449.155	106.953
453.915	127.238
458.672	143.752
463.427	305.223
468.179	269.842
472.928	443.044
477.675	294.455
482.419	210.724
487.16	544.361
491.898	752.611
496.634	1195.94
501.367	1750.36
506.097	2309.24
510.825	2392.88
515.549	2746.86
520.271	3355.15
524.991	4400.87
529.707	6059.67
534.421	7573.57
539.132	8297.89
543.841	7583.2
548.547	6919.77
553.25	5532.72
557.95	5007.16
562.648	4711.65
567.343	4553.86
572.035	4512.3
576.724	3842.73
581.411	2625.4
586.095	1259.58
590.777	441.897
595.456	159.859
600.132	13.9844
604.805	0.185547
609.476	31.8779
614.144	17.8184
618.809	144.814
623.472	3.33398
628.132	1.36523
632.789	229.044
637.444	389.533
642.096	588.577
646.745	694.395
651.392	1094.49
656.036	1331.47
660.677	2186.3
665.316	3814.87
669.952	6680.27
674.585	12334.2
679.216	10441.7
683.844	5761.06
688.469	3178.83
693.092	2236.05
697.712	2030.15
702.329	1868.1
706.944	1918.89
711.556	1672.4
716.166	1704.57
720.773	1728.92
725.377	1509.91
729.978	1441.53
734.577	1424.35
739.173	1455.83
743.767	1367.82
748.358	898.806
752.946	834.884
757.532	600.351
762.115	547.083
766.695	443.459
771.273	489.462
775.848	312.911
780.421	317.628
784.991	264.22
789.558	347.698
794.123	220.77
798.685	175.539
803.245	135.116
807.802	56.8242
812.356	66.9297
816.907	213.151
821.456	228.816
826.003	274.787
830.547	198.71
835.088	82.4463
839.627	118.95
844.163	72.9189
848.696	205.709
853.227	280.718
857.755	348.235
862.281	662.471
866.804	967.73
871.324	1335.08
875.842	2144.61
880.357	2403.47
884.87	2795.71
889.38	3047.71
893.888	3241.38
898.393	3044.27
902.895	3366.78
907.395	3201.12
911.892	3270.93
916.387	3204.92
920.879	3023.88
925.368	3100.44
929.855	2830.26
934.339	2691.23
938.821	2896.73
943.301	3112.33
947.777	3737.91
952.251	4091.89
956.723	4612.48
961.192	5061.85
965.658	6181.6
970.122	7626.96
974.583	9073.91
979.042	9963.58
983.498	9547.97
987.952	7799.68
992.403	6454.13
996.852	5145.02
1001.3	4261.53
1005.74	4140.22
1010.18	3817.09
1014.62	4014.19
1019.06	3472.48
1023.49	3170.95
1027.92	2906.61
1032.35	2700.41
1036.78	2680.4
1041.2	3157.24
1045.62	3032.69
1050.04	3109.4
1054.45	3350.53
1058.87	3517.16
1063.28	3938.58
1067.68	4074.65
1072.09	4338.49
1076.49	3911.58
1080.89	3697.74
1085.29	3573.07
1089.69	3613.61
1094.08	4128.86
1098.47	4297.98
1102.86	4356.94
1107.24	4663.19
1111.63	4521.02
1116.01	4443.83
1120.38	4586.33
1124.76	4481.91
1129.13	4101.81
1133.5	3675.57
1137.87	3241.99
1142.24	3058.77
1146.6	2727.41
1150.96	2222.43
1155.32	1674.3
1159.67	1059.19
1164.03	416.658
1168.38	222.305
1172.72	92.1397
1177.07	34.0908
1181.41	1.00195
1185.75	12.1074
1190.09	123.742
1194.43	38.4033
1198.76	146.21
1203.09	52.2842
1207.42	34.1455
1211.75	118.456
1216.07	128.963
1220.39	5.2168
1224.71	17.6787
1229.02	2.86621
1233.34	99.4482
1237.65	42.1543
1241.96	74.0371
1246.26	157.096
1250.57	42.7471
1254.87	106.534
1259.17	111.797
1263.46	253.887
1267.76	185.452
1272.05	257.897
1276.34	152.571
1280.62	269.944
1284.91	94.1201
1289.19	312.685
1293.47	147.108
1297.74	156.097
1302.02	386.325
1306.29	263.44
1310.56	319.442
1314.83	318.134
1319.09	436.606
1323.35	351.852
1327.61	395.778
1331.87	270.383
1336.12	377.982
1340.38	190.223
1344.63	388.783
1348.87	204.124
1353.12	200.002
1357.36	237.69
1361.6	405.696
1365.84	218.094
1370.08	169.14
1374.31	241.173
1378.54	127.894
1382.77	148.73
1386.99	344.668
1391.22	271.826
1395.44	274.231
1399.66	263.944
1403.87	149.202
1408.09	173.166
1412.3	148.525
1416.51	283.654
1420.71	328.839
1424.92	158.632
1429.12	278.516
1433.32	123.728
1437.51	247.606
1441.71	382.082
1445.9	245.595
1450.09	132.188
1454.28	163.7
1458.46	145.464
1462.65	100.559
1466.83	250.556
1471	144.292
1475.18	178.668
1479.35	280.172
1483.52	254.651
1487.69	58.2022
1491.86	217.815
1496.02	80.3848
1500.18	122.312
1504.34	106.815
1508.5	229.31
1512.65	142.601
1516.8	198.112
1520.95	77.1445
1525.1	180.169
1529.24	9.13184
1533.39	197.385
1537.53	22.1602
1541.66	23.2334
1545.8	65.1562
1549.93	255.874
1554.06	77.3652
1558.19	39.9131
1562.32	11.1865
