Measurement: Raman, 514 nm, ccw, Raman Data Processed
Mineral: Arsenopyrite
Rruff sample: R050071
Ideal chemistry: FeAsS
Locality: Yaogangxian mine, Yizhang County, Hunan Province, China
Source: Rock Currier
Description: Steel-gray tabular
Measured chemistry: FeAsS
Pin_id: L00167
Orientation: Laser parallel to (1 0 1). Fiducial mark perpendicular to laser is parallel to b [0 1 0]
Raman shift (cm-1)	intensity
72.477	0
77.423	12856.6
82.367	1402.36
87.308	153.275
92.246	1235.8
97.182	774.734
102.116	302.144
107.047	7259.19
111.976	10001.7
116.903	21537
121.827	6329.22
126.749	352.398
131.668	205.219
136.585	79.5508
141.5	22.4004
146.412	185.557
151.321	736.586
156.229	568.822
161.134	1289.05
166.036	776.922
170.936	731.207
175.834	703.797
180.729	110.232
185.622	310.904
190.512	1049.06
195.4	1433.85
200.286	1373.22
205.169	729.99
210.049	277.453
214.928	135.32
219.803	54.6406
224.677	19.3652
229.548	10.0312
234.416	52.4355
239.282	36.0918
244.146	18.3047
249.007	141.322
253.866	184.123
258.722	1648.75
263.576	1077.76
268.427	862.662
273.276	462.732
278.123	663.721
282.967	558.418
287.809	538.121
292.648	757.207
297.485	609.576
302.319	680.973
307.151	660.723
311.98	722.928
316.807	707.82
321.631	742.193
326.454	892.213
331.273	1105.24
336.09	768.152
340.905	1048.68
345.717	855.846
350.527	675.709
355.334	1018.11
360.139	636.297
364.941	942.771
369.741	613.057
374.538	653.754
379.333	654.727
384.126	451.19
388.916	397.902
393.703	470.703
398.488	665.285
403.271	659.252
408.051	454.065
412.828	559.775
417.603	514.098
422.376	416.414
427.146	420.076
431.914	668.266
436.679	691.043
441.442	795.141
446.202	559.531
450.96	703.289
455.715	494.51
460.467	566.281
465.218	758.533
469.965	849.379
474.711	652.021
479.454	816.262
484.194	1027.1
488.932	836.508
493.667	890.516
498.4	895.535
503.13	1054.75
507.858	1007.78
512.583	1089.5
517.306	1115.14
522.026	1147.71
526.744	1102.11
531.459	899.371
536.172	1301.08
540.882	1195.02
545.59	1196.33
550.295	1331.61
554.998	1438.34
559.698	1452.57
564.396	1366.77
569.091	1523.45
573.784	1301.97
578.474	1105.67
583.162	684.894
587.847	502.164
592.529	236.418
597.209	449.18
601.887	344.648
606.562	402.852
611.235	184.219
615.905	284.121
620.572	334.082
625.237	361.047
629.9	293.648
634.56	225.875
639.217	335.707
643.872	321.738
648.524	82.7305
653.174	232.402
657.821	188.508
662.466	313.781
667.108	200.699
671.748	111.723
676.385	203.051
681.02	67.2031
685.652	73.0938
690.281	115.559
694.908	21.707
699.533	157.762
704.155	141.82
708.774	9.93359
713.391	121.848
718.005	54.9336
722.617	43.8672
727.226	119.496
731.833	180.606
736.437	366.641
741.039	44.5781
745.638	217.277
750.234	86.0859
754.828	167.633
759.419	164.062
764.008	404.441
768.595	147.777
773.178	281.078
777.759	47.332
782.338	156.441
786.914	119.504
791.488	416.34
796.059	141.816
800.627	183.164
805.193	275.285
809.756	331.231
814.317	18.1602
818.875	219.981
823.431	188.465
827.984	14.2148
832.534	106.68
837.082	47.1836
841.627	148.254
846.17	149.008
850.71	12.0039
855.248	279.668
859.783	95.1328
864.316	15.3359
868.846	175.328
873.373	18.5977
877.898	27.9531
882.42	147.273
886.94	49.1953
891.457	83.3633
895.971	330.16
900.483	272.961
904.993	62.8164
909.5	261.836
914.004	115.391
918.505	459.801
923.004	219.32
927.501	326.887
931.995	437.727
936.486	355.07
940.975	334.426
945.461	266.379
949.945	497.684
954.426	421.871
958.904	463.004
963.38	539.789
967.853	523.641
972.324	612.766
976.792	760.867
981.258	684.25
985.72	607.672
990.181	837.785
994.639	647.426
999.094	695.066
1003.55	939.891
1008	720.328
1012.44	784.297
1016.89	753.223
1021.33	636.68
1025.77	757.879
1030.21	624.637
1034.64	908.121
1039.07	901.125
1043.5	1122.64
1047.93	1101.68
1052.35	1110.25
1056.78	984.375
1061.19	1299.14
1065.61	1046.51
1070.02	772.449
1074.43	1188.99
1078.84	1314.76
1083.25	734.41
1087.65	873.621
1092.05	958.129
1096.45	983.391
1100.85	927.207
1105.24	1008.58
1109.63	888.449
1114.02	910.621
1118.4	976.664
1122.78	1099.53
1127.16	959.59
1131.54	612.484
1135.92	377.383
1140.29	511.082
1144.66	517.457
1149.02	519.723
1153.39	197.656
1157.75	216.793
1162.11	313.188
1166.46	192.125
1170.82	405.906
1175.17	353.293
1179.52	444.055
1183.86	367.828
1188.21	77.8008
1192.55	105.965
1196.89	266.293
1201.22	143.797
1205.55	77.4883
1209.88	101.008
1214.21	86.0352
1218.54	42.3398
1222.86	139.297
1227.18	94.0273
1231.5	260.551
1235.81	94.7383
1240.12	196.277
1244.43	144.102
1248.74	268.231
1253.04	98.5625
1257.34	101.07
1261.64	85.9062
1265.94	178.789
1270.23	44.3945
1274.52	159.141
1278.81	264.078
1283.1	237.609
1287.38	145.812
1291.66	243.769
1295.94	199.547
1300.21	298.949
1304.48	242.219
1308.75	378.418
1313.02	225.504
1317.29	308.469
1321.55	335.231
1325.81	290.219
1330.06	213.731
1334.32	528.941
1338.57	23.4688
1342.82	443.723
1347.06	279.953
1351.31	381.781
1355.55	260.031
1359.79	58.6758
1364.02	307
1368.26	196.41
1372.49	388.746
1376.71	178.199
1380.94	250.062
1385.16	277.898
1389.38	248.574
1393.6	208.008
1397.81	418.133
1402.02	154.797
1406.23	340.379
1410.44	173.555
1414.64	20.3281
1418.85	23.5195
1423.04	299.641
1427.24	48.2852
1431.43	301.25
1435.62	232.676
1439.81	196.102
1444	255.047
1448.18	83.8164
1452.36	109.113
1456.54	352.254
1460.71	435.797
1464.89	115.199
1469.06	304.285
1473.22	313.867
1477.39	225.481
1481.55	26.3008
1485.71	262.844
1489.86	166.285
1494.02	112.629
1498.17	3.53906
1502.32	349.203
1506.46	75.8516
1510.61	146.453
1514.75	140.738
1518.88	242.266
1523.02	265.106
1527.15	80.5469
1531.28	129.504
1535.41	272.488
1539.53	204.316
1543.66	189.359
