Measurement: Raman, 514 nm, ccw, Raman Data Processed
Mineral: Arsenopyrite
Rruff sample: R050071
Ideal chemistry: FeAsS
Locality: Yaogangxian mine, Yizhang County, Hunan Province, China
Source: Rock Currier
Description: Steel-gray tabular
Measured chemistry: FeAsS
Pin_id: L00162
Orientation: Laser parallel to -c* (0 0 -1). Fiducial mark perpendicular to laser is parallel to -a [-1 0 0]
Raman shift (cm-1)	intensity
70.004	0
74.951	19055.7
79.895	6568.61
84.837	702.029
89.777	37.1562
94.714	455.594
99.649	209.918
104.582	4792.57
109.512	24252.1
114.44	23230.6
119.365	13195.1
124.288	1348.75
129.209	428.576
134.127	467.42
139.043	275.969
143.956	410.959
148.867	202.853
153.775	655.807
158.681	1173.52
163.585	674.91
168.486	931.031
173.385	985.969
178.282	673.713
183.176	479.359
188.067	959.299
192.956	1509.13
197.843	1710.68
202.727	1069.56
207.609	5.78125
212.489	19.373
217.366	50.2676
222.24	15.4258
227.112	222.113
231.982	27.957
236.849	168.625
241.714	58.5059
246.577	121.824
251.437	169.631
256.294	760.203
261.149	2938.6
266.002	1170.43
270.852	649.037
275.7	795.686
280.545	635.719
285.388	784.959
290.229	735.67
295.067	673.434
299.902	763.629
304.735	690.133
309.566	1008.69
314.394	844.088
319.22	910.611
324.043	981.035
328.864	1014.13
333.682	1046.82
338.498	889.904
343.311	996.336
348.122	1190.15
352.931	975.361
357.737	934.303
362.54	854.643
367.341	719.623
372.14	650.027
376.936	599.555
381.73	442.953
386.521	392.861
391.31	605.699
396.096	307.053
400.88	668.525
405.661	474.522
410.44	220.125
415.216	692.887
419.99	595.508
424.761	458.094
429.53	565.422
434.297	586.025
439.061	433.924
443.822	609.391
448.581	564.4
453.337	716.236
458.091	351.717
462.843	674.35
467.592	694.197
472.338	587.26
477.082	682.644
481.824	656.998
486.563	919.303
491.3	930.559
496.034	875.406
500.765	763.801
505.494	1141.53
510.221	853.359
514.945	1145.79
519.666	1072.06
524.385	1178.16
529.102	1123.79
533.816	1186.17
538.527	1107.25
543.236	1121.46
547.943	1113.8
552.647	1326.96
557.348	1304.62
562.047	1513.48
566.744	1403.66
571.438	1568.64
576.129	880.947
580.818	878.365
585.504	389.963
590.188	255.283
594.87	464.322
599.549	454.164
604.225	213.904
608.899	86.4609
613.57	228.496
618.239	365.74
622.905	372.764
627.569	260.545
632.23	294.402
636.889	188.662
641.545	152.299
646.198	102.752
650.849	146.031
655.498	58.4297
660.144	29.2676
664.787	33.6387
669.428	121.744
674.067	286.578
678.703	129.807
683.336	33.168
687.967	64.0801
692.595	171.221
697.221	0.035156
701.844	78.6914
706.465	140.656
711.083	56.5059
715.698	1.67578
720.311	86.5215
724.922	173.277
729.53	184.65
734.135	310.906
738.738	263.627
743.338	164.662
747.936	143.535
752.531	389.416
757.124	407.123
761.714	398.375
766.302	344.463
770.887	157.398
775.469	309.377
780.049	234.801
784.626	160.219
789.201	103.949
793.773	282.398
798.343	344.092
802.91	234.793
807.475	220.193
812.037	333.06
816.596	118.01
821.153	96.8574
825.707	250.416
830.259	38.4922
834.808	128.531
839.355	12.0352
843.899	67.5469
848.441	193.342
852.98	305.449
857.516	105.076
862.05	315.807
866.581	52.0898
871.11	23.1484
875.636	150.352
880.159	158.918
884.68	48.8145
889.199	224.449
893.714	7.99219
898.228	455.225
902.738	269.242
907.246	170.721
911.752	496.373
916.255	446.219
920.755	265.766
925.253	455.969
929.748	375.383
934.241	216.094
938.731	548.316
943.218	307.883
947.703	603.027
952.186	541.195
956.665	349.988
961.142	483.644
965.617	374.152
970.089	905.406
974.558	607.094
979.025	714.152
983.489	730.043
987.951	780.484
992.41	765.586
996.866	804.981
1001.32	776.809
1005.77	851.16
1010.22	697.535
1014.67	984.941
1019.11	860.711
1023.55	1016.07
1027.99	853.746
1032.42	1115.15
1036.86	839.043
1041.29	1088.42
1045.72	1016.43
1050.14	948.762
1054.56	1158.6
1058.98	1137.92
1063.4	1154.5
1067.82	1245.79
1072.23	1012.97
1076.64	1244.17
1081.05	1106.12
1085.45	1304.85
1089.85	1336.72
1094.25	751.051
1098.65	1037.87
1103.04	1133.52
1107.43	856.75
1111.82	810.59
1116.21	1270.7
1120.59	1486.91
1124.97	1480.36
1129.35	895.789
1133.73	621.578
1138.1	588.359
1142.47	571.512
1146.84	524.266
1151.21	508.922
1155.57	420.898
1159.93	486.223
1164.29	316.867
1168.64	437.949
1172.99	77.8555
1177.34	133.512
1181.69	198.074
1186.04	6.84375
1190.38	120.824
1194.72	117.977
1199.05	41.2148
1203.39	144.906
1207.72	85.9023
1212.05	50.1953
1216.37	94.6797
1220.7	31.5703
1225.02	410.57
1229.34	52.3203
1233.65	5.53516
1237.97	29.6406
1242.28	152.82
1246.59	44.7969
1250.89	397.793
1255.19	172.906
1259.49	375.922
1263.79	74.9883
1268.09	5.31641
1272.38	317.781
1276.67	60.6562
1280.95	131.894
1285.24	287.004
1289.52	144.984
1293.8	224.863
1298.08	324.742
1302.35	481.129
1306.62	297.051
1310.89	285.617
1315.15	204.078
1319.42	465.461
1323.68	334.981
1327.94	391.184
1332.19	139.773
1336.44	289.332
1340.69	87.2383
1344.94	243.324
1349.19	298.316
1353.43	91.4336
1357.67	240.016
1361.9	331.16
1366.14	305.078
1370.37	200.738
1374.6	456.523
1378.83	294.574
1383.05	21.1016
1387.27	217
1391.49	221.836
1395.7	260.637
1399.92	140.812
1404.13	143.418
1408.34	249.559
1412.54	32.0703
1416.74	192.43
1420.94	206.812
1425.14	44.8125
1429.34	524.723
1433.53	230.359
1437.72	362.203
1441.9	422.043
1446.09	152.519
1450.27	274.324
1454.45	439.141
1458.63	1.67969
1462.8	62.4023
1466.97	220.258
1471.14	293.242
1475.31	365.184
1479.47	56.5938
1483.63	303.836
1487.79	59.6523
1491.94	343.953
1496.09	121.754
1500.24	266.508
1504.39	340.781
1508.54	100.816
1512.68	26.3086
1516.82	70.957
1520.95	77.0586
1525.09	181.957
1529.22	57.707
1533.35	118.793
1537.47	181.09
1541.6	258.637
