Measurement: Raman, 514 nm, ccw, Raman Data Processed
Mineral: Arsenopyrite
Rruff sample: R050071
Ideal chemistry: FeAsS
Locality: Yaogangxian mine, Yizhang County, Hunan Province, China
Source: Rock Currier
Description: Steel-gray tabular
Measured chemistry: FeAsS
Pin_id: L00167
Orientation: Laser parallel to (1 0 1). Fiducial mark perpendicular to laser is parallel to b [0 1 0]
Raman shift (cm-1)	intensity
73.714	0
78.659	10197
83.602	1177.94
88.542	48.1895
93.48	1401.64
98.416	272.492
103.349	761.174
108.28	8993.31
113.208	9993.1
118.134	27194.2
123.058	6044.05
127.979	205.434
132.898	22.3691
137.814	723.404
142.728	49.375
147.639	222.69
152.549	1038.5
157.455	283.709
162.359	1272.25
167.261	630.08
172.161	645.641
177.058	747.098
181.952	483.502
186.845	582.144
191.734	1261.48
196.622	1384.35
201.507	1444.46
206.389	262.459
211.269	33.7363
216.147	106.154
221.022	160.389
225.895	138.488
230.765	146.961
235.633	28.248
240.498	38.541
245.361	9.79492
250.222	11.5527
255.08	300.568
259.936	2401.39
264.789	799.668
269.64	1071.62
274.488	458.635
279.334	556.961
284.178	421.94
289.019	523.697
293.857	597.072
298.693	532.756
303.527	481.734
308.358	613.652
313.187	810.613
318.013	759.307
322.837	817.371
327.659	812.227
332.478	717.873
337.294	557.344
342.108	783.701
346.92	1058.97
351.729	940.172
356.535	963.111
361.34	814.527
366.141	760.344
370.94	454.438
375.737	658.047
380.531	519.512
385.323	526.746
390.113	441.676
394.9	388.738
399.684	234.734
404.466	246.938
409.245	555.203
414.022	507.398
418.797	400.254
423.569	575.492
428.338	513.496
433.105	467.887
437.87	595.512
442.632	624.574
447.391	736.125
452.149	521.672
456.903	471.754
461.655	656.394
466.405	663.773
471.152	727.875
475.897	674.586
480.639	715.926
485.378	1010.93
490.116	986.633
494.85	793.012
499.582	839.742
504.312	1009.75
509.039	950.484
513.764	1190.98
518.486	1266.48
523.206	1107.02
527.923	963.359
532.638	1056.44
537.35	1023.93
542.059	1084.73
546.766	1243.08
551.471	1099.93
556.173	1412.59
560.873	1279.84
565.57	1205.91
570.264	1295.02
574.957	1049.73
579.646	1096.29
584.333	641.598
589.018	418.832
593.7	499.055
598.379	307.137
603.056	164.887
607.73	295.988
612.402	402.211
617.072	486.269
621.739	443.148
626.403	660.887
631.065	427.055
635.724	373.863
640.381	369.305
645.035	496.332
649.687	174.91
654.336	195.777
658.983	147.371
663.627	194.414
668.268	313.781
672.907	47.3789
677.544	25.0781
682.178	169.441
686.809	20.1445
691.438	187.742
696.065	185.324
700.688	94.2539
705.31	97.2617
709.929	2.36328
714.545	246.434
719.158	48.8359
723.77	163.102
728.378	155.273
732.984	194.465
737.588	22.1758
742.189	31.0547
746.787	12.3555
751.383	43.0508
755.976	422.246
760.567	237.461
765.155	233.644
769.741	210.801
774.324	248.906
778.904	165.113
783.482	171.336
788.058	246.566
792.631	386.719
797.201	187.148
801.769	57.2188
806.334	315.219
810.897	178.078
815.457	123.852
820.014	188.871
824.569	133.789
829.122	392.144
833.671	7.44141
838.219	130.926
842.763	121.035
847.306	256.438
851.845	283.406
856.382	88.6641
860.917	56.2422
865.448	36.5195
869.978	160.566
874.505	250.367
879.029	83.5469
883.55	70.6484
888.069	395.445
892.586	223.676
897.1	64.7539
901.611	298.816
906.12	83.293
910.626	282.945
915.129	69.7891
919.63	197.863
924.129	247.18
928.625	182.039
933.118	265.926
937.609	347.445
942.097	520.613
946.582	433.356
951.065	577.129
955.546	353.672
960.023	371.625
964.499	397.168
968.971	564.574
973.441	454.18
977.909	472.164
982.374	748.566
986.836	671.934
991.295	732.215
995.753	594.07
1000.21	608.606
1004.66	630.801
1009.11	752.051
1013.55	665.816
1018	800.731
1022.44	631.012
1026.88	770.727
1031.32	820.996
1035.75	864.848
1040.18	823.191
1044.61	1145.12
1049.04	893.469
1053.46	1213.51
1057.88	886.785
1062.3	948.715
1066.71	1058.8
1071.13	1331.76
1075.54	830.281
1079.94	1282.03
1084.35	1003.48
1088.75	993.859
1093.15	1024.48
1097.55	802.59
1101.94	1170.3
1106.34	995.684
1110.73	985.922
1115.11	1002.96
1119.5	895.551
1123.88	813.539
1128.26	524.269
1132.63	542.375
1137.01	564.832
1141.38	382.711
1145.75	501.539
1150.12	358.152
1154.48	393.609
1158.84	412.043
1163.2	288.719
1167.55	529.019
1171.91	466.668
1176.26	419.715
1180.61	366.019
1184.95	248.644
1189.29	353.539
1193.63	204.547
1197.97	64.7695
1202.31	163.988
1206.64	229.613
1210.97	94.5078
1215.29	127.637
1219.62	47.0273
1223.94	173.379
1228.26	31.2734
1232.57	83.457
1236.89	35.9336
1241.2	155.449
1245.51	89.1875
1249.81	257.473
1254.12	82.1992
1258.42	23
1262.72	163.82
1267.01	302.688
1271.3	161.969
1275.59	294.793
1279.88	142.57
1284.17	41.3086
1288.45	163.402
1292.73	313.258
1297.01	133.59
1301.28	349.676
1305.55	236.262
1309.82	226.469
1314.09	135.606
1318.35	269.469
1322.61	136.414
1326.87	37.293
1331.13	96.0703
1335.38	434.664
1339.63	286.648
1343.88	399.598
1348.12	256.359
1352.37	384.176
1356.61	120.094
1360.85	154.801
1365.08	137.969
1369.31	84.2695
1373.54	333.461
1377.77	227.117
1381.99	112.231
1386.22	118.738
1390.43	269.586
1394.65	335.832
1398.87	118.418
1403.08	482.223
1407.29	185.93
1411.49	301.227
1415.69	244.637
1419.89	190.047
1424.09	229.348
1428.29	96.6406
1432.48	244.481
1436.67	55.8828
1440.86	19.1641
1445.04	534.977
1449.23	289.117
1453.4	364.035
1457.58	68.3203
1461.76	400.016
1465.93	274.809
1470.1	382.156
1474.26	421.734
1478.43	171.195
1482.59	487.211
1486.75	132.719
1490.9	287.223
1495.06	225.019
1499.21	212.102
1503.35	343.769
1507.5	198.371
1511.64	231.133
1515.78	262.828
1519.92	375.379
1524.05	360.316
1528.18	292.566
1532.31	425.008
1536.44	439.656
1540.56	24.0859
1544.69	31.4922
