Measurement: Raman, 514 nm, ccw, Raman Data Processed
Mineral: Arsenopyrite
Rruff sample: R050071
Ideal chemistry: FeAsS
Locality: Yaogangxian mine, Yizhang County, Hunan Province, China
Source: Rock Currier
Description: Steel-gray tabular
Measured chemistry: FeAsS
Pin_id: L00162
Orientation: Laser parallel to -c* (0 0 -1). Fiducial mark perpendicular to laser is parallel to -a [-1 0 0]
Raman shift (cm-1)	intensity
71.241	0
76.187	12799.8
81.131	747.148
86.072	397.469
91.012	1035.14
95.948	858.227
100.883	249.894
105.815	7159.83
110.744	13714.5
115.671	17410.2
120.596	5203.38
125.519	396.266
130.439	318.578
135.356	693.769
140.271	276.91
145.184	275.801
150.094	195.742
155.002	288.797
159.908	981.539
164.811	963.207
169.711	918.492
174.61	119.676
179.505	479.203
184.399	700.129
189.29	790.555
194.178	1869.44
199.064	2042.3
203.948	1564.35
208.829	359.606
213.708	92.0742
218.585	147.242
223.459	289.621
228.33	310.816
233.199	16.334
238.066	29.1016
242.93	84.8652
247.792	145.209
252.651	529.852
257.508	915.481
262.363	1148.62
267.215	1144.29
272.064	520.578
276.912	1143.87
281.756	868.541
286.598	918.047
291.438	632.514
296.276	636.379
301.111	740.629
305.943	801.805
310.773	866.533
315.601	1000.82
320.426	535.945
325.248	854.644
330.068	650.24
334.886	843.812
339.701	861.5
344.514	649.106
349.324	637.746
354.132	870.481
358.938	549.766
363.741	350.547
368.541	477.602
373.339	275.391
378.135	302.894
382.928	167.559
387.718	373.047
392.506	236.426
397.292	60.9414
402.075	469.82
406.856	108.113
411.634	441.969
416.41	370.453
421.183	538.613
425.954	545.773
430.722	763.75
435.488	838.777
440.251	966.215
445.012	967.445
449.77	843.996
454.526	778.844
459.28	795.5
464.03	899.684
468.779	1004.62
473.525	1125.29
478.268	975.34
483.009	1435.42
487.747	1486.36
492.483	1564.42
497.217	1921.82
501.948	1509.59
506.676	1790.61
511.402	1919.65
516.125	2219.97
520.846	2680.46
525.565	2395.56
530.281	2244.15
534.994	2345.96
539.705	2473.8
544.413	2510.37
549.119	2793.19
553.822	3143.18
558.523	3097.56
563.222	3179.98
567.917	3368.69
572.611	3276.72
577.302	2047.77
581.99	1461.79
586.676	702.664
591.359	188.406
596.04	392.324
600.718	243.578
605.394	360.844
610.067	327.391
614.737	120.555
619.406	149.902
624.071	273.633
628.734	224.809
633.395	373.004
638.053	259.207
642.708	174.164
647.361	130.547
652.012	155.93
656.66	133.219
661.305	86.2344
665.948	28.1055
670.588	184.375
675.226	175.731
679.861	7.26953
684.494	121.082
689.124	156.305
693.752	167.852
698.377	4.68359
702.999	205.383
707.619	111.477
712.237	116.434
716.852	71.5859
721.464	144.25
726.074	76.5977
730.681	126.477
735.286	3.26953
739.888	266.75
744.488	392.41
749.085	216.883
753.68	258.156
758.272	162.234
762.861	305.129
767.448	124.481
772.033	276.062
776.614	21.1367
781.194	222.004
785.77	130.488
790.345	271.754
794.916	284.711
799.485	340.984
804.052	177.379
808.616	258.539
813.177	82.4844
817.736	465.535
822.292	272.043
826.846	173.207
831.397	184.82
835.945	72.6602
840.491	80.8438
845.035	140.578
849.576	74.418
854.114	95.4336
858.65	12.3945
863.183	25.3359
867.713	134.422
872.241	102.656
876.767	121.258
881.29	194
885.81	233.012
890.328	126.738
894.843	143.805
899.356	313.953
903.866	161.148
908.373	337.773
912.878	253.023
917.38	269.664
921.88	283.461
926.377	172.445
930.872	333.434
935.364	406.863
939.853	487.836
944.34	566.809
948.824	533.633
953.306	457.996
957.785	307.008
962.261	360.461
966.735	707.848
971.207	889.172
975.675	496.098
980.141	658.957
984.605	795.394
989.066	916.606
993.524	758.281
997.98	711.621
1002.43	918.867
1006.88	906.82
1011.33	998.676
1015.78	452.621
1020.22	753.043
1024.66	779.945
1029.1	831.344
1033.53	882.199
1037.97	968.633
1042.4	1266.32
1046.82	1293.92
1051.25	1210.07
1055.67	1078.73
1060.09	808.906
1064.51	1254.66
1068.92	1128.07
1073.33	756.773
1077.74	1137.11
1082.15	1189.96
1086.55	1028.4
1090.95	864.195
1095.35	1044.66
1099.75	1219.03
1104.14	757.758
1108.53	856.973
1112.92	848.793
1117.31	1099.71
1121.69	1763.04
1126.07	1472.22
1130.45	853.816
1134.82	589.086
1139.19	304.644
1143.57	655.809
1147.93	319.328
1152.3	396.184
1156.66	427.453
1161.02	264.07
1165.38	194.984
1169.73	157.191
1174.08	413.023
1178.43	322.91
1182.78	482.051
1187.12	7.52734
1191.46	10.4531
1195.8	202.703
1200.14	189.793
1204.47	12.4727
1208.8	338.856
1213.13	239.422
1217.46	260.957
1221.78	37.1719
1226.1	170.066
1230.42	147.711
1234.73	61.8125
1239.04	168.785
1243.35	81.8594
1247.66	43.3828
1251.97	216.106
1256.27	191.383
1260.57	224.777
1264.86	31.3047
1269.16	215.621
1273.45	360.531
1277.74	194.984
1282.03	257.106
1286.31	220.055
1290.59	173.449
1294.87	259.816
1299.14	83.1211
1303.42	297.883
1307.69	273.547
1311.95	111.637
1316.22	113.469
1320.48	212.527
1324.74	434.422
1329	294.156
1333.26	130.055
1337.51	243.641
1341.76	195.383
1346	528.023
1350.25	84.7539
1354.49	188.297
1358.73	371.016
1362.96	359.883
1367.2	178.246
1371.43	296.769
1375.66	58.0352
1379.88	165.957
1384.11	365.602
1388.33	185.91
1392.54	334.953
1396.76	27.1211
1400.97	305.016
1405.18	251
1409.39	93.1992
1413.59	441.484
1417.8	310.519
1421.99	146.969
1426.19	149.262
1430.38	474.731
1434.58	121.918
1438.77	62.9844
1442.95	203.898
1447.13	374.379
1451.32	224.344
1455.49	417.684
1459.67	1.30859
1463.84	559.941
1468.01	394.797
1472.18	307.484
1476.35	251.508
1480.51	160.496
1484.67	129.324
1488.83	112.453
1492.98	352.75
1497.13	104.977
1501.28	210.336
1505.43	231.981
1509.57	230.367
1513.71	302.359
1517.85	178.074
1521.99	602.383
1526.12	18.7422
1530.25	475.344
1534.38	5.09375
1538.5	26.9414
