Measurement: Raman, 514 nm, ccw, Raman Data Processed
Mineral: Arsenopyrite
Rruff sample: R050071
Ideal chemistry: FeAsS
Locality: Yaogangxian mine, Yizhang County, Hunan Province, China
Source: Rock Currier
Description: Steel-gray tabular
Measured chemistry: FeAsS
Pin_id: L00187
Orientation: Laser parallel to a* (1 0 0). Fiducial mark perpendicular to laser is parallel to b [0 1 0]
Raman shift (cm-1)	intensity
71.241	0
76.187	20512.9
81.131	4883.89
86.072	91.0586
91.012	937.203
95.948	397.582
100.883	73.8242
105.815	6239.8
110.744	12702.9
115.671	25278.1
120.596	16780.6
125.519	479.15
130.439	168.727
135.356	458.32
140.271	352.971
145.184	227.447
150.094	81.3106
155.002	731.004
159.908	899.699
164.811	925.676
169.711	860.688
174.61	921.436
179.505	745.307
184.399	343.967
189.29	991.023
194.178	1743.86
199.064	1831.42
203.948	1131.48
208.829	114.728
213.708	372.506
218.585	273.981
223.459	121.801
228.33	201.897
233.199	22.125
238.066	219.256
242.93	43.4883
247.792	96.6582
252.651	228.82
257.508	1633.5
262.363	2032.11
267.215	1777.47
272.064	510.961
276.912	661.936
281.756	631.113
286.598	594.801
291.438	606.506
296.276	620.066
301.111	653.269
305.943	826.545
310.773	932.045
315.601	923.793
320.426	898.604
325.248	1005.38
330.068	1068.76
334.886	1016.85
339.701	977.475
344.514	1111.66
349.324	1173.45
354.132	1126.63
358.938	1114.32
363.741	696.574
368.541	794.269
373.339	474.051
378.135	755.637
382.928	439.481
387.718	371.5
392.506	564.66
397.292	309.801
402.075	341.805
406.856	479.981
411.634	631.715
416.41	628.277
421.183	502.043
425.954	591.836
430.722	768.414
435.488	712.168
440.251	354.246
445.012	700.894
449.77	576.84
454.526	563.938
459.28	630.731
464.03	666.035
468.779	581.785
473.525	792.102
478.268	865.039
483.009	712.574
487.747	951.66
492.483	688.309
497.217	1119.95
501.948	1093.45
506.676	924.887
511.402	1143.93
516.125	1134.04
520.846	1315.77
525.565	1151.52
530.281	1127.69
534.994	996.516
539.705	934.746
544.413	1222.69
549.119	1128.01
553.822	1275.17
558.523	1054.19
563.222	1343.59
567.917	1429.64
572.611	1410.82
577.302	863.981
581.99	897.547
586.676	208.258
591.359	610.586
596.04	444.82
600.718	284.527
605.394	177.199
610.067	253.551
614.737	331.594
619.406	317.461
624.071	439.461
628.734	352.402
633.395	289.961
638.053	424.824
642.708	269.547
647.361	117.477
652.012	143.051
656.66	161.016
661.305	198.426
665.948	142.234
670.588	282.703
675.226	91.8672
679.861	109.004
684.494	189.102
689.124	47.0117
693.752	98.9805
698.377	57.9414
702.999	317.644
707.619	203.215
712.237	17.6797
716.852	19.8008
721.464	85.25
726.074	128.231
730.681	218.543
735.286	20.7266
739.888	30.7148
744.488	111.703
749.085	277.699
753.68	71.9023
758.272	0.316406
762.861	368.535
767.448	64.8477
772.033	126.367
776.614	331.734
781.194	36.0078
785.77	18.1875
790.345	299.242
794.916	13.7773
799.485	330.992
804.052	347.836
808.616	37.8164
813.177	355.441
817.736	216.273
822.292	327.777
826.846	162.555
831.397	190.129
835.945	204.703
840.491	310.066
845.035	142.383
849.576	44.9297
854.114	117.543
858.65	17.6719
863.183	0.945313
867.713	96.5703
872.241	66.8203
876.767	169.336
881.29	56.125
885.81	12.1289
890.328	43.7383
894.843	155.617
899.356	141.543
903.866	190.652
908.373	398.953
912.878	185.516
917.38	312.816
921.88	488.281
926.377	163.496
930.872	109.555
935.364	304.047
939.853	443.848
944.34	599.035
948.824	588.203
953.306	155.684
957.785	576.551
962.261	428.199
966.735	402.082
971.207	547.625
975.675	458.047
980.141	1237.14
984.605	654.594
989.066	607.621
993.524	757.094
997.98	718.32
1002.43	596.684
1006.88	766.633
1011.33	841.266
1015.78	686.211
1020.22	527.461
1024.66	536.43
1029.1	1026.03
1033.53	747.207
1037.97	962.906
1042.4	884.121
1046.82	1009.94
1051.25	1060.31
1055.67	1339.33
1060.09	1085.92
1064.51	1143.01
1068.92	1012.34
1073.33	1261.71
1077.74	1199.92
1082.15	1222.32
1086.55	1220.71
1090.95	1148.12
1095.35	1208.6
1099.75	1634.25
1104.14	1141.46
1108.53	1141.49
1112.92	927.812
1117.31	940.906
1121.69	985.512
1126.07	815.539
1130.45	789.129
1134.82	550.594
1139.19	601.941
1143.57	837.731
1147.93	490.457
1152.3	582.039
1156.66	274.805
1161.02	348.906
1165.38	456.371
1169.73	390.019
1174.08	393.164
1178.43	174.523
1182.78	249.859
1187.12	40.2852
1191.46	171.629
1195.8	257.109
1200.14	23.6172
1204.47	23.1641
1208.8	19.3164
1213.13	441.598
1217.46	5.68359
1221.78	86.5312
1226.1	146.981
1230.42	222.812
1234.73	109.379
1239.04	3.63281
1243.35	15.1211
1247.66	90.0859
1251.97	93.0469
1256.27	148.941
1260.57	1.15625
1264.86	238.922
1269.16	246.598
1273.45	19.8281
1277.74	35.6016
1282.03	361.961
1286.31	195.266
1290.59	340.633
1294.87	284.766
1299.14	307.789
1303.42	374.746
1307.69	356.516
1311.95	49.7031
1316.22	254.098
1320.48	104.418
1324.74	137
1329	351.293
1333.26	351.281
1337.51	183.805
1341.76	339.266
1346	170.457
1350.25	362.504
1354.49	131.949
1358.73	225.648
1362.96	157.836
1367.2	332.203
1371.43	213.231
1375.66	21.4609
1379.88	208.215
1384.11	273.629
1388.33	149.602
1392.54	135.137
1396.76	274.875
1400.97	269.914
1405.18	191.957
1409.39	87.9766
1413.59	18.8359
1417.8	195.062
1421.99	380.129
1426.19	290.875
1430.38	351.836
1434.58	205.406
1438.77	280.75
1442.95	84.8242
1447.13	239.336
1451.32	442.039
1455.49	182.047
1459.67	204.164
1463.84	351.41
1468.01	52.5781
1472.18	267.211
1476.35	2.49219
1480.51	137.789
1484.67	120.887
1488.83	29.7812
1492.98	264.469
1497.13	121.715
1501.28	23.2773
1505.43	155.356
1509.57	391.617
1513.71	139.644
1517.85	198.973
1521.99	276.426
1526.12	28.3906
1530.25	250.125
1534.38	4.72656
1538.5	162.258
1542.62	301.945
1546.74	0
