Measurement: Raman, 514 nm, ccw, Raman Data Processed
Mineral: Arsenopyrite
Rruff sample: R050071
Ideal chemistry: FeAsS
Locality: Yaogangxian mine, Yizhang County, Hunan Province, China
Source: Rock Currier
Description: Steel-gray tabular
Measured chemistry: FeAsS
Pin_id: L00167
Orientation: Laser parallel to (1 0 1). Fiducial mark perpendicular to laser is parallel to b [0 1 0]
Raman shift (cm-1)	intensity
73.714	0
78.659	11521.9
83.602	5373.43
88.542	219.75
93.48	1221.85
98.416	229.107
103.349	261.449
108.28	6868.66
113.208	8747.69
118.134	27603.9
123.058	31603.1
127.979	460.758
132.898	531.84
137.814	474.168
142.728	215.732
147.639	0.326172
152.549	381.246
157.455	574.809
162.359	1345.24
167.261	846.379
172.161	655.018
177.058	966.09
181.952	323.514
186.845	644.711
191.734	1195.54
196.622	1301.54
201.507	1467.7
206.389	232.074
211.269	133.289
216.147	3.01172
221.022	21.4023
225.895	136.076
230.765	284.215
235.633	263.377
240.498	143.797
245.361	8.22656
250.222	38.8984
255.08	294.231
259.936	2172.07
264.789	791.832
269.64	1072.45
274.488	515.152
279.334	374.203
284.178	415.801
289.019	422.287
293.857	401.734
298.693	436.518
303.527	528.484
308.358	597.898
313.187	569.646
318.013	749.166
322.837	684.455
327.659	745.455
332.478	720.201
337.294	809.711
342.108	654.004
346.92	722.102
351.729	664.902
356.535	550.207
361.34	666.959
366.141	376.973
370.94	507.623
375.737	396.353
380.531	302.088
385.323	393.584
390.113	163.162
394.9	307.643
399.684	385.432
404.466	462.59
409.245	383.533
414.022	263.309
418.797	195.988
423.569	200.584
428.338	261.322
433.105	250.293
437.87	300.182
442.632	453.711
447.391	464.672
452.149	337.068
456.903	311.853
461.655	501.08
466.405	428.785
471.152	610.955
475.897	486.627
480.639	440.728
485.378	873.268
490.116	348.264
494.85	615.75
499.582	656.361
504.312	545.07
509.039	654.773
513.764	775.598
518.486	805.236
523.206	930.828
527.923	690.856
532.638	661.158
537.35	553.617
542.059	829.668
546.766	635.398
551.471	944.271
556.173	852.539
560.873	746.76
565.57	977.523
570.264	865.959
574.957	768.045
579.646	423.225
584.333	459.019
589.018	255.869
593.7	633.301
598.379	199.875
603.056	130.666
607.73	279.027
612.402	157.428
617.072	315.644
621.739	357.322
626.403	473.438
631.065	103.236
635.724	286.635
640.381	265.004
645.035	256.75
649.687	119.852
654.336	370.115
658.983	234.85
663.627	63.2305
668.268	102.607
672.907	137.887
677.544	55.5352
682.178	17.4219
686.809	246.102
691.438	7.49805
696.065	20.5234
700.688	151.701
705.31	216.326
709.929	161.978
714.545	159.348
719.158	291.543
723.77	84.1172
728.378	154.223
732.984	268.17
737.588	88.9902
742.189	8.08008
746.787	163.357
751.383	72.2891
755.976	506.488
760.567	204.576
765.155	115.564
769.741	25.4297
774.324	255.199
778.904	175.887
783.482	246.488
788.058	159.996
792.631	207.316
797.201	91.0293
801.769	141.455
806.334	33.0586
810.897	245.935
815.457	207.281
820.014	385.869
824.569	306.844
829.122	101.953
833.671	40.4883
838.219	235.234
842.763	97.9258
847.306	158.512
851.845	190.889
856.382	104.367
860.917	146.309
865.448	201.385
869.978	129.422
874.505	56.123
879.029	38.4199
883.55	61.2324
888.069	216.205
892.586	323.84
897.1	172.566
901.611	32.5898
906.12	389.682
910.626	141.762
915.129	168.998
919.63	287.42
924.129	235.033
928.625	293.996
933.118	202.022
937.609	270.875
942.097	219.178
946.582	449.051
951.065	304.035
955.546	299.082
960.023	275.844
964.499	398.283
968.971	299.748
973.441	364.027
977.909	611.289
982.374	394.441
986.836	626.932
991.295	594.18
995.753	525.688
1000.21	669.994
1004.66	595.719
1009.11	600.822
1013.55	531.594
1018	742.949
1022.44	753.137
1026.88	640.334
1031.32	788.994
1035.75	861.152
1040.18	796.707
1044.61	936.856
1049.04	838.43
1053.46	843.723
1057.88	722.144
1062.3	1046.1
1066.71	1126.33
1071.13	1054.32
1075.54	1043.29
1079.94	965.068
1084.35	950.311
1088.75	742.328
1093.15	911.49
1097.55	872.057
1101.94	941.779
1106.34	874.342
1110.73	765.387
1115.11	848.82
1119.5	713.803
1123.88	795.102
1128.26	709.035
1132.63	400.24
1137.01	273.572
1141.38	321.356
1145.75	368.381
1150.12	302.93
1154.48	229.725
1158.84	209.842
1163.2	263.254
1167.55	373.834
1171.91	120.586
1176.26	242.619
1180.61	121.84
1184.95	470.182
1189.29	114.697
1193.63	166.379
1197.97	151.148
1202.31	246.397
1206.64	63.377
1210.97	218.914
1215.29	69.8926
1219.62	249.076
1223.94	55.2734
1228.26	75.4004
1232.57	76.8066
1236.89	112.252
1241.2	336.553
1245.51	51.2812
1249.81	29.9434
1254.12	188.445
1258.42	164.824
1262.72	258.147
1267.01	22.5762
1271.3	79.4238
1275.59	1.05273
1279.88	204.828
1284.17	239.383
1288.45	162.857
1292.73	158.258
1297.01	112.58
1301.28	212.111
1305.55	106.002
1309.82	318.352
1314.09	144.82
1318.35	363.381
1322.61	292.557
1326.87	43.7617
1331.13	275.463
1335.38	92.4277
1339.63	336.91
1343.88	238.906
1348.12	211.545
1352.37	136.66
1356.61	146.986
1360.85	339.023
1365.08	124.853
1369.31	170.467
1373.54	172.572
1377.77	226.469
1381.99	160.06
1386.22	277.797
1390.43	254.172
1394.65	86.2051
1398.87	33.7949
1403.08	211.607
1407.29	260.057
1411.49	193.435
1415.69	295.617
1419.89	318.875
1424.09	147.629
1428.29	287.037
1432.48	173.24
1436.67	161.75
1440.86	14.4727
1445.04	175.371
1449.23	135.19
1453.4	230.514
1457.58	210.935
1461.76	326.426
1465.93	127.066
1470.1	194.025
1474.26	174.188
1478.43	0.314453
1482.59	202.588
1486.75	222.01
1490.9	138.275
1495.06	164.621
1499.21	61.4902
1503.35	142.06
1507.5	109.898
1511.64	253.897
1515.78	400.727
1519.92	77.7793
1524.05	247.133
1528.18	131.006
1532.31	157.342
1536.44	297.82
1540.56	151.086
