Measurement: Raman, 514 nm, ccw, Raman Data Processed
Mineral: Arsenopyrite
Rruff sample: R050071
Ideal chemistry: FeAsS
Locality: Yaogangxian mine, Yizhang County, Hunan Province, China
Source: Rock Currier
Description: Steel-gray tabular
Measured chemistry: FeAsS
Pin_id: L00055
Orientation: Laser parallel to b* (0 1 0). Fiducial mark perpendicular to laser is parallel to c [0 0 1]
Raman shift (cm-1)	intensity
71.241	0
76.187	22409.8
81.131	7556.34
86.072	73.6543
91.012	225.432
95.948	486.955
100.883	56.0293
105.815	6153.56
110.744	13197.7
115.671	24942.1
120.596	14561.8
125.519	537.428
130.439	33.3574
135.356	98.6152
140.271	633.236
145.184	577.691
150.094	473.619
155.002	649.648
159.908	1061.22
164.811	785.658
169.711	940.281
174.61	435.42
179.505	426.758
184.399	629.074
189.29	957.594
194.178	1276.82
199.064	1403.9
203.948	1120.5
208.829	188.641
213.708	1.50586
218.585	153.617
223.459	153.967
228.33	71.0762
233.199	147.984
238.066	186.93
242.93	63.0469
247.792	145.402
252.651	279.426
257.508	1073.74
262.363	1830.64
267.215	1446.84
272.064	515.479
276.912	747.863
281.756	670.678
286.598	675.521
291.438	695.133
296.276	574.344
301.111	616.82
305.943	753.725
310.773	744.541
315.601	787.643
320.426	995.398
325.248	739.311
330.068	856.606
334.886	939.371
339.701	846.164
344.514	893.438
349.324	752.25
354.132	1011.56
358.938	850.465
363.741	963.064
368.541	792.582
373.339	493.455
378.135	446.377
382.928	578.439
387.718	376.672
392.506	442.082
397.292	504.844
402.075	450.977
406.856	628.176
411.634	472.906
416.41	476.885
421.183	646.164
425.954	768.629
430.722	496.131
435.488	652.463
440.251	494.748
445.012	550.727
449.77	559.168
454.526	660.316
459.28	753.791
464.03	530.793
468.779	841.693
473.525	654.231
478.268	672.295
483.009	738.844
487.747	702.934
492.483	686.607
497.217	782.059
501.948	945.24
506.676	1039.03
511.402	968.644
516.125	1176.24
520.846	1284.84
525.565	1222.18
530.281	1022.28
534.994	1240.87
539.705	1209.64
544.413	1082.91
549.119	1012.61
553.822	1113.49
558.523	1333.39
563.222	1394.43
567.917	1242.32
572.611	1575.84
577.302	1099.38
581.99	883.953
586.676	420.266
591.359	184.629
596.04	180.469
600.718	204.859
605.394	311.371
610.067	323.625
614.737	186.672
619.406	391.32
624.071	243.562
628.734	503.547
633.395	198.344
638.053	381.629
642.708	94.4531
647.361	140.707
652.012	103.844
656.66	56.7383
661.305	160.699
665.948	126.152
670.588	135.57
675.226	63.2539
679.861	45.1055
684.494	52.0273
689.124	29.0352
693.752	117.484
698.377	19.8008
702.999	167.191
707.619	85.9609
712.237	116.75
716.852	510.844
721.464	245.527
726.074	121.324
730.681	224.269
735.286	357.582
739.888	309.512
744.488	233.223
749.085	424.762
753.68	105.734
758.272	299.644
762.861	203.477
767.448	131.094
772.033	426.473
776.614	243.66
781.194	39.2891
785.77	253.375
790.345	103.891
794.916	182.957
799.485	233.293
804.052	149.836
808.616	387.719
813.177	940.301
817.736	159.644
822.292	309.027
826.846	89.6328
831.397	46.3281
835.945	98.375
840.491	178.887
845.035	149.848
849.576	204.164
854.114	59.6641
858.65	25.8906
863.183	52.8633
867.713	57.0078
872.241	68.125
876.767	21.2656
881.29	81.8438
885.81	145.297
890.328	130.336
894.843	259.488
899.356	99.7695
903.866	160.027
908.373	496.188
912.878	332.934
917.38	492.883
921.88	543.949
926.377	220.391
930.872	318.992
935.364	152.918
939.853	416.824
944.34	378.316
948.824	543.07
953.306	591.535
957.785	616.082
962.261	584.973
966.735	352.434
971.207	580.019
975.675	386.402
980.141	561.312
984.605	581.777
989.066	597.316
993.524	962.688
997.98	741.785
1002.43	595.789
1006.88	949.332
1011.33	824.789
1015.78	767.324
1020.22	753.68
1024.66	679.555
1029.1	912.883
1033.53	946.664
1037.97	811.996
1042.4	974.863
1046.82	776.207
1051.25	997.312
1055.67	1147.72
1060.09	962.609
1064.51	986.953
1068.92	1075.74
1073.33	1207.99
1077.74	1203.69
1082.15	837.828
1086.55	1103.4
1090.95	976.402
1095.35	723.676
1099.75	1278.24
1104.14	928.074
1108.53	1059.85
1112.92	1099.85
1117.31	697.641
1121.69	664.418
1126.07	1084.66
1130.45	729.062
1134.82	628.754
1139.19	578.91
1143.57	570.469
1147.93	329.277
1152.3	298.492
1156.66	489.918
1161.02	402.539
1165.38	256.445
1169.73	212.348
1174.08	244.383
1178.43	427.527
1182.78	438.781
1187.12	171.113
1191.46	355.547
1195.8	204.18
1200.14	98.832
1204.47	189.102
1208.8	140.828
1213.13	125.574
1217.46	355.332
1221.78	23.1094
1226.1	124.961
1230.42	121.664
1234.73	183.5
1239.04	217.418
1243.35	310.008
1247.66	270.391
1251.97	359.055
1256.27	136.055
1260.57	312.981
1264.86	219.039
1269.16	482.789
1273.45	251.445
1277.74	443.746
1282.03	344.805
1286.31	191.578
1290.59	150.883
1294.87	453.047
1299.14	588.863
1303.42	478.484
1307.69	476.269
1311.95	438.746
1316.22	524.863
1320.48	94.1445
1324.74	281.246
1329	60.3672
1333.26	515.074
1337.51	319.602
1341.76	584.918
1346	143.102
1350.25	474.066
1354.49	110.707
1358.73	297.648
1362.96	694.613
1367.2	89.25
1371.43	176.918
1375.66	267.238
1379.88	163.769
1384.11	135.227
1388.33	189.981
1392.54	202.656
1396.76	116.039
1400.97	150.617
1405.18	881.914
1409.39	664.551
1413.59	44.0117
1417.8	485.414
1421.99	9.21484
1426.19	167.098
1430.38	323.75
1434.58	243.109
1438.77	225.488
1442.95	304.438
1447.13	81.7891
1451.32	151.449
1455.49	141.961
1459.67	237.172
1463.84	163.32
1468.01	403.859
1472.18	476.203
1476.35	71.6016
1480.51	79.6641
1484.67	14.0117
1488.83	391.836
1492.98	214.418
1497.13	110.227
1501.28	125.875
1505.43	486.129
1509.57	13.1328
1513.71	499.762
1517.85	291.449
1521.99	369.824
1526.12	401.152
1530.25	284.234
1534.38	35.6914
1538.5	641.031
1542.62	99.7891
1546.74	636.539
1550.86	476.629
1554.98	229.816
1559.09	157.035
1563.2	241.227
1567.31	388.195
