Measurement: Raman, 514 nm, ccw, Raman Data Processed
Mineral: Arsenopyrite
Rruff sample: R050071
Ideal chemistry: FeAsS
Locality: Yaogangxian mine, Yizhang County, Hunan Province, China
Source: Rock Currier
Description: Steel-gray tabular
Measured chemistry: FeAsS
Pin_id: L00187
Orientation: Laser parallel to a* (1 0 0). Fiducial mark perpendicular to laser is parallel to b [0 1 0]
Raman shift (cm-1)	intensity
71.241	0
76.187	20854.3
81.131	4330.57
86.072	273.894
91.012	791.078
95.948	277.648
100.883	4.10547
105.815	7670.58
110.744	13637.7
115.671	25396.5
120.596	15241.5
125.519	342.312
130.439	187.324
135.356	74.1953
140.271	42.6094
145.184	109.785
150.094	550.523
155.002	770.297
159.908	877.082
164.811	972.463
169.711	852.953
174.61	544.127
179.505	568.113
184.399	576.213
189.29	1083.12
194.178	1664.72
199.064	1473.31
203.948	947.838
208.829	129.459
213.708	19.3047
218.585	232.898
223.459	17.7715
228.33	287.572
233.199	42.1543
238.066	204.127
242.93	165.131
247.792	159.398
252.651	370.965
257.508	1614.89
262.363	2173.55
267.215	1606.32
272.064	482.527
276.912	1103.3
281.756	740.762
286.598	684.031
291.438	699.016
296.276	647.801
301.111	895.191
305.943	682.812
310.773	947.594
315.601	921.356
320.426	1013.27
325.248	1033.89
330.068	1341.23
334.886	1125.92
339.701	951.914
344.514	1264.55
349.324	1127.28
354.132	916.484
358.938	989.816
363.741	814.586
368.541	787.961
373.339	934.941
378.135	689.785
382.928	351.301
387.718	549.238
392.506	599.613
397.292	374.094
402.075	482.316
406.856	535.805
411.634	794.984
416.41	630.602
421.183	651.742
425.954	601.695
430.722	963.477
435.488	631.059
440.251	555.219
445.012	833.5
449.77	629.207
454.526	527.113
459.28	774.461
464.03	755.273
468.779	525.711
473.525	628.684
478.268	829.254
483.009	943.391
487.747	1093.08
492.483	981.348
497.217	968.516
501.948	1044.84
506.676	895.859
511.402	1159.4
516.125	1052.82
520.846	1525.12
525.565	1004.95
530.281	1170.67
534.994	1295.06
539.705	1336.46
544.413	1187.9
549.119	1523.48
553.822	1674.5
558.523	1471.14
563.222	1215.56
567.917	1437.12
572.611	1433.11
577.302	1344.15
581.99	494.281
586.676	796.344
591.359	490.691
596.04	187.051
600.718	544.656
605.394	259.109
610.067	373.769
614.737	380.156
619.406	315.215
624.071	258.019
628.734	458.227
633.395	274.152
638.053	396.953
642.708	233.363
647.361	296.438
652.012	150.266
656.66	58.3672
661.305	342.352
665.948	148.082
670.588	200.352
675.226	44.0312
679.861	27.7734
684.494	219.863
689.124	165.828
693.752	9.94531
698.377	47.0156
702.999	50.8828
707.619	128.492
712.237	522.012
716.852	140.016
721.464	125.82
726.074	63.0586
730.681	20.7383
735.286	40.2969
739.888	173.731
744.488	58.0938
749.085	435.621
753.68	288.715
758.272	450.805
762.861	63.9219
767.448	414.762
772.033	89.6914
776.614	244.328
781.194	91.8828
785.77	6.11328
790.345	264.734
794.916	86.8633
799.485	117.723
804.052	110.602
808.616	155.312
813.177	102.164
817.736	116.309
822.292	441.262
826.846	123.543
831.397	87.4414
835.945	125.223
840.491	257.066
845.035	139.887
849.576	36.5586
854.114	93.832
858.65	7.89844
863.183	177.688
867.713	206.062
872.241	78.5781
876.767	263.242
881.29	11.5938
885.81	150.523
890.328	423.539
894.843	12.3203
899.356	175.805
903.866	382.715
908.373	94.1953
912.878	467.836
917.38	321.684
921.88	380.57
926.377	403.441
930.872	315.176
935.364	472.918
939.853	523.977
944.34	561.164
948.824	237.535
953.306	355.93
957.785	262.438
962.261	599.859
966.735	163.16
971.207	588.848
975.675	534.613
980.141	535.519
984.605	693.894
989.066	715.152
993.524	868.621
997.98	949.766
1002.43	902.535
1006.88	709.285
1011.33	994.398
1015.78	968.098
1020.22	887.004
1024.66	785.824
1029.1	859.555
1033.53	1126.52
1037.97	910.004
1042.4	1353.57
1046.82	903.508
1051.25	1189.69
1055.67	1166.73
1060.09	1028.6
1064.51	1309.11
1068.92	1118.3
1073.33	1389.32
1077.74	1151.67
1082.15	1378.61
1086.55	1162.11
1090.95	1205.19
1095.35	1198.88
1099.75	922.59
1104.14	1101.15
1108.53	996.164
1112.92	937.348
1117.31	846.934
1121.69	1110.46
1126.07	895.602
1130.45	745.195
1134.82	422.883
1139.19	693.965
1143.57	546.902
1147.93	443.223
1152.3	358.023
1156.66	204.32
1161.02	392.988
1165.38	306.348
1169.73	339.684
1174.08	186.348
1178.43	203.324
1182.78	251.602
1187.12	186.047
1191.46	34.8789
1195.8	83.0391
1200.14	84.6406
1204.47	17.7969
1208.8	53.5273
1213.13	216.371
1217.46	176.559
1221.78	40.7812
1226.1	177.16
1230.42	71.4336
1234.73	127.785
1239.04	550.906
1243.35	82.0898
1247.66	18.7422
1251.97	117.863
1256.27	112.191
1260.57	5.42969
1264.86	190.637
1269.16	60.7188
1273.45	415.695
1277.74	30.9648
1282.03	206.484
1286.31	96.0352
1290.59	37.3633
1294.87	269.348
1299.14	187.254
1303.42	119
1307.69	430.711
1311.95	18.3828
1316.22	223.234
1320.48	196.606
1324.74	175.906
1329	362.117
1333.26	390.027
1337.51	275.102
1341.76	195.812
1346	248.625
1350.25	436.019
1354.49	435.582
1358.73	99.7578
1362.96	490.785
1367.2	320.512
1371.43	294.496
1375.66	313.32
1379.88	451.152
1384.11	424.57
1388.33	51.6602
1392.54	432.578
1396.76	76.3359
1400.97	430.019
1405.18	37.9609
1409.39	17.6133
1413.59	249.211
1417.8	372.426
1421.99	347.68
1426.19	243.152
1430.38	208.363
1434.58	238.488
1438.77	440.273
1442.95	219.656
1447.13	362.098
1451.32	322.949
1455.49	220.828
1459.67	256.195
1463.84	60.5625
1468.01	419.094
1472.18	191.875
1476.35	245.781
1480.51	414.566
1484.67	192.848
1488.83	95.9688
1492.98	146.957
1497.13	397.769
1501.28	19.0977
1505.43	246.82
1509.57	237.949
1513.71	309.762
1517.85	188.047
1521.99	481.75
1526.12	6.87891
1530.25	91.7031
