Measurement: Raman, 514 nm, ccw, Raman Data Processed
Mineral: Arsenopyrite
Rruff sample: R050071
Ideal chemistry: FeAsS
Locality: Yaogangxian mine, Yizhang County, Hunan Province, China
Source: Rock Currier
Description: Steel-gray tabular
Measured chemistry: FeAsS
Pin_id: L00055
Orientation: Laser parallel to b* (0 1 0). Fiducial mark perpendicular to laser is parallel to c [0 0 1]
Raman shift (cm-1)	intensity
71.241	0
76.187	21859.3
81.131	4877.86
86.072	126.981
91.012	422.231
95.948	430.019
100.883	117.875
105.815	7221.33
110.744	13895.3
115.671	27502.8
120.596	13527
125.519	417.16
130.439	203.539
135.356	142.582
140.271	371.318
145.184	139.397
150.094	739.361
155.002	805.371
159.908	1127.14
164.811	754.115
169.711	623.592
174.61	814.088
179.505	549.394
184.399	504.346
189.29	838.713
194.178	1421.75
199.064	1321.46
203.948	1225.82
208.829	316.967
213.708	72.375
218.585	171.494
223.459	101.496
228.33	104.789
233.199	34.7773
238.066	48.3867
242.93	92.1504
247.792	351.16
252.651	22.625
257.508	1286.75
262.363	1590.48
267.215	1217.38
272.064	638.809
276.912	609.293
281.756	347.522
286.598	658.961
291.438	511.973
296.276	498.4
301.111	477.068
305.943	589.227
310.773	660.863
315.601	717.453
320.426	612.135
325.248	769.299
330.068	780.633
334.886	649.932
339.701	688.856
344.514	841.879
349.324	948.613
354.132	950.326
358.938	616.184
363.741	711.125
368.541	693.002
373.339	471.113
378.135	259.617
382.928	562.359
387.718	295.867
392.506	281.18
397.292	304.062
402.075	379.875
406.856	458.738
411.634	617.004
416.41	531.293
421.183	349.965
425.954	523.863
430.722	564.086
435.488	645.789
440.251	625.09
445.012	532.031
449.77	409.519
454.526	429.504
459.28	524.051
464.03	691.152
468.779	428.836
473.525	553.152
478.268	600.102
483.009	774.688
487.747	753.918
492.483	519.809
497.217	835.699
501.948	964.555
506.676	940.301
511.402	1093.06
516.125	957.449
520.846	1168.87
525.565	1167.17
530.281	997.598
534.994	858.82
539.705	985.066
544.413	1416.15
549.119	1135.82
553.822	1211.57
558.523	1026.91
563.222	1295.96
567.917	1122.96
572.611	1230.55
577.302	883.031
581.99	640.945
586.676	601.238
591.359	137.434
596.04	413.41
600.718	360.438
605.394	185.023
610.067	239.473
614.737	259.641
619.406	200.613
624.071	424.266
628.734	387.582
633.395	515.758
638.053	269.348
642.708	216.965
647.361	194.738
652.012	114.984
656.66	101.383
661.305	75.4961
665.948	46.9922
670.588	64.668
675.226	60.0391
679.861	60.6055
684.494	136.621
689.124	81.9609
693.752	18.5508
698.377	10.1836
702.999	67.3398
707.619	58.3242
712.237	113.535
716.852	116.156
721.464	60.168
726.074	108.008
730.681	153.438
735.286	45.8203
739.888	366.629
744.488	306.68
749.085	325.074
753.68	270.836
758.272	435.383
762.861	244.715
767.448	203.019
772.033	192.289
776.614	335.508
781.194	342.637
785.77	159.598
790.345	44.7422
794.916	271.398
799.485	370.07
804.052	257.406
808.616	112.883
813.177	293.148
817.736	231.863
822.292	160.398
826.846	91.6406
831.397	140.652
835.945	350.996
840.491	69.6641
845.035	129.066
849.576	10.4414
854.114	203.863
858.65	26.457
863.183	0.253906
867.713	165.59
872.241	18.7578
876.767	2.82812
881.29	126.883
885.81	298.961
890.328	322.848
894.843	105.637
899.356	115.492
903.866	157.434
908.373	272.262
912.878	310.418
917.38	302.273
921.88	257.672
926.377	330.543
930.872	315.32
935.364	609.285
939.853	432.539
944.34	537.133
948.824	293.82
953.306	469.789
957.785	386.738
962.261	536.359
966.735	178.609
971.207	751.938
975.675	632.949
980.141	539.945
984.605	742.457
989.066	626.156
993.524	782.106
997.98	646.496
1002.43	726.652
1006.88	494.742
1011.33	635.762
1015.78	593.199
1020.22	656.301
1024.66	618.043
1029.1	796.625
1033.53	951.828
1037.97	946.606
1042.4	1119.13
1046.82	803.578
1051.25	1170.6
1055.67	1153.56
1060.09	1163.17
1064.51	905.113
1068.92	1008.8
1073.33	1029.73
1077.74	1078.89
1082.15	1087.52
1086.55	793.887
1090.95	1103.67
1095.35	853.785
1099.75	798.281
1104.14	933.891
1108.53	820.106
1112.92	1000.13
1117.31	728.062
1121.69	714.856
1126.07	796.984
1130.45	533.648
1134.82	438.258
1139.19	448.207
1143.57	588.379
1147.93	371.856
1152.3	490.816
1156.66	86.0039
1161.02	148.481
1165.38	256.254
1169.73	339.309
1174.08	442.164
1178.43	224.961
1182.78	346.414
1187.12	12.9883
1191.46	187.758
1195.8	259.68
1200.14	6.62891
1204.47	254.562
1208.8	372.543
1213.13	409.043
1217.46	11.5664
1221.78	7.05859
1226.1	183.156
1230.42	49.5781
1234.73	44.3438
1239.04	164.996
1243.35	54.0273
1247.66	250.109
1251.97	204.141
1256.27	116.281
1260.57	4.74609
1264.86	50.1094
1269.16	46.1641
1273.45	50.1914
1277.74	294.316
1282.03	119.496
1286.31	243.469
1290.59	66.918
1294.87	146.613
1299.14	21.8906
1303.42	50.7227
1307.69	235.719
1311.95	120.734
1316.22	203.746
1320.48	204.781
1324.74	246.223
1329	388.918
1333.26	134.625
1337.51	297.336
1341.76	248.062
1346	393.508
1350.25	133.938
1354.49	415.266
1358.73	387.988
1362.96	879.109
1367.2	366.234
1371.43	315.422
1375.66	283.785
1379.88	37.3203
1384.11	224.543
1388.33	191.957
1392.54	453.426
1396.76	203.781
1400.97	58.9961
1405.18	294.41
1409.39	192.539
1413.59	264.656
1417.8	134.312
1421.99	132.586
1426.19	125.512
1430.38	197.473
1434.58	106.984
1438.77	296.18
1442.95	396.332
1447.13	88.3945
1451.32	373.762
1455.49	346.219
1459.67	451.394
1463.84	225.305
1468.01	550.652
1472.18	397.324
1476.35	87.6797
1480.51	554.027
1484.67	333.801
1488.83	343.879
1492.98	44.0742
1497.13	210.324
1501.28	295.867
1505.43	260.676
1509.57	492.371
1513.71	341.699
1517.85	453.949
1521.99	35
1526.12	74.5664
1530.25	397.301
1534.38	105.195
1538.5	0.480469
1542.62	0
