Measurement: Raman, 514 nm, ccw, Raman Data Processed
Mineral: Arsenopyrite
Rruff sample: R050071
Ideal chemistry: FeAsS
Locality: Yaogangxian mine, Yizhang County, Hunan Province, China
Source: Rock Currier
Description: Steel-gray tabular
Measured chemistry: FeAsS
Pin_id: L00187
Orientation: Laser parallel to a* (1 0 0). Fiducial mark perpendicular to laser is parallel to b [0 1 0]
Raman shift (cm-1)	intensity
70.004	0
74.951	17856.5
79.895	12095.5
84.837	818.098
89.777	2167.18
94.714	397.918
99.649	50.0156
104.582	4170.27
109.512	18311.6
114.44	23882.5
119.365	28046.8
124.288	1824.2
129.209	119.465
134.127	119.137
139.043	360.152
143.956	209.656
148.867	93.3164
153.775	597.531
158.681	949.121
163.585	1460.14
168.486	568.102
173.385	642.234
178.282	255.137
183.176	418.234
188.067	672.801
192.956	1392.69
197.843	1524.96
202.727	1645.56
207.609	92.3555
212.489	53.8867
217.366	155.305
222.24	68.0859
227.112	70.207
231.982	218.766
236.849	60.1836
241.714	120.621
246.577	160.133
251.437	90.5273
256.294	736.207
261.149	4335.82
266.002	1909.82
270.852	818.512
275.7	1064.21
280.545	788.609
285.388	803.18
290.229	627.719
295.067	588.242
299.902	586.953
304.735	781.356
309.566	815.102
314.394	717.766
319.22	1064.69
324.043	1102.08
328.864	1409.18
333.682	1399.85
338.498	1195.89
343.311	1318.36
348.122	1289.29
352.931	1307.27
357.737	1046.41
362.54	933.684
367.341	824.828
372.14	807.504
376.936	274.613
381.73	599.074
386.521	580.715
391.31	548.285
396.096	321.766
400.88	297.769
405.661	471.566
410.44	485.785
415.216	482.606
419.99	476.941
424.761	857.629
429.53	659.519
434.297	760.012
439.061	564.449
443.822	733.18
448.581	719.703
453.337	616.238
458.091	474.094
462.843	721.297
467.592	740.887
472.338	441.914
477.082	899.375
481.824	808.285
486.563	885.672
491.3	1066.56
496.034	928.133
500.765	1216.45
505.494	1118.19
510.221	1051.82
514.945	1393.68
519.666	1492.61
524.385	1363.42
529.102	1245.66
533.816	1413.49
538.527	1325.91
543.236	1488.64
547.943	1205.73
552.647	1393.73
557.348	1683.07
562.047	1671.01
566.744	1577.14
571.438	1451.11
576.129	1227.07
580.818	983.195
585.504	602.109
590.188	665.856
594.87	515.543
599.549	525.902
604.225	503.93
608.899	304.613
613.57	557.988
618.239	523.133
622.905	452.918
627.569	474.328
632.23	358.356
636.889	285.008
641.545	230.195
646.198	390.269
650.849	27.4922
655.498	25.8008
660.144	154.301
664.787	82.4258
669.428	237.262
674.067	48.4062
678.703	81.0938
683.336	51.7617
687.967	3.63672
692.595	15.7695
697.221	191.086
701.844	24.1992
706.465	99.6602
711.083	136.965
715.698	44
720.311	12.125
724.922	22.3633
729.53	99.5039
734.135	318.516
738.738	278.512
743.338	67.4844
747.936	704.43
752.531	415.723
757.124	233.578
761.714	253.098
766.302	310.785
770.887	90.3867
775.469	131.883
780.049	211.277
784.626	142.555
789.201	227.019
793.773	288.031
798.343	384.582
802.91	169.688
807.475	217.32
812.037	96.6719
816.596	298.055
821.153	228.324
825.707	240.371
830.259	272.715
834.808	47.2578
839.355	170.176
843.899	204.93
848.441	80.6875
852.98	86.543
857.516	1.83984
862.05	98.9922
866.581	456.199
871.11	554.93
875.636	267.648
880.159	21.4531
884.68	285.352
889.199	88.1914
893.714	261.969
898.228	333.844
902.738	280.07
907.246	268.981
911.752	253.309
916.255	556.809
920.755	197.156
925.253	331.051
929.748	145.188
934.241	654.602
938.731	363.781
943.218	657.027
947.703	600.277
952.186	527.574
956.665	621.211
961.142	636.07
965.617	454.223
970.089	568.262
974.558	512.824
979.025	686.242
983.489	663.992
987.951	879.098
992.41	953.941
996.866	664.297
1001.32	651.824
1005.77	835.09
1010.22	845.027
1014.67	839.477
1019.11	714.484
1023.55	698.641
1027.99	871.715
1032.42	1120.62
1036.86	1052.82
1041.29	893.594
1045.72	1084.89
1050.14	1239.75
1054.56	1384.23
1058.98	1925.29
1063.4	1375.54
1067.82	1094.41
1072.23	1197.41
1076.64	1208.07
1081.05	1281.02
1085.45	1309.41
1089.85	1408.47
1094.25	1044.1
1098.65	1246.06
1103.04	1543.95
1107.43	1145.47
1111.82	1001.65
1116.21	1135.75
1120.59	1232.47
1124.97	1413.52
1129.35	1083.41
1133.73	743.625
1138.1	437.148
1142.47	410.387
1146.84	433.988
1151.21	688.363
1155.57	465.328
1159.93	539.269
1164.29	441.195
1168.64	413.883
1172.99	390.879
1177.34	161.144
1181.69	300.695
1186.04	280.914
1190.38	93.9688
1194.72	172.207
1199.05	152.402
1203.39	290.734
1207.72	22.1133
1212.05	170.156
1216.37	0.339844
1220.7	55.8711
1225.02	59.3555
1229.34	113.688
1233.65	307.039
1237.97	67.7695
1242.28	148.801
1246.59	93.7617
1250.89	17.6875
1255.19	205.539
1259.49	92.293
1263.79	169.562
1268.09	242.422
1272.38	180.824
1276.67	29.6172
1280.95	171.918
1285.24	235.492
1289.52	14.5391
1293.8	304.672
1298.08	142.07
1302.35	243.043
1306.62	143.894
1310.89	42.3203
1315.15	222.305
1319.42	354.734
1323.68	395.262
1327.94	364.688
1332.19	225.238
1336.44	338.516
1340.69	49.2422
1344.94	274.699
1349.19	308.156
1353.43	54.8711
1357.67	272.832
1361.9	216.543
1366.14	51.9141
1370.37	262.023
1374.6	340.109
1378.83	355.172
1383.05	231.106
1387.27	154.871
1391.49	307.004
1395.7	20.4805
1399.92	413.301
1404.13	24.2305
1408.34	199.676
1412.54	277.504
1416.74	139.328
1420.94	196.867
1425.14	194.277
1429.34	164.777
1433.53	409.566
1437.72	270.352
1441.9	276.492
1446.09	323.867
1450.27	74.0625
1454.45	207.875
1458.63	242.637
1462.8	137.426
1466.97	271.195
1471.14	0.496094
1475.31	738.375
1479.47	252.981
1483.63	11.0664
1487.79	312.269
1491.94	251.426
1496.09	204.965
1500.24	186.109
1504.39	300.316
1508.54	294.266
1512.68	40.2109
1516.82	400.254
1520.95	133.965
1525.09	163.172
1529.22	26.4727
1533.35	22.2461
1537.47	317.297
1541.6	0.90625
