Measurement: Raman, 514 nm, ccw, Raman Data Processed
Mineral: Arsenopyrite
Rruff sample: R050071
Ideal chemistry: FeAsS
Locality: Yaogangxian mine, Yizhang County, Hunan Province, China
Source: Rock Currier
Description: Steel-gray tabular
Measured chemistry: FeAsS
Pin_id: L00162
Orientation: Laser parallel to -c* (0 0 -1). Fiducial mark perpendicular to laser is parallel to -a [-1 0 0]
Raman shift (cm-1)	intensity
72.477	0
77.423	10816.8
82.367	885.879
87.308	523.965
92.246	2852.03
97.182	851.961
102.116	1368.44
107.047	9805.6
111.976	13347.6
116.903	17508.3
121.827	4224.09
126.749	269.488
131.668	126.312
136.585	947.379
141.5	161.988
146.412	31.5312
151.321	1015.3
156.229	740.488
161.134	755.398
166.036	843.215
170.936	836.203
175.834	584.644
180.729	477.523
185.622	489.32
190.512	1229.62
195.4	1328.17
200.286	1703.57
205.169	455.844
210.049	255.957
214.928	252.574
219.803	391.438
224.677	34.5703
229.548	253.883
234.416	432.394
239.282	105.555
244.146	73.1445
249.007	166.715
253.866	453.352
258.722	1933.31
263.576	1388.12
268.427	1193.68
273.276	375.402
278.123	438.742
282.967	701.492
287.809	986.336
292.648	954.949
297.485	699.797
302.319	795.891
307.151	802.293
311.98	979.934
316.807	1224.11
321.631	1188.55
326.454	1298.29
331.273	1245.42
336.09	970.176
340.905	1148.51
345.717	998.465
350.527	865.07
355.334	1223.64
360.139	929.352
364.941	861.176
369.741	907.875
374.538	633.828
379.333	676.719
384.126	483.117
388.916	421.598
393.703	291.297
398.488	501.387
403.271	344.223
408.051	286.637
412.828	738.684
417.603	634.504
422.376	426.57
427.146	439.293
431.914	736.586
436.679	788.254
441.442	658.074
446.202	510.375
450.96	719.188
455.715	667.441
460.467	769.238
465.218	993.559
469.965	865.414
474.711	1055.84
479.454	779.844
484.194	1072.44
488.932	1236.66
493.667	1239.52
498.4	1288.68
503.13	1064.7
507.858	1306.24
512.583	1196.07
517.306	1535.88
522.026	1319.04
526.744	1284.23
531.459	1279.65
536.172	1022.96
540.882	1335.13
545.59	1475.72
550.295	1722.07
554.998	1508.68
559.698	1497.33
564.396	1471.17
569.091	1634.98
573.784	1507.31
578.474	1328.43
583.162	714.262
587.847	728.379
592.529	179.797
597.209	527.586
601.887	259.211
606.562	399.606
611.235	329.809
615.905	356.523
620.572	520.609
625.237	450.188
629.9	275.531
634.56	407.652
639.217	92.5117
643.872	327.195
648.524	55.5703
653.174	162.84
657.821	188.324
662.466	95.6367
667.108	84.6016
671.748	272.559
676.385	75.0508
681.02	121.586
685.652	86.0273
690.281	29.7773
694.908	47.1797
699.533	39.3555
704.155	218.91
708.774	84.418
713.391	115.949
718.005	65.0625
722.617	166.664
727.226	30.5625
731.833	145.984
736.437	111.414
741.039	176.449
745.638	143.828
750.234	148.555
754.828	408.457
759.419	212.856
764.008	313.293
768.595	303.688
773.178	210.18
777.759	476.68
782.338	36.1211
786.914	266.273
791.488	215.348
796.059	386.316
800.627	76.4453
805.193	149.273
809.756	432.91
814.317	60.9141
818.875	92.8164
823.431	69.6992
827.984	250.086
832.534	212.023
837.082	135.57
841.627	108.176
846.17	261.773
850.71	1.26562
855.248	73.6914
859.783	175.266
864.316	305.566
868.846	118.5
873.373	214.961
877.898	316.543
882.42	110.301
886.94	113.172
891.457	245.18
895.971	164.34
900.483	88.668
904.993	529.152
909.5	268.793
914.004	416.625
918.505	307.117
923.004	240.695
927.501	374.82
931.995	236.594
936.486	471.246
940.975	553.242
945.461	372.949
949.945	638.312
954.426	361.992
958.904	570.516
963.38	852.883
967.853	679.016
972.324	511.609
976.792	650.25
981.258	1009.22
985.72	1192.76
990.181	955.055
994.639	1365.21
999.094	963.195
1003.55	959.207
1008	1000.36
1012.44	905.777
1016.89	873.707
1021.33	710.875
1025.77	1019.36
1030.21	923.059
1034.64	1342.39
1039.07	1238.37
1043.5	1200.86
1047.93	1482.93
1052.35	1163.69
1056.78	1201.21
1061.19	1467.58
1065.61	1401.44
1070.02	1571.91
1074.43	1167.24
1078.84	1543.02
1083.25	1370.49
1087.65	1400.7
1092.05	1056.9
1096.45	1172.62
1100.85	1106.52
1105.24	1312.91
1109.63	1111.99
1114.02	1118.2
1118.4	1316.59
1122.78	1711.27
1127.16	1147.52
1131.54	765.809
1135.92	508.172
1140.29	567.184
1144.66	497.973
1149.02	377.031
1153.39	332.504
1157.75	339.422
1162.11	409.418
1166.46	126.246
1170.82	340.324
1175.17	449.773
1179.52	397.617
1183.86	634.922
1188.21	10.75
1192.55	237.195
1196.89	295.422
1201.22	82.9297
1205.55	196.703
1209.88	244.523
1214.21	260.723
1218.54	209.574
1222.86	14.9844
1227.18	116.852
1231.5	46.9219
1235.81	136.902
1240.12	256.367
1244.43	161.594
1248.74	113.957
1253.04	257.691
1257.34	69.918
1261.64	230.144
1265.94	125.402
1270.23	125.602
1274.52	42.1797
1278.81	111.16
1283.1	313.102
1287.38	0.996094
1291.66	377.223
1295.94	418.629
1300.21	454.125
1304.48	225.621
1308.75	348.457
1313.02	219.078
1317.29	295
1321.55	251.953
1325.81	239.609
1330.06	347.398
1334.32	432.559
1338.57	335.965
1342.82	156.066
1347.06	359.289
1351.31	204.812
1355.55	83.9297
1359.79	392.789
1364.02	184.055
1368.26	168.922
1372.49	154.902
1376.71	243.531
1380.94	273.059
1385.16	147.113
1389.38	161.16
1393.6	515.32
1397.81	129.758
1402.02	150.684
1406.23	422.859
1410.44	232.023
1414.64	395.43
1418.85	250.922
1423.04	225.82
1427.24	425.539
1431.43	263.043
1435.62	96.3008
1439.81	340.305
1444	292.309
1448.18	17.0547
1452.36	152.414
1456.54	464.106
1460.71	278.684
1464.89	484.438
1469.06	434.039
1473.22	233.695
1477.39	424.137
1481.55	77.6992
1485.71	370.871
1489.86	195.066
1494.02	426.117
1498.17	149.731
1502.32	232.805
1506.46	203.375
1510.61	334.5
1514.75	339.867
1518.88	387.961
1523.02	202.852
1527.15	109.574
1531.28	346.551
1535.41	302.375
1539.53	8.64453
1543.66	79.1094
