Measurement: Raman, 514 nm, ccw, Raman Data Processed
Mineral: Arsenopyrite
Rruff sample: R050071
Ideal chemistry: FeAsS
Locality: Yaogangxian mine, Yizhang County, Hunan Province, China
Source: Rock Currier
Description: Steel-gray tabular
Measured chemistry: FeAsS
Pin_id: L00055
Orientation: Laser parallel to b* (0 1 0). Fiducial mark perpendicular to laser is parallel to c [0 0 1]
Raman shift (cm-1)	intensity
71.241	0
76.187	21175.1
81.131	5768.83
86.072	298.316
91.012	534.512
95.948	425.908
100.883	194.781
105.815	5853.56
110.744	12950
115.671	25259
120.596	9556.96
125.519	401.977
130.439	222.072
135.356	38.6797
140.271	459.272
145.184	72.4629
150.094	361.721
155.002	1003.38
159.908	859.537
164.811	895.738
169.711	538.363
174.61	557.889
179.505	179.102
184.399	306.41
189.29	943.342
194.178	1149.82
199.064	1232.97
203.948	839.014
208.829	120.416
213.708	256.147
218.585	57.7812
223.459	6.96094
228.33	303.676
233.199	26.7207
238.066	31.6934
242.93	46.2051
247.792	103.445
252.651	264.041
257.508	1023.27
262.363	1521.61
267.215	1229.55
272.064	629.266
276.912	638.346
281.756	479.662
286.598	530.939
291.438	600.109
296.276	1043.14
301.111	812.756
305.943	728.652
310.773	691.035
315.601	809.484
320.426	892.168
325.248	971.965
330.068	1050.54
334.886	924.402
339.701	900.211
344.514	1205.49
349.324	1155.26
354.132	1441.24
358.938	886.731
363.741	945.098
368.541	665.273
373.339	476.59
378.135	184.246
382.928	671.301
387.718	319.699
392.506	454.547
397.292	270.535
402.075	543.988
406.856	465.219
411.634	468.656
416.41	694.652
421.183	346.609
425.954	647.891
430.722	337.859
435.488	731.879
440.251	919.734
445.012	664.305
449.77	854.922
454.526	414.148
459.28	655.25
464.03	959.539
468.779	389.356
473.525	916.652
478.268	793.375
483.009	557.481
487.747	1004.99
492.483	1001.97
497.217	803.027
501.948	964.672
506.676	810.824
511.402	946.496
516.125	1238.23
520.846	1142.15
525.565	1402.54
530.281	1264.3
534.994	1070.53
539.705	1041.32
544.413	1146.86
549.119	1096.23
553.822	1285.89
558.523	1308.33
563.222	1549.66
567.917	1411.47
572.611	1449.35
577.302	1139.95
581.99	956.625
586.676	467.938
591.359	350.246
596.04	564.312
600.718	252.953
605.394	396.156
610.067	127.953
614.737	326.312
619.406	30.8008
624.071	301.098
628.734	212.891
633.395	216.078
638.053	341
642.708	30.1523
647.361	155
652.012	142.184
656.66	108.723
661.305	85.6055
665.948	122.734
670.588	23.1094
675.226	93.2969
679.861	82.9219
684.494	231.731
689.124	249.547
693.752	142.703
698.377	25.8164
702.999	96.6406
707.619	23.7031
712.237	15.5469
716.852	67.3945
721.464	172.062
726.074	167.797
730.681	329.84
735.286	163.969
739.888	304.945
744.488	221.891
749.085	451.094
753.68	29.4727
758.272	467.453
762.861	319.945
767.448	194.32
772.033	653.465
776.614	77.4453
781.194	374.941
785.77	110.531
790.345	285.969
794.916	291.984
799.485	237.879
804.052	374.609
808.616	250.191
813.177	350.25
817.736	264.496
822.292	143.394
826.846	216.981
831.397	206.789
835.945	53.9297
840.491	196.234
845.035	112.871
849.576	95.4336
854.114	12.5117
858.65	195.016
863.183	302.281
867.713	169.012
872.241	297.465
876.767	209.133
881.29	33.2383
885.81	85.3633
890.328	63.6953
894.843	257.457
899.356	188.312
903.866	254.293
908.373	316.637
912.878	516.617
917.38	439.859
921.88	267.094
926.377	66.875
930.872	739.856
935.364	308.09
939.853	422.59
944.34	426.367
948.824	566.5
953.306	515.555
957.785	489.512
962.261	671
966.735	695.445
971.207	676.133
975.675	430.238
980.141	503.867
984.605	611.516
989.066	794.332
993.524	659.426
997.98	736.742
1002.43	654.535
1006.88	745.992
1011.33	651.984
1015.78	673.473
1020.22	943.203
1024.66	924.977
1029.1	841.312
1033.53	794.023
1037.97	799.754
1042.4	889.773
1046.82	1111.21
1051.25	878.211
1055.67	845.785
1060.09	888.859
1064.51	927.336
1068.92	1219.05
1073.33	1016.4
1077.74	1033.42
1082.15	1199.25
1086.55	967.773
1090.95	1140.81
1095.35	952.535
1099.75	840.797
1104.14	982.715
1108.53	750.121
1112.92	669.074
1117.31	803.516
1121.69	1173.82
1126.07	612.785
1130.45	669.211
1134.82	648.141
1139.19	260.188
1143.57	583.75
1147.93	1241.9
1152.3	257.371
1156.66	306.992
1161.02	394.289
1165.38	301.012
1169.73	206.191
1174.08	210.047
1178.43	316.035
1182.78	326.402
1187.12	274.133
1191.46	83.2188
1195.8	62.6211
1200.14	108.262
1204.47	9.24219
1208.8	110.465
1213.13	149.75
1217.46	353.129
1221.78	145.582
1226.1	65.1602
1230.42	138.023
1234.73	12.1523
1239.04	244.512
1243.35	31.875
1247.66	284.629
1251.97	77.4062
1256.27	274.293
1260.57	310.477
1264.86	69.4414
1269.16	186.461
1273.45	100.59
1277.74	433.828
1282.03	115.148
1286.31	137.41
1290.59	36.1875
1294.87	216.527
1299.14	88.6445
1303.42	179.066
1307.69	79.9531
1311.95	161.949
1316.22	198.051
1320.48	282.262
1324.74	333.894
1329	459.977
1333.26	169.074
1337.51	324.168
1341.76	87.5156
1346	202.461
1350.25	250.602
1354.49	100.984
1358.73	446.441
1362.96	225.535
1367.2	388.945
1371.43	103.711
1375.66	304.922
1379.88	328.625
1384.11	192.449
1388.33	475.602
1392.54	523.019
1396.76	211.016
1400.97	67.4844
1405.18	729.281
1409.39	486.152
1413.59	400.133
1417.8	300.402
1421.99	287.719
1426.19	424.066
1430.38	97.7344
1434.58	437.438
1438.77	65.2461
1442.95	348.438
1447.13	315.922
1451.32	362.945
1455.49	135.023
1459.67	715.422
1463.84	14.9531
1468.01	302.82
1472.18	250.578
1476.35	19.8125
1480.51	195.426
1484.67	212.57
1488.83	455.246
1492.98	215.934
1497.13	5.01172
1501.28	406.508
1505.43	622.394
1509.57	437.559
1513.71	362.723
1517.85	215.453
1521.99	286.738
1526.12	86.0977
1530.25	499.512
1534.38	1.05078
1538.5	1.83594
1542.62	0
