Measurement: Raman, 514 nm, ccw, Raman Data Processed
Mineral: Astrophyllite
Rruff sample: R060103
Ideal chemistry: K_2_NaFe^2+^_7_Ti_2_(Si_4_O_12_)_2_O_2_(OH)_4_F
Locality: Brivik, Norway
Source: University of Arizona Mineral Museum
Description: Brown fragment embedded in matrix
Measured chemistry: K_2.00_Na_1.00_(Fe^2+^_0.55_Mn_0.32_Fe^3+^_0.04_Mg_0.04_Ca_0.04_)_7_(Ti_0.66_Zr_0.18_Al_0.16_)_2_Si_8.00_O_26_(OH)_4_F_1.00_
Pin_id: M01528
Orientation: Laser parallel to (1 0 1). Fiducial mark perpendicular to laser is parallel to c [0 0 1]
Raman shift (cm-1)	intensity
157.56	0
162.487	436.256
167.411	827.49
172.332	1138.08
177.25	774.648
182.165	298.055
187.078	52.7861
191.987	33.2803
196.894	327.346
201.798	635.671
206.699	646.949
211.598	1188.86
216.493	1769.65
221.386	2353.63
226.276	2986.12
231.163	3122.11
236.048	3060.44
240.929	2713.11
245.808	2303.67
250.684	1889.14
255.557	1758.51
260.428	2004.78
265.295	1583.22
270.16	1473.25
275.022	1089.72
279.882	778.703
284.738	555.126
289.592	607.09
294.443	781.829
299.291	1241.43
304.136	1692.46
308.978	2214.09
313.818	2406.8
318.655	2241.17
323.489	2177.9
328.321	1863.86
333.15	1679.68
337.976	1800.06
342.799	2150.53
347.619	2445.41
352.437	2070.43
357.252	1962.12
362.064	1738.78
366.873	1659.61
371.68	1764.92
376.483	1664.89
381.284	1811.99
386.083	1997.84
390.878	2138.45
395.671	1853.7
400.461	1374.42
405.249	715.698
410.033	349.588
414.815	148.572
419.594	20.5557
424.37	74.4502
429.144	95.7617
433.915	96.6475
438.683	176.777
443.448	55.9853
448.211	179.652
452.971	123.874
457.728	160.769
462.483	339.492
467.235	352.293
471.984	387.308
476.73	338.89
481.474	184.557
486.214	51.7139
490.953	107.963
495.688	20.665
500.421	41.5273
505.151	6.57227
509.878	3.37402
514.603	122.144
519.325	169.082
524.044	92.5371
528.76	101.543
533.474	174.165
538.185	64.5147
542.894	142.685
547.599	403.398
552.302	882.455
557.003	1553.71
561.7	1801.31
566.395	1416.28
571.087	951.765
575.777	655.837
580.464	600.089
585.148	697.716
589.829	914.912
594.508	1037.43
599.184	1065.21
603.858	1052.94
608.528	980.331
613.197	1173.35
617.862	2313.72
622.525	4364.09
627.185	5273.85
631.842	3452.82
636.497	2774.37
641.149	4150.79
645.798	6273.81
650.445	8231.12
655.089	8660.14
659.73	6438.41
664.369	3459.52
669.005	2428.7
673.639	2108.26
678.269	2572.97
682.898	2825.21
687.523	3661.97
692.146	4156.43
696.766	4631.83
701.384	4900.69
705.998	5141.03
710.611	5265.69
715.22	5147.43
719.827	4630.88
724.431	4164.09
729.033	3472.13
733.632	2909.76
738.229	2105.53
742.822	1565.33
747.413	1164.1
752.002	889.81
756.588	909.493
761.171	996.183
765.752	931.934
770.33	697.804
774.905	672.8
779.478	571.169
784.048	495.754
788.615	678.438
793.18	530.193
797.742	557.986
802.302	276.795
806.859	35.377
811.414	20.6309
815.965	160.079
820.515	73.9639
825.061	172.333
829.605	100.796
834.147	100.672
838.686	440.225
843.222	765.936
847.755	1460.79
852.286	1753.78
856.815	3200.59
861.341	3866.06
865.864	2734.16
870.384	1722.84
874.902	1627.25
879.418	1375.8
883.931	1319.65
888.441	1499.62
892.949	1798.38
897.454	2160.78
901.956	2377.65
906.456	2675.94
910.954	3002.62
915.448	3001.65
919.941	2847.01
924.43	2904.66
928.917	2816.35
933.402	2608.68
937.884	2465.93
942.363	2122.57
946.84	1884.54
951.314	1690.47
955.786	1601.41
960.255	935.611
964.722	607.819
969.186	209.067
973.647	167.243
978.106	252.018
982.562	62.1348
987.016	196.863
991.467	385.831
995.916	1122.84
1000.36	3633.82
1004.8	3106.69
1009.25	1899.15
1013.68	2696.99
1018.12	4426.97
1022.55	5624.68
1026.98	6484.34
1031.41	6149.96
1035.84	5723.59
1040.26	4938.82
1044.68	3681.75
1049.1	2891.36
1053.52	1957.64
1057.93	1311.59
1062.34	869.269
1066.75	812.904
1071.15	804.064
1075.56	1281.6
1079.96	1819.01
1084.36	1967.01
1088.75	1448.87
1093.14	1133.55
1097.53	1096.02
1101.92	844.188
1106.31	989.271
1110.69	881.387
1115.07	528.007
1119.45	391.126
1123.82	167.718
1128.2	138.06
1132.57	391.153
1136.93	41.9863
1141.3	125.89
1145.66	81.4297
1150.02	131.611
1154.38	11.8037
1158.74	24.5518
1163.09	45.833
1167.44	354.888
1171.79	394.765
1176.13	595.49
1180.48	312.077
1184.82	371.537
1189.15	327.88
1193.49	18.1221
1197.82	4.99121
1202.15	215.682
1206.48	88.6846
1210.81	397.743
1215.13	525.142
1219.45	477.522
1223.77	331.894
1228.08	285.275
1232.4	846.677
1236.71	1085.24
1241.02	1233.84
1245.32	1177.6
1249.62	1408.73
1253.92	1369.16
1258.22	1425.78
1262.52	1981.77
1266.81	2331.89
1271.1	2612.56
1275.39	2297.08
1279.68	2127.66
1283.96	1764.04
1288.24	1866.38
1292.52	2481.08
1296.8	2147.91
1301.07	2252.5
1305.34	2465.43
1309.61	2950.7
1313.88	3067.32
1318.14	3093.29
1322.4	2282.38
1326.66	1629.7
1330.92	870.878
1335.17	568.329
1339.42	333.426
1343.67	441.013
1347.92	630.104
1352.16	396.701
1356.41	326.812
1360.64	103.447
1364.88	289.619
1369.12	352.327
1373.35	683.566
1377.58	875.188
1381.81	1029.53
1386.03	887.944
1390.25	793.793
1394.47	516.565
1398.69	304.349
1402.91	304.979
1407.12	87.9717
1411.33	259.082
1415.54	374.515
1419.74	392.692
1423.95	608.699
1428.15	845.356
1432.35	1535.84
1436.54	2919.09
1440.74	4522.32
1444.93	5543.56
1449.12	6323.95
1453.3	6620.4
1457.49	6293.79
1461.67	5363.12
1465.85	3766.42
1470.02	2878.71
1474.2	2411.23
1478.37	2099.86
1482.54	1750.09
1486.71	1110
1490.87	447.556
1495.03	206.972
1499.19	146.456
1503.35	99.7725
1507.51	26.3018
1511.66	8.80859
1515.81	44.5088
1519.96	360.466
1524.1	464.92
1528.25	370.077
1532.39	645.539
1536.53	620.81
1540.66	416.484
1544.8	323.766
1548.93	294.876
1553.06	375.478
1557.18	8.42188
1561.31	5.91406
