Measurement: Raman, 514 nm, ccw, Raman Data Processed
Mineral: Astrophyllite
Rruff sample: R060202
Ideal chemistry: K_2_NaFe^2+^_7_Ti_2_(Si_4_O_12_)_2_O_2_(OH)_4_F
Locality: Demix Quarry, Mont Saint-Hilaire, Rouville County, Quebec, Canada
Source: Royal Ontario Museum
Description: Aggregate of brown splintered wafers
Measured chemistry: (K_0.56_Na_0.38_Ca_0.06_)_3_(Fe^2+^_0.52_Mn_0.44_Mg_0.04_)_7_(Ti_0.75_Zr_0.15_Al_0.15_)_2_Si_8_O_24_(O_0.27_OH_0.73_)_7_
Pin_id: M00255
Orientation: Laser parallel to (0 1 1). Fiducial mark perpendicular to laser is parallel to a [1 0 0]
Raman shift (cm-1)	intensity
91.012	0
95.948	1060.23
100.883	1879.08
105.815	1209.36
110.744	781.293
115.671	840.244
120.596	1236.15
125.519	1557.17
130.439	1421.92
135.356	1040.21
140.271	587.656
145.184	281.615
150.094	224.81
155.002	270.381
159.908	806.311
164.811	1455.79
169.711	1692.39
174.61	1036.16
179.505	595.15
184.399	243.869
189.29	498.232
194.178	1063.76
199.064	1637.68
203.948	2601.87
208.829	1885.52
213.708	2845.34
218.585	3857.22
223.459	4466.35
228.33	5906.19
233.199	6650.41
238.066	7722.31
242.93	8273.17
247.792	9301.33
252.651	9513.43
257.508	9440.23
262.363	7414.68
267.215	4799.97
272.064	3027.05
276.912	2009.25
281.756	1249.31
286.598	1087.01
291.438	1060.24
296.276	987.244
301.111	976.086
305.943	905.635
310.773	1050.45
315.601	1331.44
320.426	1237.87
325.248	1226.02
330.068	1298.12
334.886	1466.69
339.701	2031.19
344.514	1776.35
349.324	1913.37
354.132	1676.5
358.938	1715.38
363.741	1665.79
368.541	1342.29
373.339	1387.56
378.135	1571.18
382.928	1628.92
387.718	1879.73
392.506	1937.74
397.292	2248.61
402.075	2142.1
406.856	1991.34
411.634	2027.31
416.41	2510.06
421.183	2380.53
425.954	1933.69
430.722	1451.49
435.488	767.062
440.251	299.844
445.012	189.363
449.77	161.971
454.526	66.1445
459.28	348.453
464.03	162.143
468.779	521.182
473.525	480.551
478.268	95.2148
483.009	346.119
487.747	17.2656
492.483	131.576
497.217	99.4121
501.948	113.17
506.676	47.1133
511.402	25.293
516.125	484.545
520.846	40.5449
525.565	129.602
530.281	186.158
534.994	134.539
539.705	432.416
544.413	892.102
549.119	2055.67
553.822	2766.28
558.523	3161.54
563.222	3112.48
567.917	2305.74
572.611	2004.12
577.302	1740.64
581.99	1399.27
586.676	1644.01
591.359	1910.56
596.04	1971.7
600.718	1749.86
605.394	1825.19
610.067	1763.71
614.737	2173.42
619.406	2122.37
624.071	2645.49
628.734	3063.23
633.395	3490.96
638.053	4746.66
642.708	6293.27
647.361	9028.99
652.012	11008.4
656.66	10870.8
661.305	8223.27
665.948	6494.99
670.588	6253.52
675.226	6543.37
679.861	7512.19
684.494	8176.43
689.124	8966.01
693.752	9191.17
698.377	9694.34
702.999	9529.64
707.619	9744.79
712.237	9486.77
716.852	9156.73
721.464	7910.39
726.074	7039.31
730.681	5937.19
735.286	5259.81
739.888	4482.27
744.488	3871.54
749.085	3754.66
753.68	3387.64
758.272	3198.52
762.861	2560.33
767.448	2080.11
772.033	1645.92
776.614	1153.94
781.194	872.576
785.77	881.896
790.345	794.963
794.916	523.957
799.485	562.406
804.052	389.016
808.616	325.793
813.177	86.9453
817.736	88.6992
822.292	312.508
826.846	149.184
831.397	203.133
835.945	132.082
840.491	5.91406
845.035	228.242
849.576	420.633
854.114	752.43
858.65	1356.48
863.183	1334.76
867.713	2290.36
872.241	3060.76
876.767	4062.55
881.29	4915.95
885.81	6751.91
890.328	7329.21
894.843	8801.36
899.356	10528
903.866	11838.9
908.373	13592.2
912.878	14695.2
917.38	15265.6
921.88	15711.3
926.377	15289.5
930.872	14319.9
935.364	13227.6
939.853	11367.7
944.34	9893.12
948.824	8514.72
953.306	6892.78
957.785	5327.72
962.261	4053.64
966.735	2630.36
971.207	1807.96
975.675	1430.12
980.141	990.59
984.605	741.938
989.066	974.621
993.524	840.156
997.98	1004.28
1002.43	1274.99
1006.88	1990.91
1011.33	2266.86
1015.78	3047.06
1020.22	3860.78
1024.66	4253.82
1029.1	4318.22
1033.53	4067.34
1037.97	3474.75
1042.4	2772.44
1046.82	2484.23
1051.25	1604.57
1055.67	1632.66
1060.09	988.965
1064.51	1014.28
1068.92	958.902
1073.33	1251.1
1077.74	624.793
1082.15	961.32
1086.55	1062.61
1090.95	651.254
1095.35	674.938
1099.75	494.07
1104.14	152.644
1108.53	234.836
1112.92	133.789
1117.31	15.6484
1121.69	143.039
1126.07	318.883
1130.45	54.6328
1134.82	145.75
1139.19	65.6797
1143.57	93.9062
1147.93	226.457
1152.3	223.981
1156.66	34.0898
1161.02	32.3789
1165.38	76.3008
1169.73	386.891
1174.08	107.965
1178.43	197.922
1182.78	43.3008
1187.12	54.3203
1191.46	384.785
1195.8	346.535
1200.14	560.684
1204.47	65.2656
1208.8	671.426
1213.13	448.199
1217.46	490.031
1221.78	474.988
1226.1	468.516
1230.42	121.934
1234.73	481.773
1239.04	721.906
1243.35	586.781
1247.66	200.754
1251.97	258.91
1256.27	622.18
1260.57	611.039
1264.86	29.0859
1269.16	387.012
1273.45	498.09
1277.74	443.57
1282.03	479.707
1286.31	643.117
1290.59	451.684
1294.87	330.238
1299.14	307.043
1303.42	332.613
1307.69	812.359
1311.95	570.656
1316.22	262.621
1320.48	272.606
1324.74	431.133
1329	364.918
1333.26	203.981
1337.51	349.859
1341.76	155.66
1346	355.109
1350.25	382.481
1354.49	315.055
1358.73	316.184
1362.96	335.621
1367.2	187.352
1371.43	22.4609
1375.66	435.43
1379.88	386.012
1384.11	87.0312
1388.33	412.75
1392.54	16.4102
1396.76	68.7617
1400.97	224.777
1405.18	178.504
1409.39	178.426
1413.59	77.5039
1417.8	261.133
1421.99	101.074
1426.19	19.6406
1430.38	485.398
1434.58	234.231
1438.77	308.773
1442.95	50.3242
1447.13	1048.57
1451.32	4.375
1455.49	610.496
1459.67	609.957
1463.84	171.012
1468.01	342.066
1472.18	471.824
1476.35	220.59
1480.51	239.043
1484.67	473.082
1488.83	320.66
1492.98	422.945
1497.13	623.016
1501.28	8.48047
1505.43	306.977
1509.57	376.641
1513.71	491.269
1517.85	294.312
1521.99	459.836
1526.12	316.703
1530.25	210.832
1534.38	376.418
1538.5	465.613
1542.62	141.832
1546.74	174.203
1550.86	755.059
1554.98	553.477
1559.09	230.594
1563.2	616.805
1567.31	408.106
1571.41	0
