Measurement: Raman, 514 nm, ccw, Raman Data Processed
Mineral: Astrophyllite
Rruff sample: R060202
Ideal chemistry: K_2_NaFe^2+^_7_Ti_2_(Si_4_O_12_)_2_O_2_(OH)_4_F
Locality: Demix Quarry, Mont Saint-Hilaire, Rouville County, Quebec, Canada
Source: Royal Ontario Museum
Description: Aggregate of brown splintered wafers
Measured chemistry: (K_0.56_Na_0.38_Ca_0.06_)_3_(Fe^2+^_0.52_Mn_0.44_Mg_0.04_)_7_(Ti_0.75_Zr_0.15_Al_0.15_)_2_Si_8_O_24_(O_0.27_OH_0.73_)_7_
Pin_id: M00255
Orientation: Laser parallel to (0 1 1). Fiducial mark perpendicular to laser is parallel to a [1 0 0]
Raman shift (cm-1)	intensity
83.602	0
88.542	1412.4
93.48	1931.66
98.416	1505.18
103.349	697.469
108.28	903.906
113.208	161.506
118.134	2618.51
123.058	983.934
127.979	1236.28
132.898	559.197
137.814	0.457031
142.728	331.303
147.639	745.941
152.549	966.949
157.455	2249.07
162.359	4210.4
167.261	5413.41
172.161	4898.7
177.058	3443.67
181.952	2030.43
186.845	1913.91
191.734	2115.52
196.622	3498.86
201.507	4688.18
206.389	4402.23
211.269	4326.44
216.147	5404.45
221.022	6822.03
225.895	8820.57
230.765	9862.01
235.633	10799.1
240.498	10352.9
245.361	7959.19
250.222	5403.98
255.08	3878.62
259.936	2817.38
264.789	1562.86
269.64	942.652
274.488	536.951
279.334	277.92
284.178	108.928
289.019	158.127
293.857	165.141
298.693	285.537
303.527	26.9238
308.358	104.203
313.187	122.83
318.013	361.775
322.837	546.092
327.659	643.707
332.478	1579.95
337.294	2133.97
342.108	2680.84
346.92	3237.94
351.729	3476.83
356.535	3489.69
361.34	3386.01
366.141	3139.4
370.94	2627.7
375.737	2642.63
380.531	3016.64
385.323	3023.88
390.113	2216.41
394.9	1649.39
399.684	1196.97
404.466	1089.08
409.245	804.668
414.022	513.666
418.797	516.043
423.569	357.775
428.338	96.8106
433.105	145.826
437.87	78.7617
442.632	332.998
447.391	9.4668
452.149	258.277
456.903	555.396
461.655	1560.99
466.405	2026.97
471.152	2299.55
475.897	2022.78
480.639	1519.68
485.378	1422.31
490.116	929.711
494.85	514.93
499.582	193.965
504.312	89.7422
509.039	248.32
513.764	278.66
518.486	137.316
523.206	71.2207
527.923	219.539
532.638	761.031
537.35	1077.65
542.059	2525.44
546.766	4696.47
551.471	7711.84
556.173	9710.19
560.873	9854.83
565.57	7990.98
570.264	6520.65
574.957	5271.69
579.646	4645.6
584.333	4444.56
589.018	4716.02
593.7	4931.81
598.379	4956.27
603.056	5019
607.73	4985.94
612.402	5209.2
617.072	5194.68
621.739	6133.53
626.403	6854.76
631.065	8145.41
635.724	9815.48
640.381	12188
645.035	16947.7
649.687	22490.7
654.336	24845.2
658.983	20631.7
663.627	16893.7
668.268	15815.5
672.907	16821.9
677.544	18814.6
682.178	21029.3
686.809	23122.1
691.438	24800.5
696.065	26076.9
700.688	26881.3
705.31	27626
709.929	27594.5
714.545	26808.6
719.158	25260.7
723.77	22743.1
728.378	19841.7
732.984	17040.6
737.588	14727.2
742.189	12903.5
746.787	11956.5
751.383	10821.2
755.976	10470.5
760.567	9164.55
765.155	7498.21
769.741	6141.53
774.324	5020.5
778.904	4254.13
783.482	3480.47
788.058	2807.03
792.631	2222.36
797.201	1901.38
801.769	1423.05
806.334	911.832
810.897	633.213
815.457	241.088
820.014	208.432
824.569	29.7949
829.122	313.947
833.671	144.367
838.219	307.262
842.763	189.889
847.306	563.959
851.845	385.137
856.382	101.775
860.917	79.5137
865.448	442.75
869.978	540.086
874.505	865.715
879.029	1170.87
883.55	1313.38
888.069	1905.02
892.586	2420.11
897.1	3018.45
901.611	3718.9
906.12	4024.53
910.626	4152.16
915.129	4603.09
919.63	5100.06
924.129	4590.92
928.625	4676.65
933.118	4374.26
937.609	3743.66
942.097	3502.84
946.582	2702.89
951.065	2488.74
955.546	1978.3
960.023	1569.35
964.499	1128.28
968.971	993.664
973.441	731.262
977.909	180.57
982.374	577.062
986.836	369.16
991.295	391.09
995.753	877.43
1000.21	1439.05
1004.66	1588.38
1009.11	2567.09
1013.55	3788.37
1018	5042.57
1022.44	5359.16
1026.88	5776.44
1031.32	5476.32
1035.75	4931.31
1040.18	4299.62
1044.61	3287.99
1049.04	2742.06
1053.46	2441.85
1057.88	1823.59
1062.3	2038.84
1066.71	2008.88
1071.13	1852.65
1075.54	1990.35
1079.94	2164.93
1084.35	1590.18
1088.75	1434.55
1093.15	1165.98
1097.55	1096.89
1101.94	542.445
1106.34	293.238
1110.73	406.531
1115.11	15.1367
1119.5	123.293
1123.88	205.356
1128.26	1.44141
1132.63	161.305
1137.01	127.164
1141.38	39.7969
1145.75	96.1445
1150.12	46.1172
1154.48	211.078
1158.84	16.3242
1163.2	11.7812
1167.55	269.477
1171.91	177.141
1176.26	84.1875
1180.61	37.3398
1184.95	280.039
1189.29	76.4062
1193.63	210.371
1197.97	208.227
1202.31	356.394
1206.64	395.188
1210.97	338.481
1215.29	222.676
1219.62	74.0859
1223.94	332.008
1228.26	499.289
1232.57	132.652
1236.89	368.238
1241.2	469.188
1245.51	475.981
1249.81	332.809
1254.12	540.004
1258.42	485.742
1262.72	494.488
1267.01	510.106
1271.3	298.766
1275.59	392.844
1279.88	442.731
1284.17	267.102
1288.45	619.773
1292.73	464.848
1297.01	514.219
1301.28	263.168
1305.55	397.902
1309.82	318.336
1314.09	397.019
1318.35	436.66
1322.61	349.453
1326.87	213.453
1331.13	215.269
1335.38	454.711
1339.63	28.8477
1343.88	445.836
1348.12	419.519
1352.37	124.34
1356.61	398.746
1360.85	364.219
1365.08	232.621
1369.31	291.469
1373.54	417.996
1377.77	259.519
1381.99	310.535
1386.22	107.562
1390.43	20.5586
1394.65	201.133
1398.87	479.629
1403.08	15.4883
1407.29	44.9453
1411.49	179.375
1415.69	202.328
1419.89	135.184
1424.09	504.25
1428.29	157.457
1432.48	46.957
1436.67	454.164
1440.86	116.816
1445.04	331.586
1449.23	482.207
1453.4	368.871
1457.58	318.352
1461.76	430.68
1465.93	675.391
1470.1	91.4492
1474.26	380.387
1478.43	250.074
1482.59	354.258
1486.75	308.051
1490.9	353.305
1495.06	277.199
1499.21	83.0078
1503.35	403.484
1507.5	274.856
1511.64	410.312
1515.78	117.394
1519.92	209.941
1524.05	467.781
1528.18	358.207
1532.31	471.988
1536.44	293.168
1540.56	180.082
1544.69	453.328
1548.8	415.316
1552.92	280.887
1557.03	364.531
1561.14	390.926
1565.25	130.246
1569.36	537.543
