Measurement: Raman, 514 nm, ccw, Raman Data Processed
Mineral: Astrophyllite
Rruff sample: R060103
Ideal chemistry: K_2_NaFe^2+^_7_Ti_2_(Si_4_O_12_)_2_O_2_(OH)_4_F
Locality: Brivik, Norway
Source: University of Arizona Mineral Museum
Description: Brown fragment embedded in matrix
Measured chemistry: K_2.00_Na_1.00_(Fe^2+^_0.55_Mn_0.32_Fe^3+^_0.04_Mg_0.04_Ca_0.04_)_7_(Ti_0.66_Zr_0.18_Al_0.16_)_2_Si_8.00_O_26_(OH)_4_F_1.00_
Pin_id: M01031
Orientation: Laser parallel to c* (0 0 1). Fiducial mark perpendicular to laser is parallel to a [1 0 0]
Raman shift (cm-1)	intensity
146.465	0
151.398	127.994
156.328	167.675
161.256	424.274
166.18	799.167
171.102	995.504
176.021	962.346
180.937	441.475
185.85	141.726
190.76	98.8066
195.668	107.67
200.572	2.80566
205.474	250.169
210.374	385.036
215.27	761.413
220.163	1277.06
225.054	1614.89
229.942	2505.88
234.827	2840.22
239.709	3411.45
244.589	3687.1
249.465	3953.14
254.339	4514.59
259.21	4620.56
264.079	3728.36
268.944	2577.55
273.807	1359.8
278.667	724.398
283.524	312.709
288.378	16.3076
293.23	71.8623
298.079	23.8584
302.925	84.0498
307.768	184.812
312.609	171.406
317.446	42.5469
322.281	255.468
327.113	195.989
331.943	318.652
336.769	439.582
341.593	674.246
346.414	999.668
351.233	1434.91
356.048	1577.93
360.861	1661.41
365.671	1484.17
370.478	1234.2
375.283	912.141
380.084	825.093
384.883	872.299
389.68	1079.27
394.473	1004.65
399.264	973.549
404.052	1115.98
408.837	1105.6
413.62	1283.4
418.4	1388.48
423.177	1522.44
427.951	1231.54
432.722	932.248
437.491	456.137
442.257	234.164
447.021	42.7295
451.781	12.2432
456.539	122.176
461.294	160.622
466.047	487.212
470.797	595.459
475.544	481.029
480.288	430.857
485.03	569.5
489.768	667.583
494.504	841.878
499.238	892.32
503.969	870.911
508.697	619.657
513.422	235.553
518.144	41.5147
522.864	202.764
527.582	174.335
532.296	205.334
537.008	115.993
541.717	59.0137
546.423	214.802
551.127	857.275
555.828	1537.6
560.526	2101.37
565.222	1911.68
569.915	1347.38
574.605	780.475
579.292	752.998
583.977	724.37
588.659	827.661
593.339	1077.29
598.016	1348.76
602.69	1407.89
607.361	1383.11
612.03	1328.45
616.696	1377.91
621.359	2209.47
626.02	2258.53
630.678	2063.86
635.333	1896.91
639.986	2454.68
644.636	3735.21
649.284	5308.52
653.928	6449.45
658.57	5417.5
663.21	3654.15
667.846	2477.34
672.481	2165.82
677.112	2266.81
681.741	2662.2
686.367	3258.7
690.99	3689.04
695.611	4100.11
700.229	4438.33
704.845	4697.34
709.458	4855.17
714.068	4836.46
718.676	4641.05
723.281	4232
727.883	3729.39
732.483	3048.5
737.08	2392.26
741.674	1759.44
746.266	1477.03
750.855	1327.96
755.442	1110.24
760.025	1052.9
764.607	916.956
769.185	691.393
773.761	697.224
778.335	344.462
782.906	230.114
787.474	233.196
792.039	443.731
796.602	50.8174
801.162	66.2129
805.72	294.549
810.275	576.441
814.828	650.33
819.378	10.541
823.925	147.199
828.47	3.51758
833.012	70.7852
837.551	40.5684
842.088	440.137
846.622	844.434
851.154	1714.59
855.683	2952.81
860.209	3360.47
864.733	2719.61
869.254	1792.23
873.773	1905.41
878.289	2491.54
882.803	2779.28
887.314	3646.59
891.822	4528.36
896.328	5611.56
900.831	6438.19
905.332	7327.26
909.83	8376.75
914.325	9005.65
918.818	9051.97
923.308	8729.68
927.796	8268.8
932.281	7234.13
936.764	6399.95
941.244	5040.47
945.721	4037.84
950.196	3421.12
954.668	2981.29
959.138	1950.66
963.605	1492.88
968.07	880.762
972.532	356.084
976.991	147.459
981.448	56.3887
985.903	40.5176
990.355	154.531
994.804	398.685
999.251	1343.09
1003.7	1645.11
1008.14	781.279
1012.58	876.555
1017.01	1400.15
1021.45	1870.36
1025.88	2175.89
1030.31	1747.56
1034.73	1850.33
1039.16	1343.22
1043.58	827.211
1048	687.287
1052.41	357.44
1056.83	142.664
1061.24	167.945
1065.65	8.33789
1070.05	290.457
1074.46	375.432
1078.86	838.102
1083.26	774.019
1087.65	769.182
1092.05	696.301
1096.44	544.18
1100.83	601.891
1105.21	591.889
1109.6	1024.74
1113.98	1119.44
1118.36	514.471
1122.73	516.363
1127.1	361.258
1131.47	51.9121
1135.84	6.49414
1140.21	73.6465
1144.57	177.519
1148.93	58.1387
1153.29	160.603
1157.65	251.582
1162	333.586
1166.35	266.861
1170.7	295.144
1175.05	234.699
1179.39	154.32
1183.73	361.348
1188.07	164.256
1192.41	65.0859
1196.74	247.213
1201.07	117.606
1205.4	76.9727
1209.72	163.643
1214.05	328.525
1218.37	188.473
1222.69	215.264
1227.01	266.84
1231.32	577.418
1235.63	715.732
1239.94	899.908
1244.24	813.125
1248.55	941.381
1252.85	1012.6
1257.15	815.822
1261.44	1040.57
1265.74	1262.62
1270.03	1456.21
1274.32	1479.03
1278.61	1263.11
1282.89	846.486
1287.17	846.229
1291.45	1131.92
1295.73	1171.56
1300	904.164
1304.27	1015.74
1308.54	1218.27
1312.81	1210.76
1317.08	1208.2
1321.34	1070.08
1325.6	757.852
1329.85	426.338
1334.11	237.633
1338.36	105.221
1342.61	236.572
1346.86	249.578
1351.1	102.328
1355.35	13.8047
1359.59	97.1231
1363.82	116.148
1368.06	235.318
1372.29	362.639
1376.52	475.117
1380.75	298.516
1384.97	347.283
1389.2	398.652
1393.42	410.397
1397.64	157.277
1401.85	185.801
1406.07	345.746
1410.28	327.01
1414.49	334.879
1418.69	157.367
1422.9	366.047
1427.1	610.809
1431.3	1282.97
1435.49	2102.89
1439.69	3372.88
1443.88	4264.15
1448.07	4714.76
1452.26	5046.46
1456.44	5024.67
1460.62	3867.56
1464.8	2746.97
1468.98	2162.2
1473.15	1684.8
1477.33	1392.18
1481.5	1143.48
1485.66	881.195
1489.83	652.922
1493.99	333.852
1498.15	62.2559
1502.31	115.289
1506.47	126.738
1510.62	171.115
1514.77	145.098
1518.92	132.139
1523.07	144.211
1527.21	145.547
1531.35	416.42
1535.49	385.195
1539.63	306.863
1543.76	288.424
1547.9	71.8477
1552.03	361.154
1556.15	101.877
1560.28	325.885
