Measurement: Raman, 514 nm, ccw, Raman Data Processed
Mineral: Astrophyllite
Rruff sample: R060202
Ideal chemistry: K_2_NaFe^2+^_7_Ti_2_(Si_4_O_12_)_2_O_2_(OH)_4_F
Locality: Demix Quarry, Mont Saint-Hilaire, Rouville County, Quebec, Canada
Source: Royal Ontario Museum
Description: Aggregate of brown splintered wafers
Measured chemistry: (K_0.56_Na_0.38_Ca_0.06_)_3_(Fe^2+^_0.52_Mn_0.44_Mg_0.04_)_7_(Ti_0.75_Zr_0.15_Al_0.15_)_2_Si_8_O_24_(O_0.27_OH_0.73_)_7_
Pin_id: M00170
Orientation: Laser parallel to (-1 0 -1). Fiducial mark perpendicular to laser is parallel to -b [0 -1 0]
Raman shift (cm-1)	intensity
118.134	0
123.058	369.647
127.979	5.24805
132.898	415.1
137.814	404.09
142.728	294.385
147.639	970.303
152.549	2705.22
157.455	4720.3
162.359	7800.15
167.261	9823.75
172.161	8648.75
177.058	5582.75
181.952	3214.43
186.845	1898.37
191.734	1504.17
196.622	1574.31
201.507	1859.7
206.389	1764.2
211.269	1888.88
216.147	2395.74
221.022	1919.48
225.895	1503.98
230.765	1358.39
235.633	1233.86
240.498	909.678
245.361	659.277
250.222	631.133
255.08	402.334
259.936	1653.07
264.789	1959.57
269.64	765.318
274.488	732.643
279.334	776.695
284.178	574.279
289.019	764.555
293.857	610.992
298.693	542.9
303.527	658.723
308.358	670.55
313.187	764.292
318.013	797.754
322.837	849.597
327.659	1041.78
332.478	1211.57
337.294	1603.3
342.108	1862.78
346.92	1809.53
351.729	1804.18
356.535	1621.11
361.34	1633.52
366.141	1336.8
370.94	1168.16
375.737	1030.25
380.531	617.731
385.323	537.237
390.113	515.986
394.9	395.537
399.684	488.725
404.466	62.4443
409.245	62.2012
414.022	129.875
418.797	96.6367
423.569	38.3477
428.338	222.405
433.105	38.4424
437.87	183.954
442.632	235.769
447.391	263.472
452.149	398.953
456.903	629.088
461.655	866.174
466.405	781.326
471.152	766.91
475.897	555.859
480.639	600.205
485.378	245.994
490.116	297.232
494.85	190.953
499.582	22.6543
504.312	3.34961
509.039	45.502
513.764	192.315
518.486	272.322
523.206	102.539
527.923	43.1484
532.638	196.352
537.35	239.057
542.059	721.244
546.766	1477.95
551.471	2160.11
556.173	2433.03
560.873	2173.32
565.57	1385.33
570.264	1135.63
574.957	803.799
579.646	1249.4
584.333	1520.06
589.018	1827.29
593.7	2497.27
598.379	2876.28
603.056	3306.55
607.73	3858.32
612.402	4627.69
617.072	5311.35
621.739	5721.96
626.403	6455.86
631.065	7020.28
635.724	7712.7
640.381	9201.26
645.035	10822.9
649.687	12624.9
654.336	13365.6
658.983	12464.1
663.627	11645.2
668.268	12317.5
672.907	13818.7
677.544	15174
682.178	17040.7
686.809	18368.9
691.438	19542.3
696.065	20616.6
700.688	20935.3
705.31	20538.7
709.929	20034.4
714.545	18595.7
719.158	17287
723.77	15571.2
728.378	13945.5
732.984	12073.4
737.588	10923.5
742.189	9913.25
746.787	9637.39
751.383	8835.25
755.976	8780.05
760.567	8508.84
765.155	8012.65
769.741	8169.48
774.324	8193.32
778.904	8389.23
783.482	8474.25
788.058	8357.44
792.631	7667.82
797.201	6594.65
801.769	5136.75
806.334	3843.97
810.897	2648.1
815.457	1904.52
820.014	1229.78
824.569	883.271
829.122	516.484
833.671	327.361
838.219	154.824
842.763	63.6621
847.306	90.668
851.845	305.84
856.382	262.008
860.917	393.758
865.448	273.205
869.978	55.6504
874.505	150.309
879.029	121.439
883.55	516.91
888.069	315.965
892.586	418.904
897.1	373.336
901.611	616.285
906.12	700.732
910.626	902.35
915.129	1200.18
919.63	1120.16
924.129	1444.29
928.625	1353.59
933.118	1702.11
937.609	1730.76
942.097	1796.4
946.582	2019.02
951.065	1795.63
955.546	1750.17
960.023	1860.62
964.499	1551.95
968.971	1851.14
973.441	2126.7
977.909	2303.21
982.374	2956.29
986.836	3423.4
991.295	4193.05
995.753	5393.25
1000.21	6940.54
1004.66	9591.31
1009.11	12647.7
1013.55	17331.7
1018	22781
1022.44	27876.2
1026.88	31790.9
1031.32	33037.8
1035.75	30783.3
1040.18	26524.7
1044.61	20796.4
1049.04	15599
1053.46	11475.7
1057.88	8892.72
1062.3	6916.8
1066.71	6197.64
1071.13	5443.71
1075.54	4987.61
1079.94	4488.82
1084.35	4046.57
1088.75	3716.66
1093.15	3409.72
1097.55	2652.33
1101.94	1902.68
1106.34	1587.42
1110.73	777.15
1115.11	510.984
1119.5	898.453
1123.88	920.631
1128.26	501.512
1132.63	249.307
1137.01	108.969
1141.38	43.2539
1145.75	40.4043
1150.12	47.4648
1154.48	66.9648
1158.84	78.4219
1163.2	238.312
1167.55	161.928
1171.91	142.147
1176.26	154.269
1180.61	405.793
1184.95	290.826
1189.29	101.633
1193.63	51.4824
1197.97	100.117
1202.31	153.674
1206.64	320.508
1210.97	226.981
1215.29	88.6426
1219.62	405.822
1223.94	336.883
1228.26	208.231
1232.57	234.117
1236.89	263.449
1241.2	303.383
1245.51	204.859
1249.81	107.879
1254.12	150.875
1258.42	128.783
1262.72	366.125
1267.01	425.158
1271.3	55.6484
1275.59	0.335938
1279.88	42.4297
1284.17	131.178
1288.45	186.484
1292.73	196.965
1297.01	67.9219
1301.28	333.508
1305.55	195.344
1309.82	288.725
1314.09	102.537
1318.35	160.078
1322.61	85.7344
1326.87	194.244
1331.13	143.897
1335.38	63.9199
1339.63	261.873
1343.88	161.465
1348.12	218.932
1352.37	91.668
1356.61	433.068
1360.85	286.367
1365.08	261.81
1369.31	98.1387
1373.54	99.3711
1377.77	1.45898
1381.99	739.613
1386.22	166.356
1390.43	357.195
1394.65	180.932
1398.87	150.191
1403.08	249.69
1407.29	423.44
1411.49	141.119
1415.69	199.041
1419.89	38.584
1424.09	323.619
1428.29	122.336
1432.48	84.9844
1436.67	29.5098
1440.86	237.58
1445.04	165.268
1449.23	213.75
1453.4	117.549
1457.58	184.701
1461.76	43.4199
1465.93	230.342
1470.1	42.1621
1474.26	50.7715
1478.43	17.3164
1482.59	181.309
1486.75	108.559
1490.9	189.266
1495.06	24.4102
1499.21	70.7598
1503.35	285.566
1507.5	218.734
1511.64	36.6445
1515.78	129.264
1519.92	52.8965
1524.05	78.0371
1528.18	121.176
1532.31	364.102
1536.44	191.426
1540.56	165.111
1544.69	211.717
1548.8	250.424
1552.92	228.16
1557.03	405.978
1561.14	339.467
1565.25	64.9023
1569.36	33.041
