Measurement: Raman, 514 nm, ccw, Raman Data Processed
Mineral: Astrophyllite
Rruff sample: R060103
Ideal chemistry: K_2_NaFe^2+^_7_Ti_2_(Si_4_O_12_)_2_O_2_(OH)_4_F
Locality: Brivik, Norway
Source: University of Arizona Mineral Museum
Description: Brown fragment embedded in matrix
Measured chemistry: K_2.00_Na_1.00_(Fe^2+^_0.55_Mn_0.32_Fe^3+^_0.04_Mg_0.04_Ca_0.04_)_7_(Ti_0.66_Zr_0.18_Al_0.16_)_2_Si_8.00_O_26_(OH)_4_F_1.00_
Pin_id: M01572
Orientation: Laser parallel to (1 1 0). Fiducial mark perpendicular to laser is parallel to c [0 0 1]
Raman shift (cm-1)	intensity
150.165	0
155.096	516.519
160.024	1637.06
164.949	3226.14
169.872	4020.07
174.791	3561.66
179.708	1904.61
184.622	714.692
189.533	83.4385
194.441	122.865
199.347	149.485
204.249	130.573
209.149	179.048
214.046	453.727
218.94	872.769
223.832	1117.49
228.72	1130.81
233.606	1074.81
238.489	1145.45
243.369	1165.96
248.247	975.263
253.121	909.3
257.993	1112.03
262.862	1056.4
267.728	947.168
272.592	902.52
277.452	1074.98
282.31	1045.37
287.165	1131.67
292.017	1458.86
296.867	1727.66
301.714	1694.8
306.558	1607.98
311.399	1332.71
316.237	1481.81
321.073	1137.29
325.906	1070.77
330.736	1150.26
335.563	1353.74
340.387	1665.68
345.209	1927.31
350.028	1792.95
354.844	1649.56
359.658	1436.49
364.469	1228.08
369.277	1224.77
374.082	1262.85
378.884	1269.39
383.684	1164.59
388.481	1068.17
393.275	881.543
398.066	885.935
402.855	831.836
407.641	615.917
412.424	517.12
417.205	399.408
421.983	682.779
426.758	623.244
431.53	287.817
436.299	126.211
441.066	78.7915
445.83	28.2373
450.591	45.1885
455.35	53.4043
460.106	73.5478
464.859	85.8213
469.609	175.097
474.357	137.518
479.102	61.022
483.844	23.6572
488.584	14.4443
493.321	50.5586
498.055	81.8833
502.786	115.92
507.515	97.604
512.241	85.2866
516.964	121.875
521.685	160.468
526.402	52.1372
531.118	66.0107
535.83	68.1216
540.54	250.559
545.247	502.312
549.951	955.403
554.653	1527.86
559.352	1976.69
564.048	1690.97
568.742	1233.77
573.432	800.463
578.121	543.491
582.806	481.336
587.489	472.152
592.169	605.735
596.847	645.288
601.521	754.887
606.193	778.355
610.863	1022.74
615.53	1203.5
620.194	1345.72
624.855	1450.66
629.514	1892.39
634.17	2161.53
638.823	2918.51
643.474	3747.42
648.122	5564.65
652.767	7088.99
657.41	7298.47
662.05	5985.91
666.688	5415.48
671.322	5823.44
675.954	6740.89
680.584	8093.35
685.211	9277.21
689.835	10673.4
694.456	11427.8
699.075	12454.9
703.691	12751
708.305	12967.4
712.916	12811.4
717.524	12141.4
722.13	11140.8
726.733	9824.51
731.333	8628.68
735.931	7437.22
740.526	6378.52
745.118	5731.08
749.708	5348.43
754.295	5003.94
758.88	4803.87
763.462	4598.5
768.041	4454.86
772.618	4444.77
777.192	4528.45
781.763	4409.79
786.332	4403.13
790.898	3765.23
795.462	3312.81
800.023	2667.21
804.581	1904.62
809.137	1411.64
813.69	980.14
818.24	730.081
822.788	475.536
827.334	320.626
831.876	62.4072
836.416	53.9883
840.954	19.9111
845.489	174.092
850.021	219.71
854.551	183.48
859.078	180.367
863.602	23.0186
868.124	138.815
872.644	101.198
877.16	289.742
881.675	434.752
886.186	793.182
890.695	1155.19
895.202	1410.75
899.705	1656.82
904.207	2213.34
908.705	2688.29
913.201	3230.59
917.695	3428.3
922.186	3494.34
926.674	3551.74
931.16	3383.61
935.643	3287.81
940.124	2932.29
944.602	2643.98
949.077	2364.92
953.55	2110.05
958.021	1661.35
962.489	1421.8
966.954	1203.41
971.417	1016.89
975.877	1122.75
980.334	1163.4
984.789	1164.54
989.242	1405.12
993.692	2036.24
998.139	2622.24
1002.58	3506.62
1007.03	4676.29
1011.47	6395.67
1015.9	8728.88
1020.34	11334.6
1024.77	13666.1
1029.2	15333
1033.63	15712.5
1038.05	14522.9
1042.47	12115
1046.89	9626.84
1051.31	6822.26
1055.72	4750
1060.14	3325.6
1064.55	2631.43
1068.95	2017.51
1073.36	1605.95
1077.76	1451.54
1082.16	1324.79
1086.55	1226.9
1090.95	1178.9
1095.34	1310.51
1099.73	1036.29
1104.12	789.129
1108.5	561.039
1112.88	377.969
1117.26	270.532
1121.64	197.303
1126.01	53.21
1130.38	1.91162
1134.75	19.1811
1139.12	102.584
1143.48	12.7588
1147.84	6.86426
1152.2	33.1143
1156.56	13.3813
1160.91	6.34521
1165.27	58.3452
1169.61	46.3608
1173.96	25.1499
1178.31	87.793
1182.65	44.8887
1186.98	1.19727
1191.32	19.0908
1195.66	19.0581
1199.99	114.305
1204.32	42.4214
1208.64	28.1367
1212.97	130.418
1217.29	62.498
1221.61	139.887
1225.93	61.3603
1230.24	106.374
1234.55	194.13
1238.86	85.6431
1243.17	166.793
1247.47	119.543
1251.78	56.8086
1256.07	116.596
1260.37	192.347
1264.67	1.69629
1268.96	82.4097
1273.25	331.461
1277.54	109.852
1281.82	138.787
1286.1	196.12
1290.38	105.493
1294.66	95.9717
1298.93	46.0928
1303.21	71.5034
1307.48	142.598
1311.74	44.6895
1316.01	192.253
1320.27	88.1816
1324.53	116.955
1328.79	42.4023
1333.05	158.69
1337.3	105.763
1341.55	63.0772
1345.8	76.1367
1350.04	30.7197
1354.29	95.1929
1358.53	52.0664
1362.76	27.6489
1367	120.669
1371.23	116.209
1375.46	58.0391
1379.69	72.2676
1383.92	69.3701
1388.14	74.8589
1392.36	110.288
1396.58	32.9946
1400.8	40.0732
1405.01	79.9067
1409.22	15.4707
1413.43	59.1748
1417.64	171.168
1421.85	203.707
1426.05	236.725
1430.25	156.963
1434.44	169.095
1438.64	282.462
1442.83	205.781
1447.02	212.21
1451.21	304.092
1455.39	303.389
1459.58	324.402
1463.76	253.702
1467.94	178.923
1472.11	97.0947
1476.28	143.716
1480.45	185.941
1484.62	106.404
1488.79	93.2656
1492.95	146.315
1497.11	94.29
1501.27	127.326
1505.43	54.7031
1509.58	81.52
1513.73	96.8779
1517.88	66.1724
1522.03	145.989
1526.18	53.1289
1530.32	181.03
1534.46	141.906
1538.6	104.081
1542.73	164.224
1546.86	0.18457
1550.99	201.523
1555.12	226.079
1559.25	51.3237
