Measurement: Raman, 514 nm, ccw, Raman Data Processed
Mineral: Astrophyllite
Rruff sample: R060202
Ideal chemistry: K_2_NaFe^2+^_7_Ti_2_(Si_4_O_12_)_2_O_2_(OH)_4_F
Locality: Demix Quarry, Mont Saint-Hilaire, Rouville County, Quebec, Canada
Source: Royal Ontario Museum
Description: Aggregate of brown splintered wafers
Measured chemistry: (K_0.56_Na_0.38_Ca_0.06_)_3_(Fe^2+^_0.52_Mn_0.44_Mg_0.04_)_7_(Ti_0.75_Zr_0.15_Al_0.15_)_2_Si_8_O_24_(O_0.27_OH_0.73_)_7_
Pin_id: M00255
Orientation: Laser parallel to (0 1 1). Fiducial mark perpendicular to laser is parallel to a [1 0 0]
Raman shift (cm-1)	intensity
86.072	0
91.012	1565.07
95.948	7070.43
100.883	10414.8
105.815	6481.59
110.744	6298.02
115.671	1177.54
120.596	2392.58
125.519	2352.98
130.439	2822.42
135.356	2074.01
140.271	980.574
145.184	457.156
150.094	444.408
155.002	204.299
159.908	1034.78
164.811	2861.77
169.711	3078.06
174.61	1827.88
179.505	548.875
184.399	190.541
189.29	691.242
194.178	1580.48
199.064	3311.72
203.948	5745.36
208.829	5592.85
213.708	8448.84
218.585	11122.1
223.459	12858.3
228.33	14313.2
233.199	14069.5
238.066	12358.5
242.93	9870.51
247.792	7346.79
252.651	5271.47
257.508	4517.03
262.363	3685.57
267.215	2401.58
272.064	1645.78
276.912	1258.15
281.756	1123.88
286.598	1553.45
291.438	2025.2
296.276	2563.84
301.111	3037.92
305.943	3911.12
310.773	4675.81
315.601	5443.39
320.426	5357.19
325.248	5264.75
330.068	5260.61
334.886	5709.95
339.701	6100.3
344.514	5822.13
349.324	5585.85
354.132	5678.56
358.938	5776.41
363.741	5766.73
368.541	6093.09
373.339	5885.19
378.135	5957
382.928	5559.57
387.718	4918
392.506	4093.52
397.292	2972.35
402.075	2025.53
406.856	1527.06
411.634	666.029
416.41	346.402
421.183	286.873
425.954	55.8789
430.722	124.812
435.488	476.322
440.251	397.375
445.012	329.744
449.77	318.652
454.526	72.3379
459.28	187.832
464.03	21.584
468.779	429.809
473.525	522.555
478.268	250.721
483.009	513.598
487.747	312.34
492.483	455.045
497.217	257.418
501.948	715.539
506.676	522.529
511.402	423.406
516.125	73.2012
520.846	301.717
525.565	334.609
530.281	704.481
534.994	1208.64
539.705	2031.19
544.413	3069.35
549.119	5119.35
553.822	6432.89
558.523	7176.15
563.222	6380.62
567.917	5355.99
572.611	4533.65
577.302	4139.04
581.99	3964
586.676	4254.5
591.359	4739.95
596.04	4575.31
600.718	4167.09
605.394	3948.91
610.067	3957.64
614.737	4298.67
619.406	4784.88
624.071	5488.64
628.734	6875.88
633.395	8790.52
638.053	11501.2
642.708	16422.7
647.361	23507.4
652.012	28657
656.66	25396.7
661.305	18711.2
665.948	14416.2
670.588	13501.7
675.226	13578.7
679.861	14226.5
684.494	15593.1
689.124	16698.8
693.752	17265.7
698.377	17636.1
702.999	17815.5
707.619	17882.4
712.237	17856.9
716.852	16931.2
721.464	14638.8
726.074	13052.2
730.681	10518
735.286	9256.2
739.888	8293.84
744.488	7377.43
749.085	6850.65
753.68	6388.4
758.272	5748.65
762.861	5130.43
767.448	4114.67
772.033	3827.36
776.614	2748.48
781.194	2588
785.77	2032.89
790.345	1822.15
794.916	1347.79
799.485	1194.81
804.052	864.156
808.616	344.769
813.177	121.606
817.736	164.391
822.292	99.7227
826.846	438.848
831.397	175.281
835.945	301.062
840.491	248.215
845.035	389.496
849.576	19.5273
854.114	33.918
858.65	515.738
863.183	917.449
867.713	2005.07
872.241	1744.74
876.767	2223.36
881.29	2784.12
885.81	3180.02
890.328	4010.56
894.843	4675.27
899.356	5633.83
903.866	6284.31
908.373	7113.65
912.878	8230.72
917.38	8299.78
921.88	8515.59
926.377	8298.16
930.872	7895.5
935.364	7354.91
939.853	6670.05
944.34	6355.77
948.824	5600.06
953.306	4819.13
957.785	3699.22
962.261	2933.95
966.735	2135.3
971.207	1811.73
975.675	1456.46
980.141	1448.46
984.605	1330.03
989.066	1500.8
993.524	2210.98
997.98	2536.68
1002.43	3881.64
1006.88	5373.96
1011.33	6994.26
1015.78	8842.32
1020.22	11176.1
1024.66	12521.9
1029.1	13951.5
1033.53	12290.7
1037.97	10307
1042.4	8304.02
1046.82	6394.89
1051.25	4644.79
1055.67	3820.5
1060.09	2909.93
1064.51	2404.47
1068.92	2488.94
1073.33	1966.45
1077.74	1870.21
1082.15	2020.72
1086.55	2127.04
1090.95	1950.36
1095.35	1627.14
1099.75	1349.47
1104.14	1104.69
1108.53	581.566
1112.92	388.602
1117.31	519.984
1121.69	273.566
1126.07	295.168
1130.45	185.824
1134.82	149.027
1139.19	238.527
1143.57	59.4805
1147.93	77.5781
1152.3	365.562
1156.66	45.9375
1161.02	137.926
1165.38	186.906
1169.73	6.79297
1174.08	172.281
1178.43	242.531
1182.78	421.691
1187.12	160.484
1191.46	95.1133
1195.8	208.949
1200.14	904.484
1204.47	320.461
1208.8	805.738
1213.13	765.164
1217.46	947.672
1221.78	920.102
1226.1	696.195
1230.42	900.852
1234.73	1331.04
1239.04	667.738
1243.35	865.324
1247.66	486.394
1251.97	19.6484
1256.27	378.684
1260.57	327.027
1264.86	421.031
1269.16	170.488
1273.45	278.07
1277.74	318.102
1282.03	372.898
1286.31	413.074
1290.59	319.359
1294.87	483.18
1299.14	296.019
1303.42	591.008
1307.69	201.707
1311.95	198.695
1316.22	749.266
1320.48	400.41
1324.74	392.184
1329	426.387
1333.26	369.449
1337.51	299.844
1341.76	427.07
1346	640.461
1350.25	1046.33
1354.49	1116.14
1358.73	1247.69
1362.96	588.113
1367.2	948.012
1371.43	942.723
1375.66	835.781
1379.88	414.172
1384.11	308.062
1388.33	302.125
1392.54	344.535
1396.76	333.688
1400.97	115.473
1405.18	375.934
1409.39	244.273
1413.59	356.043
1417.8	1217
1421.99	118.551
1426.19	125.723
1430.38	1825.16
1434.58	342.594
1438.77	23.0469
1442.95	279.844
1447.13	402.758
1451.32	317.57
1455.49	287.586
1459.67	397.676
1463.84	341.098
1468.01	34.1562
1472.18	189.488
1476.35	188.508
1480.51	387.027
1484.67	340.816
1488.83	21.5586
1492.98	232.754
1497.13	332.039
1501.28	137.785
1505.43	350.551
1509.57	285.871
1513.71	285.504
1517.85	200.977
1521.99	398.07
1526.12	18.2695
1530.25	488.188
1534.38	660.394
1538.5	472.797
1542.62	1.46094
