Measurement: Raman, 514 nm, ccw, Raman Data Processed
Mineral: Astrophyllite
Rruff sample: R060202
Ideal chemistry: K_2_NaFe^2+^_7_Ti_2_(Si_4_O_12_)_2_O_2_(OH)_4_F
Locality: Demix Quarry, Mont Saint-Hilaire, Rouville County, Quebec, Canada
Source: Royal Ontario Museum
Description: Aggregate of brown splintered wafers
Measured chemistry: (K_0.56_Na_0.38_Ca_0.06_)_3_(Fe^2+^_0.52_Mn_0.44_Mg_0.04_)_7_(Ti_0.75_Zr_0.15_Al_0.15_)_2_Si_8_O_24_(O_0.27_OH_0.73_)_7_
Pin_id: M00215
Orientation: Laser parallel to (1 1 0). Fiducial mark perpendicular to laser is parallel to -c [0 0 -1]
Raman shift (cm-1)	intensity
79.895	0
84.837	2611.13
89.777	5577.08
94.714	5132.12
99.649	4380.7
104.582	2545.72
109.512	3145.33
114.44	1608.3
119.365	1727.18
124.288	2122.11
129.209	2413.4
134.127	818.312
139.043	262.486
143.956	429.037
148.867	190.969
153.775	884.811
158.681	2574.06
163.585	5146.47
168.486	6744.68
173.385	5739.36
178.282	3879.05
183.176	2224.47
188.067	2072.16
192.956	2740.86
197.843	4238.91
202.727	5952.57
207.609	5021.81
212.489	5092.14
217.366	6129.14
222.24	7640.74
227.112	9396.4
231.982	11492.5
236.849	13443
241.714	13650
246.577	11065.9
251.437	7670.48
256.294	5278.12
261.149	4508.14
266.002	2807.76
270.852	1846.06
275.7	1057.69
280.545	560.33
285.388	60.9258
290.229	204.254
295.067	142.541
299.902	188.359
304.735	27.5742
309.566	235.088
314.394	404.642
319.22	442.604
324.043	845.859
328.864	1124.6
333.682	1578.76
338.498	2246.36
343.311	3008.7
348.122	3680.52
352.931	3918.9
357.737	4274.85
362.54	4416.48
367.341	3971.13
372.14	3332.55
376.936	3254.41
381.73	3788.28
386.521	3712.89
391.31	2937.61
396.096	2375.14
400.88	1983.67
405.661	1595.22
410.44	1276.86
415.216	1155.58
419.99	1165.39
424.761	953.324
429.53	506.046
434.297	134.499
439.061	55.5938
443.822	237.542
448.581	215.068
453.337	238.552
458.091	720.756
462.843	2057
467.592	2875.02
472.338	2992.83
477.082	2481.48
481.824	2208.52
486.563	1906.78
491.3	1269.58
496.034	786.553
500.765	171.742
505.494	14.1914
510.221	336.371
514.945	285.865
519.666	440.607
524.385	157.576
529.102	67.3359
533.816	580.209
538.527	1412.41
543.236	3211.34
547.943	6135.09
552.647	10526
557.348	13091.8
562.047	12324.9
566.744	9989.51
571.438	7224.43
576.129	5460.56
580.818	4631.44
585.504	4179.23
590.188	4486.34
594.87	4829.39
599.549	4809.31
604.225	4941.04
608.899	5152.62
613.57	5533.57
618.239	6268.5
622.905	6925.86
627.569	8099.23
632.23	9333.65
636.889	11238.1
641.545	14723.7
646.198	20659.3
650.849	29602.1
655.498	33359.7
660.144	26445.4
664.787	21327.6
669.428	20254.6
674.067	22335.6
678.703	25410.2
683.336	28518.4
687.967	31465.7
692.595	33881.4
697.221	35227.6
701.844	35933.4
706.465	36174.6
711.083	35462.8
715.698	33652.8
720.311	30909.1
724.922	27120.6
729.53	23378.7
734.135	19376.8
738.738	16240.1
743.338	14472.4
747.936	12918.7
752.531	11756.9
757.124	10806.1
761.714	9781.22
766.302	8263.26
770.887	6935.21
775.469	5733.04
780.049	5208.74
784.626	4917.3
789.201	4339.01
793.773	3586.82
798.343	2780.75
802.91	2122.63
807.475	1497.71
812.037	917.529
816.596	485.982
821.153	1.02539
825.707	98.4727
830.259	262.398
834.808	180.967
839.355	381.693
843.899	383.162
848.441	347.66
852.98	249.764
857.516	22.6348
862.05	240.883
866.581	357.523
871.11	590.416
875.636	1169.69
880.159	1534.44
884.68	2419.5
889.199	3234.98
893.714	3895.77
898.228	4802.84
902.738	5427.27
907.246	6481.76
911.752	7220.33
916.255	8008.94
920.755	8180.54
925.253	9326.09
929.748	8449.57
934.241	7947.03
938.731	7181.52
943.218	5897.74
947.703	5004.66
952.186	3959.27
956.665	3071.09
961.142	2353.91
965.617	1542.14
970.089	1041.16
974.558	819.035
979.025	485.752
983.489	322.266
987.951	143.482
992.41	536.189
996.866	1027.88
1001.32	1321.41
1005.77	2050.74
1010.22	2852.12
1014.67	3952.65
1019.11	5239.63
1023.55	6345.84
1027.99	6924.6
1032.42	7129.9
1036.86	6655.41
1041.29	5459.88
1045.72	4680.59
1050.14	3740.95
1054.56	3045.27
1058.98	2560.53
1063.4	2396.03
1067.82	2437.44
1072.23	2473.72
1076.64	2492.06
1081.05	2585.88
1085.45	2074.19
1089.85	1808.59
1094.25	1547.87
1098.65	1143.89
1103.04	823.922
1107.43	566.924
1111.82	344.924
1116.21	242.367
1120.59	182.844
1124.97	43.0371
1129.35	5.13477
1133.73	59.5977
1138.1	1.19141
1142.47	93.9043
1146.84	48.0605
1151.21	105.086
1155.57	74.6894
1159.93	52.0527
1164.29	89.6094
1168.64	15.8027
1172.99	10.3984
1177.34	35.3086
1181.69	1.5625
1186.04	208.934
1190.38	12.9238
1194.72	173.246
1199.05	241.66
1203.39	90.7559
1207.72	139.332
1212.05	251.731
1216.37	282.793
1220.7	266.633
1225.02	325.461
1229.34	252.164
1233.65	358.053
1237.97	373.779
1242.28	432.902
1246.59	406.08
1250.89	415.562
1255.19	470.932
1259.49	428.695
1263.79	607.281
1268.09	405.238
1272.38	434.928
1276.67	570.643
1280.95	482.022
1285.24	343.545
1289.52	553.336
1293.8	537.231
1298.08	561.381
1302.35	573.889
1306.62	509.408
1310.89	549.027
1315.15	561.119
1319.42	489.496
1323.68	447.803
1327.94	537.834
1332.19	294.408
1336.44	187.795
1340.69	106.59
1344.94	243.201
1349.19	196.129
1353.43	198.719
1357.67	196.566
1361.9	142.236
1366.14	239.652
1370.37	239.928
1374.6	252.227
1378.83	247.998
1383.05	145.394
1387.27	222.506
1391.49	270.219
1395.7	255.574
1399.92	281.836
1404.13	285.043
1408.34	173.303
1412.54	283.871
1416.74	179.416
1420.94	328.549
1425.14	241.863
1429.34	422.66
1433.53	410.486
1437.72	502.51
1441.9	556.109
1446.09	605.266
1450.27	808.246
1454.45	569.766
1458.63	715.779
1462.8	638.58
1466.97	587.33
1471.14	552.574
1475.31	313.654
1479.47	382.621
1483.63	437.715
1487.79	373.428
1491.94	437.59
1496.09	247.668
1500.24	44.2871
1504.39	35.1465
1508.54	113.668
1512.68	238.734
1516.82	204.033
1520.95	188.318
1525.09	86.541
1529.22	188.121
1533.35	97.2812
1537.47	316.533
1541.6	170.826
1545.72	211.443
1549.83	204.332
1553.95	451.727
1558.06	320.217
1562.17	34.8262
1566.28	189.4
1570.38	7.31836
