Measurement: Raman, 514 nm, ccw, Raman Data Processed
Mineral: Astrophyllite
Rruff sample: R060202
Ideal chemistry: K_2_NaFe^2+^_7_Ti_2_(Si_4_O_12_)_2_O_2_(OH)_4_F
Locality: Demix Quarry, Mont Saint-Hilaire, Rouville County, Quebec, Canada
Source: Royal Ontario Museum
Description: Aggregate of brown splintered wafers
Measured chemistry: (K_0.56_Na_0.38_Ca_0.06_)_3_(Fe^2+^_0.52_Mn_0.44_Mg_0.04_)_7_(Ti_0.75_Zr_0.15_Al_0.15_)_2_Si_8_O_24_(O_0.27_OH_0.73_)_7_
Pin_id: M00215
Orientation: Laser parallel to (1 1 0). Fiducial mark perpendicular to laser is parallel to -c [0 0 -1]
Raman shift (cm-1)	intensity
73.714	0
78.659	1005.93
83.602	6057.22
88.542	11637.1
93.48	14033
98.416	16966
103.349	13808.9
108.28	11145.6
113.208	6205
118.134	4755.44
123.058	3610.91
127.979	4241.39
132.898	2444.74
137.814	953.982
142.728	256.519
147.639	482.098
152.549	194.586
157.455	230.836
162.359	1484.62
167.261	2854.02
172.161	3030.3
177.058	1677.14
181.952	768.158
186.845	307.123
191.734	574.25
196.622	1561.52
201.507	3637.58
206.389	3386.59
211.269	5150.74
216.147	8476.91
221.022	11735.5
225.895	13095.9
230.765	15278.6
235.633	16031.1
240.498	14559
245.361	11442
250.222	7827.45
255.08	5993.95
259.936	6108.75
264.789	3482.49
269.64	1734
274.488	649.648
279.334	86.2207
284.178	228.508
289.019	108.93
293.857	12.1328
298.693	340.275
303.527	692.229
308.358	939.432
313.187	1607.38
318.013	2542.24
322.837	3092.92
327.659	3714.76
332.478	3794.34
337.294	4535.11
342.108	5374.48
346.92	5539.62
351.729	4589.52
356.535	4613.86
361.34	4700.03
366.141	4690.21
370.94	4541.55
375.737	4380.62
380.531	4622.05
385.323	4397.26
390.113	3469.14
394.9	2595.56
399.684	2064.4
404.466	1447.58
409.245	1139.11
414.022	1010.9
418.797	976.909
423.569	819.379
428.338	395.336
433.105	188.83
437.87	257.94
442.632	334.638
447.391	393.8
452.149	587.123
456.903	221.971
461.655	68.2842
466.405	138.605
471.152	376.376
475.897	235.72
480.639	317.576
485.378	312.978
490.116	435.08
494.85	504.212
499.582	432.501
504.312	524.98
509.039	903.743
513.764	534.813
518.486	526.2
523.206	420.916
527.923	600.951
532.638	793.372
537.35	2612.24
542.059	2170.64
546.766	4097.06
551.471	6737.86
556.173	8990.56
560.873	8860.34
565.57	7340.41
570.264	5919.16
574.957	4481.9
579.646	3865.64
584.333	3698.02
589.018	4058.28
593.7	4211.09
598.379	3931.28
603.056	3422.44
607.73	3314.83
612.402	3627.6
617.072	3924.41
621.739	4425.6
626.403	5349.33
631.065	6435.28
635.724	8659.85
640.381	12145.8
645.035	18891.8
649.687	29481.2
654.336	36437.1
658.983	28560.5
663.627	18455
668.268	13964.7
672.907	13351.8
677.544	14323.6
682.178	15323.4
686.809	17685.4
691.438	19013.7
696.065	19698.2
700.688	20177.2
705.31	20248.1
709.929	20534
714.545	20732
719.158	18822.3
723.77	16281.2
728.378	13182.4
732.984	10987.2
737.588	8864.64
742.189	7514.54
746.787	6602.14
751.383	5974.69
755.976	5603.99
760.567	5098.11
765.155	4579.04
769.741	4046.66
774.324	3141.84
778.904	3128.57
783.482	2999.84
788.058	2952.61
792.631	2290.89
797.201	1878.65
801.769	1228.91
806.334	713.676
810.897	390.902
815.457	138.574
820.014	44.5918
824.569	208.356
829.122	433.744
833.671	268.435
838.219	353.506
842.763	263.387
847.306	236.742
851.845	139.816
856.382	254.062
860.917	662.574
865.448	951.352
869.978	1597.34
874.505	2269.67
879.029	3277.5
883.55	4216.72
888.069	5197.06
892.586	6238.62
897.1	7446.45
901.611	8894.73
906.12	10569.1
910.626	12028
915.129	13356.2
919.63	14232.5
924.129	14455.4
928.625	14569.6
933.118	13843.4
937.609	12767.3
942.097	10904.1
946.582	9019.87
951.065	7724.61
955.546	6343.43
960.023	4653.23
964.499	3427.83
968.971	2412.41
973.441	1478.69
977.909	1355.86
982.374	1116.91
986.836	1077.12
991.295	1339.25
995.753	1942.51
1000.21	2676.1
1004.66	3514.46
1009.11	4668.07
1013.55	6461.12
1018	8642.18
1022.44	11068
1026.88	12857.8
1031.32	13356.2
1035.75	12539.4
1040.18	10897.1
1044.61	8394.52
1049.04	6473.4
1053.46	5007.19
1057.88	3414.61
1062.3	2656.61
1066.71	2563.61
1071.13	2147.5
1075.54	2190.81
1079.94	2155.94
1084.35	2107.41
1088.75	2204.11
1093.15	2183.36
1097.55	2092.17
1101.94	1582.48
1106.34	990.93
1110.73	758.258
1115.11	475.4
1119.5	202.027
1123.88	284.56
1128.26	137.881
1132.63	14.2988
1137.01	132.109
1141.38	93.5098
1145.75	24.4434
1150.12	22.623
1154.48	102.443
1158.84	1.23047
1163.2	117.861
1167.55	104.357
1171.91	117.463
1176.26	0.710938
1180.61	136.059
1184.95	40.9707
1189.29	53.7246
1193.63	204.598
1197.97	24.0137
1202.31	106.764
1206.64	116.953
1210.97	27.9004
1215.29	30.7227
1219.62	45.959
1223.94	191.832
1228.26	120.438
1232.57	351.232
1236.89	212.639
1241.2	265.658
1245.51	236.734
1249.81	387.275
1254.12	212.326
1258.42	330.764
1262.72	469.264
1267.01	314.838
1271.3	287.19
1275.59	462.76
1279.88	256.873
1284.17	446.674
1288.45	293.461
1292.73	125.193
1297.01	364.498
1301.28	287.441
1305.55	371.834
1309.82	314.883
1314.09	199.81
1318.35	247.853
1322.61	342.717
1326.87	207.512
1331.13	67.5586
1335.38	216.807
1339.63	10.1641
1343.88	181.838
1348.12	36.0059
1352.37	139.252
1356.61	36.9688
1360.85	37.5723
1365.08	47.5039
1369.31	125.478
1373.54	231.016
1377.77	195.06
1381.99	25.7402
1386.22	29.9883
1390.43	91.8477
1394.65	144.156
1398.87	152.451
1403.08	137.072
1407.29	103.926
1411.49	254.873
1415.69	242.303
1419.89	254.381
1424.09	162.935
1428.29	220.309
1432.48	427.826
1436.67	250.971
1440.86	405.779
1445.04	402.014
1449.23	250.99
1453.4	540.443
1457.58	446.688
1461.76	394.125
1465.93	346.522
1470.1	254.953
1474.26	126.228
1478.43	397.475
1482.59	209.178
1486.75	302.68
1490.9	318.08
1495.06	325.174
1499.21	201.371
1503.35	155.121
1507.5	271.062
1511.64	161.982
1515.78	229.478
1519.92	24.9238
1524.05	270.688
1528.18	329.781
1532.31	372.867
1536.44	327.074
1540.56	0
