Measurement: Raman, 514 nm, ccw, Raman Data Processed
Mineral: Astrophyllite
Rruff sample: R060103
Ideal chemistry: K_2_NaFe^2+^_7_Ti_2_(Si_4_O_12_)_2_O_2_(OH)_4_F
Locality: Brivik, Norway
Source: University of Arizona Mineral Museum
Description: Brown fragment embedded in matrix
Measured chemistry: K_2.00_Na_1.00_(Fe^2+^_0.55_Mn_0.32_Fe^3+^_0.04_Mg_0.04_Ca_0.04_)_7_(Ti_0.66_Zr_0.18_Al_0.16_)_2_Si_8.00_O_26_(OH)_4_F_1.00_
Pin_id: M01746
Orientation: Laser parallel to a* (1 0 0). Fiducial mark perpendicular to laser is parallel to b [0 1 0]
Raman shift (cm-1)	intensity
150.165	0
155.096	10.0688
160.024	420.898
164.949	1376.83
169.872	1889.18
174.791	1758.72
179.708	953.683
184.622	361.906
189.533	75.1865
194.441	108.681
199.347	201.706
204.249	363.033
209.149	257.872
214.046	630.779
218.94	1038.15
223.832	1291.43
228.72	1550.07
233.606	1581.96
238.489	1567.14
243.369	1377.95
248.247	989.62
253.121	859.183
257.993	872.979
262.862	938.299
267.728	975.298
272.592	1118.91
277.452	1229.67
282.31	1285.73
287.165	1424.39
292.017	1758.08
296.867	1928.56
301.714	2136.01
306.558	2271.82
311.399	2336.25
316.237	2218.53
321.073	1950.07
325.906	1496.79
330.736	1294.91
335.563	1285.39
340.387	1468.24
345.209	1433.84
350.028	1366.14
354.844	1450.2
359.658	1396.71
364.469	1651.8
369.277	1932.54
374.082	2031
378.884	2213.02
383.684	1984.78
388.481	1875.71
393.275	1752.85
398.066	1656.9
402.855	1332.31
407.641	1091.01
412.424	830.968
417.205	701.176
421.983	783.632
426.758	579.344
431.53	402.333
436.299	290.616
441.066	8.79199
445.83	47.0537
450.591	185.923
455.35	184.215
460.106	38.1089
464.859	32.2656
469.609	157.417
474.357	158.871
479.102	46.6113
483.844	49.5386
488.584	80.6079
493.321	59.8901
498.055	21.3584
502.786	129.005
507.515	11.9624
512.241	27.0156
516.964	12.0552
521.685	61.1606
526.402	62.5376
531.118	73.0254
535.83	9.92529
540.54	187.254
545.247	382.07
549.951	895.396
554.653	1327.25
559.352	1720.66
564.048	1402.69
568.742	1141.64
573.432	962.711
578.121	558.692
582.806	465.24
587.489	688.101
592.169	721.646
596.847	890.08
601.521	813.681
606.193	794.351
610.863	955.386
615.53	1057.92
620.194	1132.32
624.855	1392.13
629.514	1548.28
634.17	1969.02
638.823	2352.38
643.474	3184.39
648.122	4635.6
652.767	6133.66
657.41	6084.87
662.05	4647.1
666.688	3632.13
671.322	3512.97
675.954	3832.23
680.584	4425.06
685.211	5197.45
689.835	5819.12
694.456	6586.08
699.075	7132.33
703.691	7677.11
708.305	8023.44
712.916	8281.1
717.524	8081.41
722.13	7816.9
726.733	7053.62
731.333	6109.95
735.931	5216.72
740.526	4666.97
745.118	4169.77
749.708	3947.92
754.295	3718.35
758.88	3650.09
763.462	3486.2
768.041	3170.69
772.618	2888.54
777.192	2759.78
781.763	2627.39
786.332	2476.34
790.898	2228.05
795.462	1943.77
800.023	1629.32
804.581	1177.49
809.137	1077.16
813.69	667.168
818.24	515.478
822.788	207.076
827.334	82.9546
831.876	72.1108
836.416	37.4609
840.954	131.952
845.489	102.061
850.021	81.9238
854.551	100.582
859.078	76.1943
863.602	46.5273
868.124	71.9688
872.644	233.575
877.16	363.584
881.675	577.99
886.186	665.73
890.695	867.725
895.202	1202.04
899.705	1332.67
904.207	1742.65
908.705	1934.99
913.201	2129.6
917.695	2375.39
922.186	2467.34
926.674	2438.42
931.16	2435.64
935.643	2342.98
940.124	2232.44
944.602	2215.01
949.077	2155.67
953.55	1878.45
958.021	1637.31
962.489	1283.24
966.954	1136.25
971.417	866.4
975.877	810.949
980.334	877.286
984.789	859.102
989.242	1138.25
993.692	1393.61
998.139	1776.6
1002.58	2373.2
1007.03	3213.21
1011.47	4183.77
1015.9	5913.56
1020.34	7536.35
1024.77	9399.36
1029.2	10551.9
1033.63	10838
1038.05	10225.3
1042.47	8535.9
1046.89	6705.76
1051.31	4714.59
1055.72	3460.85
1060.14	2529.98
1064.55	2123.25
1068.95	1751.43
1073.36	1467.07
1077.76	1405.53
1082.16	1355.5
1086.55	1294.01
1090.95	1079.28
1095.34	941.617
1099.73	880.46
1104.12	667.167
1108.5	444.371
1112.88	357.202
1117.26	257.883
1121.64	32.5024
1126.01	72.7095
1130.38	9.12109
1134.75	48.0332
1139.12	30.4209
1143.48	34.479
1147.84	1.88818
1152.2	102.068
1156.56	50.1709
1160.91	1.07519
1165.27	17.3135
1169.61	85.7534
1173.96	31.0395
1178.31	129.152
1182.65	57.7261
1186.98	100.329
1191.32	118.543
1195.66	126.986
1199.99	11.1934
1204.32	93.8667
1208.64	115.528
1212.97	111.232
1217.29	138.035
1221.61	82.4033
1225.93	58.623
1230.24	57.5928
1234.55	175.481
1238.86	99.0303
1243.17	58.251
1247.47	94.3272
1251.78	89.1177
1256.07	154.015
1260.37	49.9131
1264.67	82.1016
1268.96	140.546
1273.25	101.739
1277.54	48.668
1281.82	53.3633
1286.1	201.272
1290.38	46.5669
1294.66	172.781
1298.93	131.21
1303.21	5.75781
1307.48	102.186
1311.74	44.2485
1316.01	109.796
1320.27	18.2056
1324.53	30.1992
1328.79	79.019
1333.05	27.2188
1337.3	121.378
1341.55	90.832
1345.8	31.4517
1350.04	56.1489
1354.29	153.119
1358.53	124.225
1362.76	70.3247
1367	46.4292
1371.23	132.028
1375.46	20.6509
1379.69	12.5928
1383.92	69.1675
1388.14	127.295
1392.36	78.9228
1396.58	149.313
1400.8	114.84
1405.01	78.3833
1409.22	160.975
1413.43	122.941
1417.64	26.4746
1421.85	131.917
1426.05	161.645
1430.25	172.425
1434.44	180.141
1438.64	174.886
1442.83	238.092
1447.02	186.25
1451.21	133.14
1455.39	225.369
1459.58	242.222
1463.76	94.1025
1467.94	235.441
1472.11	155.233
1476.28	208.791
1480.45	171.297
1484.62	121.815
1488.79	129.341
1492.95	80.9277
1497.11	151.66
1501.27	121.009
1505.43	129.929
1509.58	34.2241
1513.73	111.977
1517.88	69.2402
1522.03	88.1963
1526.18	69.75
1530.32	54.1435
1534.46	140.356
1538.6	141.947
1542.73	45.6929
1546.86	27.5581
