Measurement: Raman, 514 nm, ccw, Raman Data Processed
Mineral: Astrophyllite
Rruff sample: R060202
Ideal chemistry: K_2_NaFe^2+^_7_Ti_2_(Si_4_O_12_)_2_O_2_(OH)_4_F
Locality: Demix Quarry, Mont Saint-Hilaire, Rouville County, Quebec, Canada
Source: Royal Ontario Museum
Description: Aggregate of brown splintered wafers
Measured chemistry: (K_0.56_Na_0.38_Ca_0.06_)_3_(Fe^2+^_0.52_Mn_0.44_Mg_0.04_)_7_(Ti_0.75_Zr_0.15_Al_0.15_)_2_Si_8_O_24_(O_0.27_OH_0.73_)_7_
Pin_id: M00260
Orientation: Laser parallel to -b* (0 -1 0). Fiducial mark perpendicular to laser is parallel to c [0 0 1]
Raman shift (cm-1)	intensity
143.956	0
148.867	582.049
153.775	1095.91
158.681	1898.12
163.585	2662.52
168.486	1722.3
173.385	969.973
178.282	298.256
183.176	68.5742
188.067	828.676
192.956	2206.25
197.843	3012.83
202.727	2874.25
207.609	3009.51
212.489	3917.94
217.366	5325.46
222.24	6991.49
227.112	9011.77
231.982	10936.6
236.849	11615.7
241.714	11711
246.577	12396.1
251.437	12136
256.294	11151.8
261.149	6494.85
266.002	4255.47
270.852	2213.18
275.7	1157.3
280.545	228.898
285.388	6.05664
290.229	88.9004
295.067	115
299.902	77.1211
304.735	33.5664
309.566	27.3809
314.394	146.414
319.22	42.5234
324.043	165.346
328.864	472.617
333.682	1059.55
338.498	1621.78
343.311	2015.98
348.122	2378.12
352.931	2592.59
357.737	2669.16
362.54	2189.11
367.341	1999.34
372.14	2263.18
376.936	2651.6
381.73	2823.33
386.521	2828.92
391.31	2927.37
396.096	3060.4
400.88	3289.24
405.661	3464.83
410.44	3786.09
415.216	3850.05
419.99	3408.78
424.761	2518.59
429.53	1545.03
434.297	850.334
439.061	259.459
443.822	232.783
448.581	228.664
453.337	611.625
458.091	1060.25
462.843	1281.88
467.592	1338.32
472.338	1296.79
477.082	930.676
481.824	1036.52
486.563	589.34
491.3	285.174
496.034	122.967
500.765	51.3887
505.494	133.58
510.221	303.41
514.945	306.897
519.666	113.123
524.385	32.7383
529.102	272.914
533.816	919.908
538.527	2187.6
543.236	4370.56
547.943	6854.15
552.647	8293.86
557.348	7317.65
562.047	5901.8
566.744	4481.5
571.438	3259.11
576.129	2813.65
580.818	2726.32
585.504	2665.45
590.188	2502.5
594.87	2592.15
599.549	2769.3
604.225	2568.74
608.899	3062.47
613.57	3464.31
618.239	4030.17
622.905	4670.08
627.569	5640.04
632.23	7402.87
636.889	10075
641.545	14514.5
646.198	19973.4
650.849	20218.6
655.498	16366
660.144	14006.2
664.787	13025.8
669.428	13975.8
674.067	16114.2
678.703	18472.6
683.336	20109.9
687.967	21673.6
692.595	22330.8
697.221	23373.3
701.844	23200.5
706.465	22550
711.083	21508.8
715.698	19615.9
720.311	16833.3
724.922	14311.2
729.53	12295.7
734.135	10122.1
738.738	8931.11
743.338	8104.69
747.936	7239.52
752.531	6858.6
757.124	5829.93
761.714	4881.52
766.302	4265.37
770.887	3759.51
775.469	3112
780.049	3008.93
784.626	2493.74
789.201	2157.9
793.773	1768.87
798.343	1081.62
802.91	599.93
807.475	204.885
812.037	106.738
816.596	16.1484
821.153	125.838
825.707	330.627
830.259	354.344
834.808	341.885
839.355	103.422
843.899	140.019
848.441	340.559
852.98	746.602
857.516	1330.79
862.05	2350.54
866.581	2933.99
871.11	4159.77
875.636	5599.9
880.159	6957.62
884.68	8819.82
889.199	10871.3
893.714	12817.1
898.228	15052.3
902.738	17353.3
907.246	19470.5
911.752	21485
916.255	22480.8
920.755	22689.2
925.253	22200.1
929.748	21075.5
934.241	18451.1
938.731	15235.7
943.218	12258.7
947.703	9543.07
952.186	7585.98
956.665	5051.36
961.142	3372.98
965.617	2462.31
970.089	1435.41
974.558	651.672
979.025	596.453
983.489	545.455
987.951	452.822
992.41	839.781
996.866	1055.03
1001.32	1486.2
1005.77	2242.27
1010.22	3273.77
1014.67	4186.74
1019.11	4978.38
1023.55	5363.16
1027.99	5227.24
1032.42	5044.93
1036.86	4850.3
1041.29	3483.59
1045.72	2652.26
1050.14	2096.38
1054.56	1648.62
1058.98	1514.92
1063.4	1536.76
1067.82	1374.87
1072.23	1519.13
1076.64	1494.99
1081.05	1467.69
1085.45	1154.87
1089.85	1110.15
1094.25	876.389
1098.65	779.945
1103.04	410.055
1107.43	259.99
1111.82	294.863
1116.21	93.4336
1120.59	125.328
1124.97	60.4629
1129.35	177.207
1133.73	207.441
1138.1	0.134766
1142.47	143.424
1146.84	11.9199
1151.21	36.2871
1155.57	112.732
1159.93	77.7812
1164.29	83.1133
1168.64	56.7969
1172.99	54.2422
1177.34	105.436
1181.69	32.9512
1186.04	73.7637
1190.38	32.7266
1194.72	257.344
1199.05	326.174
1203.39	1.83203
1207.72	223.254
1212.05	169.188
1216.37	375.484
1220.7	486.443
1225.02	251.522
1229.34	400.117
1233.65	367.662
1237.97	591.975
1242.28	440.484
1246.59	743.408
1250.89	516.519
1255.19	369.322
1259.49	529.516
1263.79	426.545
1268.09	491.807
1272.38	443.295
1276.67	418.176
1280.95	189.889
1285.24	424.201
1289.52	502.342
1293.8	239.334
1298.08	316.148
1302.35	580.223
1306.62	230.984
1310.89	250.289
1315.15	122.848
1319.42	48.8516
1323.68	206.981
1327.94	11.752
1332.19	367.457
1336.44	193.744
1340.69	194.863
1344.94	0.203125
1349.19	242.619
1353.43	24.459
1357.67	67.8281
1361.9	141.428
1366.14	212.916
1370.37	223.539
1374.6	252.488
1378.83	242.617
1383.05	384.086
1387.27	360.074
1391.49	383.424
1395.7	149.705
1399.92	283.627
1404.13	9.26172
1408.34	34.3848
1412.54	126.947
1416.74	133.281
1420.94	219.69
1425.14	128.469
1429.34	208.07
1433.53	409.35
1437.72	284.764
1441.9	751.617
1446.09	493.807
1450.27	690.479
1454.45	517.09
1458.63	725.492
1462.8	689.394
1466.97	668.576
1471.14	547.789
1475.31	404.127
1479.47	387.236
1483.63	538.738
1487.79	385.053
1491.94	447.246
1496.09	169.688
1500.24	139.359
1504.39	134.023
1508.54	264.106
1512.68	64.6211
1516.82	165.305
1520.95	10.6992
1525.09	180.945
1529.22	187.734
1533.35	206.586
1537.47	398.07
1541.6	182.453
1545.72	254.805
1549.83	362.082
1553.95	169.363
1558.06	366.215
1562.17	373.957
1566.28	1.33594
1570.38	0
