Measurement: Raman, 514 nm, ccw, Raman Data Processed
Mineral: Astrophyllite
Rruff sample: R060103
Ideal chemistry: K_2_NaFe^2+^_7_Ti_2_(Si_4_O_12_)_2_O_2_(OH)_4_F
Locality: Brivik, Norway
Source: University of Arizona Mineral Museum
Description: Brown fragment embedded in matrix
Measured chemistry: K_2.00_Na_1.00_(Fe^2+^_0.55_Mn_0.32_Fe^3+^_0.04_Mg_0.04_Ca_0.04_)_7_(Ti_0.66_Zr_0.18_Al_0.16_)_2_Si_8.00_O_26_(OH)_4_F_1.00_
Pin_id: M01031
Orientation: Laser parallel to c* (0 0 1). Fiducial mark perpendicular to laser is parallel to a [1 0 0]
Raman shift (cm-1)	intensity
152.631	0
157.56	124.06
162.487	778.555
167.411	1447.62
172.332	1654.91
177.25	1078.39
182.165	366.404
187.078	134.524
191.987	256.762
196.894	217.399
201.798	781.414
206.699	821.247
211.598	918.033
216.493	1413.54
221.386	2117.59
226.276	3024.41
231.163	4054.86
236.048	4482.13
240.929	4505.87
245.808	3707.37
250.684	2866.88
255.557	1995.56
260.428	1464.95
265.295	1070.96
270.16	729.218
275.022	334.627
279.882	185.436
284.738	9.45117
289.592	277.567
294.443	42.1348
299.291	53.3984
304.136	210.467
308.978	366.179
313.818	312.25
318.655	385.905
323.489	415.457
328.321	738.741
333.15	799.899
337.976	1116.92
342.799	1613.86
347.619	2049.31
352.437	2263.44
357.252	2684.39
362.064	2463.17
366.873	2376.57
371.68	1748.56
376.483	1518.97
381.284	1547.43
386.083	1784.31
390.878	1684.82
395.671	1159.43
400.461	802.619
405.249	532.14
410.033	395.897
414.815	257.828
419.594	298.829
424.37	256.832
429.144	179.246
433.915	160.298
438.683	0.397461
443.448	47.0625
448.211	24.0039
452.971	18.8896
457.728	328.784
462.483	568.017
467.235	914.452
471.984	1141.96
476.73	1010.34
481.474	874.645
486.214	903.443
490.953	811.791
495.688	824.732
500.421	741.316
505.151	624.588
509.878	406.603
514.603	101.436
519.325	152.018
524.044	141.804
528.76	133.15
533.474	172.12
538.185	39.9336
542.894	253.561
547.599	905.649
552.302	2420.59
557.003	3962.77
561.7	4533.66
566.395	3844.91
571.087	2795.5
575.777	1776.12
580.464	1290.72
585.148	1414.6
589.829	1529.89
594.508	1717.62
599.184	2024.73
603.858	1906.34
608.528	1689.27
613.197	1901.41
617.862	2689.78
622.525	3855.39
627.185	4044.28
631.842	3281.5
636.497	3555.09
641.149	5016.1
645.798	7073.57
650.445	9618.53
655.089	11379.9
659.73	8998.29
664.369	5986.7
669.005	5016.39
673.639	4770.98
678.269	5520.81
682.898	6369.05
687.523	7527.63
692.146	8990.78
696.766	9912.72
701.384	10469.4
705.998	10949.8
710.611	11085.8
715.22	11011.2
719.827	10578.2
724.431	9591.05
729.033	8386.27
733.632	6664.03
738.229	5294.2
742.822	4358.44
747.413	3648.71
752.002	3546.01
756.588	3157.33
761.171	2775.7
765.752	2305.1
770.33	1968.17
774.905	1455.02
779.478	1219.52
784.048	1165.04
788.615	1007.59
793.18	844.156
797.742	710.934
802.302	436.432
806.859	361.75
811.414	477.871
815.965	166.555
820.515	288.834
825.061	217.492
829.605	13.5508
834.147	12.1523
838.686	248.816
843.222	589.469
847.755	1360.85
852.286	2380
856.815	3695.9
861.341	3784.72
865.864	2391.05
870.384	1428.83
874.902	1197.08
879.418	1111.99
883.931	1114.57
888.441	1250.93
892.949	1669.89
897.454	1974.19
901.956	2202.78
906.456	2275.63
910.954	2428.72
915.448	2129.02
919.941	2067.52
924.43	2029.18
928.917	1924.97
933.402	1913.11
937.884	1352.34
942.363	1045.65
946.84	879.141
951.314	1015.81
955.786	868.162
960.255	421.242
964.722	268.228
969.186	231.881
973.647	97.0156
978.106	381.102
982.562	10.2852
987.016	279.928
991.467	232.824
995.916	1181.63
1000.36	3537.16
1004.8	2352.76
1009.25	1148.83
1013.68	1485.81
1018.12	2427.41
1022.55	2922.55
1026.98	2849.5
1031.41	2625.52
1035.84	2042.24
1040.26	1896.65
1044.68	1386.75
1049.1	1247.54
1053.52	816.006
1057.93	657.15
1062.34	645.367
1066.75	715.969
1071.15	875.111
1075.56	1181.87
1079.96	1525.19
1084.36	1810.29
1088.75	1360.19
1093.14	1127.46
1097.53	1065.86
1101.92	1113.17
1106.31	1126.57
1110.69	1263.19
1115.07	824.369
1119.45	882.326
1123.82	503.092
1128.2	350.344
1132.57	241.463
1136.93	51.459
1141.3	9.23633
1145.66	53.3223
1150.02	71.2715
1154.38	15.7715
1158.74	111.275
1163.09	387.398
1167.44	376.19
1171.79	322.082
1176.13	440.945
1180.48	296.795
1184.82	197.644
1189.15	38.5
1193.49	56.7188
1197.82	92.7031
1202.15	60.832
1206.48	158.424
1210.81	354.514
1215.13	255.305
1219.45	483.883
1223.77	296.875
1228.08	445.297
1232.4	985.514
1236.71	1079.16
1241.02	986.191
1245.32	1034.8
1249.62	1137.04
1253.92	973.512
1258.22	1148.21
1262.52	1512.39
1266.81	1787.16
1271.1	1863.07
1275.39	2058.59
1279.68	1384.11
1283.96	1294.12
1288.24	1223.15
1292.52	1772.49
1296.8	1788.15
1301.07	1548.1
1305.34	1744.36
1309.61	2053.9
1313.88	1827.75
1318.14	2255.91
1322.4	1637.89
1326.66	982.729
1330.92	680.043
1335.17	375.074
1339.42	363.643
1343.67	57.9609
1347.92	328.871
1352.16	51.1621
1356.41	204.867
1360.64	19.0176
1364.88	273.627
1369.12	137.988
1373.35	617.189
1377.58	460.129
1381.81	835.316
1386.03	585.914
1390.25	781.744
1394.47	259.816
1398.69	253.959
1402.91	339.344
1407.12	438.641
1411.33	346.879
1415.54	171.457
1419.74	97.7773
1423.95	557.014
1428.15	897.738
1432.35	1761.05
1436.54	2951.35
1440.74	4418.98
1444.93	5390.52
1449.12	5968.72
1453.3	6263.3
1457.49	5962.04
1461.67	4778.47
1465.85	3460.39
1470.02	2553.08
1474.2	2327.53
1478.37	1987.83
1482.54	1725.11
1486.71	871.916
1490.87	581.215
1495.03	266.248
1499.19	187.029
1503.35	45.4453
1507.51	36.1289
1511.66	107.514
1515.81	154.535
1519.96	8.73828
1524.1	367.356
1528.25	652.736
1532.39	402.203
1536.53	632.484
1540.66	405.033
1544.8	312.154
1548.93	50.0488
1553.06	359.426
1557.18	12.8965
1561.31	0.980469
