Measurement: Raman, 514 nm, ccw, Raman Data Processed
Mineral: Astrophyllite
Rruff sample: R060103
Ideal chemistry: K_2_NaFe^2+^_7_Ti_2_(Si_4_O_12_)_2_O_2_(OH)_4_F
Locality: Brivik, Norway
Source: University of Arizona Mineral Museum
Description: Brown fragment embedded in matrix
Measured chemistry: K_2.00_Na_1.00_(Fe^2+^_0.55_Mn_0.32_Fe^3+^_0.04_Mg_0.04_Ca_0.04_)_7_(Ti_0.66_Zr_0.18_Al_0.16_)_2_Si_8.00_O_26_(OH)_4_F_1.00_
Pin_id: M01746
Orientation: Laser parallel to a* (1 0 0). Fiducial mark perpendicular to laser is parallel to b [0 1 0]
Raman shift (cm-1)	intensity
143.998	0
148.932	53.416
153.864	144.531
158.792	461.408
163.718	1019.44
168.641	1354.37
173.562	1428.55
178.479	853.644
183.394	449.06
188.305	160.994
193.214	229.291
198.12	549.121
203.024	1172.96
207.924	1478.81
212.822	2502.93
217.717	3678.81
222.609	4850.28
227.498	5743.15
232.385	6163.74
237.269	5885.63
242.149	5085.39
247.027	4076.81
251.903	3115.98
256.775	2629
261.645	2124.94
266.512	1559.88
271.376	984.769
276.237	664.574
281.096	504.315
285.952	449
290.805	353.707
295.655	514.767
300.502	584.434
305.347	722.277
310.189	1030.44
315.028	1196.5
319.864	1482.66
324.698	1684.31
329.528	1802.59
334.356	1786.26
339.182	2169.46
344.004	2427.01
348.824	2419.22
353.641	2087.03
358.455	1904.42
363.266	1932.34
368.075	1990.77
372.881	1942.02
377.684	2113.39
382.484	2128.08
387.282	1827.77
392.077	1537.78
396.869	1204.77
401.658	930.003
406.445	748.506
411.229	767.293
416.01	560.38
420.788	679.563
425.564	564.557
430.337	385.701
435.107	135.235
439.875	124.025
444.639	158.144
449.401	301.127
454.161	265.52
458.917	23.8901
463.671	14.6914
468.422	146.881
473.17	88.1929
477.916	217.909
482.659	300.084
487.399	285.457
492.137	376.921
496.872	338.615
501.604	342.841
506.333	297.616
511.06	210.954
515.784	134.865
520.505	76.3618
525.223	57.4419
529.939	160.128
534.652	253.474
539.363	495.506
544.07	981.247
548.775	1733.85
553.478	2865.4
558.177	3729.03
562.874	3683.12
567.568	2890.82
572.26	2149.64
576.949	1566.32
581.635	1237.97
586.319	1312.01
590.999	1319.98
595.677	1260.62
600.353	1126.65
605.026	949.449
609.696	909.827
614.363	944.886
619.028	1145.86
623.69	1363.88
628.349	1704.46
633.006	2482.39
637.66	3594.66
642.311	5611.3
646.96	9002.31
651.606	12359.7
656.25	13085
660.89	9933.76
665.528	6513.97
670.164	5306.86
674.797	4965.33
679.427	5624.24
684.054	6381.97
688.679	7206.41
693.301	7821.77
697.921	8365.15
702.537	8609.63
707.152	9203.15
711.763	9385.68
716.372	9315.91
720.978	8252.49
725.582	7195.42
730.183	6173.88
734.781	5051.08
739.377	4264.67
743.97	3769.2
748.561	3296.39
753.149	3097.97
757.734	2885.83
762.316	2640.97
766.896	2449.35
771.474	2181.98
776.048	1947.5
780.62	1768.42
785.19	1698.27
789.757	1437.81
794.321	1157.13
798.883	914.51
803.442	577.676
807.998	356.032
812.552	273.556
817.103	63.2363
821.652	50.2852
826.198	31.3926
830.741	77.0718
835.282	160.461
839.82	179.167
844.355	179.346
848.888	190.748
853.419	6.68115
857.946	50.8433
862.472	140.035
866.994	340.296
871.514	520.611
876.032	796.047
880.546	1242.6
885.059	1587.18
889.568	1975.7
894.075	2375.19
898.58	2771.69
903.082	3159.26
907.581	3638.81
912.078	4098.43
916.572	4542.02
921.063	4528.57
925.552	4456.88
930.039	4121.06
934.523	3843.95
939.004	3302.26
943.483	2823.44
947.959	2589.5
952.432	2246.43
956.903	1918.36
961.372	1358.16
965.838	1013.81
970.301	801.028
974.762	712.574
979.22	604.618
983.676	404.323
988.129	477.502
992.58	666.116
997.028	898.448
1001.47	1202.84
1005.92	1477.9
1010.36	2116.31
1014.79	2855.46
1019.23	3817.2
1023.66	4582.13
1028.09	5017.35
1032.52	5275.13
1036.94	5062.81
1041.37	4351.84
1045.79	3432.25
1050.2	2582.8
1054.62	1918.27
1059.03	1403.5
1063.44	1219.32
1067.85	1034.29
1072.26	896.076
1076.66	903.435
1081.06	844.62
1085.45	784.811
1089.85	800.815
1094.24	738.323
1098.63	683.998
1103.02	572.915
1107.4	359.377
1111.79	285.492
1116.17	205.032
1120.54	28.4658
1124.92	18.5376
1129.29	5.56836
1133.66	34.5024
1138.03	100.822
1142.39	4.48291
1146.75	9.1831
1151.11	49.626
1155.47	47.9727
1159.83	50.9268
1164.18	19.9443
1168.53	14.9082
1172.87	10.8726
1177.22	55.3008
1181.56	22.4932
1185.9	48.3423
1190.24	10.7026
1194.57	0.558105
1198.9	79.5264
1203.23	79.5439
1207.56	33.1455
1211.89	166.577
1216.21	42.6367
1220.53	69.4331
1224.85	75.125
1229.16	99.5864
1233.47	90.9038
1237.78	136.95
1242.09	170.622
1246.4	76.2647
1250.7	35.4126
1255	81.8042
1259.3	145.291
1263.59	64.7305
1267.88	76.7866
1272.17	79.4741
1276.46	140.901
1280.75	100.323
1285.03	132.277
1289.31	38.4331
1293.59	162.262
1297.87	112.932
1302.14	206.903
1306.41	101.203
1310.68	90.5337
1314.94	126.98
1319.21	61.8262
1323.47	160.712
1327.72	49.0503
1331.98	13.0488
1336.23	77.9858
1340.49	151.483
1344.73	75.1856
1348.98	93.2925
1353.22	60.7163
1357.47	58.0469
1361.7	54.3052
1365.94	69.6567
1370.17	122.861
1374.41	112.977
1378.64	71.3013
1382.86	124.67
1387.09	52.6221
1391.31	86.2329
1395.53	142.138
1399.75	140.024
1403.96	118.373
1408.17	33.2842
1412.38	89.1694
1416.59	142.342
1420.8	69.2974
1425	156.425
1429.2	83.7842
1433.4	86.2642
1437.59	88.8936
1441.78	202.524
1445.97	142.719
1450.16	234.153
1454.35	194.071
1458.53	258.151
1462.71	275.062
1466.89	201.724
1471.07	207.927
1475.24	94.8618
1479.41	117.091
1483.58	96.7378
1487.75	65.333
1491.91	166.049
1496.07	89.1509
1500.23	58.605
1504.39	38.5078
1508.55	134.73
1512.7	21.3975
1516.85	74.9106
1520.99	81.2481
1525.14	139.654
1529.28	147.49
1533.42	117.389
1537.56	86.4136
1541.7	128.258
1545.83	0
