Measurement: Raman, 514 nm, ccw, Raman Data Processed
Mineral: Astrophyllite
Rruff sample: R060202
Ideal chemistry: K_2_NaFe^2+^_7_Ti_2_(Si_4_O_12_)_2_O_2_(OH)_4_F
Locality: Demix Quarry, Mont Saint-Hilaire, Rouville County, Quebec, Canada
Source: Royal Ontario Museum
Description: Aggregate of brown splintered wafers
Measured chemistry: (K_0.56_Na_0.38_Ca_0.06_)_3_(Fe^2+^_0.52_Mn_0.44_Mg_0.04_)_7_(Ti_0.75_Zr_0.15_Al_0.15_)_2_Si_8_O_24_(O_0.27_OH_0.73_)_7_
Pin_id: M00260
Orientation: Laser parallel to -b* (0 -1 0). Fiducial mark perpendicular to laser is parallel to c [0 0 1]
Raman shift (cm-1)	intensity
143.956	0
148.867	605.371
153.775	2200.23
158.681	3291.19
163.585	4093.2
168.486	3111.55
173.385	1727
178.282	561.088
183.176	771.342
188.067	1162.22
192.956	3010.89
197.843	4295.15
202.727	4031.18
207.609	4093.93
212.489	5326.06
217.366	7171.36
222.24	9342.15
227.112	11691.4
231.982	12579
236.849	12017
241.714	9438.1
246.577	7068.68
251.437	4975.23
256.294	4685.25
261.149	2607.74
266.002	1871.67
270.852	965.586
275.7	515.402
280.545	78.4727
285.388	268.447
290.229	439.637
295.067	348.709
299.902	184.41
304.735	2.87402
309.566	117.358
314.394	540.824
319.22	527.933
324.043	1047.44
328.864	1510.87
333.682	2234.16
338.498	3136.47
343.311	3547.22
348.122	4299.74
352.931	4436.73
357.737	4282.56
362.54	3825.59
367.341	3508.41
372.14	3580.73
376.936	3818.6
381.73	3605.28
386.521	3160.5
391.31	2579.62
396.096	2202.85
400.88	1712.15
405.661	1537.45
410.44	1509.52
415.216	1269.28
419.99	912.036
424.761	854.773
429.53	378.214
434.297	61.3994
439.061	85.5947
443.822	39.0029
448.581	454.725
453.337	1029.83
458.091	2125.15
462.843	2759.86
467.592	2726.27
472.338	2469.69
477.082	2151.56
481.824	1714
486.563	1289.07
491.3	745.856
496.034	171.424
500.765	124.269
505.494	299.065
510.221	515.49
514.945	407.723
519.666	66.4297
524.385	30.9902
529.102	631.613
533.816	1425.84
538.527	3457.77
543.236	6695.45
547.943	10333.2
552.647	12344.7
557.348	11580.2
562.047	9136.74
566.744	7091.2
571.438	5359.55
576.129	4413.88
580.818	4233
585.504	4254.18
590.188	4313.58
594.87	4538.73
599.549	4551.13
604.225	4677.86
608.899	4975.42
613.57	5644.77
618.239	6400.94
622.905	7500.98
627.569	9048.91
632.23	10892.8
636.889	14811.5
641.545	21128.4
646.198	28686.9
650.849	29694.6
655.498	24555.9
660.144	21144.5
664.787	20171.4
669.428	22128.2
674.067	25193.5
678.703	28234.3
683.336	30966.8
687.967	33124.5
692.595	34451.8
697.221	34993.4
701.844	35201.2
706.465	34177.3
711.083	32715.2
715.698	29731.9
720.311	26553
724.922	22456.3
729.53	19026.7
734.135	16002.5
738.738	14223.5
743.338	12617.6
747.936	11776.6
752.531	10385.5
757.124	9433.12
761.714	7987.58
766.302	6739.84
770.887	6015.87
775.469	5530.67
780.049	5052.34
784.626	4542.45
789.201	3865.9
793.773	2919.06
798.343	2088.72
802.91	1427.2
807.475	982.029
812.037	484.4
816.596	175.268
821.153	113.404
825.707	243.486
830.259	264.236
834.808	270.09
839.355	294.492
843.899	310.781
848.441	205.746
852.98	257.82
857.516	223.578
862.05	222.76
866.581	663.029
871.11	957.637
875.636	1740.51
880.159	2243.97
884.68	2856.78
889.199	3448.31
893.714	4295.27
898.228	5183.78
902.738	5885.3
907.246	6557.86
911.752	7171.49
916.255	7676.5
920.755	7850.67
925.253	7653.58
929.748	7356.34
934.241	6311.99
938.731	5528.48
943.218	4446.79
947.703	3687.76
952.186	2870.35
956.665	2057.55
961.142	1422.58
965.617	976.195
970.089	499.699
974.558	266.102
979.025	220.029
983.489	458.139
987.951	627.135
992.41	716.102
996.866	1231.26
1001.32	1981.1
1005.77	2674.19
1010.22	3545.52
1014.67	4758.29
1019.11	5567.6
1023.55	6341.75
1027.99	6457.86
1032.42	5982.43
1036.86	5108.07
1041.29	4062.97
1045.72	3254.08
1050.14	2866.84
1054.56	2482.84
1058.98	2063.32
1063.4	2208.05
1067.82	2203.98
1072.23	2250.44
1076.64	2118.38
1081.05	1949.35
1085.45	1785.83
1089.85	1596.66
1094.25	1110.28
1098.65	854.74
1103.04	565.029
1107.43	478.619
1111.82	212.568
1116.21	265.545
1120.59	144.33
1124.97	262.738
1129.35	67.5606
1133.73	65.1367
1138.1	77.6484
1142.47	61.8359
1146.84	27.1582
1151.21	69.2207
1155.57	162.967
1159.93	73.3887
1164.29	223.332
1168.64	31.1895
1172.99	25.5215
1177.34	161.203
1181.69	10.7637
1186.04	111.566
1190.38	179.949
1194.72	306.42
1199.05	19.2832
1203.39	24.1777
1207.72	322.76
1212.05	152.027
1216.37	176.703
1220.7	194.33
1225.02	190.461
1229.34	259.365
1233.65	191.678
1237.97	347.055
1242.28	429.119
1246.59	396.166
1250.89	384.096
1255.19	332.816
1259.49	266.922
1263.79	541.109
1268.09	358.42
1272.38	542.432
1276.67	606.092
1280.95	448.133
1285.24	357.553
1289.52	292.375
1293.8	466.346
1298.08	368.785
1302.35	478.721
1306.62	414.754
1310.89	280.842
1315.15	381.42
1319.42	560.611
1323.68	362.629
1327.94	274.826
1332.19	328.092
1336.44	308.857
1340.69	84.0723
1344.94	220.619
1349.19	298.496
1353.43	38.5312
1357.67	128.566
1361.9	46.5098
1366.14	1.28125
1370.37	14.002
1374.6	289.668
1378.83	96.7598
1383.05	24.3848
1387.27	204.949
1391.49	14.9043
1395.7	141.074
1399.92	48.2363
1404.13	21.7227
1408.34	213.016
1412.54	82.0684
1416.74	256.609
1420.94	154.963
1425.14	64.5
1429.34	167.535
1433.53	419.16
1437.72	389.961
1441.9	785.547
1446.09	599.111
1450.27	887.066
1454.45	879.955
1458.63	758.992
1462.8	639.334
1466.97	644.879
1471.14	709.676
1475.31	587.383
1479.47	567.769
1483.63	600.305
1487.79	338.475
1491.94	216.228
1496.09	174.211
1500.24	281.066
1504.39	118.008
1508.54	113.856
1512.68	0.486328
1516.82	217.547
1520.95	67.2227
1525.09	186.897
1529.22	162.84
1533.35	196.293
1537.47	50.1309
1541.6	250.435
1545.72	93.3164
1549.83	156.258
1553.95	145.715
1558.06	287.109
1562.17	173.918
1566.28	79.2246
1570.38	0
