Measurement: Raman, 514 nm, ccw, Raman Data Processed
Mineral: Astrophyllite
Rruff sample: R060202
Ideal chemistry: K_2_NaFe^2+^_7_Ti_2_(Si_4_O_12_)_2_O_2_(OH)_4_F
Locality: Demix Quarry, Mont Saint-Hilaire, Rouville County, Quebec, Canada
Source: Royal Ontario Museum
Description: Aggregate of brown splintered wafers
Measured chemistry: (K_0.56_Na_0.38_Ca_0.06_)_3_(Fe^2+^_0.52_Mn_0.44_Mg_0.04_)_7_(Ti_0.75_Zr_0.15_Al_0.15_)_2_Si_8_O_24_(O_0.27_OH_0.73_)_7_
Pin_id: M00495
Orientation: Laser parallel to c* (0 0 1). Fiducial mark perpendicular to laser is parallel to a [1 0 0]
Raman shift (cm-1)	intensity
147.639	0
152.549	1373.89
157.455	1002.88
162.359	1620.33
167.261	2215.36
172.161	2382.24
177.058	1166.07
181.952	492.871
186.845	805.434
191.734	1850.21
196.622	2849.61
201.507	4242.32
206.389	2450.11
211.269	2654.99
216.147	3648.66
221.022	5083.35
225.895	6398.05
230.765	8886.04
235.633	9711.15
240.498	11597.5
245.361	11997
250.222	12335.2
255.08	12398
259.936	11231.8
264.789	7874.97
269.64	4633.32
274.488	2884.74
279.334	1613.84
284.178	327.648
289.019	53.7852
293.857	134.852
298.693	147.91
303.527	48.3945
308.358	41.7969
313.187	314.707
318.013	71.4883
322.837	1.39062
327.659	89.8164
332.478	308.25
337.294	551.625
342.108	940.473
346.92	1225.44
351.729	1660.76
356.535	1655
361.34	1762.52
366.141	1425.98
370.94	1672.18
375.737	1516.82
380.531	1881.21
385.323	1949.5
390.113	2403.89
394.9	2501.02
399.684	2799.52
404.466	2855.42
409.245	3143.72
414.022	3190.34
418.797	3149.31
423.569	3144.65
428.338	2307.15
433.105	1807.64
437.87	858.434
442.632	515.008
447.391	139.273
452.149	370.898
456.903	416.586
461.655	648.957
466.405	829.766
471.152	866.027
475.897	520.375
480.639	489.269
485.378	282.625
490.116	324.449
494.85	107.746
499.582	289.422
504.312	9.48047
509.039	214.137
513.764	390.047
518.486	123.051
523.206	339.148
527.923	75.6094
532.638	78.5195
537.35	652.598
542.059	1433.1
546.766	2846.57
551.471	4238.41
556.173	5252.16
560.873	5427.84
565.57	4426.72
570.264	3509.59
574.957	2793.94
579.646	2381.32
584.333	2095.3
589.018	2074.5
593.7	1926.13
598.379	2028.37
603.056	1951.28
607.73	2055.56
612.402	2477.32
617.072	2413.28
621.739	3104.34
626.403	3417.48
631.065	4162.71
635.724	5317.94
640.381	7449.32
645.035	10256.3
649.687	13485
654.336	14355.6
658.983	13487.9
663.627	10042.8
668.268	9135.9
672.907	9207.97
677.544	10405.5
682.178	11054.5
686.809	12304
691.438	13499.8
696.065	13733.6
700.688	14225
705.31	14417.3
709.929	14432.8
714.545	13525
719.158	12748.5
723.77	11230.1
728.378	10107.2
732.984	8431.62
737.588	7031.31
742.189	6384.11
746.787	5561.02
751.383	5272.99
755.976	4743.08
760.567	4244.27
765.155	3646.59
769.741	3047.02
774.324	2687.61
778.904	1854.41
783.482	1794.41
788.058	1315.8
792.631	1117.82
797.201	683.941
801.769	786.141
806.334	438.578
810.897	22.7188
815.457	58.5156
820.014	447.496
824.569	322.137
829.122	147.367
833.671	269.387
838.219	54.3281
842.763	44.7305
847.306	204.898
851.845	649.301
856.382	1004
860.917	2009.02
865.448	2541.38
869.978	3661.06
874.505	5032.13
879.029	6643.72
883.55	8131.72
888.069	9628.12
892.586	11844.1
897.1	13730.6
901.611	15836.6
906.12	17796.1
910.626	19563.2
915.129	20926.7
919.63	21253.2
924.129	21011.4
928.625	20294.2
933.118	18760.8
937.609	16903.4
942.097	14367.9
946.582	12045
951.065	9882.58
955.546	7789.9
960.023	5998.69
964.499	4207.25
968.971	2725.7
973.441	1940.66
977.909	1432.92
982.374	1021.72
986.836	1107.23
991.295	987.426
995.753	1326.52
1000.21	1642.46
1004.66	1990.16
1009.11	2519.19
1013.55	3229.48
1018	3922.05
1022.44	4853.9
1026.88	4726.02
1031.32	5107.72
1035.75	4774.85
1040.18	3977.23
1044.61	3542.2
1049.04	2781.08
1053.46	2327.72
1057.88	2026.46
1062.3	1935.64
1066.71	1849.46
1071.13	2114.24
1075.54	1988.3
1079.94	1951.08
1084.35	2015.08
1088.75	1620.59
1093.15	1430.56
1097.55	1432.34
1101.94	1141.71
1106.34	881.648
1110.73	736.375
1115.11	465.207
1119.5	339.566
1123.88	23.1367
1128.26	236.344
1132.63	266.707
1137.01	45.5312
1141.38	173.141
1145.75	42.4219
1150.12	321.5
1154.48	127.93
1158.84	90.9375
1163.2	12.4844
1167.55	24.875
1171.91	4.21484
1176.26	114.891
1180.61	116.688
1184.95	141.519
1189.29	23.7109
1193.63	86.1758
1197.97	70.4453
1202.31	251.324
1206.64	4.67969
1210.97	132.727
1215.29	19.2734
1219.62	31.2891
1223.94	303.988
1228.26	99.9609
1232.57	1.70703
1236.89	286.113
1241.2	275.348
1245.51	214.398
1249.81	43.6211
1254.12	236.121
1258.42	321.789
1262.72	241.426
1267.01	462.644
1271.3	427.09
1275.59	284.551
1279.88	150.07
1284.17	318.812
1288.45	536.156
1292.73	396.816
1297.01	314.332
1301.28	301.074
1305.55	382.297
1309.82	383.043
1314.09	205.512
1318.35	552.231
1322.61	649.188
1326.87	311.941
1331.13	141.43
1335.38	321.805
1339.63	441.41
1343.88	79.6016
1348.12	245.375
1352.37	433.394
1356.61	339.016
1360.85	224.832
1365.08	552.777
1369.31	325.137
1373.54	272.426
1377.77	227.199
1381.99	319.242
1386.22	353.371
1390.43	308.609
1394.65	6.55078
1398.87	508.863
1403.08	247.508
1407.29	255.672
1411.49	500.769
1415.69	141.394
1419.89	415.07
1424.09	361.867
1428.29	52.6719
1432.48	297
1436.67	93.3438
1440.86	444.793
1445.04	246.109
1449.23	291.785
1453.4	339.027
1457.58	372.289
1461.76	292.648
1465.93	299.644
1470.1	165.18
1474.26	215.867
1478.43	326.297
1482.59	447.312
1486.75	222.695
1490.9	300.629
1495.06	347.562
1499.21	167.922
1503.35	363.312
1507.5	2.45312
1511.64	237.648
1515.78	77.7578
1519.92	285.375
1524.05	213.059
1528.18	240.453
