Measurement: Raman, 514 nm, ccw, Raman Data Processed
Mineral: Astrophyllite
Rruff sample: R060103
Ideal chemistry: K_2_NaFe^2+^_7_Ti_2_(Si_4_O_12_)_2_O_2_(OH)_4_F
Locality: Brivik, Norway
Source: University of Arizona Mineral Museum
Description: Brown fragment embedded in matrix
Measured chemistry: K_2.00_Na_1.00_(Fe^2+^_0.55_Mn_0.32_Fe^3+^_0.04_Mg_0.04_Ca_0.04_)_7_(Ti_0.66_Zr_0.18_Al_0.16_)_2_Si_8.00_O_26_(OH)_4_F_1.00_
Pin_id: M01690
Orientation: Laser parallel to (0 1 1). Fiducial mark perpendicular to laser is parallel to a [1 0 0]
Raman shift (cm-1)	intensity
146.465	0
151.398	140.2
156.328	523.625
161.256	1068.75
166.18	1789.78
171.102	1793.82
176.021	1285.64
180.937	661.014
185.85	309.106
190.76	234.972
195.668	554.903
200.572	1103.45
205.474	1257.32
210.374	1770.6
215.27	2000.69
220.163	2535
225.054	3252.55
229.942	3984.43
234.827	4487.31
239.709	4632.33
244.589	3918.53
249.465	2793.18
254.339	1752.19
259.21	1338.8
264.079	694.145
268.944	556.548
273.807	536.985
278.667	239.573
283.524	93.3418
288.378	125.801
293.23	13.6514
298.079	129.707
302.925	9.79541
307.768	99.9839
312.609	75.8813
317.446	129.254
322.281	62.9155
327.113	124.481
331.943	444.346
336.769	684.299
341.593	1232.19
346.414	1603.06
351.233	1868.93
356.048	2055.84
360.861	2048.52
365.671	1695.51
370.478	1565.51
375.283	1389.5
380.084	1514.8
384.883	1700.01
389.68	1435.48
394.473	1159.65
399.264	927.415
404.052	717.179
408.837	602.917
413.62	525.57
418.4	565.106
423.177	566.544
427.951	393.914
432.722	199.053
437.491	81.9448
442.257	53.7261
447.021	123.154
451.781	14.1948
456.539	210.015
461.294	443.513
466.047	758.34
470.797	1017.38
475.544	1031.56
480.288	971.802
485.03	865.144
489.768	830.606
494.504	510.212
499.238	362.987
503.969	65.9453
508.697	65.0122
513.422	126.023
518.144	60.0259
522.864	260.228
527.582	234.167
532.296	44.3931
537.008	173.124
541.717	634.109
546.423	1452.61
551.127	2874.67
555.828	4637.31
560.526	5488.58
565.222	4797.51
569.915	3481.29
574.605	2350.79
579.292	1755.88
583.977	1341.37
588.659	1415.58
593.339	1339.24
598.016	1380.71
602.69	1219.47
607.361	1226.62
612.03	1280.01
616.696	1548.61
621.359	1737.41
626.02	2103.45
630.678	2640.77
635.333	3524.39
639.986	4826.34
644.636	6860.88
649.284	9839.17
653.928	12113.7
658.57	11348.9
663.21	8567.56
667.846	7161
672.481	7129.21
677.112	8262.38
681.741	9388.33
686.367	10927.1
690.99	12226.6
695.611	13347
700.229	14108.3
704.845	14578.8
709.458	14837.8
714.068	14343.5
718.676	13625.9
723.281	12246.1
727.883	10463.1
732.483	8738.62
737.08	7249.18
741.674	5977.85
746.266	5242.34
750.855	4739.78
755.442	4337.99
760.025	3884.97
764.607	3426.72
769.185	2963.22
773.761	2593.49
778.335	2553.51
782.906	2115.29
787.474	1958.89
792.039	1740.5
796.602	1602.53
801.162	1256.12
805.72	1023.47
810.275	770.261
814.828	504.929
819.378	445.25
823.925	344.203
828.47	147.216
833.012	127.35
837.551	101.967
842.088	57.7685
846.622	9.43359
851.154	0.324219
855.683	56.9863
860.209	20.4951
864.733	79.7529
869.254	218.299
873.773	165.856
878.289	19.5195
882.803	64.7334
887.314	245.241
891.822	518.95
896.328	936.736
900.831	981.827
905.332	1446.14
909.83	1786.7
914.325	2048.34
918.818	2267.04
923.308	2158.77
927.796	1977.52
932.281	1865.24
936.764	1618.36
941.244	1304.58
945.721	1074.18
950.196	632.639
954.668	601.924
959.138	163.019
963.605	99.9092
968.07	84.5508
972.532	0.213867
976.991	28.1279
981.448	37.5176
985.903	33.3818
990.355	207.901
994.804	532.643
999.251	1224.95
1003.7	1437.54
1008.14	997.996
1012.58	1010.1
1017.01	1397.05
1021.45	1947.31
1025.88	1943.64
1030.31	2256.6
1034.73	2258.55
1039.16	1938.46
1043.58	1725.58
1048	1320.92
1052.41	1085.96
1056.83	870.701
1061.24	732.135
1065.65	740.264
1070.05	712.919
1074.46	680.309
1078.86	783.626
1083.26	903.505
1087.65	628.069
1092.05	547.321
1096.44	655.958
1100.83	504.664
1105.21	809.096
1109.6	1109.79
1113.98	994.637
1118.36	510.052
1122.73	252.329
1127.1	192.065
1131.47	157.712
1135.84	80.6045
1140.21	21.9834
1144.57	120.608
1148.93	25.0244
1153.29	178.999
1157.65	58.8428
1162	134.52
1166.35	41.0117
1170.7	63.8613
1175.05	144.406
1179.39	366.804
1183.73	683.068
1188.07	570.203
1192.41	279.214
1196.74	96.1045
1201.07	85.8545
1205.4	48.3252
1209.72	165.622
1214.05	344.806
1218.37	536.895
1222.69	722.898
1227.01	782.106
1231.32	733.793
1235.63	727.838
1239.94	722.505
1244.24	732.957
1248.55	719.703
1252.85	846.363
1257.15	698.608
1261.44	692.831
1265.74	550.081
1270.03	577.659
1274.32	522.308
1278.61	735.13
1282.89	742.049
1287.17	859.591
1291.45	832.18
1295.73	773.539
1300	610.425
1304.27	525.426
1308.54	611.82
1312.81	512.167
1317.08	414.485
1321.34	221.793
1325.6	256.091
1329.85	172.556
1334.11	99.8877
1338.36	103.058
1342.61	273.134
1346.86	104.102
1351.1	88.9736
1355.35	80.7422
1359.59	76.6856
1363.82	0.754883
1368.06	155.188
1372.29	111.527
1376.52	30.7529
1380.75	37.916
1384.97	67.0391
1389.2	91.1035
1393.42	98.0205
1397.64	33.1719
1401.85	44.8389
1406.07	181.569
1410.28	89.3467
1414.49	185.606
1418.69	172.265
1422.9	267.412
1427.1	407.62
1431.3	390.076
1435.49	565.075
1439.69	882.034
1443.88	987.873
1448.07	1092.51
1452.26	990.374
1456.44	1113.29
1460.62	841.938
1464.8	739.089
1468.98	642.186
1473.15	476.887
1477.33	529.342
1481.5	361.958
1485.66	282.978
1489.83	167.12
1493.99	86.1455
1498.15	227.032
1502.31	144.841
1506.47	67.374
1510.62	38.4502
1514.77	125.485
1518.92	65.3125
1523.07	52.0908
1527.21	6.10156
1531.35	125.847
1535.49	146.398
1539.63	25.4619
1543.76	132.763
1547.9	62.415
1552.03	145.894
1556.15	199.883
1560.28	59.831
