Measurement: Raman, 514 nm, ccw, Raman Data Processed
Mineral: Astrophyllite
Rruff sample: R060202
Ideal chemistry: K_2_NaFe^2+^_7_Ti_2_(Si_4_O_12_)_2_O_2_(OH)_4_F
Locality: Demix Quarry, Mont Saint-Hilaire, Rouville County, Quebec, Canada
Source: Royal Ontario Museum
Description: Aggregate of brown splintered wafers
Measured chemistry: (K_0.56_Na_0.38_Ca_0.06_)_3_(Fe^2+^_0.52_Mn_0.44_Mg_0.04_)_7_(Ti_0.75_Zr_0.15_Al_0.15_)_2_Si_8_O_24_(O_0.27_OH_0.73_)_7_
Pin_id: M00349
Orientation: Laser parallel to a* (1 0 0). Fiducial mark perpendicular to laser is parallel to b [0 1 0]
Raman shift (cm-1)	intensity
121.827	0
126.749	438.059
131.668	1977.91
136.585	2241.03
141.5	595.689
146.412	159.025
151.321	644.811
156.229	1968.9
161.134	3857.28
166.036	5882.13
170.936	6108.05
175.834	3676.4
180.729	1718.05
185.622	1022.47
190.512	1345.25
195.4	1674.29
200.286	2051.82
205.169	1543.07
210.049	1097.83
214.928	1807.84
219.803	1916.29
224.677	2219.49
229.548	2377.29
234.416	2717.91
239.282	3052.26
244.146	3068.59
249.007	2931.53
253.866	2865.12
258.722	2906.63
263.576	2050.9
268.427	1903.01
273.276	1744.56
278.123	1834
282.967	1736
287.809	1987.65
292.648	2162.05
297.485	2043.7
302.319	2159.73
307.151	2457.17
311.98	2610.88
316.807	2404.72
321.631	2396.8
326.454	2605.2
331.273	2677.5
336.09	3078.76
340.905	3149.63
345.717	3421.25
350.527	3309.99
355.334	3189.5
360.139	3293.26
364.941	2908.26
369.741	2893.55
374.538	2461.43
379.333	2577.3
384.126	2123.93
388.916	2426.35
393.703	2614.57
398.488	2392.45
403.271	1712.08
408.051	1218.87
412.828	1151.85
417.603	853.141
422.376	700.764
427.146	621.725
431.914	137.981
436.679	76.7617
441.442	117.312
446.202	56.3984
450.96	71.2598
455.715	2.14258
460.467	122.406
465.218	83.7227
469.965	273.701
474.711	179.102
479.454	201.357
484.194	2.41602
488.932	70.7148
493.667	324.33
498.4	28.0527
503.13	106.107
507.858	185.58
512.583	128.592
517.306	123.051
522.026	10.7148
526.744	19.3672
531.459	80.0391
536.172	463.869
540.882	757.088
545.59	1661.21
550.295	2151.99
554.998	2661.82
559.698	2043.82
564.396	2223.43
569.091	1922.04
573.784	1823.98
578.474	1837.17
583.162	1896.04
587.847	2224.73
592.529	2416.7
597.209	2498.35
601.887	3027.88
606.562	3210.17
611.235	3363.95
615.905	3868.12
620.572	4351.42
625.237	4637.28
629.9	5263.4
634.56	6147.6
639.217	7066.03
643.872	9204.44
648.524	11331.9
653.174	11875
657.821	10697.8
662.466	9443.31
667.108	9374.44
671.748	10042.4
676.385	10923.9
681.02	11986.6
685.652	12753.4
690.281	13327.3
694.908	14001.6
699.533	13969
704.155	14257.4
708.774	13801.5
713.391	13017
718.005	11891.6
722.617	11048.6
727.226	9674.78
731.833	8704.73
736.437	7494.11
741.039	7040.82
745.638	6576.91
750.234	6638.27
754.828	6335.8
759.419	5940.61
764.008	5593.78
768.595	5408.47
773.178	5088.72
777.759	4857.04
782.338	4853.34
786.914	4430.64
791.488	4046
796.059	3177.39
800.627	2359.36
805.193	1723.73
809.756	1070.44
814.317	759.434
818.875	723.602
823.431	177.945
827.984	12.4336
832.534	116.223
837.082	179.164
841.627	379.137
846.17	384.512
850.71	197.312
855.248	309.715
859.783	182.106
864.316	130.438
868.846	568.785
873.373	630.371
877.898	851.277
882.42	1504.92
886.94	1939.12
891.457	2339.74
895.971	2767.95
900.483	3371.51
904.993	4139.23
909.5	4462.14
914.004	5093.55
918.505	5359.11
923.004	5504.02
927.501	5526.95
931.995	5614.91
936.486	5016.85
940.975	4809.82
945.461	4461.75
949.945	3859.62
954.426	3328.55
958.904	2509.4
963.38	2281.33
967.853	1657.12
972.324	1559.32
976.792	1431.03
981.258	1990.38
985.72	1788.67
990.181	2628.11
994.639	3653.07
999.094	4599.95
1003.55	6282.69
1008	8291.67
1012.44	11174.8
1016.89	14616.8
1021.33	16619.9
1025.77	18220.7
1030.21	18307.5
1034.64	16395.7
1039.07	13383.2
1043.5	10763.3
1047.93	8008.92
1052.35	6290
1056.78	4817.12
1061.19	4372.24
1065.61	3273.35
1070.02	3186.69
1074.43	2896.27
1078.84	2574.76
1083.25	2391.49
1087.65	2258.54
1092.05	1794.82
1096.45	1694.42
1100.85	1166.39
1105.24	702.965
1109.63	425.641
1114.02	446.805
1118.4	55.6758
1122.78	305.109
1127.16	220.023
1131.54	202.359
1135.92	260.004
1140.29	180.586
1144.66	183.129
1149.02	81.8711
1153.39	259.352
1157.75	190.391
1162.11	181.688
1166.46	108.684
1170.82	300
1175.17	7.57812
1179.52	82.6016
1183.86	23.0781
1188.21	244.953
1192.55	86.5781
1196.89	240.812
1201.22	12.457
1205.55	269.609
1209.88	467.769
1214.21	123.168
1218.54	201.676
1222.86	262.512
1227.18	443.641
1231.5	632.004
1235.81	112.762
1240.12	183.731
1244.43	516.258
1248.74	366.324
1253.04	137.078
1257.34	200.055
1261.64	576.902
1265.94	484.848
1270.23	329.273
1274.52	104.516
1278.81	225.137
1283.1	134.305
1287.38	472.266
1291.66	439.227
1295.94	15.5664
1300.21	666.41
1304.48	24.8828
1308.75	140.523
1313.02	123.195
1317.29	295.5
1321.55	323.93
1325.81	329.016
1330.06	642.106
1334.32	548.637
1338.57	320.906
1342.82	439.348
1347.06	249.16
1351.31	597.75
1355.55	346.859
1359.79	465.816
1364.02	541.711
1368.26	318.785
1372.49	456.238
1376.71	371.746
1380.94	648.922
1385.16	317.07
1389.38	298.844
1393.6	330.012
1397.81	64.4961
1402.02	334
1406.23	62.543
1410.44	204.844
1414.64	83.2969
1418.85	357.231
1423.04	370.715
1427.24	299.707
1431.43	347.016
1435.62	313.981
1439.81	278.84
1444	436.969
1448.18	339.668
1452.36	64.4648
1456.54	210.195
1460.71	365.106
1464.89	172.793
1469.06	462.133
1473.22	225.84
1477.39	503.535
1481.55	336.809
1485.71	374.109
1489.86	298.547
1494.02	84.293
1498.17	133.258
1502.32	165.57
1506.46	289.359
1510.61	443.586
1514.75	408.465
1518.88	218.57
1523.02	366.512
1527.15	80.3516
1531.28	207.051
1535.41	173.035
1539.53	188.262
1543.66	304.234
1547.78	361.188
1551.89	564.371
1556.01	702.66
1560.12	57.0703
1564.23	389.731
1568.33	274.191
