Measurement: Raman, 514 nm, ccw, Raman Data Processed
Mineral: Astrophyllite
Rruff sample: R060103
Ideal chemistry: K_2_NaFe^2+^_7_Ti_2_(Si_4_O_12_)_2_O_2_(OH)_4_F
Locality: Brivik, Norway
Source: University of Arizona Mineral Museum
Description: Brown fragment embedded in matrix
Measured chemistry: K_2.00_Na_1.00_(Fe^2+^_0.55_Mn_0.32_Fe^3+^_0.04_Mg_0.04_Ca_0.04_)_7_(Ti_0.66_Zr_0.18_Al_0.16_)_2_Si_8.00_O_26_(OH)_4_F_1.00_
Pin_id: M01572
Orientation: Laser parallel to (1 1 0). Fiducial mark perpendicular to laser is parallel to c [0 0 1]
Raman shift (cm-1)	intensity
150.165	0
155.096	221.918
160.024	550.506
164.949	1289.77
169.872	1952.69
174.791	1656.99
179.708	693.24
184.622	144.399
189.533	130.467
194.441	150.836
199.347	210.976
204.249	593.32
209.149	1145.85
214.046	1667.44
218.94	2167.04
223.832	2596.73
228.72	2228.97
233.606	2210.54
238.489	2237.7
243.369	1866.35
248.247	1580.33
253.121	1831.77
257.993	1979.63
262.862	2100.54
267.728	1992
272.592	1764.96
277.452	1463.15
282.31	1009.48
287.165	1020.58
292.017	1213.67
296.867	1509.98
301.714	1793.74
306.558	2304.38
311.399	2488.22
316.237	2376.65
321.073	2106.87
325.906	1817.4
330.736	1583.09
335.563	1836.75
340.387	2139.76
345.209	2253.02
350.028	2213.28
354.844	1862.26
359.658	1669.62
364.469	1618.8
369.277	1446.95
374.082	1685.27
378.884	1844.55
383.684	2127.1
388.481	2555.65
393.275	2337.64
398.066	1898.77
402.855	1268.7
407.641	796.477
412.424	318.978
417.205	69.0283
421.983	99.7783
426.758	49.0693
431.53	122.237
436.299	19.4629
441.066	43.2822
445.83	15.6729
450.591	83.0166
455.35	244.697
460.106	600.88
464.859	742.938
469.609	814.041
474.357	635.1
479.102	452.95
483.844	256.277
488.584	259.845
493.321	91.2978
498.055	212.987
502.786	25.0459
507.515	34.9609
512.241	243.279
516.964	164.144
521.685	279.617
526.402	240.801
531.118	120.799
535.83	118.341
540.54	3.50879
545.247	141.148
549.951	279.663
554.653	837.291
559.352	1257.59
564.048	937.528
568.742	709.696
573.432	360.503
578.121	108.197
582.806	383.703
587.489	731.359
592.169	758.297
596.847	1271.71
601.521	1244.91
606.193	1168.62
610.863	1274.89
615.53	2551.16
620.194	5302.51
624.855	8441.7
629.514	5931.31
634.17	3610.22
638.823	4275.84
643.474	6932.66
648.122	8751
652.767	8815.24
657.41	6388.72
662.05	3033.09
666.688	1581.17
671.322	1433.08
675.954	1985.96
680.584	2622.19
685.211	3084.98
689.835	4133.6
694.456	4516.76
699.075	5169.84
703.691	5486.97
708.305	5387.1
712.916	5528.19
717.524	5132.61
722.13	4607.93
726.733	3970.05
731.333	3150.52
735.931	2239.04
740.526	1395.44
745.118	1107.68
749.708	630.732
754.295	521.637
758.88	651.449
763.462	693.24
768.041	730.793
772.618	652.086
777.192	762.686
781.763	689.672
786.332	771.752
790.898	999.838
795.462	957.873
800.023	503.85
804.581	226.746
809.137	16.4727
813.69	174.928
818.24	163.861
822.788	18.8867
827.334	99.9863
831.876	114.691
836.416	707.922
840.954	1606.58
845.489	2392.19
850.021	3113.62
854.551	4605.51
859.078	6747.61
863.602	5540.88
868.124	3505.26
872.644	2557.72
877.16	2254.63
881.675	2042.78
886.186	1876.33
890.695	2084.85
895.202	2387.24
899.705	2366.59
904.207	2400.72
908.705	2520.6
913.201	2288.16
917.695	1749.36
922.186	1254.14
926.674	1569.46
931.16	1677.28
935.643	1679.71
940.124	1404.29
944.602	1243.74
949.077	1427.4
953.55	1630.92
958.021	1055.21
962.489	824.285
966.954	361.508
971.417	45.4043
975.877	572.117
980.334	271.826
984.789	397.232
989.242	766.994
993.692	1412.69
998.139	4547.28
1002.58	7465.75
1007.03	3722.67
1011.47	4344.96
1015.9	6823.13
1020.34	9534.65
1024.77	11148.5
1029.2	11600.3
1033.63	10982.4
1038.05	9869.23
1042.47	8071.04
1046.89	6219.52
1051.31	4448.1
1055.72	2759.74
1060.14	1901.44
1064.55	1432.6
1068.95	1471.22
1073.36	2017.06
1077.76	2933.25
1082.16	3765.96
1086.55	3192.21
1090.95	2259.87
1095.34	1702.88
1099.73	1515.24
1104.12	1671.95
1108.5	1785.87
1112.88	1339.28
1117.26	661.422
1121.64	709.938
1126.01	671.709
1130.38	706.848
1134.75	443.674
1139.12	15.6758
1143.48	230.062
1147.84	19.0312
1152.2	307.951
1156.56	79.1055
1160.91	233.691
1165.27	262.211
1169.61	706.547
1173.96	944.729
1178.31	757.768
1182.65	669.693
1186.98	548.527
1191.32	278.293
1195.66	242.981
1199.99	186.578
1204.32	255.168
1208.64	177.793
1212.97	745.477
1217.29	975.246
1221.61	716.127
1225.93	771.146
1230.24	1117.34
1234.55	1720.92
1238.86	1929.14
1243.17	1767.16
1247.47	2242.57
1251.78	2015.37
1256.07	2558.04
1260.37	2989.56
1264.67	3914.69
1268.96	4618.25
1273.25	4698.31
1277.54	3948.04
1281.82	3539.69
1286.1	3022.49
1290.38	3711.22
1294.66	4396.34
1298.93	4047.12
1303.21	4330.56
1307.48	4875.63
1311.74	5480.37
1316.01	5269.77
1320.27	4718.91
1324.53	3084.75
1328.79	1826.29
1333.05	1065.81
1337.3	688.193
1341.55	525.457
1345.8	734.637
1350.04	474.742
1354.29	236.756
1358.53	85.7012
1362.76	120.588
1367	583.422
1371.23	729.186
1375.46	1126
1379.69	1494.71
1383.92	1230.67
1388.14	1208.1
1392.36	908.951
1396.58	353.826
1400.8	203.723
1405.01	168.951
1409.22	463.244
1413.43	514.356
1417.64	470.283
1421.85	704.018
1426.05	1214.85
1430.25	2251.09
1434.44	3999.26
1438.64	6973.39
1442.83	9514.16
1447.02	10876.5
1451.21	11793.4
1455.39	11953.9
1459.58	10319
1463.76	8093.64
1467.94	5945.97
1472.11	4508.81
1476.28	3899.77
1480.45	3652.14
1484.62	2487.78
1488.79	1366.44
1492.95	507.44
1497.11	76.2168
1501.27	94.3965
1505.43	173.453
1509.58	96.9102
1513.73	226.805
1517.88	326.637
1522.03	385.852
1526.18	748.012
1530.32	1011.56
1534.46	1194.47
1538.6	772.062
1542.73	881.326
1546.86	450.379
1550.99	408.051
1555.12	290.746
1559.25	89.959
