Measurement: Raman, 514 nm, ccw, Raman Data Processed
Mineral: Astrophyllite
Rruff sample: R060202
Ideal chemistry: K_2_NaFe^2+^_7_Ti_2_(Si_4_O_12_)_2_O_2_(OH)_4_F
Locality: Demix Quarry, Mont Saint-Hilaire, Rouville County, Quebec, Canada
Source: Royal Ontario Museum
Description: Aggregate of brown splintered wafers
Measured chemistry: (K_0.56_Na_0.38_Ca_0.06_)_3_(Fe^2+^_0.52_Mn_0.44_Mg_0.04_)_7_(Ti_0.75_Zr_0.15_Al_0.15_)_2_Si_8_O_24_(O_0.27_OH_0.73_)_7_
Pin_id: M00349
Orientation: Laser parallel to a* (1 0 0). Fiducial mark perpendicular to laser is parallel to b [0 1 0]
Raman shift (cm-1)	intensity
121.827	0
126.749	0.609375
131.668	245.553
136.585	135.197
141.5	137.908
146.412	100.611
151.321	232.875
156.229	263.805
161.134	420.795
166.036	889.168
170.936	983.402
175.834	583.508
180.729	361.203
185.622	473.277
190.512	700.779
195.4	799.578
200.286	1204.99
205.169	758.644
210.049	996.352
214.928	1402.79
219.803	1852.12
224.677	2273.65
229.548	2738.33
234.416	2969.27
239.282	3225.55
244.146	3116.34
249.007	3097.06
253.866	3067.85
258.722	2938.82
263.576	2090.76
268.427	1483.89
273.276	955.578
278.123	673.82
282.967	561.465
287.809	186.461
292.648	299.277
297.485	126.828
302.319	62.2441
307.151	309.357
311.98	232.377
316.807	489.426
321.631	728.57
326.454	759.021
331.273	729.609
336.09	774.326
340.905	899.324
345.717	908.379
350.527	625.896
355.334	720.719
360.139	779.672
364.941	619.584
369.741	414.148
374.538	592.244
379.333	693.848
384.126	696.92
388.916	612.576
393.703	730.223
398.488	549.336
403.271	707.758
408.051	693.871
412.828	921.682
417.603	906.246
422.376	877.607
427.146	577.758
431.914	369.699
436.679	221.477
441.442	32.0527
446.202	125.658
450.96	94.0644
455.715	50.6484
460.467	71.3184
465.218	199.949
469.965	192.908
474.711	153.568
479.454	162.904
484.194	154.885
488.932	19.4531
493.667	11.6309
498.4	47.6777
503.13	168.447
507.858	201.129
512.583	146.768
517.306	110.973
522.026	80.6484
526.744	175.715
531.459	142.619
536.172	239.207
540.882	241.559
545.59	672.045
550.295	1554.67
554.998	1324.15
559.698	1683.93
564.396	1231.74
569.091	931.523
573.784	794.352
578.474	755.186
583.162	618.557
587.847	800.295
592.529	794.771
597.209	617.023
601.887	507.236
606.562	544.381
611.235	874.231
615.905	915.607
620.572	800.824
625.237	1065.44
629.9	1418.14
634.56	1775.64
639.217	2583.04
643.872	3584.08
648.524	5294.56
653.174	6297.12
657.821	5357.26
662.466	3627.24
667.108	3144.45
671.748	3162.29
676.385	3203.35
681.02	3357.11
685.652	3817.89
690.281	3978.55
694.908	4201.79
699.533	4344.34
704.155	4276.56
708.774	4448.34
713.391	3931.47
718.005	3613.7
722.617	3212.87
727.226	2454.03
731.833	2163
736.437	2000.99
741.039	1495.36
745.638	1512.86
750.234	1511.51
754.828	1695.94
759.419	1263.16
764.008	960.176
768.595	772.019
773.178	858.688
777.759	597.227
782.338	624.648
786.914	552.934
791.488	480.191
796.059	190.773
800.627	129.684
805.193	98.8867
809.756	34.2578
814.317	116.586
818.875	71.5508
823.431	52.9688
827.984	139.656
832.534	192.258
837.082	240.234
841.627	32.0742
846.17	215.117
850.71	109.703
855.248	362.644
859.783	352.879
864.316	288.922
868.846	572.934
873.373	861.883
877.898	788.734
882.42	1241.75
886.94	1520.99
891.457	1971.3
895.971	2408.38
900.483	2949.34
904.993	3128.15
909.5	3630.85
914.004	4118.43
918.505	4221.88
923.004	4488.22
927.501	4571.52
931.995	4170.23
936.486	4039.76
940.975	3302.73
945.461	2881.27
949.945	2701.15
954.426	1950.88
958.904	1606.36
963.38	1388.36
967.853	549.504
972.324	541.727
976.792	566.535
981.258	1181.94
985.72	122.625
990.181	510.512
994.639	321.941
999.094	607.231
1003.55	721.769
1008	988.309
1012.44	965.293
1016.89	1336.47
1021.33	1752.04
1025.77	2210.19
1030.21	2263.05
1034.64	1982.87
1039.07	1816.84
1043.5	1515.34
1047.93	1128.84
1052.35	739.602
1056.78	597.688
1061.19	723.227
1065.61	535.301
1070.02	865.051
1074.43	503.582
1078.84	579.047
1083.25	637.344
1087.65	335.141
1092.05	895.629
1096.45	514.406
1100.85	353.266
1105.24	199.891
1109.63	24.5625
1114.02	71.5234
1118.4	572.91
1122.78	749.383
1127.16	363.832
1131.54	157.738
1135.92	75.2305
1140.29	3.91016
1144.66	275.559
1149.02	162.621
1153.39	307.512
1157.75	71.4922
1162.11	31.6719
1166.46	232.367
1170.82	10.3516
1175.17	287.25
1179.52	43.5352
1183.86	185.766
1188.21	371.82
1192.55	192.75
1196.89	15.4102
1201.22	163.109
1205.55	315.609
1209.88	148.938
1214.21	147.043
1218.54	414.996
1222.86	638.934
1227.18	384.844
1231.5	461.832
1235.81	644.961
1240.12	305.746
1244.43	585.758
1248.74	374.719
1253.04	658.715
1257.34	375.652
1261.64	253.59
1265.94	437.441
1270.23	353.453
1274.52	524.676
1278.81	17.125
1283.1	157.551
1287.38	68.5977
1291.66	183.582
1295.94	643.922
1300.21	579.93
1304.48	263.559
1308.75	710.137
1313.02	796.426
1317.29	594.773
1321.55	475.906
1325.81	503.336
1330.06	706.797
1334.32	611.832
1338.57	699.312
1342.82	574.227
1347.06	944.5
1351.31	766.582
1355.55	691.012
1359.79	690.219
1364.02	811.934
1368.26	451.574
1372.49	417.035
1376.71	634.043
1380.94	390.824
1385.16	601.383
1389.38	1017.15
1393.6	251.203
1397.81	533.359
1402.02	461.504
1406.23	271.059
1410.44	131.332
1414.64	282.957
1418.85	592.59
1423.04	210.961
1427.24	257.949
1431.43	442.43
1435.62	234.773
1439.81	16.1758
1444	391.371
1448.18	62.0273
1452.36	208.75
1456.54	115.66
1460.71	150.004
1464.89	158.414
1469.06	35.7031
1473.22	232.074
1477.39	65.8047
1481.55	133.606
1485.71	355.945
1489.86	178.504
1494.02	145.012
1498.17	122.445
1502.32	491.805
1506.46	237.41
1510.61	51.5938
1514.75	710.027
1518.88	273.391
1523.02	302.234
1527.15	260.074
1531.28	358.047
1535.41	750.738
1539.53	609.949
1543.66	588.078
1547.78	659.41
1551.89	514.805
1556.01	549.68
1560.12	196.731
1564.23	101.977
1568.33	359.836
