Measurement: Raman, 514 nm, ccw, Raman Data Processed
Mineral: Astrophyllite
Rruff sample: R060202
Ideal chemistry: K_2_NaFe^2+^_7_Ti_2_(Si_4_O_12_)_2_O_2_(OH)_4_F
Locality: Demix Quarry, Mont Saint-Hilaire, Rouville County, Quebec, Canada
Source: Royal Ontario Museum
Description: Aggregate of brown splintered wafers
Measured chemistry: (K_0.56_Na_0.38_Ca_0.06_)_3_(Fe^2+^_0.52_Mn_0.44_Mg_0.04_)_7_(Ti_0.75_Zr_0.15_Al_0.15_)_2_Si_8_O_24_(O_0.27_OH_0.73_)_7_
Pin_id: M00349
Orientation: Laser parallel to a* (1 0 0). Fiducial mark perpendicular to laser is parallel to b [0 1 0]
Raman shift (cm-1)	intensity
121.827	0
126.749	19.6875
131.668	364.18
136.585	544.371
141.5	830.215
146.412	707.609
151.321	1490.77
156.229	3067.85
161.134	4530.58
166.036	9395.66
170.936	9871.39
175.834	6861.5
180.729	4846.99
185.622	4838.74
190.512	6010.42
195.4	7049.73
200.286	7787.03
205.169	3480.88
210.049	761.824
214.928	713.699
219.803	676.695
224.677	491.598
229.548	53.6445
234.416	67.6641
239.282	301.164
244.146	56.8047
249.007	361.984
253.866	59.8398
258.722	138.066
263.576	96.9609
268.427	427.391
273.276	290.949
278.123	204.742
282.967	85.2461
287.809	73.3984
292.648	292.227
297.485	307.875
302.319	293.422
307.151	402.57
311.98	196.59
316.807	521.691
321.631	537.279
326.454	794.652
331.273	788.727
336.09	1167.93
340.905	1434.96
345.717	1351.99
350.527	1517.37
355.334	1217.16
360.139	958.213
364.941	947.459
369.741	711.697
374.538	670.473
379.333	469.252
384.126	329.777
388.916	462.391
393.703	233.057
398.488	154.978
403.271	39.4746
408.051	194.654
412.828	33.5605
417.603	138.912
422.376	199.81
427.146	145.986
431.914	304.25
436.679	119.742
441.442	198.565
446.202	52.5469
450.96	54.2051
455.715	265.344
460.467	377.277
465.218	211.346
469.965	249.512
474.711	526.621
479.454	435.883
484.194	485.168
488.932	602.375
493.667	500.035
498.4	487.883
503.13	355.449
507.858	185.629
512.583	149.219
517.306	321.051
522.026	604.754
526.744	596.316
531.459	453.047
536.172	952.055
540.882	1392.32
545.59	1509.02
550.295	2378.36
554.998	2749.45
559.698	2456.47
564.396	2275.11
569.091	2429.7
573.784	2146.02
578.474	1815.04
583.162	1823.06
587.847	2101.18
592.529	2055.14
597.209	2303.27
601.887	2600.72
606.562	3049.78
611.235	3372.61
615.905	3265.68
620.572	3743.88
625.237	3993.45
629.9	4180.62
634.56	4677.04
639.217	5153.75
643.872	6779.77
648.524	8021.15
653.174	8632.94
657.821	8227.22
662.466	7276.01
667.108	7420.37
671.748	7825.45
676.385	8970.22
681.02	9750.7
685.652	10835
690.281	11402.6
694.908	11702
699.533	11900.6
704.155	11995.7
708.774	11570
713.391	11249.1
718.005	10170.5
722.617	9248.66
727.226	8378.31
731.833	7908.78
736.437	7513.32
741.039	6581.73
745.638	6491.23
750.234	6449.41
754.828	6227.38
759.419	6009.85
764.008	6118.67
768.595	6087.8
773.178	6265.22
777.759	6042.36
782.338	6086.71
786.914	5794.69
791.488	5127.81
796.059	4695
800.627	3818.22
805.193	2720.43
809.756	2272.57
814.317	1454
818.875	1025.43
823.431	564.144
827.984	454.535
832.534	71.4062
837.082	8.00391
841.627	216.898
846.17	194.766
850.71	139.742
855.248	111.68
859.783	536.773
864.316	242.551
868.846	559.957
873.373	541.769
877.898	735.457
882.42	295.473
886.94	279.5
891.457	956.941
895.971	887.09
900.483	1123.61
904.993	1253.57
909.5	1643.2
914.004	1928.16
918.505	1929.35
923.004	2056.85
927.501	2373.73
931.995	2469.13
936.486	2130.53
940.975	2244.92
945.461	2092.38
949.945	2023.94
954.426	2100.65
958.904	1693.32
963.38	1883.9
967.853	1727.34
972.324	2028.66
976.792	2110.96
981.258	2578.16
985.72	3081.58
990.181	3541.78
994.639	4274.87
999.094	5425.2
1003.55	6737.46
1008	8594.62
1012.44	10862.5
1016.89	13751.1
1021.33	16329.2
1025.77	18444
1030.21	18816.5
1034.64	17534.6
1039.07	15146.5
1043.5	12200.5
1047.93	9614.21
1052.35	7437.91
1056.78	6129.03
1061.19	5439.8
1065.61	4658.66
1070.02	4170.48
1074.43	3816.05
1078.84	3613
1083.25	3535.77
1087.65	3483.82
1092.05	2473.47
1096.45	2701.49
1100.85	1870.5
1105.24	2053.88
1109.63	1546.73
1114.02	1412.32
1118.4	1157.64
1122.78	1191.81
1127.16	791.164
1131.54	688.219
1135.92	219.184
1140.29	22.3594
1144.66	19.1875
1149.02	185.848
1153.39	144.246
1157.75	127.34
1162.11	0.90625
1166.46	27.0312
1170.82	191.492
1175.17	6.84766
1179.52	199.477
1183.86	25.9258
1188.21	28.9492
1192.55	30.5664
1196.89	267.664
1201.22	147.992
1205.55	43.332
1209.88	130.398
1214.21	178.926
1218.54	137.523
1222.86	330.277
1227.18	342.316
1231.5	64.6562
1235.81	240.32
1240.12	79.3633
1244.43	399.492
1248.74	298.859
1253.04	23.8516
1257.34	23.1484
1261.64	325.004
1265.94	347.332
1270.23	434.82
1274.52	91.6055
1278.81	352.453
1283.1	63.7148
1287.38	288.863
1291.66	441.141
1295.94	332.316
1300.21	407.219
1304.48	472.973
1308.75	457.144
1313.02	526.918
1317.29	479.359
1321.55	543.84
1325.81	629.918
1330.06	742.238
1334.32	1258.16
1338.57	621.867
1342.82	668.809
1347.06	571.863
1351.31	855.996
1355.55	619.496
1359.79	623.711
1364.02	786.586
1368.26	379.941
1372.49	547.844
1376.71	406.266
1380.94	371.328
1385.16	354.867
1389.38	707.277
1393.6	596.422
1397.81	390.598
1402.02	488.672
1406.23	266.312
1410.44	248.644
1414.64	108.262
1418.85	518.871
1423.04	125.707
1427.24	317.969
1431.43	493.731
1435.62	168.801
1439.81	519.098
1444	37.3906
1448.18	15.2305
1452.36	72.3594
1456.54	31.2734
1460.71	199.238
1464.89	309.672
1469.06	183.246
1473.22	131.727
1477.39	476.07
1481.55	128.277
1485.71	154.891
1489.86	59.5898
1494.02	249.398
1498.17	362.84
1502.32	129.688
1506.46	372.356
1510.61	303.394
1514.75	420.195
1518.88	342.324
1523.02	202.418
1527.15	509.871
1531.28	371.504
1535.41	340.258
1539.53	70.668
1543.66	454.019
1547.78	173.184
1551.89	263.59
1556.01	229.523
1560.12	472.711
1564.23	133.809
1568.33	45.1172
