Measurement: Raman, 514 nm, ccw, Raman Data Processed
Mineral: Astrophyllite
Rruff sample: R060103
Ideal chemistry: K_2_NaFe^2+^_7_Ti_2_(Si_4_O_12_)_2_O_2_(OH)_4_F
Locality: Brivik, Norway
Source: University of Arizona Mineral Museum
Description: Brown fragment embedded in matrix
Measured chemistry: K_2.00_Na_1.00_(Fe^2+^_0.55_Mn_0.32_Fe^3+^_0.04_Mg_0.04_Ca_0.04_)_7_(Ti_0.66_Zr_0.18_Al_0.16_)_2_Si_8.00_O_26_(OH)_4_F_1.00_
Pin_id: M01031
Orientation: Laser parallel to c* (0 0 1). Fiducial mark perpendicular to laser is parallel to a [1 0 0]
Raman shift (cm-1)	intensity
150.165	0
155.096	188.524
160.024	302.098
164.949	627.563
169.872	889.545
174.791	930.274
179.708	449.95
184.622	124.816
189.533	3.21582
194.441	8.0293
199.347	166.101
204.249	318.654
209.149	787.406
214.046	1510.83
218.94	2451.14
223.832	3385.11
228.72	3925.61
233.606	3979.11
238.489	3573.97
243.369	2846.48
248.247	1954.93
253.121	1182.43
257.993	988.106
262.862	544.782
267.728	340.658
272.592	94.46
277.452	54.793
282.31	13.7437
287.165	91.4185
292.017	84.8921
296.867	305.166
301.714	233.355
306.558	354.12
311.399	617.346
316.237	773.484
321.073	987.387
325.906	1110.31
330.736	1219.07
335.563	1360.85
340.387	1801.56
345.209	2060.89
350.028	2394.29
354.844	2535.26
359.658	2651.4
364.469	2500.68
369.277	2151.68
374.082	1969.19
378.884	1710.15
383.684	1614.39
388.481	1480.58
393.275	1173.74
398.066	756.506
402.855	506.075
407.641	253.107
412.424	210.309
417.205	98.0542
421.983	201.379
426.758	140.491
431.53	4.37842
436.299	23.1968
441.066	5.58106
445.83	49.8652
450.591	1.64209
455.35	15.5117
460.106	91.2944
464.859	128.357
469.609	187.24
474.357	241
479.102	262.701
483.844	389.486
488.584	639.444
493.321	703.523
498.055	1185.74
502.786	1112.12
507.515	936.715
512.241	524.575
516.964	192.732
521.685	95.8149
526.402	60.314
531.118	148.778
535.83	4.41602
540.54	40.2471
545.247	452.886
549.951	833.424
554.653	1702.03
559.352	2224.07
564.048	1977.22
568.742	1408.97
573.432	951.118
578.121	711.058
582.806	710.67
587.489	804.413
592.169	1046.68
596.847	1264.39
601.521	1181.1
606.193	1256.25
610.863	1092.61
615.53	1008.5
620.194	1539.31
624.855	1726.69
629.514	1757.69
634.17	1935.82
638.823	2739.11
643.474	4343.59
648.122	6702.26
652.767	8947.15
657.41	8103.17
662.05	5372.87
666.688	3210.63
671.322	2666.16
675.954	2564.81
680.584	2613.41
685.211	3160.12
689.835	3583.95
694.456	4089.95
699.075	4371.34
703.691	4372.63
708.305	4529.67
712.916	4837.48
717.524	4628.93
722.13	4064.16
726.733	3419.3
731.333	2776.32
735.931	2125.03
740.526	1700.69
745.118	1410.18
749.708	1215.42
754.295	1100.05
758.88	949.065
763.462	812.449
768.041	806.178
772.618	682.244
777.192	597.651
781.763	544.399
786.332	471.483
790.898	492.902
795.462	353.658
800.023	352.797
804.581	415.43
809.137	638.626
813.69	548.41
818.24	130.614
822.788	112.919
827.334	246.758
831.876	112.537
836.416	171.873
840.954	148.887
845.489	555.189
850.021	1366.71
854.551	2345.31
859.078	2797.16
863.602	2084.23
868.124	1112.51
872.644	724.987
877.16	479.658
881.675	721.512
886.186	754.542
890.695	951.743
895.202	1209.11
899.705	1339.65
904.207	1530.33
908.705	2084.17
913.201	2018.16
917.695	2206.29
922.186	1957.56
926.674	1950.05
931.16	1826.88
935.643	1541.05
940.124	1338.83
944.602	872.32
949.077	861.154
953.55	845.208
958.021	412.451
962.489	360.459
966.954	138.445
971.417	33.2754
975.877	119.387
980.334	0.90918
984.789	109.512
989.242	184.107
993.692	550.872
998.139	1240.8
1002.58	1874.88
1007.03	1373.13
1011.47	1382.52
1015.9	1992.05
1020.34	2608.73
1024.77	3266.54
1029.2	3344.48
1033.63	3271.55
1038.05	2808.75
1042.47	2291.07
1046.89	1571.5
1051.31	1169.04
1055.72	652.515
1060.14	471.45
1064.55	488.359
1068.95	255.544
1073.36	468.047
1077.76	558.654
1082.16	672.882
1086.55	779.167
1090.95	721.056
1095.34	963.712
1099.73	1098.76
1104.12	1228.01
1108.5	1324.38
1112.88	1374.61
1117.26	1036.95
1121.64	622.274
1126.01	431.572
1130.38	262.84
1134.75	184.073
1139.12	187.365
1143.48	90.415
1147.84	234.916
1152.2	395.565
1156.56	492.558
1160.91	443.492
1165.27	330.362
1169.61	226.166
1173.96	302.899
1178.31	162.559
1182.65	53.1397
1186.98	45.3701
1191.32	51.1777
1195.66	21.4102
1199.99	124.191
1204.32	54.7285
1208.64	44.0527
1212.97	26.8906
1217.29	123.97
1221.61	4.70312
1225.93	317.248
1230.24	394.704
1234.55	437.073
1238.86	544.645
1243.17	561.493
1247.47	575.263
1251.78	631.909
1256.07	580.438
1260.37	732.856
1264.67	835.162
1268.96	1004.38
1273.25	1113.49
1277.54	998.013
1281.82	874.484
1286.1	639.345
1290.38	741.117
1294.66	993.81
1298.93	867.423
1303.21	777.961
1307.48	833.433
1311.74	860.802
1316.01	1018.97
1320.27	855.58
1324.53	660.812
1328.79	453.817
1333.05	135.73
1337.3	162.82
1341.55	195.693
1345.8	31.7695
1350.04	167.751
1354.29	34.9522
1358.53	4.16016
1362.76	110.407
1367	184.74
1371.23	201.157
1375.46	353.667
1379.69	326.496
1383.92	306.251
1388.14	399.497
1392.36	333.904
1396.58	366.094
1400.8	296.519
1405.01	143.382
1409.22	316.219
1413.43	238.285
1417.64	191.554
1421.85	321.928
1426.05	512.514
1430.25	1024.2
1434.44	1485.84
1438.64	2444.1
1442.83	3224.62
1447.02	3460.09
1451.21	3493.71
1455.39	3551.47
1459.58	2747.67
1463.76	1987.66
1467.94	1477.16
1472.11	1350.95
1476.28	968.052
1480.45	928.431
1484.62	757.061
1488.79	430.964
1492.95	262.2
1497.11	137.796
1501.27	30.7119
1505.43	1.3125
1509.58	17.3125
1513.73	8.05371
1517.88	114.278
1522.03	170.303
1526.18	47.3565
1530.32	24.0391
1534.46	392.999
1538.6	189.68
1542.73	191.142
1546.86	110.634
1550.99	267.594
1555.12	120.197
1559.25	27.0957
