Measurement: Raman, 514 nm, ccw, Raman Data Processed
Mineral: Astrophyllite
Rruff sample: R060103
Ideal chemistry: K_2_NaFe^2+^_7_Ti_2_(Si_4_O_12_)_2_O_2_(OH)_4_F
Locality: Brivik, Norway
Source: University of Arizona Mineral Museum
Description: Brown fragment embedded in matrix
Measured chemistry: K_2.00_Na_1.00_(Fe^2+^_0.55_Mn_0.32_Fe^3+^_0.04_Mg_0.04_Ca_0.04_)_7_(Ti_0.66_Zr_0.18_Al_0.16_)_2_Si_8.00_O_26_(OH)_4_F_1.00_
Pin_id: M01528
Orientation: Laser parallel to (1 0 1). Fiducial mark perpendicular to laser is parallel to c [0 0 1]
Raman shift (cm-1)	intensity
147.699	0
152.631	86.7773
157.56	122.024
162.487	535.432
167.411	1003.36
172.332	904.152
177.25	483.302
182.165	164.611
187.078	50.4912
191.987	35.9932
196.894	310.959
201.798	470.84
206.699	687.399
211.598	1071.93
216.493	1768.71
221.386	2380.24
226.276	2897.83
231.163	3159.01
236.048	3277.42
240.929	3078.46
245.808	2672.42
250.684	2443.91
255.557	2213.81
260.428	2243.54
265.295	1883.07
270.16	1490.25
275.022	1104.17
279.882	957.148
284.738	871.172
289.592	880.234
294.443	998.901
299.291	1249.15
304.136	1495.25
308.978	1480.2
313.818	1626.57
318.655	1810.97
323.489	1568.6
328.321	1494.53
333.15	1585.41
337.976	1783.62
342.799	2181.21
347.619	2308.93
352.437	2344.79
357.252	1944.08
362.064	1899.34
366.873	1628.82
371.68	1620.76
376.483	1617.42
381.284	1597.91
386.083	1715.39
390.878	1531.49
395.671	1240.95
400.461	906.489
405.249	669.485
410.033	676.705
414.815	762.178
419.594	983.903
424.37	1030.89
429.144	764.163
433.915	469.725
438.683	197.595
443.448	53.8359
448.211	79.708
452.971	88.8354
457.728	98.7046
462.483	102.378
467.235	115.372
471.984	69.188
476.73	118.186
481.474	24.3696
486.214	13.4229
490.953	48.4688
495.688	1.57178
500.421	34.2793
505.151	59.0312
509.878	29.8174
514.603	74.3955
519.325	43.0654
524.044	15.1435
528.76	2.48486
533.474	41.8745
538.185	108.81
542.894	191.842
547.599	602.332
552.302	1247.38
557.003	1830.02
561.7	2049.92
566.395	1591.69
571.087	1180.3
575.777	766.423
580.464	675.592
585.148	508.536
589.829	621.2
594.508	740.525
599.184	683.649
603.858	734.019
608.528	738.139
613.197	780.583
617.862	1184.2
622.525	1587.48
627.185	2070.73
631.842	1873.75
636.497	1967.17
641.149	2943.57
645.798	4609.46
650.445	6595.88
655.089	7728.04
659.73	6407.29
664.369	4391.53
669.005	3478.2
673.639	3467.73
678.269	3807
682.898	4376.85
687.523	4917.01
692.146	5557.4
696.766	6031.15
701.384	6407.56
705.998	6537.15
710.611	6591.94
715.22	6396.91
719.827	6085.99
724.431	5287.2
729.033	4564.68
733.632	3692.86
738.229	3081.7
742.822	2534.28
747.413	2082.4
752.002	2016.8
756.588	1880.48
761.171	1730.47
765.752	1521.9
770.33	1458.81
774.905	1137.11
779.478	1084.91
784.048	1116.15
788.615	950.39
793.18	736.632
797.742	590.702
802.302	539.644
806.859	266.231
811.414	65.2422
815.965	11.7559
820.515	10.4834
825.061	55.374
829.605	162.819
834.147	87.5225
838.686	188.841
843.222	122.046
847.755	109.497
852.286	163.358
856.815	377.55
861.341	579.079
865.864	506.941
870.384	393.19
874.902	590.947
879.418	765.333
883.931	1186.43
888.441	1562.17
892.949	1977.51
897.454	2616.08
901.956	3160.18
906.456	3820.56
910.954	4663.22
915.448	5238.15
919.941	5486.35
924.43	5606.82
928.917	5470.56
933.402	5055.53
937.884	4371.91
942.363	3771.62
946.84	2934.58
951.314	2590.54
955.786	2073.31
960.255	1548.81
964.722	965.124
969.186	703.115
973.647	88.8389
978.106	106.215
982.562	129.314
987.016	61.1455
991.467	189.202
995.916	539.799
1000.36	1154.43
1004.8	1245.88
1009.25	1566.16
1013.68	2306.45
1018.12	3201.76
1022.55	4328.77
1026.98	5067.7
1031.41	5374.5
1035.84	4826.35
1040.26	3988.92
1044.68	3257.84
1049.1	2397.34
1053.52	1608.94
1057.93	1121.59
1062.34	893.13
1066.75	724.599
1071.15	763.146
1075.56	561.536
1079.96	735.687
1084.36	848.47
1088.75	781.498
1093.14	582.76
1097.53	572.956
1101.92	466.438
1106.31	332.343
1110.69	301.681
1115.07	337.051
1119.45	186.264
1123.82	15.3105
1128.2	137.343
1132.57	44.1494
1136.93	9.14941
1141.3	112.194
1145.66	24.4385
1150.02	23.7441
1154.38	38.8603
1158.74	67.3926
1163.09	63.294
1167.44	88.6572
1171.79	215.766
1176.13	86.6397
1180.48	183.222
1184.82	217.528
1189.15	126.507
1193.49	102.211
1197.82	94.415
1202.15	70.6807
1206.48	107.546
1210.81	282.447
1215.13	290.99
1219.45	235.276
1223.77	196.316
1228.08	293.109
1232.4	157.978
1236.71	320.705
1241.02	450.728
1245.32	366.481
1249.62	401.028
1253.92	358.012
1258.22	348.276
1262.52	462.856
1266.81	607.892
1271.1	712.519
1275.39	700.561
1279.68	580.899
1283.96	393.426
1288.24	452.298
1292.52	587.381
1296.8	476.519
1301.07	536.812
1305.34	691.367
1309.61	744.523
1313.88	686.316
1318.14	782.911
1322.4	535.395
1326.66	526.895
1330.92	322.729
1335.17	199.573
1339.42	106.363
1343.67	217.106
1347.92	331.512
1352.16	205.696
1356.41	184.077
1360.64	77.4394
1364.88	13.7354
1369.12	183.011
1373.35	200.421
1377.58	127.699
1381.81	282.823
1386.03	258.4
1390.25	320.083
1394.47	117.915
1398.69	197.457
1402.91	104.944
1407.12	4.81445
1411.33	60.2881
1415.54	113.048
1419.74	60.7568
1423.95	185.429
1428.15	248.931
1432.35	411.362
1436.54	719.917
1440.74	1062.75
1444.93	1432.83
1449.12	1521.54
1453.3	1458.74
1457.49	1586.23
1461.67	1354.54
1465.85	922.622
1470.02	664.683
1474.2	672.852
1478.37	450.005
1482.54	389.371
1486.71	366.795
1490.87	80.2061
1495.03	220.012
1499.19	30.8535
1503.35	127.661
1507.51	61.5508
1511.66	42.2529
1515.81	101.377
1519.96	5.41406
1524.1	207.856
1528.25	22.2656
1532.39	155.289
1536.53	150.493
1540.66	224.26
1544.8	163.754
1548.93	166.136
1553.06	198.267
1557.18	22.3389
1561.31	164.725
