Measurement: Raman, 514 nm, ccw, Raman Data Processed
Mineral: Astrophyllite
Rruff sample: R060103
Ideal chemistry: K_2_NaFe^2+^_7_Ti_2_(Si_4_O_12_)_2_O_2_(OH)_4_F
Locality: Brivik, Norway
Source: University of Arizona Mineral Museum
Description: Brown fragment embedded in matrix
Measured chemistry: K_2.00_Na_1.00_(Fe^2+^_0.55_Mn_0.32_Fe^3+^_0.04_Mg_0.04_Ca_0.04_)_7_(Ti_0.66_Zr_0.18_Al_0.16_)_2_Si_8.00_O_26_(OH)_4_F_1.00_
Pin_id: M01690
Orientation: Laser parallel to (0 1 1). Fiducial mark perpendicular to laser is parallel to a [1 0 0]
Raman shift (cm-1)	intensity
146.465	0
151.398	91.4512
156.328	177.837
161.256	637.646
166.18	973.035
171.102	955.091
176.021	588.997
180.937	218.722
185.85	36.0278
190.76	18.7451
195.668	206.002
200.572	417.512
205.474	588.483
210.374	941.231
215.27	1385.49
220.163	1833.05
225.054	2225.64
229.942	2635.84
234.827	3252.43
239.709	3596.05
244.589	3849.16
249.465	3675.32
254.339	3636.67
259.21	3484.57
264.079	2830.61
268.944	1975.06
273.807	1375.82
278.667	929.519
283.524	562.175
288.378	634.783
293.23	681.35
298.079	839.551
302.925	1008.9
307.768	980.48
312.609	1065.92
317.446	1054.68
322.281	877.82
327.113	895.85
331.943	1132.22
336.769	1497.6
341.593	2012.99
346.414	2283.42
351.233	2369.26
356.048	2136.87
360.861	1786.57
365.671	1466.37
370.478	1110.12
375.283	1083.14
380.084	1033.55
384.883	1201.64
389.68	1273.62
394.473	1308.43
399.264	1271.81
404.052	1261.22
408.837	1167.98
413.62	1254.02
418.4	1313.24
423.177	1349.63
427.951	1198.18
432.722	873.902
437.491	512.817
442.257	222.98
447.021	91.2764
451.781	7.46729
456.539	185.455
461.294	363.504
466.047	559.773
470.797	625.477
475.544	542.079
480.288	431.25
485.03	435.709
489.768	457.393
494.504	516.278
499.238	377.358
503.969	348.612
508.697	191.992
513.422	30.3374
518.144	177.967
522.864	214.084
527.582	136.496
532.296	159.776
537.008	36.6851
541.717	233.489
546.423	674.689
551.127	1291.17
555.828	2179.97
560.526	2368.1
565.222	1973.62
569.915	1523.66
574.605	946.388
579.292	660.672
583.977	481.76
588.659	578.72
593.339	571.902
598.016	554.052
602.69	670.961
607.361	703.642
612.03	718.009
616.696	751.026
621.359	897.694
626.02	1114.07
630.678	1557.07
635.333	2257.35
639.986	2886.3
644.636	4013.91
649.284	5827.36
653.928	7061.67
658.57	6327.15
663.21	4738.35
667.846	3852.72
672.481	3813.61
677.112	4226.54
681.741	4652.96
686.367	5400.31
690.99	6124.51
695.611	6799.06
700.229	7158.03
704.845	7364.69
709.458	7464.73
714.068	7361
718.676	6753.18
723.281	6087.59
727.883	5122.58
732.483	4457.11
737.08	3413.3
741.674	2713.27
746.266	2323.79
750.855	2141.86
755.442	1959.49
760.025	1697.71
764.607	1497.53
769.185	1334.95
773.761	1210.01
778.335	1024.71
782.906	809.085
787.474	751.163
792.039	885.079
796.602	728.238
801.162	756.188
805.72	781.065
810.275	474.058
814.828	279.791
819.378	286.104
823.925	178.156
828.47	8.89062
833.012	146.301
837.551	5.63721
842.088	137.913
846.622	86.9053
851.154	1.66943
855.683	54.5024
860.209	116.276
864.733	10.2036
869.254	85.3394
873.773	83.9609
878.289	482.19
882.803	1018.1
887.314	1538.62
891.822	2316.64
896.328	3196.14
900.831	4060.12
905.332	5185.27
909.83	6417.84
914.325	7424.44
918.818	7772.46
923.308	7605.87
927.796	7293.67
932.281	6695.82
936.764	5665.89
941.244	4571.35
945.721	3554.68
950.196	2962.28
954.668	2166.07
959.138	1465.04
963.605	911.154
968.07	488.418
972.532	217.674
976.991	69.4995
981.448	141.825
985.903	54.6148
990.355	16.5386
994.804	390.678
999.251	886.518
1003.7	1158.4
1008.14	940.876
1012.58	1381.87
1017.01	1697.7
1021.45	2170.33
1025.88	2574.7
1030.31	2888.4
1034.73	2945.22
1039.16	2499.27
1043.58	2120.52
1048	1520.54
1052.41	1060.55
1056.83	637.088
1061.24	379.647
1065.65	346.96
1070.05	338.946
1074.46	355.196
1078.86	359.26
1083.26	507.115
1087.65	379.534
1092.05	458.726
1096.44	485.707
1100.83	560.511
1105.21	981.101
1109.6	1657.34
1113.98	1389.74
1118.36	719.778
1122.73	268.877
1127.1	83.2456
1131.47	150.422
1135.84	6.53809
1140.21	96.0229
1144.57	4.52979
1148.93	37.4419
1153.29	248.036
1157.65	192.398
1162	172.53
1166.35	8.36084
1170.7	17.3457
1175.05	106.468
1179.39	307.045
1183.73	896.387
1188.07	762.497
1192.41	314.375
1196.74	4.88232
1201.07	4.41846
1205.4	161.827
1209.72	199.142
1214.05	459.215
1218.37	724.032
1222.69	965.623
1227.01	948.287
1231.32	891.678
1235.63	838.096
1239.94	847.982
1244.24	867.385
1248.55	1112.82
1252.85	1115.24
1257.15	1163.66
1261.44	802.016
1265.74	726.843
1270.03	673.881
1274.32	550.583
1278.61	620.051
1282.89	620.865
1287.17	786.722
1291.45	746.741
1295.73	800.189
1300	600.52
1304.27	641.786
1308.54	607.968
1312.81	507.031
1317.08	278.983
1321.34	185.833
1325.6	115.933
1329.85	81.7373
1334.11	137.94
1338.36	118.92
1342.61	151.253
1346.86	169.253
1351.1	127.022
1355.35	12.335
1359.59	7.19238
1363.82	76.9302
1368.06	39.0591
1372.29	80.5938
1376.52	25.667
1380.75	31.2676
1384.97	22.5674
1389.2	135.333
1393.42	88.1231
1397.64	103.963
1401.85	173.202
1406.07	175.714
1410.28	169.283
1414.49	179.151
1418.69	193.927
1422.9	297.569
1427.1	423.132
1431.3	474.872
1435.49	724.309
1439.69	1106.99
1443.88	1116.38
1448.07	1231.77
1452.26	1200.02
1456.44	1116.06
1460.62	1032.06
1464.8	924.783
1468.98	651.606
1473.15	439.503
1477.33	504.417
1481.5	379.734
1485.66	236.386
1489.83	185.257
1493.99	210.026
1498.15	117.736
1502.31	84.3848
1506.47	67.8862
1510.62	166.145
1514.77	52.5478
1518.92	111.14
1523.07	6.95068
1527.21	94.3716
1531.35	79.7632
1535.49	68.8608
1539.63	19.5703
1543.76	72.6538
1547.9	190.43
1552.03	235.547
1556.15	48.3262
1560.28	80.1958
