Measurement: Raman, 514 nm, ccw, Raman Data Processed
Mineral: Astrophyllite
Rruff sample: R060202
Ideal chemistry: K_2_NaFe^2+^_7_Ti_2_(Si_4_O_12_)_2_O_2_(OH)_4_F
Locality: Demix Quarry, Mont Saint-Hilaire, Rouville County, Quebec, Canada
Source: Royal Ontario Museum
Description: Aggregate of brown splintered wafers
Measured chemistry: (K_0.56_Na_0.38_Ca_0.06_)_3_(Fe^2+^_0.52_Mn_0.44_Mg_0.04_)_7_(Ti_0.75_Zr_0.15_Al_0.15_)_2_Si_8_O_24_(O_0.27_OH_0.73_)_7_
Pin_id: M00495
Orientation: Laser parallel to c* (0 0 1). Fiducial mark perpendicular to laser is parallel to a [1 0 0]
Raman shift (cm-1)	intensity
140.271	0
145.184	10.7617
150.094	202.191
155.002	1572.22
159.908	2561.96
164.811	3695.43
169.711	3484.84
174.61	3149.03
179.505	2008.41
184.399	1701.94
189.29	2478.49
194.178	3007.41
199.064	3765.57
203.948	4515.65
208.829	3077
213.708	3938.62
218.585	4833.52
223.459	5624.78
228.33	6918.42
233.199	7372.64
238.066	7420.39
242.93	6227.59
247.792	4925.2
252.651	3519.16
257.508	2378.75
262.363	2125.2
267.215	1181.63
272.064	557.018
276.912	678.43
281.756	49.7891
286.598	0.400391
291.438	277.557
296.276	146.045
301.111	283.881
305.943	345.525
310.773	582.471
315.601	789.424
320.426	857.318
325.248	1281.26
330.068	1382.72
334.886	1953.67
339.701	2511.2
344.514	2852.4
349.324	2998.34
354.132	3274.07
358.938	3173.08
363.741	2978.96
368.541	2536.04
373.339	2573.38
378.135	2327.78
382.928	2680.89
387.718	1986.97
392.506	1539.06
397.292	1225.19
402.075	1206.39
406.856	643.688
411.634	654.117
416.41	464.727
421.183	365.578
425.954	239.484
430.722	72.9453
435.488	10.1328
440.251	378.562
445.012	244.934
449.77	99.5586
454.526	91.2109
459.28	396.133
464.03	800.633
468.779	1454.69
473.525	1400.34
478.268	1145.64
483.009	1054.62
487.747	771.352
492.483	647.863
497.217	74.2031
501.948	22.5938
506.676	120.465
511.402	110.508
516.125	73.0156
520.846	137.188
525.565	76.3828
530.281	426.812
534.994	1056.51
539.705	1794.53
544.413	3357.9
549.119	5267.68
553.822	7023.09
558.523	7384.19
563.222	6745.64
567.917	5790.11
572.611	4797.94
577.302	3744.88
581.99	3108.8
586.676	2769.39
591.359	2861.23
596.04	3086.57
600.718	2855.26
605.394	2929.02
610.067	2909.88
614.737	3314.84
619.406	3407.93
624.071	4261.15
628.734	4707.5
633.395	6033.01
638.053	7393.68
642.708	10425
647.361	13871.9
652.012	16651.2
656.66	15645.7
661.305	13796.3
665.948	12205.1
670.588	12206.1
675.226	12964.3
679.861	14424.7
684.494	15898.3
689.124	17073.3
693.752	18180.9
698.377	18614
702.999	19184
707.619	19321
712.237	19261
716.852	17888.2
721.464	16571.8
726.074	14437.8
730.681	12831.7
735.286	10893.6
739.888	9765.37
744.488	8945.54
749.085	8246.07
753.68	7352.93
758.272	7022.49
762.861	6025.54
767.448	4922.23
772.033	4495.13
776.614	3766.2
781.194	3144.43
785.77	2680.79
790.345	2353.37
794.916	1871.89
799.485	1488.44
804.052	1057.6
808.616	691.695
813.177	383.691
817.736	302.555
822.292	149.852
826.846	31.6367
831.397	272.91
835.945	119.938
840.491	105.332
845.035	272.281
849.576	119.656
854.114	152.504
858.65	95.6719
863.183	84.9023
867.713	164.492
872.241	461.328
876.767	991.555
881.29	1102.67
885.81	1506.34
890.328	2000.81
894.843	1929.87
899.356	2637.46
903.866	2935.46
908.373	3416.88
912.878	3758.69
917.38	4302.91
921.88	3951.5
926.377	3702.44
930.872	3788.74
935.364	3501.41
939.853	3409.41
944.34	2653.74
948.824	2482.43
953.306	1952.43
957.785	1772.73
962.261	1434.84
966.735	983.273
971.207	949.391
975.675	874.422
980.141	706.051
984.605	621.766
989.066	727.758
993.524	832.918
997.98	1252.68
1002.43	1576.17
1006.88	1689.22
1011.33	2600.66
1015.78	3263.84
1020.22	3771.99
1024.66	4429.25
1029.1	4640.18
1033.53	4137.35
1037.97	3913.3
1042.4	3295.84
1046.82	2652.88
1051.25	2284.77
1055.67	1912.37
1060.09	1455.86
1064.51	1758.76
1068.92	1707.97
1073.33	1616.03
1077.74	1747.84
1082.15	1334.96
1086.55	1447.43
1090.95	1061.97
1095.35	834.074
1099.75	918.894
1104.14	569.902
1108.53	3.18359
1112.92	15.5664
1117.31	298.137
1121.69	295.848
1126.07	377.012
1130.45	33.5195
1134.82	34.1406
1139.19	25.8672
1143.57	166.418
1147.93	230.684
1152.3	309.281
1156.66	15.4258
1161.02	38.8516
1165.38	133.981
1169.73	29.6875
1174.08	59.3633
1178.43	150.594
1182.78	299.066
1187.12	286.027
1191.46	246.176
1195.8	56.6484
1200.14	65.8398
1204.47	116.871
1208.8	193.617
1213.13	486.965
1217.46	246.301
1221.78	245.262
1226.1	402.57
1230.42	390.836
1234.73	418.566
1239.04	497.949
1243.35	426.109
1247.66	360.223
1251.97	245.836
1256.27	158.969
1260.57	14.6484
1264.86	49.6523
1269.16	145.906
1273.45	89.7109
1277.74	415.828
1282.03	296.461
1286.31	202.477
1290.59	55.0117
1294.87	262.352
1299.14	324.82
1303.42	188.641
1307.69	92.3711
1311.95	412.164
1316.22	79.0391
1320.48	355.188
1324.74	397.828
1329	597.602
1333.26	98.3438
1337.51	548.188
1341.76	321.352
1346	454.766
1350.25	254.531
1354.49	425.727
1358.73	386.816
1362.96	431.465
1367.2	314.477
1371.43	296.191
1375.66	520.106
1379.88	581.309
1384.11	438.344
1388.33	550.629
1392.54	302.918
1396.76	420.039
1400.97	357.332
1405.18	112.5
1409.39	350.777
1413.59	333.051
1417.8	452.648
1421.99	609.188
1426.19	342.234
1430.38	170.82
1434.58	458.426
1438.77	502.188
1442.95	222.57
1447.13	250.758
1451.32	219.551
1455.49	179.887
1459.67	186.984
1463.84	100.617
1468.01	223.461
1472.18	451.453
1476.35	76.1289
1480.51	439.57
1484.67	13.4648
1488.83	140.391
1492.98	307.426
1497.13	305.898
1501.28	66.7227
1505.43	304.367
1509.57	124.715
1513.71	121
1517.85	216.859
1521.99	456.887
1526.12	531.344
1530.25	29.582
1534.38	527.988
1538.5	231.695
1542.62	311.352
1546.74	289.402
1550.86	561.66
1554.98	372.383
1559.09	496.039
1563.2	136.078
1567.31	192.699
1571.41	0
