Measurement: Raman, 514 nm, ccw, Raman Data Processed
Mineral: Astrophyllite
Rruff sample: R060103
Ideal chemistry: K_2_NaFe^2+^_7_Ti_2_(Si_4_O_12_)_2_O_2_(OH)_4_F
Locality: Brivik, Norway
Source: University of Arizona Mineral Museum
Description: Brown fragment embedded in matrix
Measured chemistry: K_2.00_Na_1.00_(Fe^2+^_0.55_Mn_0.32_Fe^3+^_0.04_Mg_0.04_Ca_0.04_)_7_(Ti_0.66_Zr_0.18_Al_0.16_)_2_Si_8.00_O_26_(OH)_4_F_1.00_
Pin_id: M01528
Orientation: Laser parallel to (1 0 1). Fiducial mark perpendicular to laser is parallel to c [0 0 1]
Raman shift (cm-1)	intensity
151.398	0
156.328	459.501
161.256	1163.41
166.18	2167.34
171.102	2477.04
176.021	1963.51
180.937	911.516
185.85	278.832
190.76	1.91699
195.668	143.657
200.572	240.782
205.474	423.978
210.374	726.264
215.27	1313.85
220.163	2001.42
225.054	2131.43
229.942	2578.16
234.827	2551.2
239.709	2532.66
244.589	2561.01
249.465	2539.1
254.339	2641.98
259.21	2634.62
264.079	2477.94
268.944	2118.67
273.807	1725.24
278.667	1440.47
283.524	1334.23
288.378	1470.86
293.23	1694.45
298.079	2231.22
302.925	2217.83
307.768	2228.34
312.609	2061.78
317.446	2111.6
322.281	1583.51
327.113	1575.28
331.943	2029.73
336.769	2615.44
341.593	3358.94
346.414	3915.46
351.233	3925.44
356.048	3170.1
360.861	2686.7
365.671	1959.95
370.478	1858.1
375.283	1738.42
380.084	1828.6
384.883	1831.16
389.68	2056.5
394.473	1785.16
399.264	1248.75
404.052	898.806
408.837	498.951
413.62	640.453
418.4	783.359
423.177	859.732
427.951	997.463
432.722	458.574
437.491	85.9111
442.257	56.2705
447.021	243.902
451.781	143.477
456.539	58.1143
461.294	256.175
466.047	234.224
470.797	146.512
475.544	312.041
480.288	46.0117
485.03	27.6328
489.768	45.9228
494.504	164.779
499.238	198.42
503.969	78.1875
508.697	84.8193
513.422	61.1377
518.144	65.4072
522.864	117.585
527.582	92.0664
532.296	26.5273
537.008	14.9355
541.717	137.507
546.423	603.974
551.127	1200.5
555.828	1935.41
560.526	2350.97
565.222	1894.04
569.915	1496.85
574.605	843.836
579.292	609.824
583.977	1004.53
588.659	1324.47
593.339	1240.44
598.016	1359.57
602.69	1629.86
607.361	1430.02
612.03	1870.01
616.696	3072.29
621.359	5405.98
626.02	6938.9
630.678	5162.68
635.333	4161.01
639.986	5056.6
644.636	7842.11
649.284	9843.23
653.928	10211.6
658.57	7786.24
663.21	5039.06
667.846	3989.22
672.481	3925.43
677.112	4670.15
681.741	5782.96
686.367	6696.49
690.99	7719.99
695.611	8751.07
700.229	9179.51
704.845	9613.4
709.458	9993.59
714.068	9737.92
718.676	9090.65
723.281	8175.97
727.883	7044.79
732.483	5872.44
737.08	4411.56
741.674	3622.91
746.266	3170.78
750.855	2735.48
755.442	2587.66
760.025	2276.86
764.607	2228.72
769.185	1925.45
773.761	1792.25
778.335	1737.43
782.906	1571.05
787.474	1402.99
792.039	1479.95
796.602	1282.62
801.162	763.066
805.72	530.142
810.275	24.8291
814.828	15.999
819.378	21.7158
823.925	157.587
828.47	358.587
833.012	36.9297
837.551	304.501
842.088	941.281
846.622	1443.68
851.154	2324.66
855.683	3654.8
860.209	4597.16
864.733	3383.71
869.254	2225.44
873.773	1744.42
878.289	1823.36
882.803	1926.16
887.314	2353.01
891.822	2702.6
896.328	3347.17
900.831	3890.76
905.332	4397.24
909.83	4836.56
914.325	5252.65
918.818	5205.49
923.308	5269.01
927.796	5121.17
932.281	4857.06
936.764	3945.57
941.244	3323.59
945.721	2871.21
950.196	2483.54
954.668	2170.28
959.138	1491.25
963.605	793.123
968.07	326.401
972.532	40.8652
976.991	238.407
981.448	184.41
985.903	461.072
990.355	615.668
994.804	1627.54
999.251	4285.45
1003.7	5226.89
1008.14	3840.65
1012.58	4974.05
1017.01	7533.5
1021.45	10199.5
1025.88	11924.7
1030.31	12058.8
1034.73	11318.3
1039.16	9036.07
1043.58	7534.39
1048	5764.44
1052.41	3827.01
1056.83	2380.16
1061.24	1813.25
1065.65	1552.47
1070.05	1569.35
1074.46	1906.59
1078.86	2344.32
1083.26	2965.62
1087.65	2463.67
1092.05	1924.53
1096.44	1467.16
1100.83	1251.64
1105.21	1462.97
1109.6	1363.71
1113.98	870.031
1118.36	647.091
1122.73	345.107
1127.1	366.69
1131.47	156.835
1135.84	153.486
1140.21	166.833
1144.57	173.606
1148.93	152.962
1153.29	182.72
1157.65	0.270508
1162	190.077
1166.35	410.363
1170.7	416.274
1175.05	570.832
1179.39	589.049
1183.73	415.942
1188.07	559.526
1192.41	15.7646
1196.74	90.4531
1201.07	273.813
1205.4	206.934
1209.72	380.833
1214.05	858.531
1218.37	640.044
1222.69	510.386
1227.01	570.575
1231.32	976.625
1235.63	1340.66
1239.94	1282.69
1244.24	1399.95
1248.55	1411.79
1252.85	1606.87
1257.15	1700.97
1261.44	2427.38
1265.74	2830.56
1270.03	3120.92
1274.32	3184.75
1278.61	2833.93
1282.89	2432.31
1287.17	2279.67
1291.45	2933.45
1295.73	2990.48
1300	2817.3
1304.27	3072.51
1308.54	3720.14
1312.81	3791.21
1317.08	3714.69
1321.34	3109.08
1325.6	1875.5
1329.85	1072.39
1334.11	817.822
1338.36	524.811
1342.61	845.389
1346.86	575.586
1351.1	453.412
1355.35	178.881
1359.59	357.016
1363.82	241.838
1368.06	623.356
1372.29	648.57
1376.52	1114.93
1380.75	1179.25
1384.97	962.279
1389.2	1034.34
1393.42	578.793
1397.64	437.215
1401.85	332.615
1406.07	303.043
1410.28	260.393
1414.49	279.945
1418.69	370.182
1422.9	628.582
1427.1	1120.84
1431.3	2013.22
1435.49	3357.08
1439.69	5438.13
1443.88	7099.74
1448.07	7881.83
1452.26	8537.16
1456.44	8188.76
1460.62	7030.67
1464.8	5063.94
1468.98	3735.63
1473.15	3072.05
1477.33	2599.98
1481.5	2355.69
1485.66	1516.55
1489.83	759.404
1493.99	264.398
1498.15	4.27148
1502.31	87.4404
1506.47	17.7178
1510.62	99.0488
1514.77	83.582
1518.92	430.178
1523.07	477.991
1527.21	516.335
1531.35	747.438
1535.49	822.399
1539.63	468.425
1543.76	498.158
1547.9	220.859
1552.03	370.633
1556.15	224.837
1560.28	268.093
