Measurement: Raman, 514 nm, ccw, Raman Data Processed
Mineral: Astrophyllite
Rruff sample: R060103
Ideal chemistry: K_2_NaFe^2+^_7_Ti_2_(Si_4_O_12_)_2_O_2_(OH)_4_F
Locality: Brivik, Norway
Source: University of Arizona Mineral Museum
Description: Brown fragment embedded in matrix
Measured chemistry: K_2.00_Na_1.00_(Fe^2+^_0.55_Mn_0.32_Fe^3+^_0.04_Mg_0.04_Ca_0.04_)_7_(Ti_0.66_Zr_0.18_Al_0.16_)_2_Si_8.00_O_26_(OH)_4_F_1.00_
Pin_id: M01572
Orientation: Laser parallel to (1 1 0). Fiducial mark perpendicular to laser is parallel to c [0 0 1]
Raman shift (cm-1)	intensity
155.096	0
160.024	364.635
164.949	941.273
169.872	1055.35
174.791	915.379
179.708	283.85
184.622	62.1221
189.533	63.4775
194.441	88.9922
199.347	407.812
204.249	834.916
209.149	1103.44
214.046	1945.34
218.94	2752.99
223.832	3696.87
228.72	4502.4
233.606	5284.78
238.489	5665.61
243.369	5460.56
248.247	5226.96
253.121	5087.34
257.993	5033.07
262.862	4183.65
267.728	3333.18
272.592	2350.6
277.452	1555.74
282.31	1032.45
287.165	618.699
292.017	526.016
296.867	392.779
301.714	441.494
306.558	426.935
311.399	518.632
316.237	599.133
321.073	801.674
325.906	846.409
330.736	1113.58
335.563	1321.66
340.387	1698.68
345.209	1768.49
350.028	1703.59
354.844	1369.93
359.658	1060.9
364.469	897.744
369.277	843.682
374.082	1116.79
378.884	1208.87
383.684	1209.81
388.481	1085.37
393.275	1023.51
398.066	938.077
402.855	925.824
407.641	1019.33
412.424	1420.57
417.205	1865.47
421.983	2004.99
426.758	1790.13
431.53	1292.91
436.299	895.326
441.066	422.398
445.83	126.134
450.591	2.57275
455.35	48.2529
460.106	57.1148
464.859	301.025
469.609	289.685
474.357	319.119
479.102	320.386
483.844	276.546
488.584	415.377
493.321	276.978
498.055	207.229
502.786	70.1509
507.515	16.5713
512.241	50.7315
516.964	101.415
521.685	139.066
526.402	156.629
531.118	83.9873
535.83	117.408
540.54	344.398
545.247	850.125
549.951	1755.82
554.653	2748.7
559.352	3373.85
564.048	3310.32
568.742	2447.98
573.432	1774.75
578.121	1134.6
582.806	1045.35
587.489	952.51
592.169	979.246
596.847	973.774
601.521	867.93
606.193	840.482
610.863	846.153
615.53	921.689
620.194	1143.1
624.855	1337.38
629.514	1786.54
634.17	2486.6
638.823	3400.55
643.474	5220.33
648.122	8187.13
652.767	10761.5
657.41	10782.6
662.05	8069.65
666.688	5974.02
671.322	5349.56
675.954	5616.5
680.584	6343.37
685.211	7217.5
689.835	7952.1
694.456	8605.98
699.075	9187.56
703.691	9445.5
708.305	9593.08
712.916	9423.59
717.524	8899.09
722.13	7851.43
726.733	6888.84
731.333	5777.47
735.931	4781.58
740.526	3986.05
745.118	3657.67
749.708	3299.4
754.295	2924.25
758.88	2770.23
763.462	2608.33
768.041	2437.57
772.618	2329.96
777.192	2009.5
781.763	1868.2
786.332	1768.19
790.898	1533.57
795.462	1284.78
800.023	891.999
804.581	537.126
809.137	344.152
813.69	177.68
818.24	35.3916
822.788	92.8735
827.334	98.6455
831.876	104.258
836.416	182.783
840.954	68.3442
845.489	97.5537
850.021	154.236
854.551	110.556
859.078	153.423
863.602	393.487
868.124	630.725
872.644	1073.18
877.16	1597.93
881.675	2324.94
886.186	3233.41
890.695	4442.3
895.202	5401.4
899.705	6527.69
904.207	7920.31
908.705	9182.2
913.201	10351.3
917.695	10825.6
922.186	11001.1
926.674	10600.7
931.16	9856.5
935.643	8825.43
940.124	7518.47
944.602	6186.62
949.077	4890.85
953.55	4160.94
958.021	3188.25
962.489	2196.27
966.954	1520.3
971.417	1072.97
975.877	709.947
980.334	546.556
984.789	548.01
989.242	564.437
993.692	717.5
998.139	822.675
1002.58	1138.66
1007.03	1376.14
1011.47	1908.6
1015.9	2508.44
1020.34	3092.45
1024.77	3731.02
1029.2	4167.59
1033.63	4273.39
1038.05	4031.42
1042.47	3517.57
1046.89	2816.36
1051.31	1941.7
1055.72	1545.76
1060.14	1149.39
1064.55	1014.16
1068.95	841.252
1073.36	619.229
1077.76	592.529
1082.16	551.942
1086.55	600.088
1090.95	617.14
1095.34	528.279
1099.73	441.255
1104.12	357.535
1108.5	209.416
1112.88	197.784
1117.26	94.1597
1121.64	35.8413
1126.01	17.375
1130.38	1.40186
1134.75	54.4238
1139.12	58.3565
1143.48	21.9971
1147.84	100.936
1152.2	21.8574
1156.56	6.70703
1160.91	33.7949
1165.27	82.0571
1169.61	12.7456
1173.96	42.2261
1178.31	5.80371
1182.65	74.8662
1186.98	107.072
1191.32	54.6855
1195.66	4.896
1199.99	85.2158
1204.32	3.96289
1208.64	34.5557
1212.97	12.5859
1217.29	140.329
1221.61	68.9165
1225.93	104.355
1230.24	100.655
1234.55	44.4702
1238.86	73.9751
1243.17	144.119
1247.47	157.778
1251.78	160.57
1256.07	157.085
1260.37	183.516
1264.67	78.6343
1268.96	158.963
1273.25	130.098
1277.54	139.538
1281.82	69.9365
1286.1	108.517
1290.38	61.4648
1294.66	213.996
1298.93	102.161
1303.21	70.4609
1307.48	83.1255
1311.74	256.408
1316.01	97.5483
1320.27	53.7202
1324.53	139.935
1328.79	153.575
1333.05	66.6309
1337.3	88.7808
1341.55	76.335
1345.8	147.116
1350.04	91.9868
1354.29	120.89
1358.53	100.834
1362.76	147.498
1367	71.7573
1371.23	110.611
1375.46	75.1689
1379.69	174.204
1383.92	33.2236
1388.14	70.082
1392.36	102.241
1396.58	101.649
1400.8	49.9419
1405.01	69.3076
1409.22	119.015
1413.43	37.3335
1417.64	49.2002
1421.85	88.0776
1426.05	104.981
1430.25	67.7319
1434.44	137.59
1438.64	98.7104
1442.83	182.563
1447.02	152.671
1451.21	160.674
1455.39	92.1357
1459.58	147.221
1463.76	63.0195
1467.94	120.784
1472.11	188.86
1476.28	118.879
1480.45	92.8242
1484.62	117.918
1488.79	2.77734
1492.95	48.5112
1497.11	148.831
1501.27	57.3037
1505.43	117.689
1509.58	150.268
1513.73	10.8735
1517.88	56.7051
1522.03	92.1543
1526.18	15.4604
1530.32	81.2158
1534.46	20.9155
1538.6	44.9751
1542.73	107.847
1546.86	147.136
1550.99	112.352
1555.12	37.1089
1559.25	35.0298
