Measurement: Raman, 514 nm, ccw, Raman Data Processed
Mineral: Astrophyllite
Rruff sample: R060202
Ideal chemistry: K_2_NaFe^2+^_7_Ti_2_(Si_4_O_12_)_2_O_2_(OH)_4_F
Locality: Demix Quarry, Mont Saint-Hilaire, Rouville County, Quebec, Canada
Source: Royal Ontario Museum
Description: Aggregate of brown splintered wafers
Measured chemistry: (K_0.56_Na_0.38_Ca_0.06_)_3_(Fe^2+^_0.52_Mn_0.44_Mg_0.04_)_7_(Ti_0.75_Zr_0.15_Al_0.15_)_2_Si_8_O_24_(O_0.27_OH_0.73_)_7_
Pin_id: M00170
Orientation: Laser parallel to (-1 0 -1). Fiducial mark perpendicular to laser is parallel to -b [0 -1 0]
Raman shift (cm-1)	intensity
141.5	0
146.412	166.594
151.321	431.713
156.229	844.748
161.134	1676.69
166.036	2325.72
170.936	1697.23
175.834	957.984
180.729	217.307
185.622	109
190.512	201.711
195.4	806.139
200.286	1691.88
205.169	2213.99
210.049	2827.23
214.928	4106.24
219.803	5856.47
224.677	7948.7
229.548	9701.73
234.416	11544.1
239.282	12643.9
244.146	12621.4
249.007	12733.8
253.866	13539
258.722	12481.5
263.576	9409.68
268.427	6602.09
273.276	4175.36
278.123	2559.33
282.967	1201.99
287.809	552.441
292.648	380.344
297.485	323.168
302.319	46.1953
307.151	283.928
311.98	807.693
316.807	1282.6
321.631	1774.95
326.454	2053.49
331.273	2352.02
336.09	2835.23
340.905	3514.3
345.717	2917.7
350.527	2402.45
355.334	1841.34
360.139	1837.88
364.941	1640.44
369.741	1844.95
374.538	1959.56
379.333	2341.57
384.126	2306.41
388.916	2211.12
393.703	1996.12
398.488	2134.11
403.271	2202.25
408.051	2772.42
412.828	3550.52
417.603	4004.56
422.376	3976.58
427.146	3123.61
431.914	1967.7
436.679	1406.08
441.442	530.889
446.202	30.9648
450.96	222.758
455.715	104.807
460.467	544.154
465.218	766.231
469.965	1143.45
474.711	850.85
479.454	1082.44
484.194	680.125
488.932	394.879
493.667	280.654
498.4	4.78516
503.13	66.3418
507.858	336.924
512.583	244.576
517.306	338.359
522.026	390.488
526.744	87.1504
531.459	149.533
536.172	817.053
540.882	1624.67
545.59	3045.23
550.295	4788.96
554.998	5900.07
559.698	5714.87
564.396	4756.23
569.091	3976.84
573.784	2986.41
578.474	2514.38
583.162	2562.64
587.847	2941.2
592.529	2921.28
597.209	2969.9
601.887	3062
606.562	3065.43
611.235	3356.93
615.905	3680.88
620.572	4178.32
625.237	4860.24
629.9	5956.02
634.56	7241.3
639.217	10383.1
643.872	14594.3
648.524	20460
653.174	24149.1
657.821	20573.2
662.466	15620.1
667.108	12800.1
671.748	12568.1
676.385	13780.8
681.02	15139.3
685.652	16746
690.281	17723.6
694.908	18497
699.533	18524.5
704.155	18541.4
708.774	17885.5
713.391	16951.8
718.005	15066.1
722.617	12815.4
727.226	10971.7
731.833	8999.49
736.437	7666.62
741.039	6665.1
745.638	6053.73
750.234	5486.17
754.828	4750.24
759.419	4423.41
764.008	3965.48
768.595	3574.66
773.178	3383.58
777.759	3131.01
782.338	2865.4
786.914	2663.36
791.488	2258.17
796.059	1800.94
800.627	1334.82
805.193	735.707
809.756	399.523
814.317	149.781
818.875	93.9394
823.431	375.031
827.984	228.022
832.534	134.272
837.082	234.012
841.627	127.988
846.17	213.416
850.71	155.367
855.248	480.486
859.783	904.99
864.316	1389.89
868.846	2438.37
873.373	3393.39
877.898	4561.29
882.42	5830.19
886.94	6984.69
891.457	9007.25
895.971	10879.8
900.483	12795.1
904.993	15326.9
909.5	17661.2
914.004	19383.9
918.505	21262.3
923.004	21828.6
927.501	21611.3
931.995	21103.9
936.486	19905.9
940.975	16747.8
945.461	14185.9
949.945	11823.2
954.426	9240.5
958.904	7106.56
963.38	5029.93
967.853	3598.81
972.324	2426.02
976.792	1900.55
981.258	1485.55
985.72	1560.38
990.181	1317.41
994.639	1479.07
999.094	2048.78
1003.55	2509.37
1008	3380.06
1012.44	4402.78
1016.89	6004.86
1021.33	7322.62
1025.77	8496.75
1030.21	9291.26
1034.64	8829.46
1039.07	7951.13
1043.5	6670.76
1047.93	5054.29
1052.35	3795.83
1056.78	2864.14
1061.19	2229.45
1065.61	2054.81
1070.02	1640.29
1074.43	1551.38
1078.84	1586.4
1083.25	1491.57
1087.65	1122.23
1092.05	1495.32
1096.45	1123.72
1100.85	867.252
1105.24	818.398
1109.63	392.029
1114.02	22.1309
1118.4	456.08
1122.78	558.541
1127.16	226.17
1131.54	62.2949
1135.92	10.541
1140.29	100.93
1144.66	56.2461
1149.02	128.816
1153.39	302.344
1157.75	69.5469
1162.11	100.35
1166.46	56.8125
1170.82	112.59
1175.17	196.746
1179.52	5.69531
1183.86	4.11328
1188.21	361.725
1192.55	39.9238
1196.89	230.326
1201.22	139.127
1205.55	199.002
1209.88	162.043
1214.21	372.695
1218.54	311.463
1222.86	32.543
1227.18	191.859
1231.5	266.344
1235.81	119.062
1240.12	614.213
1244.43	329.684
1248.74	430.709
1253.04	379.072
1257.34	77.3418
1261.64	309.1
1265.94	313.693
1270.23	133.092
1274.52	54.4746
1278.81	477.932
1283.1	355.672
1287.38	167.547
1291.66	377.051
1295.94	513.025
1300.21	294.273
1304.48	338.272
1308.75	397.232
1313.02	234.076
1317.29	304.381
1321.55	287.074
1325.81	439.381
1330.06	119.154
1334.32	568.535
1338.57	240.053
1342.82	183.893
1347.06	362.344
1351.31	361.152
1355.55	162.693
1359.79	335.641
1364.02	86.6348
1368.26	212.66
1372.49	112.08
1376.71	497.076
1380.94	196.887
1385.16	179.088
1389.38	275.926
1393.6	21.8516
1397.81	253.94
1402.02	221.56
1406.23	210.906
1410.44	102.102
1414.64	171.619
1418.85	102.648
1423.04	239.545
1427.24	250.072
1431.43	223.611
1435.62	111.902
1439.81	395.76
1444	459.246
1448.18	338.883
1452.36	86.4336
1456.54	224.928
1460.71	151.322
1464.89	44.9531
1469.06	558.492
1473.22	78.2578
1477.39	197.664
1481.55	326.861
1485.71	236.834
1489.86	106.172
1494.02	399.094
1498.17	306.184
1502.32	11.3164
1506.46	359.443
1510.61	199.404
1514.75	42.8008
1518.88	296.566
1523.02	192.924
1527.15	29.043
1531.28	247.4
1535.41	533.775
1539.53	189.725
1543.66	193.33
1547.78	262.92
1551.89	351.414
1556.01	309.135
1560.12	174.512
1564.23	146.039
1568.33	49.2734
