Measurement: Raman, 514 nm, ccw, Raman Data Processed
Mineral: Astrophyllite
Rruff sample: R060103
Ideal chemistry: K_2_NaFe^2+^_7_Ti_2_(Si_4_O_12_)_2_O_2_(OH)_4_F
Locality: Brivik, Norway
Source: University of Arizona Mineral Museum
Description: Brown fragment embedded in matrix
Measured chemistry: K_2.00_Na_1.00_(Fe^2+^_0.55_Mn_0.32_Fe^3+^_0.04_Mg_0.04_Ca_0.04_)_7_(Ti_0.66_Zr_0.18_Al_0.16_)_2_Si_8.00_O_26_(OH)_4_F_1.00_
Pin_id: M01690
Orientation: Laser parallel to (0 1 1). Fiducial mark perpendicular to laser is parallel to a [1 0 0]
Raman shift (cm-1)	intensity
150.165	0
155.096	26.1895
160.024	179.489
164.949	433.172
169.872	625.02
174.791	344.969
179.708	163.747
184.622	6.66894
189.533	7.06982
194.441	95.9822
199.347	349.387
204.249	554.73
209.149	840.76
214.046	1289.6
218.94	1950.9
223.832	2547.17
228.72	2792.45
233.606	2871.72
238.489	2859.12
243.369	2254.64
248.247	1569.38
253.121	1239.46
257.993	1049.89
262.862	938.726
267.728	970.125
272.592	892.398
277.452	769.133
282.31	571.192
287.165	520.771
292.017	621.258
296.867	850.194
301.714	1047.87
306.558	1363.14
311.399	1627.15
316.237	1772.44
321.073	1649.02
325.906	1526.4
330.736	1330.47
335.563	1356.2
340.387	1510.85
345.209	1620.56
350.028	1452.66
354.844	1251.36
359.658	1239.54
364.469	1283.54
369.277	1250.42
374.082	1298.27
378.884	1265.88
383.684	1366.39
388.481	1343.67
393.275	1168.48
398.066	979.643
402.855	747.061
407.641	461.027
412.424	266.563
417.205	166.671
421.983	76.3452
426.758	75.5774
431.53	35.6755
436.299	22.676
441.066	19.9788
445.83	104.619
450.591	40.7515
455.35	20.969
460.106	7.98633
464.859	85.4336
469.609	274.487
474.357	190.193
479.102	140.563
483.844	138.582
488.584	92.2385
493.321	198.541
498.055	163.507
502.786	164.147
507.515	153.471
512.241	53.48
516.964	20.1443
521.685	2.11011
526.402	33.6399
531.118	50.272
535.83	56.6431
540.54	91.2908
545.247	267.7
549.951	529.985
554.653	1073.25
559.352	1570.26
564.048	1542.09
568.742	1133.18
573.432	771.849
578.121	505.268
582.806	544.432
587.489	496.297
592.169	594.804
596.847	590.167
601.521	519.863
606.193	498.719
610.863	465.848
615.53	595.391
620.194	722.903
624.855	880.075
629.514	953.938
634.17	1245.63
638.823	1754.28
643.474	2492.22
648.122	4007.14
652.767	5967.67
657.41	6362.08
662.05	4553.34
666.688	2888.07
671.322	2594.33
675.954	2578.48
680.584	2909.28
685.211	3300.42
689.835	3778.44
694.456	4116.74
699.075	4272.13
703.691	4718.96
708.305	4832.63
712.916	5041.3
717.524	4768.91
722.13	4376.8
726.733	3697.32
731.333	3182.83
735.931	2579.82
740.526	2124.11
745.118	1818.6
749.708	1569.23
754.295	1421.01
758.88	1259.91
763.462	1288.96
768.041	1189.15
772.618	1071.49
777.192	1086.97
781.763	1059.59
786.332	989.343
790.898	965.234
795.462	729.285
800.023	580.502
804.581	410.92
809.137	262.614
813.69	126.492
818.24	6.4978
822.788	12.5745
827.334	77.4414
831.876	62.8435
836.416	38.8252
840.954	93.2249
845.489	36.1169
850.021	24.2478
854.551	5.59106
859.078	147.04
863.602	127.748
868.124	68.5627
872.644	159.527
877.16	215.644
881.675	303.838
886.186	485.209
890.695	594.658
895.202	904.167
899.705	1094.8
904.207	1268.56
908.705	1549.42
913.201	1805.34
917.695	1892.3
922.186	2065.3
926.674	1997.35
931.16	1978.91
935.643	1786.57
940.124	1568.71
944.602	1464.07
949.077	1334.09
953.55	1183.37
958.021	870.668
962.489	700.896
966.954	519.205
971.417	244.099
975.877	232.096
980.334	203.254
984.789	199.917
989.242	249.438
993.692	307.049
998.139	614.827
1002.58	904.832
1007.03	911.106
1011.47	1285.36
1015.9	1741.54
1020.34	2390.54
1024.77	2873.44
1029.2	3182.56
1033.63	3352.98
1038.05	3271.17
1042.47	2856
1046.89	2156.99
1051.31	1616.44
1055.72	1135.72
1060.14	704.95
1064.55	610.466
1068.95	451.554
1073.36	429.804
1077.76	360.575
1082.16	488.888
1086.55	544.055
1090.95	378.897
1095.34	213.873
1099.73	205.049
1104.12	259.544
1108.5	281.293
1112.88	184.252
1117.26	27.3481
1121.64	62.5181
1126.01	114.673
1130.38	44.2383
1134.75	35.3672
1139.12	18.7646
1143.48	2.34766
1147.84	36.081
1152.2	27.5801
1156.56	94.7734
1160.91	62.6138
1165.27	47.7852
1169.61	34.0312
1173.96	6.06543
1178.31	12.2192
1182.65	83.4922
1186.98	12.8828
1191.32	6.57764
1195.66	43.9204
1199.99	27.1504
1204.32	39.168
1208.64	9.1748
1212.97	6.97266
1217.29	153.598
1221.61	46.0815
1225.93	183.475
1230.24	186.774
1234.55	116.863
1238.86	138.602
1243.17	203.6
1247.47	155.5
1251.78	173.283
1256.07	197.669
1260.37	298.869
1264.67	165.522
1268.96	266.985
1273.25	208.737
1277.54	185.436
1281.82	217.079
1286.1	247.117
1290.38	263.403
1294.66	197.267
1298.93	248.074
1303.21	170.648
1307.48	149.87
1311.74	238.428
1316.01	303.104
1320.27	234.439
1324.53	180.688
1328.79	111.824
1333.05	135.858
1337.3	88.8955
1341.55	44.7573
1345.8	52.958
1350.04	77.084
1354.29	125.217
1358.53	67.2695
1362.76	14.7271
1367	76.2422
1371.23	94.9751
1375.46	51.9287
1379.69	171.88
1383.92	154.862
1388.14	125.831
1392.36	36.5967
1396.58	27.9058
1400.8	94.1597
1405.01	79.5518
1409.22	38.9639
1413.43	115.486
1417.64	37.7715
1421.85	111.082
1426.05	125.434
1430.25	197.801
1434.44	306.253
1438.64	428.981
1442.83	596.769
1447.02	628.652
1451.21	627.616
1455.39	694.774
1459.58	609.118
1463.76	429.451
1467.94	297.763
1472.11	301.206
1476.28	346.115
1480.45	348.149
1484.62	270.032
1488.79	123.431
1492.95	75.9233
1497.11	54.5308
1501.27	54.2432
1505.43	71.062
1509.58	69.0635
1513.73	75.2002
1517.88	10.6602
1522.03	87.4517
1526.18	121.938
1530.32	126.127
1534.46	91.6118
1538.6	64.1797
1542.73	49.3965
1546.86	46.0288
1550.99	60.8804
1555.12	123.447
1559.25	0.716797
