Measurement: Raman, 514 nm, ccw, Raman Data Processed
Mineral: Astrophyllite
Rruff sample: R060103
Ideal chemistry: K_2_NaFe^2+^_7_Ti_2_(Si_4_O_12_)_2_O_2_(OH)_4_F
Locality: Brivik, Norway
Source: University of Arizona Mineral Museum
Description: Brown fragment embedded in matrix
Measured chemistry: K_2.00_Na_1.00_(Fe^2+^_0.55_Mn_0.32_Fe^3+^_0.04_Mg_0.04_Ca_0.04_)_7_(Ti_0.66_Zr_0.18_Al_0.16_)_2_Si_8.00_O_26_(OH)_4_F_1.00_
Pin_id: M01746
Orientation: Laser parallel to a* (1 0 0). Fiducial mark perpendicular to laser is parallel to b [0 1 0]
Raman shift (cm-1)	intensity
150.165	0
155.096	620.257
160.024	2112.45
164.949	4715.06
169.872	6576.38
174.791	5998.65
179.708	3648.49
184.622	1322.67
189.533	435.426
194.441	59.1562
199.347	26.5068
204.249	162.255
209.149	295.457
214.046	567.937
218.94	1008.36
223.832	917.703
228.72	747.419
233.606	630.209
238.489	306.819
243.369	69.959
248.247	222.401
253.121	2.0791
257.993	61.0928
262.862	23.3594
267.728	16.2627
272.592	75.4619
277.452	93.4092
282.31	19.0439
287.165	65.084
292.017	86.7519
296.867	278.019
301.714	197.029
306.558	251.69
311.399	326.531
316.237	332.938
321.073	360.295
325.906	479.717
330.736	570.976
335.563	901.374
340.387	1339.08
345.209	1760.66
350.028	1652.29
354.844	1657.08
359.658	1330.03
364.469	1053.47
369.277	957.713
374.082	783.709
378.884	634.331
383.684	610.127
388.481	572.314
393.275	433.652
398.066	256.789
402.855	64.3926
407.641	11.7134
412.424	44.0772
417.205	117.247
421.983	47.061
426.758	135.713
431.53	43.6904
436.299	7.54004
441.066	59.2441
445.83	84.542
450.591	154.895
455.35	201.218
460.106	268.92
464.859	311.599
469.609	301.712
474.357	425.328
479.102	259.149
483.844	342.183
488.584	210.536
493.321	308.205
498.055	251.208
502.786	48.584
507.515	17.6553
512.241	113.586
516.964	38.708
521.685	7.03467
526.402	164.87
531.118	37.6919
535.83	145.535
540.54	185.623
545.247	411.317
549.951	996.324
554.653	1784.98
559.352	2201.8
564.048	1877.07
568.742	1168.29
573.432	917.58
578.121	489.975
582.806	516.268
587.489	518.212
592.169	872.338
596.847	1220.61
601.521	1212.91
606.193	1472.15
610.863	1773.25
615.53	2115.42
620.194	2515.05
624.855	2809.82
629.514	3393.85
634.17	4010.72
638.823	4821.68
643.474	6085.82
648.122	7602.87
652.767	9354.35
657.41	9441.65
662.05	8211.21
666.688	7447.66
671.322	7747.93
675.954	8783.02
680.584	10300.9
685.211	12059
689.835	13968
694.456	15595.5
699.075	17196.3
703.691	18173.7
708.305	19184.7
712.916	19513.5
717.524	19159.8
722.13	18365
726.733	16656.4
731.333	14778.9
735.931	13220.2
740.526	11650.3
745.118	10600.5
749.708	9847.62
754.295	9670.61
758.88	9544.42
763.462	8821.14
768.041	8380.23
772.618	7700.9
777.192	7241.98
781.763	6778.85
786.332	6613.74
790.898	6008.87
795.462	5168.39
800.023	4648.9
804.581	3818.02
809.137	2928.33
813.69	2217.62
818.24	1630.83
822.788	1354.88
827.334	1101.74
831.876	756.4
836.416	527.804
840.954	251.922
845.489	57.7266
850.021	222.898
854.551	179.701
859.078	115.02
863.602	323.452
868.124	159.936
872.644	179.917
877.16	83.8672
881.675	102.32
886.186	221.238
890.695	249.935
895.202	452.31
899.705	591.365
904.207	1056.98
908.705	925.259
913.201	1279.85
917.695	1374.48
922.186	1366.52
926.674	1510.48
931.16	1502.48
935.643	1386.74
940.124	1373.36
944.602	1370.4
949.077	1367.65
953.55	1389.04
958.021	1143.52
962.489	1127.09
966.954	1087.73
971.417	1250.41
975.877	1466.11
980.334	1641.82
984.789	1930.64
989.242	2468.57
993.692	3209.8
998.139	4273.61
1002.58	5938.97
1007.03	7683.71
1011.47	10748.8
1015.9	14928.7
1020.34	19673.1
1024.77	23803.6
1029.2	26646.7
1033.63	26841.2
1038.05	24311.2
1042.47	20077.5
1046.89	15402.4
1051.31	10887
1055.72	7701.34
1060.14	5667.61
1064.55	4425.75
1068.95	3778.65
1073.36	3149.31
1077.76	2980.17
1082.16	2661.15
1086.55	2498.76
1090.95	2419.27
1095.34	2062.58
1099.73	1774.69
1104.12	1666.6
1108.5	1370.3
1112.88	1175.76
1117.26	770.133
1121.64	386.665
1126.01	99.2119
1130.38	67.3428
1134.75	95.7432
1139.12	44.9307
1143.48	42.3184
1147.84	72.4941
1152.2	5.94238
1156.56	25.627
1160.91	44.2578
1165.27	10.748
1169.61	10.0674
1173.96	72.6123
1178.31	122.046
1182.65	217.822
1186.98	370.265
1191.32	137.89
1195.66	150.352
1199.99	34.7002
1204.32	44.751
1208.64	147.457
1212.97	315.943
1217.29	347.162
1221.61	512.141
1225.93	617.663
1230.24	422.057
1234.55	392.419
1238.86	499.765
1243.17	394.367
1247.47	473.067
1251.78	662.015
1256.07	619.141
1260.37	506.966
1264.67	368.569
1268.96	272.856
1273.25	279.134
1277.54	185.347
1281.82	305.123
1286.1	358.067
1290.38	235.091
1294.66	308.573
1298.93	163.18
1303.21	122.38
1307.48	189.739
1311.74	143.616
1316.01	153.145
1320.27	43.0928
1324.53	104.76
1328.79	0.910156
1333.05	50.3418
1337.3	132.239
1341.55	4.71777
1345.8	132.667
1350.04	57.7012
1354.29	14.4277
1358.53	74.832
1362.76	16.04
1367	93.8076
1371.23	11.6104
1375.46	174.472
1379.69	192.765
1383.92	156.574
1388.14	134.174
1392.36	22.4248
1396.58	175.752
1400.8	163.644
1405.01	139.798
1409.22	132.552
1413.43	97.7022
1417.64	77.3027
1421.85	220.815
1426.05	203.124
1430.25	369.029
1434.44	375.997
1438.64	384.565
1442.83	288.356
1447.02	507.438
1451.21	366.607
1455.39	321.647
1459.58	347.871
1463.76	316.17
1467.94	429.019
1472.11	330.233
1476.28	309.131
1480.45	239.368
1484.62	223.494
1488.79	213.614
1492.95	203.621
1497.11	202.403
1501.27	36.0283
1505.43	163.651
1509.58	131.182
1513.73	82.1191
1517.88	26.7012
1522.03	183.34
1526.18	189.807
1530.32	157.101
1534.46	51.3447
1538.6	160.442
1542.73	247.391
1546.86	51.2725
1550.99	221.834
1555.12	232.243
1559.25	25.0723
