Measurement: Raman, 514 nm, ccw, Raman Data Processed
Mineral: Astrophyllite
Rruff sample: R060202
Ideal chemistry: K_2_NaFe^2+^_7_Ti_2_(Si_4_O_12_)_2_O_2_(OH)_4_F
Locality: Demix Quarry, Mont Saint-Hilaire, Rouville County, Quebec, Canada
Source: Royal Ontario Museum
Description: Aggregate of brown splintered wafers
Measured chemistry: (K_0.56_Na_0.38_Ca_0.06_)_3_(Fe^2+^_0.52_Mn_0.44_Mg_0.04_)_7_(Ti_0.75_Zr_0.15_Al_0.15_)_2_Si_8_O_24_(O_0.27_OH_0.73_)_7_
Pin_id: M00215
Orientation: Laser parallel to (1 1 0). Fiducial mark perpendicular to laser is parallel to -c [0 0 -1]
Raman shift (cm-1)	intensity
79.895	0
84.837	2783.87
89.777	5083.74
94.714	5568.13
99.649	5077.61
104.582	3713.33
109.512	5025.51
114.44	3198.9
119.365	3741.85
124.288	3334.23
129.209	3709.31
134.127	1903.4
139.043	550.051
143.956	771.002
148.867	228.723
153.775	449.719
158.681	1673.86
163.585	4083.98
168.486	5181.39
173.385	4452
178.282	2882.62
183.176	1342.12
188.067	1319.53
192.956	1829.84
197.843	3314.44
202.727	4610.17
207.609	4097.45
212.489	4390.97
217.366	6021.62
222.24	7697.6
227.112	9587.77
231.982	12456.8
236.849	15201.7
241.714	16880
246.577	17097
251.437	16711.9
256.294	17358.6
261.149	16938
266.002	11430.7
270.852	6967.68
275.7	3745.39
280.545	2223.55
285.388	967.812
290.229	221.201
295.067	91.791
299.902	108.996
304.735	19.582
309.566	222.488
314.394	16.082
319.22	142.022
324.043	113.68
328.864	546.26
333.682	674.344
338.498	1504.45
343.311	2545.23
348.122	3228.94
352.931	2796.19
357.737	3224.62
362.54	3414.67
367.341	3189.93
372.14	2670.35
376.936	2382.92
381.73	3234.42
386.521	3656
391.31	3560.24
396.096	3681.85
400.88	3942.54
405.661	4073.98
410.44	4271.3
415.216	4728.53
419.99	5391.65
424.761	4887.68
429.53	3724.63
434.297	2267.47
439.061	817.445
443.822	193.045
448.581	194.967
453.337	93.3906
458.091	455.488
462.843	1409.29
467.592	2310.54
472.338	2444.22
477.082	1739.49
481.824	1842.37
486.563	1287.23
491.3	1173.09
496.034	709.963
500.765	197.768
505.494	42.041
510.221	147.975
514.945	118.019
519.666	319.381
524.385	351.328
529.102	190.234
533.816	54.1016
538.527	668.414
543.236	2403.25
547.943	5113.48
552.647	8939.78
557.348	11451.7
562.047	10902.1
566.744	8389.68
571.438	6242.73
576.129	4824.7
580.818	3842.24
585.504	3523.59
590.188	3542.89
594.87	4121.95
599.549	4040.56
604.225	3899.49
608.899	4225.41
613.57	4633.24
618.239	5309.99
622.905	5927.68
627.569	6896.35
632.23	8048.04
636.889	9999.77
641.545	13352.2
646.198	19269.4
650.849	27926.1
655.498	31330.7
660.144	24379.8
664.787	19144.5
669.428	17839.5
674.067	19121.8
678.703	21833.2
683.336	24799.7
687.967	27831
692.595	29608.3
697.221	31220
701.844	31831
706.465	31966.8
711.083	31293.1
715.698	29915.1
720.311	27174.2
724.922	23661.2
729.53	20469.4
734.135	16896.8
738.738	14436.5
743.338	12256.2
747.936	10797.7
752.531	10230.6
757.124	9274.95
761.714	8333.84
766.302	7106.24
770.887	5788.18
775.469	4623.66
780.049	4209.78
784.626	3978.83
789.201	3477.23
793.773	3083.29
798.343	2013.24
802.91	2064.73
807.475	818.672
812.037	539.014
816.596	92.1387
821.153	222.719
825.707	293.695
830.259	500.969
834.808	632.205
839.355	494.014
843.899	87.5273
848.441	39.7324
852.98	583.945
857.516	1112.65
862.05	2043.87
866.581	2934.66
871.11	4049.38
875.636	5594.87
880.159	7665.15
884.68	9688.73
889.199	11851.8
893.714	14295.5
898.228	17093.5
902.738	20206.4
907.246	23345
911.752	26829.4
916.255	29035.2
920.755	29831.4
925.253	30424.1
929.748	30002.3
934.241	28588.8
938.731	25611.7
943.218	21478.7
947.703	17352.9
952.186	14098.2
956.665	11356.9
961.142	7866.03
965.617	5249.72
970.089	3264.78
974.558	2122.65
979.025	1174.85
983.489	885.299
987.951	839.139
992.41	967.338
996.866	1275.43
1001.32	1957.53
1005.77	2498.21
1010.22	3314.55
1014.67	4500.82
1019.11	6393.29
1023.55	7454.25
1027.99	8124.78
1032.42	8341.18
1036.86	7702.83
1041.29	6275.05
1045.72	5098.42
1050.14	3983.13
1054.56	3422.84
1058.98	2820.59
1063.4	2333.83
1067.82	2362.83
1072.23	2595.37
1076.64	2566.32
1081.05	2615
1085.45	2467.21
1089.85	1820.69
1094.25	1871.82
1098.65	1376.44
1103.04	978.482
1107.43	700.592
1111.82	392.185
1116.21	143.006
1120.59	175.643
1124.97	41.6914
1129.35	56.2246
1133.73	239.549
1138.1	161.082
1142.47	32.8535
1146.84	244.166
1151.21	59.8945
1155.57	78.8164
1159.93	173.348
1164.29	26.3867
1168.64	68.0078
1172.99	141.815
1177.34	99.4648
1181.69	24.8457
1186.04	171.797
1190.38	69.3301
1194.72	149.779
1199.05	151.248
1203.39	145.758
1207.72	203.713
1212.05	191.654
1216.37	373.557
1220.7	246.076
1225.02	296.053
1229.34	444.568
1233.65	398.19
1237.97	406.144
1242.28	465.232
1246.59	402.781
1250.89	542.449
1255.19	514.684
1259.49	341.928
1263.79	633.717
1268.09	887.215
1272.38	748.984
1276.67	680.875
1280.95	672.738
1285.24	414.297
1289.52	543.959
1293.8	615.904
1298.08	516.975
1302.35	613.428
1306.62	466.09
1310.89	595.078
1315.15	581.771
1319.42	430.154
1323.68	382.553
1327.94	271.33
1332.19	218.773
1336.44	242.555
1340.69	261.272
1344.94	209.137
1349.19	199.143
1353.43	46.9648
1357.67	121.846
1361.9	5.22461
1366.14	175.768
1370.37	170.488
1374.6	138.947
1378.83	251.949
1383.05	9.13672
1387.27	56.1621
1391.49	211.342
1395.7	362.822
1399.92	144.578
1404.13	378.734
1408.34	700.082
1412.54	207.19
1416.74	187.035
1420.94	226.004
1425.14	26.7754
1429.34	207.586
1433.53	365.703
1437.72	416.266
1441.9	731.139
1446.09	639.369
1450.27	823.209
1454.45	861.926
1458.63	888.719
1462.8	692.975
1466.97	556.301
1471.14	406.316
1475.31	504.43
1479.47	336.728
1483.63	299.717
1487.79	279.598
1491.94	200.018
1496.09	183.082
1500.24	148.269
1504.39	80.9082
1508.54	61.3535
1512.68	100.131
1516.82	270.658
1520.95	127.865
1525.09	172.441
1529.22	140.637
1533.35	109.394
1537.47	235.185
