Measurement: Raman, 514 nm, ccw, Raman Data Processed
Mineral: Astrophyllite
Rruff sample: R060202
Ideal chemistry: K_2_NaFe^2+^_7_Ti_2_(Si_4_O_12_)_2_O_2_(OH)_4_F
Locality: Demix Quarry, Mont Saint-Hilaire, Rouville County, Quebec, Canada
Source: Royal Ontario Museum
Description: Aggregate of brown splintered wafers
Measured chemistry: (K_0.56_Na_0.38_Ca_0.06_)_3_(Fe^2+^_0.52_Mn_0.44_Mg_0.04_)_7_(Ti_0.75_Zr_0.15_Al_0.15_)_2_Si_8_O_24_(O_0.27_OH_0.73_)_7_
Pin_id: M00260
Orientation: Laser parallel to -b* (0 -1 0). Fiducial mark perpendicular to laser is parallel to c [0 0 1]
Raman shift (cm-1)	intensity
143.956	0
148.867	702.793
153.775	877.973
158.681	1505.71
163.585	1990.73
168.486	1420.94
173.385	567.189
178.282	52.3242
183.176	57.4551
188.067	825.412
192.956	1831.37
197.843	3476.15
202.727	4054.66
207.609	4987.19
212.489	7492.72
217.366	9375.15
222.24	10945.5
227.112	11565.7
231.982	11463.4
236.849	9436.18
241.714	6916.19
246.577	5752.13
251.437	4202.82
256.294	3384.18
261.149	2234.85
266.002	1304.12
270.852	268.473
275.7	25.8965
280.545	148.211
285.388	18.127
290.229	195.893
295.067	370.818
299.902	588.025
304.735	1077.53
309.566	1665.94
314.394	2292.98
319.22	2356.95
324.043	2570.46
328.864	2582.81
333.682	2814.01
338.498	2969.83
343.311	3291.32
348.122	3350.12
352.931	3671.82
357.737	3613.2
362.54	3619.99
367.341	3402.37
372.14	3366.05
376.936	3353.02
381.73	3075.69
386.521	2470.68
391.31	1879.49
396.096	1341.16
400.88	1089.75
405.661	719.322
410.44	826.918
415.216	655.559
419.99	600.756
424.761	159.424
429.53	3.74414
434.297	175.832
439.061	196.731
443.822	158.523
448.581	241.611
453.337	201.023
458.091	182.041
462.843	209.16
467.592	73.2227
472.338	68.2949
477.082	239.43
481.824	347.717
486.563	420.283
491.3	337.201
496.034	526.523
500.765	686.363
505.494	408.848
510.221	342.018
514.945	336.889
519.666	341.473
524.385	712.84
529.102	572.117
533.816	1331.46
538.527	2274.01
543.236	4182.44
547.943	5744.79
552.647	6748.24
557.348	6275.51
562.047	5000.67
566.744	3767.46
571.438	2883.57
576.129	2791.43
580.818	2546.69
585.504	2901.52
590.188	2748.85
594.87	2472.59
599.549	2265.64
604.225	2243.9
608.899	2305.89
613.57	2797.86
618.239	3411.96
622.905	3830.57
627.569	5400.6
632.23	7222.17
636.889	10853.9
641.545	16993.4
646.198	24069.1
650.849	23874.9
655.498	17259.8
660.144	12373.6
664.787	10091.2
669.428	10141.8
674.067	10610
678.703	11919.7
683.336	13566.1
687.967	14197.2
692.595	14604.3
697.221	15009.7
701.844	15356.9
706.465	15424.2
711.083	14780.5
715.698	12940.3
720.311	11039.6
724.922	9463.73
729.53	7338.71
734.135	6437.21
738.738	5450.78
743.338	5029.62
747.936	4505.42
752.531	4519.27
757.124	3598.88
761.714	3505.47
766.302	3095.89
770.887	2924.13
775.469	2517.17
780.049	2670.95
784.626	2352.47
789.201	1665.7
793.773	1554.67
798.343	790.381
802.91	570.803
807.475	89.8887
812.037	79.3418
816.596	181.125
821.153	239.836
825.707	276.428
830.259	363.49
834.808	168.832
839.355	349.076
843.899	36.0098
848.441	119.4
852.98	202.988
857.516	660.115
862.05	889.799
866.581	1421.02
871.11	2004.75
875.636	2502.93
880.159	3200.66
884.68	3715.88
889.199	4305.62
893.714	5283.86
898.228	6155.6
902.738	7560.22
907.246	8687.49
911.752	9274.46
916.255	10018.5
920.755	10123.4
925.253	10003.1
929.748	9767.12
934.241	8615.04
938.731	7348.22
943.218	5830.8
947.703	4758.46
952.186	3878.06
956.665	2697.59
961.142	1904.25
965.617	1500.34
970.089	986.184
974.558	790.019
979.025	708.82
983.489	1189.49
987.951	1562.84
992.41	1709.37
996.866	2653.14
1001.32	2855.17
1005.77	4418.4
1010.22	5356.88
1014.67	7178.24
1019.11	8867.57
1023.55	9727.78
1027.99	9924.37
1032.42	8741.44
1036.86	7745.3
1041.29	6238.32
1045.72	4630.57
1050.14	3721.98
1054.56	3426.86
1058.98	2398.53
1063.4	2085.48
1067.82	1985.35
1072.23	2116.15
1076.64	1754.25
1081.05	1937.15
1085.45	1995.93
1089.85	1948.04
1094.25	1554.66
1098.65	1141.32
1103.04	1220.37
1107.43	1078.29
1111.82	822.184
1116.21	880.426
1120.59	814.199
1124.97	764.91
1129.35	407.051
1133.73	555.285
1138.1	264.644
1142.47	218.676
1146.84	40.8438
1151.21	145.004
1155.57	202.68
1159.93	105.129
1164.29	293.316
1168.64	2.47656
1172.99	85.0938
1177.34	9.23438
1181.69	66.6016
1186.04	120.438
1190.38	292.934
1194.72	61.7812
1199.05	256.812
1203.39	36.418
1207.72	90.1602
1212.05	73.7344
1216.37	17.8672
1220.7	146.176
1225.02	154.445
1229.34	197.637
1233.65	107.633
1237.97	429.555
1242.28	487.656
1246.59	468.602
1250.89	252.352
1255.19	155.484
1259.49	495.223
1263.79	368.793
1268.09	490.883
1272.38	384.75
1276.67	321.492
1280.95	370.18
1285.24	411.43
1289.52	815.109
1293.8	739.957
1298.08	386.816
1302.35	429.391
1306.62	12.5469
1310.89	320.762
1315.15	486.574
1319.42	286.188
1323.68	604.106
1327.94	310.621
1332.19	366.227
1336.44	430.113
1340.69	176.43
1344.94	383.383
1349.19	101.582
1353.43	437.191
1357.67	91.1289
1361.9	446.871
1366.14	340.047
1370.37	130.488
1374.6	286.465
1378.83	353.273
1383.05	246.481
1387.27	347.285
1391.49	339.191
1395.7	9.23047
1399.92	71.2383
1404.13	44.6484
1408.34	125.348
1412.54	99.668
1416.74	275.801
1420.94	301.152
1425.14	190.144
1429.34	305.383
1433.53	562.481
1437.72	657.09
1441.9	795.359
1446.09	678.004
1450.27	853.742
1454.45	736.156
1458.63	900.844
1462.8	1033.13
1466.97	1009.25
1471.14	850.844
1475.31	907.269
1479.47	869.93
1483.63	502.109
1487.79	465.219
1491.94	972.324
1496.09	482.215
1500.24	418.047
1504.39	258.551
1508.54	203.641
1512.68	320.93
1516.82	105.559
1520.95	39.5352
1525.09	253.449
1529.22	348.828
1533.35	78.5703
1537.47	423.555
1541.6	282.066
1545.72	251.211
1549.83	216.25
1553.95	338.375
1558.06	191.457
1562.17	229.699
1566.28	4.32031
1570.38	0
