Measurement: Raman, 514 nm, ccw, Raman Data Processed
Mineral: Astrophyllite
Rruff sample: R060202
Ideal chemistry: K_2_NaFe^2+^_7_Ti_2_(Si_4_O_12_)_2_O_2_(OH)_4_F
Locality: Demix Quarry, Mont Saint-Hilaire, Rouville County, Quebec, Canada
Source: Royal Ontario Museum
Description: Aggregate of brown splintered wafers
Measured chemistry: (K_0.56_Na_0.38_Ca_0.06_)_3_(Fe^2+^_0.52_Mn_0.44_Mg_0.04_)_7_(Ti_0.75_Zr_0.15_Al_0.15_)_2_Si_8_O_24_(O_0.27_OH_0.73_)_7_
Pin_id: M00495
Orientation: Laser parallel to c* (0 0 1). Fiducial mark perpendicular to laser is parallel to a [1 0 0]
Raman shift (cm-1)	intensity
145.184	0
150.094	181.578
155.002	758.809
159.908	852.922
164.811	2364.05
169.711	2124.57
174.61	1283.19
179.505	614.43
184.399	323.586
189.29	1072.61
194.178	2235.31
199.064	3713.73
203.948	5306.3
208.829	4220.4
213.708	6952
218.585	8510.07
223.459	10479
228.33	11426.6
233.199	11354.3
238.066	9968.49
242.93	7507.03
247.792	5233.57
252.651	3606.17
257.508	2636.77
262.363	2505.43
267.215	926.199
272.064	57.1465
276.912	133.693
281.756	283.553
286.598	98.5371
291.438	283.09
296.276	598.106
301.111	722.908
305.943	1097.75
310.773	1551.14
315.601	2186.35
320.426	2380.86
325.248	2736.32
330.068	3361.11
334.886	3655.7
339.701	3925.36
344.514	4147.04
349.324	4032.36
354.132	3955.6
358.938	3945.76
363.741	3897.29
368.541	3872.68
373.339	3926.33
378.135	3657.73
382.928	3449.68
387.718	2771.23
392.506	2211.43
397.292	1827.34
402.075	1221.03
406.856	402.541
411.634	501.893
416.41	94.4277
421.183	63.748
425.954	39.4746
430.722	370.285
435.488	459.674
440.251	151.84
445.012	299.125
449.77	184.301
454.526	212.805
459.28	21.0508
464.03	163.127
468.779	269.029
473.525	412.047
478.268	621.269
483.009	625.918
487.747	554.068
492.483	674.797
497.217	678.172
501.948	705.256
506.676	1028.13
511.402	772.867
516.125	897.519
520.846	826.15
525.565	780.816
530.281	1011.59
534.994	1378.52
539.705	2066.78
544.413	3433.91
549.119	4970.77
553.822	6336.6
558.523	6867.81
563.222	6504.07
567.917	5583.2
572.611	4531.74
577.302	3707.93
581.99	3753.04
586.676	3556.92
591.359	3507.3
596.04	3504.93
600.718	3199.79
605.394	2798.81
610.067	2773.87
614.737	2933.49
619.406	3399.25
624.071	4143.71
628.734	5027.81
633.395	6464.95
638.053	9083.88
642.708	13915.6
647.361	19595.3
652.012	22153.7
656.66	19763.1
661.305	15294.4
665.948	11473.7
670.588	10064.9
675.226	10082.1
679.861	10720.6
684.494	11708.6
689.124	12438.2
693.752	13522.2
698.377	13367.2
702.999	13888.6
707.619	14111.9
712.237	14277.1
716.852	13062.1
721.464	11813.9
726.074	10078.8
730.681	8322.78
735.286	7346.63
739.888	6630.85
744.488	5806.99
749.085	5154.87
753.68	4836.39
758.272	4564.47
762.861	3790.03
767.448	3116.06
772.033	2744.52
776.614	2432.41
781.194	2107.7
785.77	1840.37
790.345	1817.74
794.916	1330.79
799.485	898.496
804.052	1546.52
808.616	871.828
813.177	79.4062
817.736	238.188
822.292	99.8711
826.846	371.023
831.397	200.496
835.945	269.289
840.491	479.461
845.035	130.676
849.576	116.277
854.114	15.0625
858.65	205.949
863.183	640.953
867.713	914.941
872.241	1237.91
876.767	1840.84
881.29	2172.74
885.81	2776.61
890.328	3532.45
894.843	3834.38
899.356	4802.45
903.866	5290.79
908.373	6098.26
912.878	6596.82
917.38	6852.31
921.88	7200.75
926.377	6892.31
930.872	6807.8
935.364	6239.28
939.853	5559.7
944.34	4798
948.824	4254.32
953.306	3344.52
957.785	3127.66
962.261	2458.93
966.735	1707
971.207	1391.56
975.675	1358.37
980.141	1136.22
984.605	1324.71
989.066	1608.11
993.524	1684.04
997.98	2401.23
1002.43	3111.34
1006.88	3819.72
1011.33	5316.75
1015.78	6767.48
1020.22	7991.8
1024.66	9355.35
1029.1	9734.22
1033.53	9185.35
1037.97	7952.98
1042.4	6734.82
1046.82	5128.59
1051.25	4086.78
1055.67	3262.28
1060.09	2523.41
1064.51	2329.48
1068.92	2140.2
1073.33	2093.42
1077.74	1936.24
1082.15	2144.38
1086.55	2521.97
1090.95	1687.96
1095.35	1825.32
1099.75	1291.94
1104.14	1292.42
1108.53	1170.18
1112.92	800.191
1117.31	745.918
1121.69	755.106
1126.07	671.352
1130.45	349.184
1134.82	39.0977
1139.19	281.785
1143.57	103.867
1147.93	39.5625
1152.3	89.3555
1156.66	2.3125
1161.02	96.6992
1165.38	21.4609
1169.73	26.4062
1174.08	181.137
1178.43	210.551
1182.78	185.012
1187.12	218.609
1191.46	135.445
1195.8	165.203
1200.14	500.555
1204.47	109.695
1208.8	72.8398
1213.13	10.0703
1217.46	192.461
1221.78	137.426
1226.1	224.043
1230.42	306.793
1234.73	16.4453
1239.04	226.477
1243.35	12.9688
1247.66	50.6758
1251.97	173.91
1256.27	145.469
1260.57	194.141
1264.86	365.305
1269.16	177.445
1273.45	151.996
1277.74	29.1445
1282.03	223.547
1286.31	21.6602
1290.59	177.57
1294.87	450.672
1299.14	88.1211
1303.42	312
1307.69	178.367
1311.95	21.8203
1316.22	204.047
1320.48	357.805
1324.74	157.773
1329	396.805
1333.26	120.106
1337.51	353.606
1341.76	15.6602
1346	454.094
1350.25	541.117
1354.49	153.637
1358.73	234.352
1362.96	245.023
1367.2	198.328
1371.43	402.449
1375.66	244.769
1379.88	295.086
1384.11	246.383
1388.33	265.106
1392.54	287.566
1396.76	202.922
1400.97	177.738
1405.18	340.035
1409.39	342.59
1413.59	392.922
1417.8	265.731
1421.99	358.246
1426.19	375.09
1430.38	374.106
1434.58	212.641
1438.77	65.8789
1442.95	308.891
1447.13	90.0352
1451.32	206.777
1455.49	315.633
1459.67	32.7773
1463.84	482.066
1468.01	452.051
1472.18	19.418
1476.35	324.394
1480.51	35.5391
1484.67	3.5
1488.83	123.621
1492.98	138.41
1497.13	282.062
1501.28	61.9414
1505.43	207.863
1509.57	100.598
1513.71	110.644
1517.85	58.332
1521.99	234.871
1526.12	235.922
1530.25	244.043
1534.38	341.34
1538.5	191.152
1542.62	259.371
1546.74	255.828
1550.86	414.426
1554.98	329.34
1559.09	418.273
1563.2	299.422
1567.31	5.23828
1571.41	0
