Measurement: Raman, 514 nm, ccw, Raman Data Processed
Mineral: Astrophyllite
Rruff sample: R060202
Ideal chemistry: K_2_NaFe^2+^_7_Ti_2_(Si_4_O_12_)_2_O_2_(OH)_4_F
Locality: Demix Quarry, Mont Saint-Hilaire, Rouville County, Quebec, Canada
Source: Royal Ontario Museum
Description: Aggregate of brown splintered wafers
Measured chemistry: (K_0.56_Na_0.38_Ca_0.06_)_3_(Fe^2+^_0.52_Mn_0.44_Mg_0.04_)_7_(Ti_0.75_Zr_0.15_Al_0.15_)_2_Si_8_O_24_(O_0.27_OH_0.73_)_7_
Pin_id: M00170
Orientation: Laser parallel to (-1 0 -1). Fiducial mark perpendicular to laser is parallel to -b [0 -1 0]
Raman shift (cm-1)	intensity
118.134	0
123.058	394.334
127.979	1027.83
132.898	3054.46
137.814	2725.18
142.728	871.309
147.639	15.2773
152.549	2229.94
157.455	3742.21
162.359	6806.67
167.261	9105.71
172.161	7878.04
177.058	4421.46
181.952	1762.45
186.845	886.781
191.734	167.043
196.622	300.684
201.507	745.354
206.389	662.314
211.269	795.26
216.147	1506.54
221.022	1944.9
225.895	2618.56
230.765	3250.67
235.633	4145.74
240.498	4548.76
245.361	4440.82
250.222	4624.8
255.08	4339.8
259.936	4216.44
264.789	3581.49
269.64	3380.48
274.488	2961.15
279.334	3085.98
284.178	3152.91
289.019	3244.45
293.857	3528.66
298.693	3595.82
303.527	3472.99
308.358	3723.18
313.187	3575.16
318.013	3523.62
322.837	3181.78
327.659	3343.87
332.478	3383.17
337.294	3879.04
342.108	4234.59
346.92	4097.01
351.729	4119.79
356.535	3667.92
361.34	3552.86
366.141	3439.43
370.94	3192.64
375.737	3146.82
380.531	2972.46
385.323	2763.95
390.113	3014.44
394.9	3112.9
399.684	2939.9
404.466	2056.53
409.245	1599.78
414.022	2146.87
418.797	2233.84
423.569	2229.69
428.338	1207.48
433.105	756.139
437.87	124.027
442.632	30.377
447.391	74.8672
452.149	135.387
456.903	392.365
461.655	671.523
466.405	812.348
471.152	566.914
475.897	432.193
480.639	366.057
485.378	236.435
490.116	76.7402
494.85	491.971
499.582	374.438
504.312	297.885
509.039	265.102
513.764	344.088
518.486	287.201
523.206	240.977
527.923	25.5391
532.638	325.182
537.35	691.812
542.059	1574.41
546.766	2578.87
551.471	4048.45
556.173	4084.5
560.873	4059.49
565.57	3255.34
570.264	2541.36
574.957	2219.87
579.646	2604.39
584.333	2918.6
589.018	3320.09
593.7	4071.75
598.379	4441.87
603.056	5040.16
607.73	5545.02
612.402	6308.12
617.072	7137.17
621.739	7618.53
626.403	8479.13
631.065	9288.44
635.724	10787.3
640.381	12525.3
645.035	15970.8
649.687	19604.6
654.336	20320.4
658.983	18330.5
663.627	16129.3
668.268	15961.9
672.907	17600.5
677.544	19544
682.178	21910.9
686.809	23904.6
691.438	25113.2
696.065	26064.4
700.688	26811.9
705.31	26507.9
709.929	25797.8
714.545	24645.3
719.158	21860.9
723.77	19894.4
728.378	17318.4
732.984	14647.6
737.588	13201.2
742.189	11835.8
746.787	11133.1
751.383	10500.3
755.976	10263.5
760.567	9741.71
765.155	9586.98
769.741	9284.48
774.324	9514.43
778.904	9665.06
783.482	9927.34
788.058	9465.55
792.631	8502.66
797.201	7168.92
801.769	5692.95
806.334	4200.26
810.897	2850.91
815.457	1681.69
820.014	835.494
824.569	481.297
829.122	104.094
833.671	302.188
838.219	295.912
842.763	366.449
847.306	358.324
851.845	433.453
856.382	544.877
860.917	11.5293
865.448	333.586
869.978	495.56
874.505	1365.86
879.029	1955.55
883.55	2635.58
888.069	3476.86
892.586	4217.49
897.1	5306.51
901.611	6467.96
906.12	7700.52
910.626	9008.25
915.129	9775.94
919.63	10888.4
924.129	10825.6
928.625	10777.6
933.118	10466.4
937.609	9861.78
942.097	8755.78
946.582	7866.21
951.065	7034.05
955.546	5912.32
960.023	4773.96
964.499	3670.96
968.971	3237.33
973.441	2828.85
977.909	3042.81
982.374	3238.64
986.836	3501.53
991.295	4500.54
995.753	5799.77
1000.21	7457.05
1004.66	10171.1
1009.11	13733.2
1013.55	18490.5
1018	24423.2
1022.44	29800.7
1026.88	34252.1
1031.32	36077.9
1035.75	33721.4
1040.18	29345.2
1044.61	23825.1
1049.04	17864.1
1053.46	13285.3
1057.88	9796.68
1062.3	7917.28
1066.71	6699.59
1071.13	5965.28
1075.54	5230.97
1079.94	4804.91
1084.35	4654.27
1088.75	4148.06
1093.15	3792.26
1097.55	3038.59
1101.94	2176.24
1106.34	1480.84
1110.73	994.455
1115.11	499.4
1119.5	562.254
1123.88	314.631
1128.26	277.647
1132.63	146.961
1137.01	70.6836
1141.38	114.498
1145.75	96.2344
1150.12	72.5703
1154.48	76.3047
1158.84	93.7285
1163.2	37.3398
1167.55	159.435
1171.91	53.4941
1176.26	84.3594
1180.61	212.31
1184.95	11.7676
1189.29	125.949
1193.63	119.779
1197.97	58.125
1202.31	98.6074
1206.64	314.519
1210.97	118.922
1215.29	210.504
1219.62	131.576
1223.94	268.285
1228.26	328.842
1232.57	256.984
1236.89	409.846
1241.2	292.106
1245.51	347.803
1249.81	414.508
1254.12	146.875
1258.42	272.135
1262.72	287.955
1267.01	385.779
1271.3	352.666
1275.59	135.769
1279.88	124.414
1284.17	236.045
1288.45	100.268
1292.73	105.207
1297.01	190.543
1301.28	223.525
1305.55	220.221
1309.82	140.971
1314.09	355.967
1318.35	172.074
1322.61	40.416
1326.87	304.221
1331.13	35.082
1335.38	267.16
1339.63	82.4668
1343.88	124.871
1348.12	137.943
1352.37	235.486
1356.61	23.7949
1360.85	95.4394
1365.08	90.5586
1369.31	147.613
1373.54	79.8086
1377.77	239.092
1381.99	51.3223
1386.22	151.504
1390.43	249.68
1394.65	240.154
1398.87	289.236
1403.08	254.268
1407.29	90.6699
1411.49	200.576
1415.69	294.596
1419.89	22.7891
1424.09	51.7656
1428.29	208.656
1432.48	339.107
1436.67	225.043
1440.86	152.566
1445.04	422.416
1449.23	468.447
1453.4	120
1457.58	362.461
1461.76	221.867
1465.93	15.4785
1470.1	172.277
1474.26	361.246
1478.43	119.928
1482.59	180.588
1486.75	170.922
1490.9	64.3379
1495.06	106.959
1499.21	590.231
1503.35	83.2441
1507.5	113.166
1511.64	46.127
1515.78	223.228
1519.92	99.0977
1524.05	2.54688
1528.18	73.6348
1532.31	205.178
1536.44	124.504
1540.56	175.959
1544.69	218.67
1548.8	105.353
1552.92	286.076
1557.03	226.773
1561.14	65.6816
1565.25	206.935
1569.36	11.3164
