Measurement: Raman, 514 nm, ccw, Raman Data Processed
Mineral: Atacamite
Rruff sample: R050098
Ideal chemistry: Cu_2_Cl(OH)_3_
Locality: La Farola mine, Tierra Amarilla, Atacama, Chile
Source: Rock Currier
Description: Green prismatic single crystals
Measured chemistry: Cu_2.00_Cl_1.00_(OH)_3_
Pin_id: M00116
Orientation: Laser parallel to -a* (-1 0 0). Fiducial mark perpendicular to laser is parallel to b [0 1 0]
Raman shift (cm-1)	intensity
54.966	0
59.164	188.926
63.36	11.103
67.554	252.929
71.747	221.955
75.937	389.853
80.125	861.809
84.311	836.446
88.496	498.334
92.678	1006.46
96.858	1623.28
101.036	2440.77
105.212	3664.32
109.387	8671.02
113.559	20682.3
117.729	28324.2
121.897	25748
126.063	11438.5
130.228	5211.11
134.39	3647.87
138.55	4112.84
142.709	7836.96
146.865	12333.6
151.019	13306.7
155.171	8799.59
159.322	4758.38
163.47	3477.18
167.617	2862.05
171.761	2683
175.904	2466.34
180.044	2358.11
184.183	2617.05
188.319	2806.58
192.454	3047.07
196.586	3605.86
200.717	4352.26
204.846	5856.81
208.972	8613.46
213.097	11395.2
217.22	12437
221.341	10385.3
225.46	6621.11
229.577	3941.55
233.692	2572.35
237.805	1866.93
241.916	1686.7
246.025	1530.31
250.132	1481.55
254.237	1542.23
258.34	1586.19
262.442	1393.31
266.541	1306.48
270.639	1047.63
274.734	753.703
278.828	525.639
282.919	313.395
287.009	80.903
291.097	74.067
295.183	74.162
299.266	41.155
303.348	64.977
307.428	103.611
311.507	93.799
315.583	182.558
319.657	183.935
323.729	163.916
327.8	170.492
331.868	54.612
335.935	214.948
339.999	806.316
344.062	2063.42
348.123	4180.16
352.182	6008.31
356.239	6946.76
360.294	6168.74
364.347	4679.52
368.398	3303.09
372.448	2364.28
376.495	1900.98
380.54	1770.17
384.584	1862.81
388.626	2002.01
392.666	2091.82
396.704	1891.29
400.74	1494.28
404.774	1308.75
408.806	1169.67
412.836	1174.01
416.865	962.752
420.891	671.873
424.916	487.35
428.939	468.166
432.959	490.304
436.978	692.746
440.996	1307.48
445.011	2449.48
449.024	3992.74
453.036	4270.25
457.045	3600.58
461.053	3034.97
465.059	2866.39
469.063	2688.95
473.065	2799.84
477.065	2973.42
481.063	3596.8
485.06	4497.2
489.054	5769.04
493.047	7613.61
497.038	10458.4
501.027	14547.4
505.014	20332
508.999	26822.8
512.982	30140.7
516.964	26674.4
520.944	18863.1
524.921	11983.6
528.897	7785.34
532.871	5524.13
536.844	3944.14
540.814	2947.24
544.783	2229.26
548.749	1711.52
552.714	1384.64
556.677	1076.61
560.638	957.421
564.597	800.063
568.555	577.524
572.511	572.794
576.464	576.865
580.416	456.726
584.366	525.37
588.315	565.79
592.261	658.975
596.206	592.92
600.148	584.618
604.089	445.06
608.028	367.243
611.965	183.157
615.901	124.816
619.834	66.237
623.766	51.407
627.696	132.36
631.624	26.149
635.551	70.774
639.475	69.246
643.398	24.526
647.318	42.463
651.237	58.604
655.155	98.214
659.07	114.468
662.984	96.817
666.895	86.383
670.805	119.101
674.713	90.949
678.62	48.877
682.524	53.755
686.427	68.434
690.328	28.095
694.227	81.277
698.124	102.035
702.02	232.446
705.913	206.556
709.805	374.37
713.695	427.894
717.584	442.128
721.47	541.08
725.355	581.751
729.238	629.149
733.119	586.276
736.998	602.139
740.876	632.742
744.752	625.091
748.626	687.19
752.498	696.047
756.368	681.674
760.237	667.079
764.104	643.265
767.969	629.266
771.832	729.124
775.693	843.29
779.553	772.258
783.411	809.533
787.267	860.716
791.122	951.208
794.974	909.791
798.825	1094.55
802.674	1268.38
806.522	1489.62
810.367	1773.22
814.211	2242.62
818.053	3181.52
821.893	4500.85
825.732	5795.31
829.568	6110.8
833.403	6226.29
837.236	8229.03
841.068	13057.4
844.898	16878.2
848.726	13073.8
852.552	7513.44
856.376	4154.29
860.199	2698.41
864.02	2030.62
867.839	1595.93
871.656	1488.36
875.472	1500.9
879.286	1679.56
883.098	2095.35
886.909	2655.27
890.717	3920.33
894.524	5913.53
898.33	9945.88
902.133	19152.4
905.935	36003.1
909.735	45658.8
913.533	34849.2
917.33	20557.4
921.124	10959.5
924.918	6517.12
928.709	4460.75
932.499	3450
936.286	2691.46
940.073	2301.99
943.857	1933.26
947.64	1658.5
951.421	1534.92
955.2	1375.17
958.978	1327.71
962.753	1321.62
966.527	1365.94
970.3	1306.86
974.071	1301.91
977.84	1387.56
981.607	1565.51
985.372	2103.11
989.136	2193.22
992.898	1457.42
996.659	1003.37
1000.42	847.57
1004.17	682.983
1007.93	598.59
1011.68	519.381
1015.43	479.33
1019.18	393.444
1022.93	352.751
1026.68	406.258
1030.42	288.906
1034.17	308.706
1037.91	271.654
1041.65	239.731
1045.39	213.898
1049.12	176.719
1052.86	67.102
1056.59	37.801
1060.33	2.745
1064.06	1.703
1067.78	65.87
1071.51	76.069
1075.23	12.926
1078.96	34.554
1082.68	29.155
1086.4	21.138
1090.12	47.209
1093.83	69.725
1097.55	24.601
1101.26	14.462
1104.97	4.634
1108.68	35.012
1112.39	67.2
1116.1	0.876
1119.8	18.161
1123.5	230.972
1127.2	106.457
1130.9	13.316
1134.6	57.786
1138.3	68.389
1141.99	51.796
1145.69	67.321
1149.38	153.142
1153.07	187.367
1156.76	216.608
1160.44	314.176
1164.13	252.575
1167.81	254.172
1171.49	216.171
1175.17	173.241
1178.85	150.105
1182.52	133.691
1186.2	131.329
1189.87	150.166
1193.54	97.599
1197.21	135.902
1200.88	61.948
1204.55	77.981
1208.21	92.83
1211.88	96.256
1215.54	114.75
1219.2	93.597
1222.86	81.807
1226.51	89.12
1230.17	16.84
1233.82	91.504
1237.47	86.557
1241.12	115.706
1244.77	100.812
1248.42	65.576
1252.06	72.977
1255.71	15.617
1259.35	36.256
1262.99	70.275
1266.63	72.111
1270.26	115.781
1273.9	19.211
1277.53	75.521
1281.16	66.812
1284.8	48.672
1288.42	47.706
1292.05	26.059
1295.68	40.247
1299.3	13.731
1302.92	17.067
1306.55	31.657
1310.16	75.067
1313.78	24.616
1317.4	28.545
1321.01	34.506
1324.62	61.205
1328.24	96.652
1331.85	216.958
1335.45	75.148
1339.06	133.424
1342.66	125.726
1346.27	111.114
1349.87	90.825
1353.47	92.352
1357.07	96.52
1360.66	58.844
1364.26	64.774
1367.85	52.156
1371.44	39.2
1375.04	73.055
1378.62	96.03
1382.21	39.582
1385.8	66.515
1389.38	106.303
1392.96	116.593
1396.54	91.68
1400.12	162.719
1403.7	140.156
1407.28	82.295
1410.85	180.689
1414.42	137.241
1417.99	155.252
1421.56	112.956
1425.13	157.338
1428.7	120.459
1432.26	121.103
1435.83	100.036
1439.39	87.85
1442.95	109.438
1446.51	91.515
1450.06	48.477
1453.62	81.623
1457.17	9.653
1460.73	32.621
1464.28	28.297
1467.83	38.791
1471.37	29.111
1474.92	17.756
1478.46	2.976
1482.01	66.258
1485.55	56.398
1489.09	18.215
1492.63	38.18
1496.16	3.34
1499.7	4.709
1503.23	98.426
1506.76	116.831
1510.29	154.796
1513.82	96.258
1517.35	75.521
1520.88	5.242
1524.4	0.212
