Measurement: Raman, 514 nm, ccw, Raman Data Processed
Mineral: Atacamite
Rruff sample: R050098
Ideal chemistry: Cu_2_Cl(OH)_3_
Locality: La Farola mine, Tierra Amarilla, Atacama, Chile
Source: Rock Currier
Description: Green prismatic single crystals
Measured chemistry: Cu_2.00_Cl_1.00_(OH)_3_
Pin_id: M00436
Orientation: Laser parallel to c* (0 0 1). Fiducial mark perpendicular to laser is parallel to a [1 0 0]
Raman shift (cm-1)	intensity
54.966	0
59.164	307.952
63.36	475.272
67.554	321.35
71.747	26.602
75.937	100.837
80.125	198.595
84.311	1074.76
88.496	2513.53
92.678	4614.76
96.858	5656
101.036	6904.77
105.212	8306.92
109.387	9856.1
113.559	12447.7
117.729	14394.2
121.897	13299.3
126.063	10344
130.228	10045
134.39	11932.1
138.55	13801.2
142.709	16888.9
146.865	17650
151.019	16700.9
155.171	10484.3
159.322	6588.68
163.47	5683.46
167.617	5208.57
171.761	5025.14
175.904	4907
180.044	4717.39
184.183	4546.49
188.319	4428.12
192.454	4292.41
196.586	4548.13
200.717	4594.3
204.846	4937.95
208.972	5119.25
213.097	4956.73
217.22	4682.84
221.341	4251.68
225.46	3370.56
229.577	2879.73
233.692	2548.6
237.805	2376.42
241.916	2074.39
246.025	1845.56
250.132	1491.17
254.237	1366.34
258.34	1195.89
262.442	991.238
266.541	889.444
270.639	728.901
274.734	619.704
278.828	496.126
282.919	460.926
287.009	275.448
291.097	215.477
295.183	167.939
299.266	180.768
303.348	249.893
307.428	297.602
311.507	460.782
315.583	543.096
319.657	957.308
323.729	1415.6
327.8	1944.38
331.868	3113.65
335.935	4947.5
339.999	7336.9
344.062	11554.9
348.123	16555.5
352.182	19470.6
356.239	17830.2
360.294	12794.2
364.347	8272.52
368.398	5222.03
372.448	3788.49
376.495	3436.84
380.54	4048
384.584	4199.85
388.626	3585.57
392.666	2384.31
396.704	1206.13
400.74	646.095
404.774	739.258
408.806	1053.42
412.836	1259.4
416.865	835.146
420.891	201.597
424.916	216.306
428.939	73.273
432.959	361.395
436.978	1428.03
440.996	3639.15
445.011	6674.69
449.024	8488.62
453.036	6448.9
457.045	3101.48
461.053	1078.33
465.059	235.17
469.063	199.8
473.065	259.597
477.065	222.322
481.063	134.578
485.06	626.465
489.054	1481.3
493.047	2949.62
497.038	5149.4
501.027	8737.32
505.014	14145.9
508.999	20514.8
512.982	24649.3
516.964	23100.5
520.944	17057.7
524.921	11050.6
528.897	7222.15
532.871	5020.68
536.844	3605.54
540.814	2706.43
544.783	2195.73
548.749	2265.17
552.714	1907.09
556.677	1972.78
560.638	2099.74
564.597	2310.64
568.555	2771.44
572.511	3413.09
576.464	4236.45
580.416	5340.45
584.366	6304.3
588.315	6066.56
592.261	5399.8
596.206	3925.65
600.148	3098.15
604.089	2136.27
608.028	1389.99
611.965	832.267
615.901	412.081
619.834	201.403
623.766	59.188
627.696	95.4
631.624	100.473
635.551	0.24
639.475	30.033
643.398	47.382
647.318	71.132
651.237	97.368
655.155	86.313
659.07	115.978
662.984	156.574
666.895	36.269
670.805	148.846
674.713	96.439
678.62	29.867
682.524	6.102
686.427	85.062
690.328	44.973
694.227	159.588
698.124	241.073
702.02	320.101
705.913	241.26
709.805	375.988
713.695	280.866
717.584	384.863
721.47	452.025
725.355	425.37
729.238	527.894
733.119	477.604
736.998	508.509
740.876	482.642
744.752	448.034
748.626	543.642
752.498	574.469
756.368	592.524
760.237	663.813
764.104	722.347
767.969	713.136
771.832	850.189
775.693	945.515
779.553	961.812
783.411	1030.14
787.267	1146.88
791.122	1310.41
794.974	1349.78
798.825	1521.31
802.674	1638.31
806.522	2162.22
810.367	2501.66
814.211	2987.98
818.053	3595.29
821.893	4060.66
825.732	4484.09
829.568	5302.37
833.403	7075.88
837.236	10205.1
841.068	15728.3
844.898	18610.1
848.726	13910
852.552	8431.56
856.376	5491.9
860.199	4230.6
864.02	3674.03
867.839	3325.73
871.656	3227.26
875.472	3246.96
879.286	3464.3
883.098	3928.82
886.909	4684.37
890.717	6199.12
894.524	8703
898.33	13453.9
902.133	23215.9
905.935	38072
909.735	39402.3
913.533	24122.9
917.33	13884.7
921.124	8749.73
924.918	6188.93
928.709	4860.34
932.499	3974.89
936.286	3382.06
940.073	3065.77
943.857	2859.16
947.64	2733.77
951.421	2791.42
955.2	2756.02
958.978	2552.55
962.753	2261.89
966.527	2081.77
970.3	2105.9
974.071	2307.41
977.84	1798.13
981.607	1318.37
985.372	1120.31
989.136	979
992.898	868.362
996.659	871.683
1000.42	976.266
1004.17	900.227
1007.93	831.473
1011.68	798.013
1015.43	723.831
1019.18	626.909
1022.93	533.247
1026.68	444.824
1030.42	367.633
1034.17	292.847
1037.91	214.424
1041.65	191.725
1045.39	164.104
1049.12	134.44
1052.86	111.928
1056.59	34.382
1060.33	28.1
1064.06	80.979
1067.78	8.965
1071.51	23.104
1075.23	32.469
1078.96	3.228
1082.68	84.83
1086.4	68.546
1090.12	5.29
1093.83	49.105
1097.55	27.508
1101.26	48.688
1104.97	30.763
1108.68	0.478
1112.39	35.715
1116.1	51.095
1119.8	31.157
1123.5	196.903
1127.2	22.754
1130.9	43.028
1134.6	48.177
1138.3	29.466
1141.99	16.713
1145.69	43.887
1149.38	75.183
1153.07	107.169
1156.76	128.162
1160.44	229.009
1164.13	193.056
1167.81	120.793
1171.49	109.169
1175.17	105.41
1178.85	56.176
1182.52	72.479
1186.2	47.638
1189.87	42.362
1193.54	7.799
1197.21	52.918
1200.88	12.224
1204.55	6.177
1208.21	9.153
1211.88	17.849
1215.54	29.57
1219.2	6.926
1222.86	63.098
1226.51	25.638
1230.17	33.116
1233.82	45.791
1237.47	36.324
1241.12	51.123
1244.77	19.73
1248.42	49.909
1252.06	78.363
1255.71	75.11
1259.35	77.519
1262.99	66.558
1266.63	127.681
1270.26	130.046
1273.9	147.564
1277.53	137.653
1281.16	119.166
1284.8	167.164
1288.42	175.444
1292.05	186.01
1295.68	173.937
1299.3	65.523
1302.92	134.766
1306.55	152.676
1310.16	151.258
1313.78	137.518
1317.4	122.057
1321.01	157.12
1324.62	189.398
1328.24	194.315
1331.85	192.631
1335.45	226.3
1339.06	209.727
1342.66	176.227
1346.27	242.883
1349.87	217.1
1353.47	130.046
1357.07	168.083
1360.66	205.012
1364.26	99.19
1367.85	148.361
1371.44	182.365
1375.04	165.254
1378.62	126.101
1382.21	80.094
1385.8	95.191
1389.38	90.131
1392.96	164.612
1396.54	158.249
1400.12	166.839
1403.7	162.257
1407.28	123.488
1410.85	168.162
1414.42	151.373
1417.99	141.489
1421.56	151.042
1425.13	104.391
1428.7	123.11
1432.26	174.748
1435.83	104.966
1439.39	145.02
1442.95	124.008
1446.51	123.276
1450.06	156.007
1453.62	169.585
1457.17	155.95
1460.73	170.758
1464.28	84.771
1467.83	173.71
1471.37	199.59
1474.92	176.592
1478.46	183.787
1482.01	141.246
1485.55	163.11
1489.09	115.416
1492.63	112.177
1496.16	75.332
1499.7	104.018
1503.23	58.435
1506.76	54.769
1510.29	98.234
1513.82	69.243
1517.35	67.452
1520.88	28.825
1524.4	0
