Measurement: Raman, 514 nm, ccw, Raman Data Processed
Mineral: Atacamite
Rruff sample: R050098
Ideal chemistry: Cu_2_Cl(OH)_3_
Locality: La Farola mine, Tierra Amarilla, Atacama, Chile
Source: Rock Currier
Description: Green prismatic single crystals
Measured chemistry: Cu_2.00_Cl_1.00_(OH)_3_
Pin_id: M00436
Orientation: Laser parallel to c* (0 0 1). Fiducial mark perpendicular to laser is parallel to a [1 0 0]
Raman shift (cm-1)	intensity
54.966	0
59.164	438.452
63.36	455.806
67.554	458.021
71.747	73.39
75.937	50.679
80.125	67.791
84.311	378.329
88.496	1064.52
92.678	2049.8
96.858	2869.26
101.036	3735.84
105.212	5394.43
109.387	10168.2
113.559	21641.8
117.729	28029.2
121.897	26836.5
126.063	12876.9
130.228	6476.53
134.39	4824.6
138.55	5219.27
142.709	9036.88
146.865	12924.9
151.019	13918.9
155.171	9808.24
159.322	5775.52
163.47	4332.86
167.617	3800.33
171.761	3406.96
175.904	3302.78
180.044	3181.3
184.183	3228.93
188.319	3397.21
192.454	3683.98
196.586	4221.7
200.717	5048.38
204.846	6531.37
208.972	9123.65
213.097	11555.2
217.22	12384.2
221.341	10540.2
225.46	6857.93
229.577	4170.53
233.692	2944.85
237.805	2008.98
241.916	1854.36
246.025	1517.46
250.132	1370.67
254.237	1103.05
258.34	1060.72
262.442	783.598
266.541	654.614
270.639	518.711
274.734	356.849
278.828	253.992
282.919	226.109
287.009	137.156
291.097	93.071
295.183	36.812
299.266	48.362
303.348	29.32
307.428	13.283
311.507	84.518
315.583	182.06
319.657	114.946
323.729	196.168
327.8	157.785
331.868	18.729
335.935	168.274
339.999	824.284
344.062	2052.31
348.123	3840.37
352.182	5613.38
356.239	6111.22
360.294	5258.01
364.347	3979.9
368.398	2856.85
372.448	2128.82
376.495	1554.56
380.54	1494.01
384.584	1449.1
388.626	1561.71
392.666	1542.92
396.704	1477.88
400.74	1616.68
404.774	1920.44
408.806	2332.11
412.836	2530.51
416.865	2032.57
420.891	1315.27
424.916	1058.3
428.939	739.486
432.959	633.978
436.978	750.036
440.996	1378.64
445.011	2403.79
449.024	3817.45
453.036	4139.61
457.045	3551.27
461.053	3027.95
465.059	2673.83
469.063	2646.66
473.065	2724.84
477.065	2824.52
481.063	3438.31
485.06	4172.92
489.054	5299.98
493.047	7132.33
497.038	9668.82
501.027	13476.1
505.014	19427.4
508.999	25506
512.982	28682
516.964	25392.7
520.944	17973
524.921	11505.4
528.897	7563.56
532.871	5390.74
536.844	3808.29
540.814	2750.91
544.783	2174.7
548.749	1682.88
552.714	1385.08
556.677	1137.29
560.638	896.492
564.597	726.68
568.555	665.333
572.511	625.938
576.464	706.981
580.416	693.95
584.366	798.831
588.315	984.612
592.261	1323.28
596.206	1576.83
600.148	1711.24
604.089	1354.5
608.028	1014.61
611.965	649.554
615.901	400.32
619.834	317.905
623.766	179.339
627.696	168.627
631.624	102.749
635.551	121.768
639.475	110.684
643.398	101.478
647.318	41.153
651.237	108.483
655.155	13.974
659.07	112.214
662.984	85.528
666.895	130.025
670.805	142.876
674.713	169.06
678.62	82.522
682.524	94.037
686.427	32.628
690.328	40.928
694.227	70.995
698.124	128.634
702.02	175.905
705.913	161.866
709.805	318.52
713.695	359.872
717.584	375.924
721.47	480.675
725.355	507.127
729.238	545.283
733.119	550.142
736.998	546.707
740.876	591.981
744.752	593.966
748.626	630.832
752.498	573.082
756.368	507.617
760.237	558.099
764.104	578.724
767.969	554.118
771.832	661.275
775.693	610.189
779.553	622.891
783.411	648.418
787.267	725.771
791.122	742.966
794.974	713.858
798.825	855.927
802.674	900.365
806.522	1000.54
810.367	1116.31
814.211	1314.92
818.053	1514.67
821.893	1872.7
825.732	2344.53
829.568	3119.92
833.403	4573.04
837.236	7484.15
841.068	12537.2
844.898	15740.5
848.726	11959.4
852.552	6923.72
856.376	3844.11
860.199	2502.74
864.02	1797.43
867.839	1495.16
871.656	1402.94
875.472	1356.77
879.286	1543.66
883.098	1976.6
886.909	2728.62
890.717	4155.7
894.524	6505.87
898.33	10822.1
902.133	19489.5
905.935	32815.9
909.735	34796.6
913.533	21477.4
917.33	11645.3
921.124	6743.15
924.918	4559.85
928.709	3426.48
932.499	2693.32
936.286	2209.32
940.073	2042.34
943.857	1902.52
947.64	1863.7
951.421	2083.87
955.2	2177.08
958.978	1911.12
962.753	1481.93
966.527	1326.22
970.3	1167.09
974.071	1074.58
977.84	1016.75
981.607	892.586
985.372	925.433
989.136	846.559
992.898	731.903
996.659	686.391
1000.42	685.435
1004.17	575.707
1007.93	613.145
1011.68	509.712
1015.43	471.422
1019.18	392.307
1022.93	365.327
1026.68	344.466
1030.42	271.712
1034.17	201.062
1037.91	181.509
1041.65	130.051
1045.39	216.748
1049.12	109.111
1052.86	97.301
1056.59	29.468
1060.33	44.845
1064.06	20.652
1067.78	56.129
1071.51	11.611
1075.23	18.448
1078.96	53.542
1082.68	50.934
1086.4	29.354
1090.12	10.95
1093.83	36.577
1097.55	14.599
1101.26	40.327
1104.97	2.032
1108.68	16.562
1112.39	20.79
1116.1	6.772
1119.8	82.814
1123.5	272.47
1127.2	50.938
1130.9	55.18
1134.6	18.898
1138.3	2.514
1141.99	26.149
1145.69	90.849
1149.38	120.387
1153.07	212.086
1156.76	240.742
1160.44	263.82
1164.13	216.919
1167.81	201.872
1171.49	209.095
1175.17	166.007
1178.85	133.01
1182.52	152.545
1186.2	134.867
1189.87	135.163
1193.54	76.132
1197.21	69.95
1200.88	64.66
1204.55	23.159
1208.21	32.385
1211.88	114.002
1215.54	77.315
1219.2	80.857
1222.86	50.928
1226.51	61.571
1230.17	51.543
1233.82	47.616
1237.47	3.034
1241.12	74.569
1244.77	82.013
1248.42	65.289
1252.06	96.479
1255.71	111.054
1259.35	89.909
1262.99	68.845
1266.63	70.392
1270.26	84.697
1273.9	122.825
1277.53	49.57
1281.16	75.875
1284.8	5.878
1288.42	61.895
1292.05	4.02
1295.68	44.042
1299.3	2.653
1302.92	33.169
1306.55	30.517
1310.16	24.689
1313.78	18.617
1317.4	60.365
1321.01	34.955
1324.62	61.44
1328.24	86.726
1331.85	68.874
1335.45	108.888
1339.06	90.63
1342.66	99.839
1346.27	113
1349.87	92.826
1353.47	99.306
1357.07	86.361
1360.66	44.267
1364.26	61.963
1367.85	58.22
1371.44	43.347
1375.04	19.41
1378.62	45.32
1382.21	55.284
1385.8	75.522
1389.38	70.757
1392.96	68.17
1396.54	100.209
1400.12	94.891
1403.7	131.549
1407.28	115.255
1410.85	96.664
1414.42	96.828
1417.99	98.32
1421.56	68.657
1425.13	57.016
1428.7	57.924
1432.26	59.717
1435.83	20.567
1439.39	127.094
1442.95	127.705
1446.51	71.398
1450.06	67.984
1453.62	77.604
1457.17	120.13
1460.73	53.769
1464.28	82.304
1467.83	27.904
1471.37	66.7
1474.92	35.299
1478.46	30.832
1482.01	1.781
1485.55	43.866
1489.09	16.575
1492.63	21.289
1496.16	84.945
1499.7	87.812
1503.23	83.074
1506.76	5.286
1510.29	89.694
1513.82	81.738
1517.35	72.758
1520.88	39.325
1524.4	0
