Measurement: Raman, 514 nm, ccw, Raman Data Processed
Mineral: Atacamite
Rruff sample: R050098
Ideal chemistry: Cu_2_Cl(OH)_3_
Locality: La Farola mine, Tierra Amarilla, Atacama, Chile
Source: Rock Currier
Description: Green prismatic single crystals
Measured chemistry: Cu_2.00_Cl_1.00_(OH)_3_
Pin_id: M00220
Orientation: Laser parallel to -b* (0 -1 0). Fiducial mark perpendicular to laser is parallel to c [0 0 1]
Raman shift (cm-1)	intensity
54.966	0
59.164	238.594
63.36	56.914
67.554	91.173
71.747	16.601
75.937	188.696
80.125	745.348
84.311	2140.79
88.496	4369.01
92.678	6899.34
96.858	9237
101.036	11607.3
105.212	13586.8
109.387	17978
113.559	26905.9
117.729	37983
121.897	42706
126.063	29488.2
130.228	25985
134.39	28431
138.55	32951.6
142.709	32807.7
146.865	32510.1
151.019	33331.4
155.171	18359.1
159.322	9978.21
163.47	7771.77
167.617	6971.7
171.761	6571.58
175.904	6298.39
180.044	5861.13
184.183	5516.79
188.319	5373.35
192.454	5183.78
196.586	4895.04
200.717	4790.07
204.846	4712.84
208.972	4670.31
213.097	4174.45
217.22	3935.25
221.341	3946.3
225.46	3902.7
229.577	3765.56
233.692	3584.59
237.805	3344.97
241.916	3154.44
246.025	2746.72
250.132	2453.6
254.237	2349.44
258.34	2184.82
262.442	1944.66
266.541	1954.75
270.639	1835.07
274.734	1587.52
278.828	1550.5
282.919	1315.05
287.009	1149.08
291.097	1085.5
295.183	1010.22
299.266	895.182
303.348	827.309
307.428	762.344
311.507	710.049
315.583	615.456
319.657	535.022
323.729	531.583
327.8	388.061
331.868	350.399
335.935	353.565
339.999	449.532
344.062	409.28
348.123	491.859
352.182	404.344
356.239	261.701
360.294	258.959
364.347	258.19
368.398	244.437
372.448	218.554
376.495	348.564
380.54	531.396
384.584	590.02
388.626	603.147
392.666	493.493
396.704	241.513
400.74	31.553
404.774	113.538
408.806	197.165
412.836	246.785
416.865	233.72
420.891	272.055
424.916	346.878
428.939	201.368
432.959	65.449
436.978	81.876
440.996	422.357
445.011	1047.25
449.024	1737.52
453.036	1506.15
457.045	1030.12
461.053	682.398
465.059	675.966
469.063	664.802
473.065	780.888
477.065	927.2
481.063	1390.72
485.06	2013.43
489.054	2947.3
493.047	4471.83
497.038	6699.5
501.027	10117.8
505.014	15143.9
508.999	20659.7
512.982	24294.3
516.964	22539.5
520.944	16745.2
524.921	11037.2
528.897	7373.25
532.871	5293.86
536.844	3781.75
540.814	2883.59
544.783	2282.24
548.749	1867.08
552.714	1756.66
556.677	1515.22
560.638	1644.87
564.597	1689.61
568.555	1743
572.511	1999.44
576.464	2265.87
580.416	2631.88
584.366	2927.94
588.315	2848.24
592.261	2441.11
596.206	1692.96
600.148	1217
604.089	760.586
608.028	528.499
611.965	449.693
615.901	343.332
619.834	450.683
623.766	615.738
627.696	524.492
631.624	334.938
635.551	317.07
639.475	305.904
643.398	437.368
647.318	407.526
651.237	442.348
655.155	285.833
659.07	232.917
662.984	38.742
666.895	2.885
670.805	0.696
674.713	33.125
678.62	68.197
682.524	76.487
686.427	21.876
690.328	168.159
694.227	36.497
698.124	4.721
702.02	42.357
705.913	21.506
709.805	7.913
713.695	31.249
717.584	46.093
721.47	68.473
725.355	30.65
729.238	120.851
733.119	38.163
736.998	31.627
740.876	69.314
744.752	28.256
748.626	108.253
752.498	36.127
756.368	137.715
760.237	207.041
764.104	242.111
767.969	179.937
771.832	281.526
775.693	374.886
779.553	387.027
783.411	469.958
787.267	547.687
791.122	660.222
794.974	762.574
798.825	967.749
802.674	1210.76
806.522	1846.61
810.367	2575.3
814.211	3717.86
818.053	4502.71
821.893	4243.03
825.732	3225.07
829.568	2265.56
833.403	1732.35
837.236	1450.61
841.068	1470.6
844.898	1408.42
848.726	1030.38
852.552	791.064
856.376	772.822
860.199	755.692
864.02	922.835
867.839	686.035
871.656	491.522
875.472	529.963
879.286	516.47
883.098	587.017
886.909	778.125
890.717	993.606
894.524	1448.1
898.33	2300.17
902.133	4146.31
905.935	6779.8
909.735	7104.04
913.533	4823.4
917.33	2986.21
921.124	1709.31
924.918	1179.67
928.709	893.351
932.499	862.389
936.286	646.741
940.073	760.38
943.857	798.266
947.64	763.374
951.421	840.798
955.2	1012.42
958.978	1309.28
962.753	1719.38
966.527	2601.75
970.3	4368.43
974.071	6157.53
977.84	4972.05
981.607	3261
985.372	2600.49
989.136	2465.61
992.898	2403.3
996.659	2636.46
1000.42	2986.27
1004.17	2962.56
1007.93	2791.2
1011.68	2583.15
1015.43	2385.49
1019.18	2195.2
1022.93	1912.32
1026.68	1733.65
1030.42	1487.25
1034.17	1276.63
1037.91	1097.1
1041.65	878.634
1045.39	783.592
1049.12	670.494
1052.86	529.827
1056.59	420.672
1060.33	310.046
1064.06	210.939
1067.78	101.305
1071.51	161.078
1075.23	88.457
1078.96	62.444
1082.68	119.808
1086.4	141.792
1090.12	110.069
1093.83	64.358
1097.55	4.525
1101.26	35.929
1104.97	122.242
1108.68	53.318
1112.39	88.352
1116.1	111.392
1119.8	88.163
1123.5	206.338
1127.2	143.691
1130.9	74.932
1134.6	62.181
1138.3	70.434
1141.99	66.303
1145.69	4.122
1149.38	26.116
1153.07	44.219
1156.76	22.273
1160.44	56.274
1164.13	78.181
1167.81	49.076
1171.49	70.86
1175.17	60.557
1178.85	8.839
1182.52	34.633
1186.2	0.969
1189.87	3.606
1193.54	13.256
1197.21	24.903
1200.88	62.28
1204.55	31.905
1208.21	14.286
1211.88	61.807
1215.54	1.17
1219.2	41.16
1222.86	48.794
1226.51	43.927
1230.17	12.546
1233.82	35.443
1237.47	66.124
1241.12	54.585
1244.77	9.235
1248.42	136.683
1252.06	117.36
1255.71	84.789
1259.35	17.013
1262.99	72.985
1266.63	189.735
1270.26	166.282
1273.9	146.622
1277.53	185.748
1281.16	178.657
1284.8	154.341
1288.42	182.286
1292.05	125.046
1295.68	208.031
1299.3	199.786
1302.92	226.316
1306.55	207.628
1310.16	277.73
1313.78	261.865
1317.4	260.215
1321.01	270.075
1324.62	240.798
1328.24	238.627
1331.85	151.167
1335.45	168.522
1339.06	168.967
1342.66	182.471
1346.27	172.801
1349.87	177.886
1353.47	193.791
1357.07	171.777
1360.66	134.892
1364.26	135.554
1367.85	185.696
1371.44	165.534
1375.04	109.644
1378.62	124.78
1382.21	153.271
1385.8	211.691
1389.38	114.053
1392.96	209.821
1396.54	177.358
1400.12	152.469
1403.7	170.85
1407.28	156.699
1410.85	136.067
1414.42	150.186
1417.99	132.899
1421.56	179.195
1425.13	147.067
1428.7	104.542
1432.26	141.517
1435.83	178.304
1439.39	253.312
1442.95	317.659
1446.51	435.291
1450.06	415.577
1453.62	405.488
1457.17	444.539
1460.73	459.737
1464.28	323.172
1467.83	276.478
1471.37	179.721
1474.92	252.001
1478.46	170.456
1482.01	179.26
1485.55	235.509
1489.09	141.184
1492.63	100.192
1496.16	80.537
1499.7	41.325
1503.23	33.755
1506.76	11.031
1510.29	2.908
1513.82	21.436
1517.35	7.788
1520.88	41.242
1524.4	47.409
