Measurement: Raman, 514 nm, ccw, Raman Data Processed
Mineral: Atacamite
Rruff sample: R050098
Ideal chemistry: Cu_2_Cl(OH)_3_
Locality: La Farola mine, Tierra Amarilla, Atacama, Chile
Source: Rock Currier
Description: Green prismatic single crystals
Measured chemistry: Cu_2.00_Cl_1.00_(OH)_3_
Pin_id: M00220
Orientation: Laser parallel to -b* (0 -1 0). Fiducial mark perpendicular to laser is parallel to c [0 0 1]
Raman shift (cm-1)	intensity
54.966	0
59.164	858.593
63.36	1339.4
67.554	922.802
71.747	643.032
75.937	89.256
80.125	82.289
84.311	755.869
88.496	2098.34
92.678	3812.15
96.858	5774.46
101.036	8419.47
105.212	9820.03
109.387	11616.6
113.559	14238.6
117.729	16790
121.897	14860.5
126.063	10825.1
130.228	10009.5
134.39	11076.5
138.55	13541
142.709	17520.8
146.865	18040.5
151.019	18278.2
155.171	11363.3
159.322	6969.24
163.47	5787.23
167.617	5303.49
171.761	5000.93
175.904	4947.55
180.044	4820.22
184.183	4562.08
188.319	4557.04
192.454	4507.22
196.586	4691.61
200.717	4953.21
204.846	5361.03
208.972	5985.13
213.097	5790.52
217.22	5468.23
221.341	4768.38
225.46	3940.28
229.577	3458.18
233.692	3134.99
237.805	2826.89
241.916	2630.07
246.025	2204.13
250.132	1900.14
254.237	1636.6
258.34	1478.3
262.442	1159.97
266.541	992.817
270.639	873.751
274.734	523.829
278.828	469.484
282.919	252.63
287.009	72.178
291.097	108.941
295.183	142.815
299.266	115.522
303.348	28.143
307.428	41.291
311.507	163.225
315.583	188.254
319.657	626.063
323.729	1024.19
327.8	1514.47
331.868	2381.83
335.935	3765.3
339.999	6216.95
344.062	9652.95
348.123	13785.4
352.182	16320.5
356.239	15592.4
360.294	11524.8
364.347	7511.69
368.398	4742.88
372.448	3386.19
376.495	3099.42
380.54	3586.42
384.584	3774.15
388.626	3173.83
392.666	2340.46
396.704	1386.03
400.74	915.574
404.774	1626.99
408.806	1557.64
412.836	1409.17
416.865	707.358
420.891	26.843
424.916	440.566
428.939	272.233
432.959	984.318
436.978	1257.3
440.996	3371.67
445.011	5740.39
449.024	7632.42
453.036	5979.54
457.045	2975.33
461.053	1174.78
465.059	492.682
469.063	66.465
473.065	48.331
477.065	37.156
481.063	566.484
485.06	1376.57
489.054	2405.22
493.047	4374.6
497.038	7391.35
501.027	11405.1
505.014	16651.8
508.999	22252.3
512.982	25858.9
516.964	23558
520.944	17425.5
524.921	11293.5
528.897	7428.06
532.871	5274.65
536.844	3673.51
540.814	2679.4
544.783	2171.08
548.749	1771.16
552.714	1698.51
556.677	1648.27
560.638	1785.11
564.597	2066.67
568.555	2480.15
572.511	2963.57
576.464	3559.43
580.416	4365.52
584.366	5156.89
588.315	5071.35
592.261	4599.99
596.206	3653.31
600.148	2778.28
604.089	1791.88
608.028	997.617
611.965	532.328
615.901	300.181
619.834	324.075
623.766	222.509
627.696	186.458
631.624	93.713
635.551	6.336
639.475	51.368
643.398	169.997
647.318	58.771
651.237	36.642
655.155	8.432
659.07	212.217
662.984	229.894
666.895	246.812
670.805	237.292
674.713	189.408
678.62	80.919
682.524	90.544
686.427	70.708
690.328	23.646
694.227	155.529
698.124	124.481
702.02	252.251
705.913	133.979
709.805	273.646
713.695	178.351
717.584	315.097
721.47	410.988
725.355	417.036
729.238	497.267
733.119	545.695
736.998	431.338
740.876	567.313
744.752	603.73
748.626	586.451
752.498	632.418
756.368	727.636
760.237	826.116
764.104	909.87
767.969	998.098
771.832	1125.3
775.693	1280.01
779.553	1372.06
783.411	1498.47
787.267	1649.84
791.122	2106.61
794.974	2394.37
798.825	2913
802.674	3804.31
806.522	5187.07
810.367	7087.33
814.211	9420.65
818.053	11340.8
821.893	11102.5
825.732	9504.08
829.568	8411.9
833.403	8885.41
837.236	11052.2
841.068	15143.7
844.898	16669.7
848.726	12761
852.552	8421.18
856.376	5845.02
860.199	4970.16
864.02	4574.54
867.839	4054.03
871.656	3613.13
875.472	3582.44
879.286	3596.22
883.098	4054.96
886.909	5033.19
890.717	6470.75
894.524	8927.47
898.33	13744.4
902.133	22971.6
905.935	35642.2
909.735	36242
913.533	23824.2
917.33	14138.7
921.124	8805.43
924.918	6390.34
928.709	4956.23
932.499	4020.13
936.286	3512.72
940.073	3291.26
943.857	3069.2
947.64	2985.24
951.421	3085.36
955.2	3201.89
958.978	3325.23
962.753	3849.35
966.527	5489.71
970.3	8852.73
974.071	11778
977.84	8952.5
981.607	4951.17
985.372	3143.98
989.136	2222.58
992.898	1558.92
996.659	1370.87
1000.42	1449.88
1004.17	1272.53
1007.93	953.391
1011.68	972.073
1015.43	815.777
1019.18	725.766
1022.93	661.1
1026.68	668.744
1030.42	410.066
1034.17	352.918
1037.91	341.544
1041.65	284.555
1045.39	297.172
1049.12	249.114
1052.86	148.432
1056.59	65.292
1060.33	120.942
1064.06	67.736
1067.78	32.294
1071.51	42.294
1075.23	36.143
1078.96	22.499
1082.68	19.998
1086.4	5.553
1090.12	9.694
1093.83	26.93
1097.55	21.763
1101.26	63.178
1104.97	56.622
1108.68	71.708
1112.39	0.143
1116.1	30.143
1119.8	71.993
1123.5	14.097
1127.2	43.911
1130.9	51.228
1134.6	59.672
1138.3	34.689
1141.99	22.591
1145.69	3.995
1149.38	39.472
1153.07	56.5
1156.76	48.149
1160.44	28.908
1164.13	77.751
1167.81	155.389
1171.49	141.812
1175.17	38.012
1178.85	60.971
1182.52	28.668
1186.2	9.033
1189.87	64.02
1193.54	9.344
1197.21	68.275
1200.88	108.899
1204.55	77.806
1208.21	10.107
1211.88	16.616
1215.54	34.055
1219.2	9.288
1222.86	3.546
1226.51	69.027
1230.17	39.15
1233.82	37.533
1237.47	213.028
1241.12	83.337
1244.77	58.443
1248.42	107.674
1252.06	184.441
1255.71	98.432
1259.35	130.806
1262.99	182.405
1266.63	248.021
1270.26	129.955
1273.9	253.686
1277.53	318.59
1281.16	296.021
1284.8	199.731
1288.42	242.559
1292.05	240.49
1295.68	303.16
1299.3	222.228
1302.92	375.76
1306.55	332.196
1310.16	380.928
1313.78	405.876
1317.4	418.507
1321.01	347.667
1324.62	292.371
1328.24	341.242
1331.85	224.456
1335.45	210.637
1339.06	293.071
1342.66	212.056
1346.27	302.5
1349.87	220.548
1353.47	154.218
1357.07	251.844
1360.66	130.687
1364.26	220.307
1367.85	107.083
1371.44	131.152
1375.04	246.254
1378.62	223.327
1382.21	170.11
1385.8	247.021
1389.38	146.829
1392.96	167.348
1396.54	221.834
1400.12	220.319
1403.7	199.339
1407.28	124.633
1410.85	168.977
1414.42	127.02
1417.99	142.649
1421.56	262.717
1425.13	119.218
1428.7	128.268
1432.26	140.045
1435.83	235.27
1439.39	299.375
1442.95	427.636
1446.51	454.89
1450.06	519.559
1453.62	423.43
1457.17	601.527
1460.73	568.891
1464.28	462.319
1467.83	324.827
1471.37	293.498
1474.92	301.496
1478.46	235.062
1482.01	282.354
1485.55	233.341
1489.09	241.73
1492.63	158.368
1496.16	84.638
1499.7	217.677
1503.23	121.098
1506.76	178.378
1510.29	153.03
1513.82	14.595
1517.35	56.44
1520.88	90.125
