Measurement: Raman, 514 nm, ccw, Raman Data Processed
Mineral: Atacamite
Rruff sample: R050098
Ideal chemistry: Cu_2_Cl(OH)_3_
Locality: La Farola mine, Tierra Amarilla, Atacama, Chile
Source: Rock Currier
Description: Green prismatic single crystals
Measured chemistry: Cu_2.00_Cl_1.00_(OH)_3_
Pin_id: M00116
Orientation: Laser parallel to -a* (-1 0 0). Fiducial mark perpendicular to laser is parallel to b [0 1 0]
Raman shift (cm-1)	intensity
54.966	0
59.164	251.088
63.36	357.216
67.554	46.251
71.747	65.014
75.937	334.122
80.125	1393.24
84.311	3159.52
88.496	5946.42
92.678	8512.57
96.858	10183.4
101.036	11375.4
105.212	12748
109.387	17239.5
113.559	31512.3
117.729	42074.7
121.897	42135.8
126.063	29223.9
130.228	26171.4
134.39	30244.9
138.55	31219.9
142.709	33928.5
146.865	35304.4
151.019	31030.5
155.171	17383.3
159.322	9279.67
163.47	7100.57
167.617	6512.64
171.761	6017.69
175.904	5627.49
180.044	5290.06
184.183	5121.38
188.319	4881.45
192.454	4554.22
196.586	4512.68
200.717	4400.76
204.846	4253.44
208.972	4143.68
213.097	3689.46
217.22	3465.75
221.341	3315.01
225.46	3162.8
229.577	3076.73
233.692	2913.83
237.805	2717
241.916	2662.92
246.025	2384.93
250.132	2131.44
254.237	2176.73
258.34	2084.18
262.442	2057.22
266.541	1928.09
270.639	1807.45
274.734	1642.4
278.828	1409.7
282.919	1206
287.009	1044.67
291.097	921.622
295.183	784.775
299.266	695.059
303.348	684.404
307.428	622.773
311.507	647.166
315.583	427.578
319.657	474.964
323.729	438.264
327.8	342.389
331.868	301.266
335.935	309.858
339.999	380.165
344.062	409.228
348.123	463.088
352.182	512.789
356.239	539.364
360.294	548.717
364.347	497.847
368.398	244.824
372.448	222.61
376.495	356.061
380.54	517.044
384.584	757.605
388.626	825.006
392.666	762.316
396.704	506.823
400.74	92.883
404.774	26.117
408.806	129.601
412.836	203.016
416.865	188.805
420.891	290.167
424.916	265.001
428.939	197.19
432.959	181.708
436.978	93.765
440.996	344.164
445.011	985.38
449.024	1719.86
453.036	1614.57
457.045	1000.5
461.053	644.616
465.059	460.135
469.063	530.347
473.065	663.209
477.065	792.643
481.063	1269.3
485.06	1837.79
489.054	2619.68
493.047	4123.64
497.038	6331.75
501.027	9865.41
505.014	15229.6
508.999	21577.2
512.982	25918.6
516.964	23838.9
520.944	17442.2
524.921	11391.1
528.897	7406.32
532.871	5279.06
536.844	3687.41
540.814	2768.84
544.783	2155.93
548.749	1734.55
552.714	1565.31
556.677	1518
560.638	1492.39
564.597	1583.7
568.555	1686.89
572.511	1902.3
576.464	2280.43
580.416	2799.35
584.366	3304.2
588.315	3171.65
592.261	2615.69
596.206	1633.65
600.148	1080.7
604.089	665.271
608.028	437.521
611.965	318.442
615.901	230.026
619.834	216.268
623.766	178.159
627.696	130.694
631.624	97.857
635.551	178.627
639.475	175.017
643.398	192.002
647.318	195.598
651.237	140.812
655.155	98.634
659.07	32.957
662.984	17.334
666.895	14.412
670.805	76.377
674.713	6.332
678.62	30.098
682.524	74.818
686.427	16.668
690.328	29.483
694.227	12.964
698.124	0.787
702.02	68.011
705.913	20.778
709.805	1.699
713.695	9.698
717.584	75.884
721.47	89.677
725.355	131.208
729.238	132.722
733.119	79.349
736.998	48.167
740.876	48.196
744.752	28.424
748.626	11.795
752.498	48.879
756.368	106.355
760.237	134.23
764.104	157.823
767.969	163.143
771.832	291.196
775.693	330.99
779.553	337.542
783.411	346.721
787.267	353.955
791.122	346.818
794.974	370.602
798.825	426.422
802.674	555.695
806.522	691.615
810.367	878.771
814.211	1114.82
818.053	1496.3
821.893	2110.3
825.732	2507.7
829.568	2329.38
833.403	1805.55
837.236	1417.52
841.068	1451.45
844.898	1398.24
848.726	952.641
852.552	526.432
856.376	283.138
860.199	237.854
864.02	289.499
867.839	224.214
871.656	225.674
875.472	339.402
879.286	393.75
883.098	547.747
886.909	717.969
890.717	974.753
894.524	1486.95
898.33	2505.16
902.133	4618.13
905.935	8747.42
909.735	12232.7
913.533	11244.1
917.33	7132.7
921.124	3648.47
924.918	2088.41
928.709	1422.61
932.499	1099.69
936.286	868.047
940.073	847.316
943.857	771.627
947.64	698.079
951.421	606.721
955.2	697.568
958.978	743.622
962.753	769.337
966.527	895.474
970.3	1037.37
974.071	1350.67
977.84	1563.44
981.607	1770.7
985.372	2268.39
989.136	2596.58
992.898	2560.34
996.659	2588.55
1000.42	2845.1
1004.17	2850.98
1007.93	2806.12
1011.68	2710.5
1015.43	2469.17
1019.18	2164.21
1022.93	1978.34
1026.68	1831.76
1030.42	1554.51
1034.17	1362.76
1037.91	1167.75
1041.65	1028.43
1045.39	797.438
1049.12	669.952
1052.86	527.695
1056.59	378.469
1060.33	250.467
1064.06	173.057
1067.78	79.494
1071.51	7.722
1075.23	23.783
1078.96	41.837
1082.68	7.638
1086.4	6.466
1090.12	17.252
1093.83	2.644
1097.55	30.473
1101.26	46.796
1104.97	53.28
1108.68	13.573
1112.39	20.978
1116.1	64.436
1119.8	82.577
1123.5	242.406
1127.2	120.59
1130.9	102.415
1134.6	94.896
1138.3	116.291
1141.99	20.627
1145.69	133.716
1149.38	56.703
1153.07	97.248
1156.76	102.942
1160.44	81.759
1164.13	100.496
1167.81	115.739
1171.49	35.235
1175.17	26.401
1178.85	2.159
1182.52	39.275
1186.2	28.986
1189.87	24.652
1193.54	4.506
1197.21	14.34
1200.88	31.091
1204.55	17.153
1208.21	16.694
1211.88	2.002
1215.54	16.507
1219.2	0.305
1222.86	50.391
1226.51	1.391
1230.17	4.424
1233.82	34.418
1237.47	9.6
1241.12	29.625
1244.77	35.971
1248.42	33.259
1252.06	15.244
1255.71	64.959
1259.35	18.406
1262.99	45.577
1266.63	79.502
1270.26	117.162
1273.9	8.575
1277.53	60.684
1281.16	60.497
1284.8	64.694
1288.42	59.31
1292.05	67.303
1295.68	89.024
1299.3	105.555
1302.92	85.816
1306.55	40.836
1310.16	55.532
1313.78	85.026
1317.4	107.939
1321.01	90.288
1324.62	103.849
1328.24	123.835
1331.85	122.043
1335.45	134.267
1339.06	141.158
1342.66	133.017
1346.27	166.24
1349.87	206.393
1353.47	205.823
1357.07	178.752
1360.66	178.94
1364.26	178.187
1367.85	130.209
1371.44	122.425
1375.04	165.077
1378.62	154.525
1382.21	145.688
1385.8	137.411
1389.38	123.608
1392.96	108.579
1396.54	133.129
1400.12	132.195
1403.7	146.445
1407.28	133.997
1410.85	138.046
1414.42	125.104
1417.99	139.315
1421.56	152.267
1425.13	111.384
1428.7	111.377
1432.26	89.216
1435.83	82.194
1439.39	63.419
1442.95	69.447
1446.51	23.409
1450.06	42.302
1453.62	52.514
1457.17	64.098
1460.73	20.892
1464.28	47.771
1467.83	12.515
1471.37	11.172
1474.92	57.748
1478.46	34.546
1482.01	45.446
1485.55	52.197
1489.09	6.906
1492.63	39.673
1496.16	34.987
1499.7	4.708
1503.23	8.557
1506.76	29.347
1510.29	79.422
1513.82	62.201
1517.35	10.151
1520.88	16.125
1524.4	7.982
1527.92	0
