Measurement: Raman, 514 nm, ccw, Raman Data Processed
Mineral: Atacamite
Rruff sample: R050098
Ideal chemistry: Cu_2_Cl(OH)_3_
Locality: La Farola mine, Tierra Amarilla, Atacama, Chile
Source: Rock Currier
Description: Green prismatic single crystals
Measured chemistry: Cu_2.00_Cl_1.00_(OH)_3_
Pin_id: M00220
Orientation: Laser parallel to -b* (0 -1 0). Fiducial mark perpendicular to laser is parallel to c [0 0 1]
Raman shift (cm-1)	intensity
54.966	0
59.164	169.394
63.36	385
67.554	23.252
71.747	305.764
75.937	286.833
80.125	596.238
84.311	2194.48
88.496	4906.82
92.678	8237.49
96.858	12331.9
101.036	19481.8
105.212	24102.9
109.387	26923.7
113.559	29229
117.729	38451.7
121.897	40904.6
126.063	28293.9
130.228	25096
134.39	27426.3
138.55	31578.1
142.709	34000.5
146.865	35311.3
151.019	34683
155.171	19069
159.322	10738.9
163.47	8588.67
167.617	7891.86
171.761	7258.48
175.904	6950.39
180.044	6524.6
184.183	6300.07
188.319	6210.86
192.454	5985.77
196.586	6179.83
200.717	6097.98
204.846	6140.15
208.972	6467.35
213.097	5979.56
217.22	6046.75
221.341	6308.98
225.46	6662.75
229.577	7070.03
233.692	7503.55
237.805	7480.23
241.916	6884.96
246.025	5597.09
250.132	4252.98
254.237	3287.61
258.34	2750.73
262.442	2387.57
266.541	2071.73
270.639	1812.15
274.734	1370.21
278.828	889.508
282.919	737.244
287.009	653.064
291.097	360.154
295.183	291.928
299.266	151.125
303.348	248.666
307.428	125.508
311.507	154.648
315.583	7.072
319.657	44.737
323.729	124.578
327.8	132.488
331.868	273.376
335.935	577.05
339.999	962.939
344.062	1566.63
348.123	2298.43
352.182	2923.51
356.239	2751.86
360.294	2354.52
364.347	1751.41
368.398	994.516
372.448	639.797
376.495	737.086
380.54	996.198
384.584	1268.13
388.626	1246.29
392.666	1003.77
396.704	667.564
400.74	199.475
404.774	29.344
408.806	23.905
412.836	3.431
416.865	129.981
420.891	354.812
424.916	497.631
428.939	369.706
432.959	242.877
436.978	119.224
440.996	912.511
445.011	1862.16
449.024	2724.14
453.036	2269.41
457.045	1432.95
461.053	1157.73
465.059	1005.72
469.063	1094.9
473.065	1717.23
477.065	1615.89
481.063	2337.59
485.06	3688.24
489.054	5434.95
493.047	8479.69
497.038	13256.3
501.027	18582.4
505.014	23641.4
508.999	27307.3
512.982	28507.9
516.964	25231.7
520.944	18481.8
524.921	12221.5
528.897	8139.55
532.871	5942.52
536.844	4184.59
540.814	3194.48
544.783	2524.28
548.749	2085.82
552.714	1900.1
556.677	1756.96
560.638	1756.94
564.597	1905.22
568.555	2112.43
572.511	2345.59
576.464	2745.28
580.416	3073.19
584.366	3398.49
588.315	3267.04
592.261	2895.04
596.206	2006.43
600.148	1454.45
604.089	947.959
608.028	809.939
611.965	473.383
615.901	389.282
619.834	504.631
623.766	432.42
627.696	494.644
631.624	258.298
635.551	281.366
639.475	293.888
643.398	395.739
647.318	440.04
651.237	359.753
655.155	285.855
659.07	72.323
662.984	35.082
666.895	36.849
670.805	216.146
674.713	118.166
678.62	141.874
682.524	121.259
686.427	106.228
690.328	59.021
694.227	40.969
698.124	21.021
702.02	28.112
705.913	28.597
709.805	12.758
713.695	41.662
717.584	48.151
721.47	175.261
725.355	149.765
729.238	205.854
733.119	124.765
736.998	87.83
740.876	240.273
744.752	256.476
748.626	224.399
752.498	269.676
756.368	375.609
760.237	451.187
764.104	615.424
767.969	630.336
771.832	937.94
775.693	1062.25
779.553	1271.29
783.411	1531.47
787.267	1946.36
791.122	2598.63
794.974	3318.63
798.825	4296.53
802.674	6077.26
806.522	9216.84
810.367	13555.3
814.211	19681.1
818.053	24704.2
821.893	22506.2
825.732	15942.2
829.568	10150.2
833.403	7079.23
837.236	5728.34
841.068	5842.57
844.898	5655.79
848.726	4218.99
852.552	3160.89
856.376	3710.16
860.199	4424.12
864.02	3205.82
867.839	2553.97
871.656	1870.85
875.472	1391.28
879.286	1380.12
883.098	1488.75
886.909	1736.3
890.717	2235.47
894.524	3247.89
898.33	4952.83
902.133	8797.23
905.935	14321.1
909.735	16388.5
913.533	12291.4
917.33	7489.99
921.124	4394.13
924.918	2808.89
928.709	2234.21
932.499	1822.13
936.286	1686.63
940.073	1692.61
943.857	1599.06
947.64	1779.17
951.421	2166.76
955.2	2690.87
958.978	3685.2
962.753	5447.31
966.527	9107.01
970.3	17131.4
974.071	25716.3
977.84	19701.1
981.607	10202.8
985.372	6173.74
989.136	4501.77
992.898	3673.83
996.659	3333.6
1000.42	3491.14
1004.17	3222.52
1007.93	2941.98
1011.68	2674.2
1015.43	2467.03
1019.18	2225.24
1022.93	2074.08
1026.68	1797.44
1030.42	1527.14
1034.17	1303.84
1037.91	1048.45
1041.65	836.61
1045.39	732.242
1049.12	574.87
1052.86	469.793
1056.59	339.668
1060.33	282.854
1064.06	186.409
1067.78	89.496
1071.51	37.632
1075.23	17.48
1078.96	103.576
1082.68	55.52
1086.4	146.333
1090.12	237.579
1093.83	37.853
1097.55	37.882
1101.26	42.847
1104.97	3.933
1108.68	27.654
1112.39	33.715
1116.1	24.995
1119.8	96.422
1123.5	250.914
1127.2	73.761
1130.9	8.699
1134.6	8.792
1138.3	7.161
1141.99	19.564
1145.69	67.24
1149.38	13.36
1153.07	7.668
1156.76	37.862
1160.44	100.233
1164.13	23.562
1167.81	60.436
1171.49	34.243
1175.17	1.153
1178.85	13.205
1182.52	112.742
1186.2	42.209
1189.87	4.868
1193.54	10.538
1197.21	23.447
1200.88	2.032
1204.55	14.869
1208.21	56.482
1211.88	84.745
1215.54	5.835
1219.2	59.588
1222.86	37.866
1226.51	44.692
1230.17	16.801
1233.82	108.309
1237.47	190.402
1241.12	26.055
1244.77	127.051
1248.42	222.145
1252.06	159.812
1255.71	146.495
1259.35	184.21
1262.99	121.612
1266.63	137.302
1270.26	191.718
1273.9	303.738
1277.53	283.336
1281.16	277.865
1284.8	349.129
1288.42	263.907
1292.05	305.262
1295.68	368.336
1299.3	356.303
1302.92	334.452
1306.55	318.843
1310.16	482.009
1313.78	448.687
1317.4	448.018
1321.01	424.582
1324.62	405.618
1328.24	369.73
1331.85	332.687
1335.45	335.666
1339.06	271.312
1342.66	401.157
1346.27	390.91
1349.87	379.613
1353.47	330.222
1357.07	326.771
1360.66	197.875
1364.26	230.369
1367.85	218.046
1371.44	188.16
1375.04	200.921
1378.62	253.615
1382.21	283.159
1385.8	238.868
1389.38	199.292
1392.96	230.346
1396.54	216.962
1400.12	225.277
1403.7	310.244
1407.28	244.671
1410.85	211.33
1414.42	228.716
1417.99	131.436
1421.56	225.492
1425.13	192.851
1428.7	283.816
1432.26	247.748
1435.83	326.725
1439.39	356.929
1442.95	445.212
1446.51	532.653
1450.06	518.404
1453.62	547.75
1457.17	569.251
1460.73	600.773
1464.28	383.322
1467.83	281.822
1471.37	305.399
1474.92	391.243
1478.46	212.611
1482.01	219.679
1485.55	287.523
1489.09	216.041
1492.63	113.175
1496.16	188.094
1499.7	47.108
1503.23	57.564
1506.76	50.75
1510.29	51.166
1513.82	70.75
1517.35	46.79
1520.88	2.759
1524.4	0
