Measurement: Raman, 514 nm, ccw, Raman Data Processed
Mineral: Atacamite
Rruff sample: R050098
Ideal chemistry: Cu_2_Cl(OH)_3_
Locality: La Farola mine, Tierra Amarilla, Atacama, Chile
Source: Rock Currier
Description: Green prismatic single crystals
Measured chemistry: Cu_2.00_Cl_1.00_(OH)_3_
Pin_id: M00116
Orientation: Laser parallel to -a* (-1 0 0). Fiducial mark perpendicular to laser is parallel to b [0 1 0]
Raman shift (cm-1)	intensity
75.937	0
80.125	45.799
84.311	335.422
88.496	1927.49
92.678	3727.58
96.858	4925.72
101.036	5668.34
105.212	6893.8
109.387	10388.8
113.559	23831.2
117.729	34915.4
121.897	34723.3
126.063	22634.1
130.228	15801.7
134.39	17078.5
138.55	17629.7
142.709	19615.8
146.865	21245.9
151.019	18539.4
155.171	9887.72
159.322	4499.24
163.47	3036.62
167.617	2653.31
171.761	2164.51
175.904	2063.7
180.044	1796.37
184.183	1694.23
188.319	1751.31
192.454	1795.21
196.586	2163.34
200.717	2076.93
204.846	2400.02
208.972	2693.81
213.097	2956.27
217.22	3149.42
221.341	2852.17
225.46	2297.33
229.577	2046.74
233.692	1978.32
237.805	2093.97
241.916	2331.86
246.025	2591.71
250.132	3145.27
254.237	3905.28
258.34	4875.38
262.442	5682.63
266.541	5947.63
270.639	5240.37
274.734	3777.86
278.828	2441.36
282.919	1383.07
287.009	824.045
291.097	406.881
295.183	122.371
299.266	0.624
303.348	89.354
307.428	145.181
311.507	170.35
315.583	267.066
319.657	253.461
323.729	193.616
327.8	274.563
331.868	152.23
335.935	8.403
339.999	356.441
344.062	770.883
348.123	1455.68
352.182	2433.91
356.239	3672.27
360.294	4619.23
364.347	4319.52
368.398	2894.2
372.448	1862.68
376.495	1920.33
380.54	1864.01
384.584	2271.65
388.626	2899.18
392.666	3371.59
396.704	3129.82
400.74	2310.85
404.774	1413.77
408.806	771.353
412.836	401.452
416.865	111.777
420.891	95.247
424.916	265.43
428.939	164.447
432.959	234.424
436.978	5.521
440.996	355.079
445.011	921.983
449.024	1554.5
453.036	1605.68
457.045	1165.13
461.053	909.094
465.059	791.301
469.063	932.125
473.065	1070.4
477.065	1175.25
481.063	1779.74
485.06	2477.81
489.054	3424.02
493.047	5191.51
497.038	7977.03
501.027	11197.9
505.014	15081.5
508.999	19157.5
512.982	21779.3
516.964	19552.4
520.944	14153.7
524.921	9152.84
528.897	5967.21
532.871	4185.45
536.844	3088.05
540.814	2270.21
544.783	1771.78
548.749	1423.4
552.714	1228.98
556.677	1090.38
560.638	1122.97
564.597	1134.73
568.555	1142.64
572.511	1413.7
576.464	1620.77
580.416	1964.2
584.366	2213.36
588.315	2110.61
592.261	1680.78
596.206	1066.28
600.148	641.562
604.089	431.241
608.028	309.209
611.965	174.447
615.901	63.862
619.834	87.312
623.766	42.838
627.696	113.545
631.624	39.559
635.551	87.008
639.475	66.921
643.398	132.342
647.318	23.289
651.237	87.646
655.155	62.306
659.07	72.941
662.984	9.228
666.895	51.572
670.805	91.136
674.713	92.917
678.62	42.908
682.524	78.921
686.427	15.066
690.328	79.796
694.227	42.47
698.124	57.114
702.02	145.198
705.913	112.777
709.805	195.265
713.695	148.509
717.584	150.707
721.47	254.481
725.355	231.845
729.238	267.817
733.119	211.482
736.998	203.131
740.876	225.137
744.752	185.688
748.626	182.855
752.498	174.539
756.368	294.355
760.237	371.956
764.104	379.297
767.969	412.984
771.832	491.578
775.693	549.686
779.553	577.739
783.411	622.347
787.267	656.142
791.122	725.467
794.974	831.31
798.825	950.113
802.674	1211.54
806.522	1525.88
810.367	2164.19
814.211	2983.45
818.053	4406.68
821.893	6505.05
825.732	8768.25
829.568	7943.76
833.403	5683.65
837.236	4290.69
841.068	4404.69
844.898	4727.92
848.726	3483.38
852.552	2112.99
856.376	1247.98
860.199	907.554
864.02	750.713
867.839	654.252
871.656	683.009
875.472	765.984
879.286	852.188
883.098	1125.63
886.909	1545.31
890.717	2265.26
894.524	3311.46
898.33	5410.91
902.133	9786.6
905.935	18552.6
909.735	28388.8
913.533	30657.3
917.33	20421.1
921.124	9920.41
924.918	5380.46
928.709	3369.92
932.499	2385.06
936.286	1802.3
940.073	1483.05
943.857	1270.28
947.64	997.253
951.421	973.445
955.2	960.69
958.978	974.593
962.753	1040.43
966.527	1189.12
970.3	1388.13
974.071	1700.68
977.84	1863.79
981.607	2376.51
985.372	3351.78
989.136	3862.53
992.898	2861.75
996.659	2329.41
1000.42	2219.43
1004.17	2099.74
1007.93	2103.31
1011.68	1925.15
1015.43	1836.22
1019.18	1555.51
1022.93	1403.02
1026.68	1300.75
1030.42	1133.71
1034.17	948.889
1037.91	864.276
1041.65	726.165
1045.39	558.202
1049.12	395.156
1052.86	326.747
1056.59	212.771
1060.33	100.67
1064.06	94.931
1067.78	5.314
1071.51	78.883
1075.23	47.889
1078.96	70.726
1082.68	70.025
1086.4	63.315
1090.12	46.612
1093.83	19.34
1097.55	15.254
1101.26	10.77
1104.97	12.491
1108.68	18.499
1112.39	0.934
1116.1	13.83
1119.8	94.434
1123.5	309.321
1127.2	96.98
1130.9	75.188
1134.6	58.746
1138.3	33.805
1141.99	66.672
1145.69	102.953
1149.38	78.824
1153.07	111.141
1156.76	120.624
1160.44	133.028
1164.13	153.264
1167.81	74.044
1171.49	76.874
1175.17	54.419
1178.85	55.866
1182.52	74.32
1186.2	96.989
1189.87	43.684
1193.54	95.32
1197.21	88.847
1200.88	22.116
1204.55	39.02
1208.21	3.743
1211.88	61.91
1215.54	52.926
1219.2	9.7
1222.86	43.709
1226.51	13.959
1230.17	8.637
1233.82	18.45
1237.47	16.754
1241.12	43.852
1244.77	5.205
1248.42	22.994
1252.06	66.75
1255.71	31.828
1259.35	22.988
1262.99	66.014
1266.63	94.172
1270.26	99.253
1273.9	24.458
1277.53	98.365
1281.16	91.986
1284.8	77.281
1288.42	82.233
1292.05	94.881
1295.68	103.244
1299.3	73.321
1302.92	48.104
1306.55	85.594
1310.16	244.041
1313.78	100.766
1317.4	41.494
1321.01	74.021
1324.62	17.188
1328.24	84.184
1331.85	86.749
1335.45	140.567
1339.06	128.542
1342.66	164.35
1346.27	126.096
1349.87	120.292
1353.47	147.078
1357.07	185.666
1360.66	98.291
1364.26	84.717
1367.85	150.048
1371.44	121.091
1375.04	83.997
1378.62	145.822
1382.21	121.692
1385.8	112.659
1389.38	114.76
1392.96	119.218
1396.54	87.361
1400.12	153.451
1403.7	153.099
1407.28	147.162
1410.85	162.01
1414.42	182.789
1417.99	134.773
1421.56	163.218
1425.13	113.665
1428.7	84.553
1432.26	90.141
1435.83	99.292
1439.39	69.924
1442.95	64.878
1446.51	82.863
1450.06	31.807
1453.62	61.969
1457.17	43.399
1460.73	30.209
1464.28	24.091
1467.83	8.723
1471.37	39.165
1474.92	27.483
1478.46	17.939
1482.01	27.807
1485.55	79.834
1489.09	26.089
1492.63	42.472
1496.16	65.242
1499.7	27.962
1503.23	40.963
1506.76	60.325
1510.29	51.073
1513.82	75.607
1517.35	16.315
1520.88	21.847
1524.4	33.292
