Measurement: Raman, 514 nm, ccw, Raman Data Processed
Mineral: Atacamite
Rruff sample: R050098
Ideal chemistry: Cu_2_Cl(OH)_3_
Locality: La Farola mine, Tierra Amarilla, Atacama, Chile
Source: Rock Currier
Description: Green prismatic single crystals
Measured chemistry: Cu_2.00_Cl_1.00_(OH)_3_
Pin_id: M00436
Orientation: Laser parallel to c* (0 0 1). Fiducial mark perpendicular to laser is parallel to a [1 0 0]
Raman shift (cm-1)	intensity
54.966	0
59.164	488.504
63.36	621.602
67.554	368.962
71.747	8.8
75.937	19.347
80.125	89.656
84.311	930.8
88.496	2018.04
92.678	3452.55
96.858	4536.79
101.036	5650.44
105.212	7363.96
109.387	11683.3
113.559	22665.1
117.729	30249.1
121.897	31431
126.063	18785.7
130.228	10923.3
134.39	8795.64
138.55	8921.9
142.709	11608.7
146.865	13775.1
151.019	14302
155.171	10670.9
159.322	7567.53
163.47	6495.95
167.617	5311.3
171.761	4327.48
175.904	4182.4
180.044	3888.25
184.183	4077.28
188.319	3993.69
192.454	4179.68
196.586	4579.63
200.717	5325.74
204.846	6464.02
208.972	8136.49
213.097	9301.19
217.22	9608.14
221.341	8054.16
225.46	5357.83
229.577	3668.77
233.692	2613.49
237.805	2010.52
241.916	1779.84
246.025	1529.6
250.132	1349.45
254.237	1162.04
258.34	991.498
262.442	790.947
266.541	604.293
270.639	508.289
274.734	414.385
278.828	348.021
282.919	161.314
287.009	32.816
291.097	41.463
295.183	141.671
299.266	104.519
303.348	76.066
307.428	119.328
311.507	144.33
315.583	203.071
319.657	159.574
323.729	7.195
327.8	50.315
331.868	326.884
335.935	757.045
339.999	1743.91
344.062	3599.33
348.123	5700.29
352.182	7478.91
356.239	7426.33
360.294	5924.6
364.347	4291.59
368.398	3037.43
372.448	2188.94
376.495	1887.01
380.54	2045.5
384.584	2083.22
388.626	2143.13
392.666	2399.34
396.704	2883.95
400.74	4264.06
404.774	7362.74
408.806	11050.9
412.836	12965.3
416.865	10431.9
420.891	6259.63
424.916	3512.55
428.939	2295.57
432.959	1601.69
436.978	1436.87
440.996	2115.08
445.011	3333.3
449.024	4557.91
453.036	4167.44
457.045	3385.65
461.053	2543.94
465.059	1967.17
469.063	1671.78
473.065	1489.86
477.065	1464.9
481.063	1934.72
485.06	2466.01
489.054	3331.58
493.047	4803.31
497.038	7058.9
501.027	10590.7
505.014	15580.7
508.999	21307.2
512.982	24000.7
516.964	21290.1
520.944	15202.3
524.921	9597.39
528.897	6061.01
532.871	4156.39
536.844	2910.95
540.814	2044.99
544.783	1515.97
548.749	1101.87
552.714	1100.33
556.677	913.016
560.638	893.22
564.597	1033.54
568.555	1143.74
572.511	1451.95
576.464	1864.14
580.416	2379.3
584.366	3033.41
588.315	3847.42
592.261	5037.34
596.206	6255.12
600.148	7096.76
604.089	6074.22
608.028	4308.5
611.965	2647.59
615.901	1553.5
619.834	949.256
623.766	604.86
627.696	423.788
631.624	266.548
635.551	225.637
639.475	221.537
643.398	329.178
647.318	60.415
651.237	24.001
655.155	94.461
659.07	192.302
662.984	154.631
666.895	216.625
670.805	193.627
674.713	73.526
678.62	157.879
682.524	139.861
686.427	60.541
690.328	67.584
694.227	57.096
698.124	75.843
702.02	247.829
705.913	130.17
709.805	241.852
713.695	328.945
717.584	283.48
721.47	393.467
725.355	358.913
729.238	455.82
733.119	511.186
736.998	362.012
740.876	496.298
744.752	512.227
748.626	495.255
752.498	422.93
756.368	468.074
760.237	573.688
764.104	545.788
767.969	594.383
771.832	704.483
775.693	674.085
779.553	700.215
783.411	727.872
787.267	695.101
791.122	858.927
794.974	925.918
798.825	945.812
802.674	1236.1
806.522	1398.48
810.367	1541.89
814.211	1905.62
818.053	2219.07
821.893	2574.95
825.732	3133.51
829.568	3638.55
833.403	5153.14
837.236	7878.63
841.068	12891.7
844.898	15593.8
848.726	11953.4
852.552	7054.23
856.376	4226.6
860.199	2928.73
864.02	2429.1
867.839	2035.48
871.656	1968.75
875.472	2026.23
879.286	2329.67
883.098	2859.07
886.909	3821.44
890.717	5679.8
894.524	9129.15
898.33	14462.5
902.133	22325.9
905.935	34381.4
909.735	35644
913.533	22103.9
917.33	12373.3
921.124	7411.1
924.918	5075.96
928.709	3913.29
932.499	3227.01
936.286	2798.04
940.073	2733.23
943.857	2803.35
947.64	3175.81
951.421	3876.94
955.2	4349.99
958.978	3764.09
962.753	2717.67
966.527	2136.77
970.3	1838.61
974.071	1755.47
977.84	1498.16
981.607	1234.67
985.372	1195.37
989.136	920.269
992.898	919.914
996.659	870.564
1000.42	919.138
1004.17	713.017
1007.93	784.156
1011.68	644.498
1015.43	638.06
1019.18	506.819
1022.93	389.731
1026.68	371.778
1030.42	361.938
1034.17	252.56
1037.91	199.043
1041.65	261.79
1045.39	184.504
1049.12	126.602
1052.86	131.438
1056.59	63.667
1060.33	8.108
1064.06	28.95
1067.78	6.463
1071.51	12.623
1075.23	2.403
1078.96	55.08
1082.68	0.869
1086.4	96.326
1090.12	22.122
1093.83	18.56
1097.55	12.315
1101.26	36.132
1104.97	8.706
1108.68	35.8
1112.39	46.021
1116.1	57.589
1119.8	28.082
1123.5	357.081
1127.2	15.473
1130.9	30.403
1134.6	19.793
1138.3	39.277
1141.99	3.528
1145.69	48.743
1149.38	46.097
1153.07	169.422
1156.76	173.248
1160.44	281.98
1164.13	231.755
1167.81	202.34
1171.49	168.271
1175.17	158.259
1178.85	131.347
1182.52	71.947
1186.2	99.776
1189.87	49.649
1193.54	53.082
1197.21	38.287
1200.88	1.31
1204.55	82.902
1208.21	28.395
1211.88	23.94
1215.54	21.816
1219.2	110.184
1222.86	35.592
1226.51	77.946
1230.17	40.627
1233.82	40.875
1237.47	69.199
1241.12	29.676
1244.77	48.021
1248.42	57.072
1252.06	36.81
1255.71	131.652
1259.35	80.369
1262.99	41.942
1266.63	33.445
1270.26	61.033
1273.9	88.41
1277.53	50.775
1281.16	61.423
1284.8	90.337
1288.42	108.307
1292.05	58.229
1295.68	40.903
1299.3	20.942
1302.92	40.469
1306.55	6.849
1310.16	29.967
1313.78	20.309
1317.4	64.411
1321.01	63.28
1324.62	52.888
1328.24	163.961
1331.85	68.168
1335.45	140.745
1339.06	114.447
1342.66	169.463
1346.27	121.065
1349.87	78.273
1353.47	67.941
1357.07	90.772
1360.66	120.063
1364.26	69.511
1367.85	66.23
1371.44	20.081
1375.04	71.006
1378.62	56.973
1382.21	74.365
1385.8	54.354
1389.38	65.282
1392.96	80.813
1396.54	132.626
1400.12	66.292
1403.7	143.535
1407.28	115.685
1410.85	123.178
1414.42	136.563
1417.99	135.395
1421.56	94.208
1425.13	41.901
1428.7	53.484
1432.26	42.236
1435.83	57.959
1439.39	61.542
1442.95	89.833
1446.51	39.724
1450.06	82.352
1453.62	93.225
1457.17	32.671
1460.73	156.949
1464.28	80.1
1467.83	46.153
1471.37	98.426
1474.92	26.332
1478.46	86.329
1482.01	127.411
1485.55	2.414
1489.09	21.977
1492.63	33.604
1496.16	27.542
1499.7	50.912
1503.23	67.384
1506.76	107.208
1510.29	84.96
1513.82	34.853
1517.35	72.045
1520.88	70.815
1524.4	0
