Measurement: Raman, 514.5, ccw, Raman Data Processed
Mineral: Atelisite-(Y)
Rruff sample: R130043
Ideal chemistry: Y_4_Si_3_O_8_(OH)_8_
Locality: Stetind quarry, Tysfjord, Norway
Source: Thomas Malcherek
Description: Pale brown to colourless, transparent crystals of dipyramidally terminated. Associated with xenotime-( Y), calcioancylite-(Nd) and La-dominant calcioancylite. Data from Malcherek et al (2012)
Measured chemistry: (Y_3.11_Yb_0.46_Er_0.19_Dy_0.11_Gd_0.09_Ho_0.01_Tb_0.02_)_Î£=3.99_Si_2.40_O_16_H_10.43_
Orientation: Laser parallel to -a [-1 0 0]. Fiducial mark perpendicular to laser is parallel to c [0 0 1]
Raman shift (cm-1)	intensity
15	0
25.0063	6.53345
35.0125	11.9258
45.0188	9.77948
55.0251	0.428162
65.0314	10.2901
75.0377	35.9024
85.0439	56.5099
95.0502	48.6836
105.056	22.7873
115.063	12.769
125.069	18.6502
135.075	24.6422
145.082	47.9806
155.088	20.5703
165.094	22.761
175.1	8.4483
185.107	5.26269
195.113	8.4538
205.119	0.269104
215.125	23.247
225.132	68.2227
235.138	98.163
245.144	92.392
255.151	78.978
265.157	117.074
275.163	198.246
285.17	340.317
295.176	493.148
305.182	395.784
315.188	261.24
325.195	199.558
335.201	162.81
345.207	106.839
355.213	75.6744
365.22	58.2465
375.226	23.7601
385.232	10.0754
395.239	2.2948
405.245	22.7385
415.251	56.5162
425.257	43.1808
435.264	48.6827
445.27	42.3536
455.276	15.2325
465.283	4.4397
475.289	2.45435
485.295	3.3894
495.301	6.70947
505.308	7.95984
515.314	11.4897
525.32	20.834
535.326	17.1661
545.333	30.0588
555.339	27.6
565.345	31.3323
575.352	27.371
585.358	34.4081
595.364	35.8616
605.37	30.2052
615.377	26.5584
625.383	13.2819
635.389	7.7431
645.395	0.20105
655.402	2.69562
665.408	6.46863
675.414	5.47235
685.421	19.0148
695.427	21.6824
705.433	20.1136
715.439	32.8453
725.446	43.7645
735.452	47.6167
745.458	44.7117
755.465	33.5073
765.471	19.3249
775.477	3.80487
785.483	8.05225
795.49	9.60425
805.496	4.90253
815.502	38.4604
825.509	106.048
835.515	255.729
845.521	506.355
855.527	1044.34
865.534	2196.25
875.54	4046.97
885.546	4732.45
895.552	3513.34
905.559	2001.04
915.565	1038.94
925.571	555.74
935.577	271.959
945.584	132.58
955.59	17.4395
965.596	25.3141
975.603	1.3822
985.609	10.2707
995.615	38.2084
1005.62	105.725
1015.63	140.892
1025.63	116.656
1035.64	102.616
1045.65	183.731
1055.65	228.135
1065.66	267.015
1075.66	362.672
1085.67	460.674
1095.68	455.892
1105.68	367.91
1115.69	250.198
1125.7	161.195
1135.7	98.0299
1145.71	48.2113
1155.72	21.6837
1165.72	6.45984
1175.73	14.5885
1185.73	8.98926
1195.74	56.2401
1205.75	121.66
1215.75	179.658
1225.76	199.418
1235.77	154.91
1245.77	119.356
1255.78	81.3696
1265.79	37.3469
1275.79	1.36658
1285.8	3.2699
1295.8	2.79114
1305.81	40.4607
1315.82	118.871
1325.82	217.07
1335.83	303.692
1345.84	308.592
1355.84	321.404
1365.85	335.366
1375.85	341.961
1385.86	359.401
1395.87	350.125
1405.87	326.435
1415.88	282.238
1425.88	235.538
1435.89	154.693
1445.9	84.9169
1455.9	36.4911
1465.91	3.87054
1475.92	11.1566
1485.92	5.13794
1495.93	4.42117
1505.93	17.8227
1515.94	35.1112
1525.95	50.3667
1535.95	53.0261
1545.96	43.9163
1555.97	37.1082
1565.97	33.9303
1575.98	30.9965
1585.99	27.7552
1595.99	26.8049
1606	19.4919
1616	22.9408
1626.01	10.2462
1636.02	9.80295
1646.02	11.1115
1656.03	4.78499
1666.04	2.6793
1676.04	2.83398
1686.05	1.31485
1696.06	1.9523
1706.06	0.915543
1716.07	2.21946
1726.07	5.7791
1736.08	8.3676
1746.09	6.54221
1756.09	8.26974
1766.1	5.60339
1776.11	6.18278
1786.11	10.3086
1796.12	2.99557
1806.12	4.64658
1816.13	5.49201
1826.14	0.134239
1836.14	1.95996
1846.15	0.870285
1856.15	4.31831
1866.16	2.13993
1876.17	6.59815
1886.17	4.22221
1896.18	2.76913
1906.19	7.20143
1916.19	6.18887
1926.2	5.22227
1936.2	3.1682
1946.21	1.09611
1956.22	0.410461
1966.22	6.98175
1976.23	3.09416
1986.24	3.70002
1996.24	0.254631
2006.25	0.047066
2016.26	4.07486
2026.26	6.67507
2036.27	3.15846
2046.27	2.27413
2056.28	5.40926
2066.29	2.00727
2076.29	1.03544
2086.3	4.4086
2096.31	7.89376
2106.31	2.99628
2116.32	9.09602
2126.32	9.98004
2136.33	11.9984
2146.34	4.26785
2156.34	3.64551
2166.35	0.502434
2176.36	1.64909
2186.36	1.62888
2196.37	4.86014
2206.38	6.46215
2216.38	9.7254
2226.39	10.4853
2236.39	4.1439
2246.4	3.08591
2256.41	6.99817
2266.41	2.19467
2276.42	4.53396
2286.43	5.67209
2296.43	0.726234
2306.44	1.06503
2316.44	1.04972
2326.45	4.00126
2336.46	1.70805
2346.46	5.6139
2356.47	5.00516
2366.47	2.2935
2376.48	7.61879
2386.49	2.01586
2396.49	1.795
2406.5	3.20832
2416.51	4.46423
2426.51	1.25334
2436.52	0.23399
2446.53	3.3004
2456.53	2.26608
2466.54	3.9039
2476.54	4.31548
2486.55	6.42867
2496.56	3.54737
2506.56	5.51317
2516.57	3.62919
2526.58	2.74925
2536.58	2.7194
2546.59	1.05241
2556.59	0.196543
2566.6	5.32838
2576.61	5.95164
2586.61	1.76119
2596.62	4.25261
2606.63	2.22709
2616.63	0.1842
2626.64	2.45543
2636.64	3.69153
2646.65	6.45996
2656.66	6.20219
2666.66	6.1427
2676.67	4.19671
2686.68	3.58812
2696.68	7.83047
2706.69	4.00092
2716.7	3.24198
2726.7	2.56962
2736.71	3.05961
2746.71	6.28479
2756.72	3.58498
2766.73	7.41948
2776.73	2.07662
2786.74	3.57745
2796.74	1.0684
2806.75	5.31213
2816.76	1.34624
2826.76	3.90635
2836.77	0.553219
2846.78	3.7693
2856.78	5.06913
2866.79	2.1457
2876.8	1.40631
2886.8	3.61758
2896.81	0.598213
2906.81	4.09549
2916.82	0.022465
2926.83	6.34449
2936.83	5.25675
2946.84	7.91482
2956.84	14.6965
2966.85	14.8393
2976.86	8.82279
2986.86	8.23184
2996.87	2.73768
3006.88	4.23711
3016.88	3.3931
3026.89	2.84964
3036.9	0.172024
3046.9	0.649939
3056.91	7.91319
3066.91	5.132
3076.92	5.40366
3086.93	2.0499
3096.93	0.759264
3106.94	6.01186
3116.95	1.17979
3126.95	7.37893
3136.96	1.43778
3146.97	6.01762
3156.97	2.79131
3166.98	1.55405
3176.98	5.11936
3186.99	0.2141
3197	1.95122
3207	6.87371
3217.01	8.01709
3227.01	0.4683
3237.02	4.58365
3247.03	2.98393
3257.03	1.02006
3267.04	6.67807
3277.05	2.77001
3287.05	1.68817
3297.06	2.2944
3307.07	1.18168
3317.07	2.36538
3327.08	3.16565
3337.08	4.11874
3347.09	1.82839
3357.1	4.06708
3367.1	3.64696
3377.11	3.92638
3387.11	4.21841
3397.12	5.96948
3407.13	4.37555
3417.13	0.187965
3427.14	2.36476
3437.15	2.84862
3447.15	5.22999
3457.16	2.05989
3467.17	5.05834
3477.17	6.27986
3487.18	3.75565
3497.18	5.94281
3507.19	5.56182
3517.2	4.82451
3527.2	1.22921
3537.21	3.48493
3547.22	1.46385
3557.22	3.26791
3567.23	1.378
3577.24	2.20982
3587.24	3.70191
3597.25	3.06502
3607.25	3.74055
3617.26	0.65148
3627.27	2.34528
3637.27	2.9842
3647.28	4.10124
3657.28	4.66461
3667.29	2.84349
3677.3	1.24926
3687.3	3.33554
3697.31	3.88538
3707.32	1.31256
3717.32	0.837925
3727.33	0.793372
3737.34	0.989766
3747.34	0.714791
3757.35	0.219729
3767.35	1.71641
3777.36	0.047509
3787.37	0.745631
3797.37	1.6144
3807.38	2.36833
3817.39	4.94374
3827.39	3.99853
3837.4	0.584236
3847.4	2.15258
3857.41	2.51464
3867.42	0.464523
3877.42	5.03814
3887.43	0.396536
3897.44	1.51457
3907.44	2.88236
3917.45	2.76302
3927.45	4.47636
3937.46	10.3889
3947.47	12.8512
3957.47	23.6116
3967.48	21.8523
3977.49	13.215
3987.49	5.39804
3997.5	1.62922
