Measurement: Raman, 514.5, ccw, Raman Data Processed
Mineral: Atelisite-(Y)
Rruff sample: R130043
Ideal chemistry: Y_4_Si_3_O_8_(OH)_8_
Locality: Stetind quarry, Tysfjord, Norway
Source: Thomas Malcherek
Description: Pale brown to colourless, transparent crystals of dipyramidally terminated. Associated with xenotime-( Y), calcioancylite-(Nd) and La-dominant calcioancylite. Data from Malcherek et al (2012)
Measured chemistry: (Y_3.11_Yb_0.46_Er_0.19_Dy_0.11_Gd_0.09_Ho_0.01_Tb_0.02_)_Î£=3.99_Si_2.40_O_16_H_10.43_
Orientation: Laser parallel to -a [-1 0 0]. Fiducial mark perpendicular to laser is parallel to c [0 0 1]
Raman shift (cm-1)	intensity
15	0
25.0063	9.66644
35.0125	19.5585
45.0188	16.3597
55.0251	2.71283
65.0314	5.67584
75.0377	16.315
85.0439	38.9407
95.0502	36.3198
105.056	13.7457
115.063	18.5225
125.069	26.4855
135.075	41.9957
145.082	99.6105
155.088	94.7544
165.094	167.812
175.1	134.542
185.107	85.2062
195.113	75.5384
205.119	31.436
215.125	7.90393
225.132	1.95148
235.138	6.09186
245.144	15.4377
255.151	28.5367
265.157	45.2126
275.163	126.106
285.17	268.904
295.176	377.819
305.182	275.362
315.188	142.94
325.195	73.2339
335.201	39.1679
345.207	40.6249
355.213	109.123
365.22	392.728
375.226	246.777
385.232	38.3112
395.239	7.33911
405.245	149.751
415.251	454.551
425.257	233.641
435.264	99.2626
445.27	46.9882
455.276	13.1234
465.283	1.92175
475.289	3.91669
485.295	7.39685
495.301	17.8621
505.308	15.4918
515.314	26.1627
525.32	18.1545
535.326	11.7189
545.333	23.8757
555.339	56.5152
565.345	97.4237
575.352	76.716
585.358	63.7037
595.364	52.9426
605.37	66.5499
615.377	50.5752
625.383	18.2772
635.389	9.82776
645.395	1.55731
655.402	3.22876
665.408	5.84064
675.414	0.578552
685.421	10.2195
695.427	9.41357
705.433	13.0903
715.439	12.184
725.446	19.8098
735.452	70.0126
745.458	108.55
755.465	106.375
765.471	63.2117
775.477	20.5918
785.483	8.68054
795.49	17.1811
805.496	8.12378
815.502	25.6157
825.509	131.09
835.515	322.026
845.521	612.131
855.527	1214.58
865.534	2521.7
875.54	4668.74
885.546	5385.59
895.552	4014.1
905.559	2304.72
915.565	1198.35
925.571	642.647
935.577	305.365
945.584	175.989
955.59	9.47241
965.596	33.7125
975.603	7.57922
985.609	15.8469
995.615	25.5463
1005.62	66.5809
1015.63	105.423
1025.63	65.6269
1035.64	40.6182
1045.65	146.565
1055.65	192.374
1065.66	250.487
1075.66	381.445
1085.67	489.687
1095.68	460.902
1105.68	392.532
1115.69	258.516
1125.7	166.763
1135.7	97.001
1145.71	52.5723
1155.72	23.8877
1165.72	15.0089
1175.73	6.66357
1185.73	22.2688
1195.74	80.592
1205.75	152.93
1215.75	205.892
1225.76	223.855
1235.77	190.649
1245.77	132.888
1255.78	96.0627
1265.79	59.8337
1275.79	16.0236
1285.8	1.80579
1295.8	0.473633
1305.81	22.7932
1315.82	114.673
1325.82	227.146
1335.83	313.144
1345.84	331.239
1355.84	348.036
1365.85	359.946
1375.85	369.198
1385.86	369.579
1395.87	379.815
1405.87	341.253
1415.88	293.28
1425.88	258.938
1435.89	182.081
1445.9	94.9908
1455.9	28.6892
1465.91	0.668884
1475.92	14.4075
1485.92	10.8139
1495.93	13.1142
1505.93	25.8548
1515.94	35.9017
1525.95	55.0616
1535.95	60.565
1545.96	47.6192
1555.97	47.2266
1565.97	37.2249
1575.98	38.6239
1585.99	32.2423
1595.99	23.0396
1606	8.72372
1616	19.7855
1626.01	9.78097
1636.02	14.9578
1646.02	4.8746
1656.03	0.690765
1666.04	8.51145
1676.04	3.35473
1686.05	2.70084
1696.06	1.66997
1706.06	5.27105
1716.07	1.15679
1726.07	9.93203
1736.08	13.109
1746.09	11.9079
1756.09	0.848698
1766.1	5.58648
1776.11	1.65752
1786.11	8.37326
1796.12	6.67286
1806.12	2.77757
1816.13	7.02128
1826.14	5.35919
1836.14	2.23076
1846.15	1.00745
1856.15	7.32296
1866.16	3.56769
1876.17	4.44844
1886.17	10.8294
1896.18	8.62489
1906.19	8.09481
1916.19	3.43278
1926.2	13.3702
1936.2	6.11231
1946.21	9.41349
1956.22	5.61437
1966.22	10.0725
1976.23	8.36002
1986.24	4.50167
1996.24	3.22796
2006.25	2.02553
2016.26	10.4175
2026.26	8.63793
2036.27	0.776475
2046.27	6.76163
2056.28	1.20448
2066.29	6.87809
2076.29	5.44266
2086.3	0.72611
2096.31	5.97031
2106.31	3.802
2116.32	7.47709
2126.32	5.68526
2136.33	10.1321
2146.34	6.82612
2156.34	3.60426
2166.35	7.83366
2176.36	1.0727
2186.36	2.95681
2196.37	6.19371
2206.38	7.56503
2216.38	8.68924
2226.39	11.9617
2236.39	14.3979
2246.4	4.99454
2256.41	8.81114
2266.41	8.38614
2276.42	10.439
2286.43	8.38051
2296.43	6.38162
2306.44	3.16561
2316.44	1.00838
2326.45	5.37536
2336.46	1.86088
2346.46	2.68419
2356.47	7.85673
2366.47	5.25967
2376.48	0.319556
2386.49	3.99896
2396.49	5.3413
2406.5	1.97964
2416.51	9.65833
2426.51	6.61372
2436.52	11.517
2446.53	16.5428
2456.53	14.0515
2466.54	11.7008
2476.54	4.62373
2486.55	5.69635
2496.56	9.14851
2506.56	5.67329
2516.57	2.28714
2526.58	0.40624
2536.58	4.05305
2546.59	3.0162
2556.59	6.30137
2566.6	6.42495
2576.61	9.06875
2586.61	8.04881
2596.62	1.32502
2606.63	0.403648
2616.63	0.614937
2626.64	3.79696
2636.64	1.69682
2646.65	10.9076
2656.66	5.92153
2666.66	4.72164
2676.67	7.21301
2686.68	8.93129
2696.68	5.32271
2706.69	4.54822
2716.7	11.8948
2726.7	4.87293
2736.71	10.3258
2746.71	5.50327
2756.72	6.7903
2766.73	4.0845
2776.73	3.17496
2786.74	4.54802
2796.74	2.05354
2806.75	3.80106
2816.76	7.4525
2826.76	1.31156
2836.77	1.099
2846.78	4.43873
2856.78	10.3795
2866.79	4.13299
2876.8	9.36846
2886.8	0.217255
2896.81	3.88128
2906.81	17.5389
2916.82	3.22012
2926.83	5.05213
2936.83	11.4296
2946.84	9.41319
2956.84	13.1107
2966.85	9.62212
2976.86	9.37207
2986.86	8.78128
2996.87	6.7565
3006.88	8.70866
3016.88	7.9031
3026.89	2.34507
3036.9	2.74436
3046.9	2.02471
3056.91	6.09991
3066.91	5.90895
3076.92	1.8925
3086.93	5.77834
3096.93	1.91587
3106.94	6.06798
3116.95	3.33055
3126.95	4.56422
3136.96	10.4583
3146.97	11.0354
3156.97	10.764
3166.98	20.9443
3176.98	16.4635
3186.99	33.7635
3197	34.1942
3207	41.5915
3217.01	40.7543
3227.01	35.3159
3237.02	35.1535
3247.03	30.2939
3257.03	22.5678
3267.04	25.4609
3277.05	13.6381
3287.05	14.2434
3297.06	6.01402
3307.07	2.00882
3317.07	0.14772
3327.08	1.67471
3337.08	1.81461
3347.09	2.42069
3357.1	3.67322
3367.1	4.84193
3377.11	6.56785
3387.11	1.0717
3397.12	2.08551
3407.13	8.45698
3417.13	2.21611
3427.14	2.47665
3437.15	5.53671
3447.15	9.36207
3457.16	12.2977
3467.17	9.66513
3477.17	9.0698
3487.18	6.52623
3497.18	5.89282
3507.19	8.55579
3517.2	4.28507
3527.2	9.43903
3537.21	5.39006
3547.22	9.35596
3557.22	7.01875
3567.23	1.04007
3577.24	1.26805
3587.24	4.08922
3597.25	6.52993
3607.25	1.19566
3617.26	4.4492
3627.27	7.67878
3637.27	0.025656
3647.28	6.83144
3657.28	2.29415
3667.29	2.28148
3677.3	0.314295
3687.3	0.992376
3697.31	2.34639
3707.32	5.82038
3717.32	3.05416
3727.33	1.57552
3737.34	1.79383
3747.34	0.39835
3757.35	1.01454
3767.35	3.51746
3777.36	2.05275
3787.37	0.582375
3797.37	2.73062
3807.38	7.05099
3817.39	5.9081
3827.39	3.20509
3837.4	4.8607
3847.4	5.49596
3857.41	7.76636
3867.42	1.13157
3877.42	5.01558
3887.43	1.30383
3897.44	1.40501
3907.44	0.930929
3917.45	2.89745
3927.45	1.82516
3937.46	9.67876
3947.47	14.9536
3957.47	19.2319
3967.48	24.841
3977.49	14.6104
3987.49	4.0885
3997.5	3.08352
