Measurement: Raman, 514.5, ccw, Raman Data Processed
Mineral: Atelisite-(Y)
Rruff sample: R130043
Ideal chemistry: Y_4_Si_3_O_8_(OH)_8_
Locality: Stetind quarry, Tysfjord, Norway
Source: Thomas Malcherek
Description: Pale brown to colourless, transparent crystals of dipyramidally terminated. Associated with xenotime-( Y), calcioancylite-(Nd) and La-dominant calcioancylite. Data from Malcherek et al (2012)
Measured chemistry: (Y_3.11_Yb_0.46_Er_0.19_Dy_0.11_Gd_0.09_Ho_0.01_Tb_0.02_)_Î£=3.99_Si_2.40_O_16_H_10.43_
Orientation: Laser parallel to -a [-1 0 0]. Fiducial mark perpendicular to laser is parallel to c [0 0 1]
Raman shift (cm-1)	intensity
15	0
25.0063	4.97295
35.0125	12.4499
45.0188	5.92201
55.0251	3.3447
65.0314	16.5465
75.0377	52.8044
85.0439	86.9455
95.0502	69.4395
105.056	41.359
115.063	30.562
125.069	12.8127
135.075	15.6753
145.082	44.3964
155.088	5.17581
165.094	13.0337
175.1	6.17542
185.107	8.43054
195.113	11.6217
205.119	4.1781
215.125	25.0269
225.132	57.133
235.138	64.7892
245.144	77.0756
255.151	108.161
265.157	184.471
275.163	312.953
285.17	531.493
295.176	697.625
305.182	533.467
315.188	334.312
325.195	237.158
335.201	162.408
345.207	108.909
355.213	75.9663
365.22	63.2175
375.226	17.0434
385.232	13.3117
395.239	10.939
405.245	33.6007
415.251	79.1375
425.257	71.5207
435.264	61.7599
445.27	44.1174
455.276	17.2874
465.283	4.77594
475.289	0.587402
485.295	2.18335
495.301	9.48627
505.308	18.2158
515.314	28.7565
525.32	45.9707
535.326	56.8835
545.333	59.2848
555.339	62.7937
565.345	75.6358
575.352	67.2531
585.358	63.4538
595.364	66.22
605.37	53.9904
615.377	39.3108
625.383	12.1063
635.389	5.15468
645.395	3.11516
655.402	2.92245
665.408	14.6887
675.414	7.61848
685.421	24.5297
695.427	27.9361
705.433	28.0447
715.439	38.0669
725.446	56.8952
735.452	76.4358
745.458	70.5707
755.465	59.3
765.471	30.5284
775.477	0.979309
785.483	13.5439
795.49	23.6182
805.496	9.43683
815.502	47.615
825.509	131.281
835.515	336.748
845.521	678.857
855.527	1381.67
865.534	2839.57
875.54	5236.61
885.546	6394.33
895.552	5057.64
905.559	3003.9
915.565	1614.35
925.571	885.632
935.577	436.756
945.584	238.046
955.59	13.6423
965.596	25.6829
975.603	22.6216
985.609	0.707397
995.615	53.8285
1005.62	131.135
1015.63	204.362
1025.63	210.373
1035.64	190.383
1045.65	267.637
1055.65	329.423
1065.66	389.755
1075.66	531.343
1085.67	659.895
1095.68	638.948
1105.68	521.852
1115.69	361.467
1125.7	237.26
1135.7	136.006
1145.71	74.4442
1155.72	15.4373
1165.72	0.249634
1175.73	21.4139
1185.73	16.3923
1195.74	60.4232
1205.75	126.992
1215.75	184.937
1225.76	235.946
1235.77	173.043
1245.77	112.839
1255.78	79.1014
1265.79	54.9675
1275.79	8.60767
1285.8	14.8713
1295.8	8.07373
1305.81	37.4287
1315.82	139.08
1325.82	252.968
1335.83	337.824
1345.84	347.382
1355.84	374.943
1365.85	398.902
1375.85	417.848
1385.86	446.893
1395.87	433.595
1405.87	401.207
1415.88	366.884
1425.88	281.638
1435.89	211.602
1445.9	116.329
1455.9	53.677
1465.91	0.5271
1475.92	8.43634
1485.92	9.09613
1495.93	8.763
1505.93	22.4477
1515.94	39.4876
1525.95	56.7289
1535.95	65.4842
1545.96	58.4187
1555.97	55.442
1565.97	50.7035
1575.98	43.3336
1585.99	36.0865
1595.99	37.6507
1606	27.7658
1616	23.0852
1626.01	16.3353
1636.02	9.05363
1646.02	18.8974
1656.03	6.42912
1666.04	10.263
1676.04	9.00864
1686.05	2.18192
1696.06	1.09541
1706.06	2.04977
1716.07	2.40647
1726.07	3.97915
1736.08	5.52271
1746.09	13.84
1756.09	9.38297
1766.1	19.0716
1776.11	12.385
1786.11	17.329
1796.12	1.86118
1806.12	8.75396
1816.13	6.92556
1826.14	4.3681
1836.14	5.81618
1846.15	4.95272
1856.15	0.266769
1866.16	4.13004
1876.17	8.16877
1886.17	10.1233
1896.18	5.54507
1906.19	10.6006
1916.19	11.0767
1926.2	2.25219
1936.2	11.3855
1946.21	7.24441
1956.22	8.8395
1966.22	8.31351
1976.23	9.60309
1986.24	3.06707
1996.24	2.24126
2006.25	6.35931
2016.26	8.25455
2026.26	8.12425
2036.27	4.61463
2046.27	1.45497
2056.28	3.5723
2066.29	0.255249
2076.29	12.6872
2086.3	7.37299
2096.31	8.85947
2106.31	4.85053
2116.32	18.1302
2126.32	14.0395
2136.33	12.4802
2146.34	9.7807
2156.34	8.96264
2166.35	2.61219
2176.36	0.554405
2186.36	0.29446
2196.37	6.26913
2206.38	5.48713
2216.38	10.1389
2226.39	10.5045
2236.39	7.07037
2246.4	6.55799
2256.41	7.61381
2266.41	4.94663
2276.42	5.86525
2286.43	6.57801
2296.43	2.75516
2306.44	5.16647
2316.44	3.75584
2326.45	10.5488
2336.46	10.3718
2346.46	7.70373
2356.47	5.57909
2366.47	8.84273
2376.48	6.98048
2386.49	3.95825
2396.49	4.90189
2406.5	8.71384
2416.51	0.378517
2426.51	7.03238
2436.52	5.48243
2446.53	9.74067
2456.53	4.49031
2466.54	6.27615
2476.54	3.44083
2486.55	0.482746
2496.56	5.8603
2506.56	1.45826
2516.57	5.00761
2526.58	0.937134
2536.58	7.32658
2546.59	0.203869
2556.59	6.58594
2566.6	3.75094
2576.61	8.86594
2586.61	8.32248
2596.62	7.23757
2606.63	3.44286
2616.63	0.390118
2626.64	1.39318
2636.64	4.76636
2646.65	5.76904
2656.66	10.9253
2666.66	7.1366
2676.67	13.5183
2686.68	3.43818
2696.68	8.5734
2706.69	9.4007
2716.7	5.24731
2726.7	5.46858
2736.71	0.959232
2746.71	8.11376
2756.72	5.54164
2766.73	1.2216
2776.73	8.42947
2786.74	2.59986
2796.74	2.29725
2806.75	5.94742
2816.76	8.4809
2826.76	0.894962
2836.77	0.751755
2846.78	12.228
2856.78	15.4008
2866.79	17.2684
2876.8	12.1386
2886.8	10.0511
2896.81	7.97112
2906.81	10.8508
2916.82	9.15186
2926.83	19.6093
2936.83	19.2129
2946.84	3.7803
2956.84	7.17518
2966.85	12.1159
2976.86	2.71604
2986.86	2.95843
2996.87	6.60482
3006.88	3.99534
3016.88	2.91332
3026.89	6.36939
3036.9	0.67156
3046.9	1.21509
3056.91	3.06376
3066.91	5.52478
3076.92	6.40945
3086.93	5.74161
3096.93	2.85124
3106.94	6.49376
3116.95	6.35214
3126.95	0.617432
3136.96	4.44871
3146.97	1.37786
3156.97	1.2532
3166.98	0.323616
3176.98	0.454346
3186.99	6.37571
3197	3.22115
3207	3.61137
3217.01	7.20316
3227.01	8.80007
3237.02	8.00033
3247.03	10.9836
3257.03	3.3464
3267.04	0.164795
3277.05	4.05325
3287.05	1.10315
3297.06	5.59659
3307.07	1.74822
3317.07	4.26203
3327.08	0.251049
3337.08	2.70552
3347.09	0.322128
3357.1	1.99956
3367.1	1.49669
3377.11	4.33973
3387.11	0.958708
3397.12	7.50638
3407.13	2.73761
3417.13	0.328328
3427.14	1.50996
3437.15	4.8312
3447.15	1.75359
3457.16	10.2157
3467.17	8.35451
3477.17	6.97117
3487.18	8.08018
3497.18	9.04728
3507.19	7.10574
3517.2	5.83147
3527.2	3.20051
3537.21	2.64374
3547.22	4.34225
3557.22	1.08991
3567.23	3.54773
3577.24	1.93529
3587.24	3.07968
3597.25	1.42825
3607.25	6.26945
3617.26	6.72288
3627.27	6.20604
3637.27	6.59214
3647.28	7.50479
3657.28	2.42348
3667.29	5.94414
3677.3	3.06497
3687.3	7.40841
3697.31	3.29165
3707.32	2.90143
3717.32	3.25596
3727.33	0.609721
3737.34	1.22135
3747.34	0.178138
3757.35	1.0657
3767.35	1.56942
3777.36	1.40572
3787.37	4.69196
3797.37	2.14163
3807.38	0.016148
3817.39	5.49208
3827.39	4.78266
3837.4	9.29858
3847.4	4.62092
3857.41	5.79491
3867.42	5.08829
3877.42	4.02515
3887.43	3.11081
3897.44	6.96692
3907.44	1.48613
3917.45	5.44857
3927.45	1.08821
3937.46	9.75178
3947.47	17.462
3957.47	25.9219
3967.48	27.9424
3977.49	9.19527
3987.49	2.97119
3997.5	0.142815
