Measurement: Raman, 514 nm, ccw, Raman Data Processed
Mineral: Augelite
Rruff sample: R050060
Ideal chemistry: Al_2_PO_4_(OH)_3_
Locality: Machacamarca, Potosi Department, Bolivia
Source: Rock Currier
Description: Colorless prismatic crystals
Measured chemistry: Al_2.00_(P_1.00_O_4_)(OH)_3_; OH estimated by difference
Pin_id: L01787
Orientation: Laser parallel to (1 0 1). Fiducial mark perpendicular to laser is parallel to -b [0 -1 0]
Raman shift (cm-1)	intensity
136.33	0
141.289	5.24683
146.244	448.793
151.196	1364.17
156.145	2991.71
161.091	4253.72
166.034	3907.91
170.973	2117.25
175.91	874.633
180.843	341.992
185.774	185.863
190.701	163.747
195.625	64.8752
200.546	58.0554
205.463	64.1882
210.378	280.605
215.29	717.643
220.198	1347.83
225.104	1391.55
230.006	788.357
234.905	491.239
239.801	668.382
244.694	1335.58
249.584	2528.42
254.471	2203.88
259.355	951.974
264.236	107.76
269.114	5.29492
273.988	35.3784
278.86	106.863
283.729	84.3608
288.594	91.9873
293.457	43.5415
298.316	77.5776
303.173	67.8696
308.026	147.27
312.876	259.821
317.724	698.396
322.568	1062.61
327.409	1310.25
332.248	1411.71
337.083	1156.46
341.915	994.126
346.745	967.27
351.571	1052.75
356.394	1389.31
361.215	2346.51
366.032	3963.82
370.846	3586.96
375.658	1395.17
380.466	656.464
385.272	337.841
390.074	331.302
394.874	340.855
399.67	693.512
404.464	1230.29
409.255	1682.19
414.043	1690.03
418.827	1601.42
423.609	1412.26
428.388	962.652
433.164	702.538
437.937	755.644
442.707	824.686
447.475	998.715
452.239	984.119
457	833.123
461.759	755.739
466.514	526.441
471.267	385.255
476.017	222.198
480.764	154.331
485.508	163.73
490.249	99.3772
494.987	86.6899
499.722	217.835
504.455	422.75
509.184	759.024
513.911	1303.62
518.635	1958.53
523.356	2482.76
528.074	2598.3
532.789	2073.12
537.501	1579.23
542.211	1264.62
546.918	1071.73
551.621	1093.9
556.323	1093.7
561.021	1163.83
565.716	1100.14
570.409	874.948
575.098	555.58
579.785	377.904
584.469	179.887
589.15	130.325
593.829	78.3645
598.504	233.602
603.177	397.084
607.847	568.703
612.514	949.45
617.179	1550.43
621.84	2860.06
626.499	5702.94
631.155	10585.8
635.809	14250.2
640.459	9582.47
645.107	4313.97
649.752	1920.04
654.394	1134.43
659.033	725.486
663.67	387.929
668.304	231.943
672.935	91.7344
677.563	91.804
682.189	20.9121
686.812	43.4895
691.432	8.14477
696.049	31.4297
700.664	46.0996
705.276	49.9414
709.885	55.3149
714.492	41.2078
719.096	9.44409
723.697	5.01685
728.295	70.2197
732.891	71.1448
737.484	35.8855
742.074	202.433
746.661	83.7817
751.246	62.9263
755.828	37.8467
760.408	25.4155
764.984	15.5903
769.559	12.3682
774.13	14.4006
778.699	49.7312
783.265	68.3235
787.828	31.2134
792.389	126.627
796.947	4.77417
801.502	57.6167
806.055	146.952
810.605	92.4028
815.152	302.64
819.697	231.645
824.239	313.577
828.779	499.594
833.315	594.915
837.85	741.176
842.381	992.689
846.91	1288.25
851.436	1706.76
855.96	2065.84
860.481	2102.06
865	1933.17
869.515	1591.55
874.029	1165.7
878.539	930.75
883.047	830.609
887.553	885.344
892.055	1065.74
896.556	965.947
901.053	775.504
905.548	510.934
910.041	363.372
914.53	256.289
919.018	172.357
923.502	74.2161
927.985	140.958
932.464	37.4353
936.941	41.2512
941.416	73.7742
945.887	8.66504
950.357	0.183838
954.824	37.2363
959.288	65.7749
963.749	38.6382
968.208	86.1069
972.665	51.3945
977.119	32.1445
981.571	94.1728
986.02	129.457
990.466	171.947
994.91	158.556
999.351	401.307
1003.79	578.185
1008.23	906.131
1012.66	1176.15
1017.09	1119.25
1021.52	899.427
1025.95	699.707
1030.37	587.643
1034.79	500.843
1039.21	527.706
1043.63	464.85
1048.04	572.254
1052.45	689.928
1056.86	800.585
1061.27	936.547
1065.67	667.639
1070.07	638.865
1074.47	734.507
1078.87	762.647
1083.26	1095.9
1087.65	1337.62
1092.04	2007.99
1096.43	3129.93
1100.81	5153.78
1105.19	7288.7
1109.57	8157.13
1113.95	5988.43
1118.33	3616.41
1122.7	2467.14
1127.07	1697.96
1131.43	1352.13
1135.8	1143.15
1140.16	900.232
1144.52	805.4
1148.88	772.818
1153.23	875.043
1157.59	996.538
1161.94	1007.94
1166.28	874.547
1170.63	490.197
1174.97	333.904
1179.31	181.66
1183.65	159.462
1187.99	101.306
1192.32	72.1934
1196.65	38.186
1200.98	57.4556
1205.3	2.0874
1209.63	12.4697
1213.95	5.74316
1218.27	32.2139
1222.59	1.68311
1226.9	74.6665
1231.21	1.38574
1235.52	9.48584
1239.83	19.2808
1244.13	15.0185
1248.43	28.3696
1252.73	38.126
1257.03	48.6113
1261.33	65.0298
1265.62	27.4487
1269.91	63.1753
1274.2	52.3608
1278.49	32.6309
1282.77	14.5864
1287.05	35.0181
1291.33	24.2334
1295.61	133.276
1299.88	64.2622
1304.15	69.1894
1308.42	131.16
1312.69	122.958
1316.96	65.7026
1321.22	64.686
1325.48	54.2622
1329.74	31.7476
1333.99	93.124
1338.25	23.439
1342.5	150.189
1346.75	125.547
1350.99	24.5371
1355.24	41.2954
1359.48	116.353
1363.72	130.119
1367.96	71.9932
1372.19	99.0288
1376.43	120.645
1380.66	108.417
1384.88	106.722
1389.11	47.1377
1393.34	4.02881
1397.56	36.9126
1401.78	78.228
1405.99	228.11
1410.21	13.1465
1414.42	90.1992
1418.63	124.078
1422.84	146.623
1427.05	107.942
1431.25	76.022
1435.45	98.0767
1439.65	113.149
1443.85	131.613
1448.04	97.8716
1452.23	153.165
1456.42	123.064
1460.61	208.033
1464.8	168.129
1468.98	124.313
1473.16	15.6401
1477.34	29.9531
1481.52	106.503
1485.69	110.684
1489.87	35.0464
1494.04	119.845
1498.21	11.1665
1502.37	137.685
1506.54	4.03418
1510.7	36.1299
1514.86	155.339
1519.02	1.41602
1523.17	76.7305
1527.32	73.272
1531.47	64.3877
1535.62	12.2866
1539.77	135.068
1543.91	27.3203
1548.06	73.7148
1552.19	133.917
1556.33	29.4243
1560.47	19.1733
