Measurement: Raman, 514 nm, ccw, Raman Data Processed
Mineral: Augelite
Rruff sample: R050060
Ideal chemistry: Al_2_PO_4_(OH)_3_
Locality: Machacamarca, Potosi Department, Bolivia
Source: Rock Currier
Description: Colorless prismatic crystals
Measured chemistry: Al_2.00_(P_1.00_O_4_)(OH)_3_; OH estimated by difference
Pin_id: L01787
Orientation: Laser parallel to (1 0 1). Fiducial mark perpendicular to laser is parallel to -b [0 -1 0]
Raman shift (cm-1)	intensity
142.528	0
147.482	644.178
152.434	3305.11
157.382	8323.93
162.327	13496.2
167.269	11724.8
172.208	6138.33
177.144	2536.52
182.076	876.935
187.006	259.316
191.932	31.4917
196.855	58.0554
201.775	67.2939
206.692	371.601
211.606	1799.1
216.517	4552.08
221.425	8253.91
226.329	9779.81
231.231	5040.9
236.129	2127.54
241.025	1730.66
245.917	2366.47
250.806	3843.84
255.692	2272.59
260.576	601.923
265.456	65.1567
270.333	156.798
275.207	179.379
280.077	218.72
284.945	278.667
289.81	153.672
294.672	424.986
299.53	456.201
304.386	32.9355
309.239	21.5774
314.088	314.603
318.935	746.454
323.779	1382.63
328.619	2010.61
333.457	2064.49
338.291	1707.07
343.123	1509.04
347.952	1647.38
352.777	1686.75
357.6	1842.61
362.419	2666.71
367.236	4795.2
372.05	3716.16
376.86	1353.51
381.668	656.1
386.473	381.945
391.274	451.059
396.073	735.468
400.869	1488.19
405.662	3005.33
410.452	4575.83
415.239	5530.78
420.023	6416.16
424.804	5600.64
429.582	3756.93
434.358	2616.6
439.13	2376.27
443.899	2508.09
448.666	2880.39
453.429	3374.6
458.19	3756.04
462.948	4297.02
467.703	4517.39
472.455	3827.05
477.204	2587.06
481.95	1636.54
486.693	1142.91
491.433	849.533
496.171	922.292
500.906	1178.23
505.637	1837.33
510.366	3134.65
515.092	5165.09
519.815	7808.61
524.535	9878.15
529.253	10098.7
533.967	8143.12
538.679	5863.47
543.388	4319.67
548.094	3216.86
552.797	2730.28
557.497	2378.29
562.195	1977.01
566.889	1545.01
571.581	1080.04
576.27	595.535
580.956	241.033
585.64	68.9392
590.32	118.602
594.998	271.393
599.673	541.069
604.345	972.408
609.014	1731.34
613.681	2584.83
618.344	4052.22
623.005	6329.55
627.664	11791.2
632.319	22644.5
636.971	31912.1
641.621	21464.3
646.268	10083.7
650.913	5186.02
655.554	2928.01
660.193	1753.03
664.829	960.716
669.462	624.79
674.092	305.12
678.72	142.736
683.345	1.75928
687.967	70.3481
692.587	159.274
697.203	159.043
701.817	157.027
706.429	39.2585
711.037	99.8123
715.643	282.537
720.246	389.178
724.846	381.867
729.444	376.422
734.039	538.533
738.631	979.171
743.221	1228.31
747.808	680.937
752.392	267.025
756.973	52.5515
761.552	10.6384
766.128	3.98511
770.702	33.8023
775.272	47.2188
779.84	39.2908
784.406	9.77148
788.968	21.4004
793.528	128.411
798.086	82.4351
802.641	97.7432
807.193	162.551
811.742	199.135
816.289	275.237
820.833	313.295
825.374	522.212
829.913	538.99
834.449	689.206
838.983	917.34
843.514	1272.68
848.042	1780.85
852.568	2354.83
857.091	2983.53
861.611	3120.05
866.129	2838.05
870.644	2257.53
875.156	1952.52
879.666	1606.01
884.174	1738.04
888.678	2028.6
893.181	2646.37
897.68	2839.61
902.177	1864.92
906.672	1121.39
911.163	585.208
915.653	356.845
920.139	187.852
924.623	72.969
929.105	47.7134
933.584	3.86987
938.06	21.2532
942.534	15.9868
947.005	6.70312
951.474	23.9519
955.94	11.6218
960.403	116.294
964.864	1.05981
969.323	12.8931
973.779	0.651367
978.232	81.3811
982.683	117.714
987.131	152.217
991.577	185.002
996.02	347.052
1000.46	524.37
1004.9	969.919
1009.34	1327.73
1013.77	1682.79
1018.2	1661.14
1022.63	1363.81
1027.05	1019.82
1031.48	859.243
1035.9	831.549
1040.32	875.563
1044.73	871.417
1049.14	1036.14
1053.56	1398.61
1057.96	1703.8
1062.37	1917.61
1066.77	1628.83
1071.17	1731.98
1075.57	1936.36
1079.97	2317.04
1084.36	3082.33
1088.75	4009.23
1093.14	5729.54
1097.53	8968.3
1101.91	14001.2
1106.29	21273.6
1110.67	24010.5
1115.05	17886.5
1119.42	11056.3
1123.79	7643.78
1128.16	5750.29
1132.53	5023.21
1136.89	4457.93
1141.25	4004.45
1145.61	3955.79
1149.97	4251.53
1154.32	5050.94
1158.67	5924.69
1163.02	5776.44
1167.37	4345.46
1171.71	3003.79
1176.06	2009.88
1180.4	1443.08
1184.73	957.259
1189.07	731.807
1193.4	579.216
1197.73	400.301
1202.06	255.617
1206.39	228.329
1210.71	176.987
1215.03	75.2485
1219.35	34.2664
1223.66	11.5398
1227.98	7.22266
1232.29	22.199
1236.6	19.5593
1240.9	43.6035
1245.21	16.9075
1249.51	22.8335
1253.81	9.28271
1258.11	75.0786
1262.4	16.8811
1266.69	18.5832
1270.98	1.16699
1275.27	48.8467
1279.56	15.4468
1283.84	67.1848
1288.12	23.1721
1292.4	57.708
1296.68	82.9202
1300.95	22.6201
1305.22	41.6738
1309.49	69.4285
1313.76	35.2781
1318.02	82.2878
1322.28	51.5295
1326.54	36.699
1330.8	92.5669
1335.06	72.4595
1339.31	92.0803
1343.56	128.425
1347.81	92.4629
1352.06	117.089
1356.3	114.571
1360.54	127.207
1364.78	29.6738
1369.02	72.8301
1373.25	90.8303
1377.48	71.6904
1381.71	25.7266
1385.94	40.8386
1390.17	73.7856
1394.39	85.0283
1398.61	123.074
1402.83	0.020996
1407.05	84.7795
1411.26	122.68
1415.47	74.967
1419.68	0.38916
1423.89	39.6191
1428.1	69.4641
1432.3	19.9077
1436.5	101.64
1440.7	24.3765
1444.9	61.0725
1449.09	93.9888
1453.28	80.167
1457.47	45.3179
1461.66	87.0911
1465.85	53.7737
1470.03	116.404
1474.21	57.7148
1478.39	82.1045
1482.56	35.0908
1486.74	35.2241
1490.91	137.601
1495.08	44.7439
1499.25	40.553
1503.41	97.6758
1507.58	55.3928
1511.74	52.7561
1515.9	102.532
1520.05	85.8106
1524.21	57.8101
1528.36	5.23779
1532.51	57.9966
1536.66	129.638
1540.81	63.2632
1544.95	50.0591
1549.09	105.933
1553.23	102.57
1557.37	136.378
1561.5	65.9856
