Measurement: Raman, 514 nm, ccw, Raman Data Processed
Mineral: Augelite
Rruff sample: R050060
Ideal chemistry: Al_2_PO_4_(OH)_3_
Locality: Machacamarca, Potosi Department, Bolivia
Source: Rock Currier
Description: Colorless prismatic crystals
Measured chemistry: Al_2.00_(P_1.00_O_4_)(OH)_3_; OH estimated by difference
Pin_id: L01372
Orientation: Laser parallel to -a* (-1 0 0). Fiducial mark perpendicular to laser is parallel to -b [0 -1 0]
Raman shift (cm-1)	intensity
206.692	0
211.606	173.343
216.517	693.652
221.425	1635.78
226.329	2432.77
231.231	1159.95
236.129	334.134
241.025	197.129
245.917	236.204
250.806	351.343
255.692	291.737
260.576	422.963
265.456	230.836
270.333	133.965
275.207	141.817
280.077	172.903
284.945	161.983
289.81	53.3174
294.672	152.32
299.53	42.7275
304.386	57.3047
309.239	89.0586
314.088	23.8516
318.935	112.643
323.779	90.6182
328.619	6.6792
333.457	18.1191
338.291	50.1416
343.123	85.3574
347.952	125.895
352.777	25.0547
357.6	15.0185
362.419	12.9858
367.236	65.6894
372.05	159.826
376.86	28.3066
381.668	108.957
386.473	140.559
391.274	490.409
396.073	887.711
400.869	1966.19
405.662	4224.18
410.452	5057.1
415.239	3234.7
420.023	2481.62
424.804	1824.92
429.582	1632.81
434.358	1446.4
439.13	1460.54
443.899	1375.83
448.666	1208.47
453.429	1387.7
458.19	1770.94
462.948	2391.48
467.703	2896.37
472.455	2732.95
477.204	1562.13
481.95	997.762
486.693	530.54
491.433	373.978
496.171	596.29
500.906	683.742
505.637	1386.02
510.366	2241.42
515.092	3934.05
519.815	5939.27
524.535	7484.13
529.253	7215.52
533.967	5631.21
538.679	3717.17
543.388	2701.4
548.094	1880.93
552.797	1535.04
557.497	1081.37
562.195	818
566.889	577.629
571.581	261.798
576.27	137.266
580.956	243.286
585.64	247.157
590.32	218.711
594.998	274.756
599.673	434.359
604.345	677.493
609.014	954.126
613.681	1431.29
618.344	2072.52
623.005	3223.92
627.664	5751.55
632.319	10094.6
636.971	13588.7
641.621	9179.56
646.268	4740.74
650.913	2660.97
655.554	1476.79
660.193	917.636
664.829	539.519
669.462	319.842
674.092	92.3525
678.72	132.907
683.345	32.311
687.967	30.6699
692.587	95.063
697.203	5.85449
701.817	96.1284
706.429	58.1357
711.037	228.9
715.643	494.612
720.246	532.281
724.846	396.802
729.444	367.16
734.039	267.343
738.631	286.335
743.221	218.12
747.808	86.6836
752.392	36.9902
756.973	51.7861
761.552	0.113281
766.128	1.27051
770.702	64.4209
775.272	81.2988
779.84	8.85645
784.406	49.9199
788.968	65.2481
793.528	120.231
798.086	90.2314
802.641	18.7266
807.193	133.361
811.742	180.022
816.289	296.869
820.833	297.156
825.374	304.571
829.913	324.553
834.449	412.592
838.983	707.724
843.514	885.475
848.042	1190.22
852.568	1790.84
857.091	2062.08
861.611	2005.9
866.129	1736.66
870.644	1487
875.156	998.557
879.666	925.824
884.174	865.312
888.678	746.41
893.181	976.019
897.68	853.043
902.177	563.25
906.672	353.062
911.163	244.68
915.653	212.059
920.139	280.097
924.623	250.654
929.105	185.57
933.584	78.9707
938.06	55.0967
942.534	126.963
947.005	40.6445
951.474	25.6064
955.94	58.1348
960.403	18.3789
964.864	18.3018
969.323	2.72559
973.779	12.4873
978.232	3.14453
982.683	7.89941
987.131	41.0879
991.577	97.9893
996.02	130.965
1000.46	268.954
1004.9	321.942
1009.34	240.97
1013.77	307.119
1018.2	322.522
1022.63	236.005
1027.05	124.732
1031.48	287.631
1035.9	170.8
1040.32	249.3
1044.73	208.041
1049.14	352.053
1053.56	403.307
1057.96	529.741
1062.37	666.273
1066.77	728.558
1071.17	866.61
1075.57	1001.35
1079.97	1220.65
1084.36	1818.39
1088.75	2259.51
1093.14	3344.94
1097.53	4954.53
1101.91	7916.67
1106.29	10899.5
1110.67	10311.5
1115.05	6746.41
1119.42	3725.23
1123.79	2131.11
1128.16	1369.77
1132.53	1210.3
1136.89	1063.12
1141.25	1358.66
1145.61	1664.55
1149.97	1993.59
1154.32	3110.51
1158.67	4057.82
1163.02	4386.7
1167.37	3474.73
1171.71	2197.97
1176.06	1381.17
1180.4	907.017
1184.73	748.81
1189.07	536.956
1193.4	399.509
1197.73	260.417
1202.06	256.846
1206.39	93.8936
1210.71	19.2783
1215.03	137.587
1219.35	111.634
1223.66	63.7412
1227.98	130.134
1232.29	35.0156
1236.6	17.0205
1240.9	44.7441
1245.21	75.4394
1249.51	27.9883
1253.81	21.3965
1258.11	115.876
1262.4	60.5498
1266.69	11.7578
1270.98	34.1445
1275.27	74.6025
1279.56	6.80273
1283.84	37.2227
1288.12	146.062
1292.4	200.216
1296.68	17.2246
1300.95	196.14
1305.22	21.7549
1309.49	228.696
1313.76	133.994
1318.02	33.0742
1322.28	281.925
1326.54	170.565
1330.8	110.992
1335.06	149.188
1339.31	157.137
1343.56	181.047
1347.81	110.68
1352.06	74.1348
1356.3	30.7148
1360.54	76.0322
1364.78	225.81
1369.02	189.797
1373.25	201.177
1377.48	206.657
1381.71	150.74
1385.94	227.22
1390.17	63.5801
1394.39	179.294
1398.61	37.8525
1402.83	223.388
1407.05	192.108
1411.26	171.655
1415.47	126.613
1419.68	158.094
1423.89	147.844
1428.1	46.918
1432.3	24.0059
1436.5	213.775
1440.7	246.931
1444.9	142.873
1449.09	240.173
1453.28	181.565
1457.47	196.78
1461.66	168.422
1465.85	265.828
1470.03	260.993
1474.21	177.497
1478.39	218.094
1482.56	203.902
1486.74	43.6611
1490.91	81.333
1495.08	110.88
1499.25	76.8603
1503.41	84.6934
1507.58	61.7266
1511.74	153.717
1515.9	130.965
1520.05	5.82227
1524.21	17.6455
1528.36	216.584
1532.51	309.702
1536.66	19.7031
1540.81	235.939
1544.95	331.879
1549.09	105.629
1553.23	242.397
1557.37	171.44
1561.5	181.78
