Measurement: Raman, 514 nm, ccw, Raman Data Processed
Mineral: Augelite
Rruff sample: R050060
Ideal chemistry: Al_2_PO_4_(OH)_3_
Locality: Machacamarca, Potosi Department, Bolivia
Source: Rock Currier
Description: Colorless prismatic crystals
Measured chemistry: Al_2.00_(P_1.00_O_4_)(OH)_3_; OH estimated by difference
Pin_id: L01372
Orientation: Laser parallel to -a* (-1 0 0). Fiducial mark perpendicular to laser is parallel to -b [0 -1 0]
Raman shift (cm-1)	intensity
206.382	0
211.29	224.702
216.196	1024.09
221.098	1980.88
225.997	2557.86
230.894	1364.37
235.787	797.489
240.677	2009.11
245.564	3918.81
250.448	5536.72
255.329	4027.78
260.207	1562.32
265.082	495.945
269.954	287.901
274.823	122.109
279.689	40.0625
284.552	0.093994
289.412	25.3474
294.269	134.145
299.123	35.9793
303.974	54.3848
308.822	109.355
313.667	134.193
318.509	52.2717
323.349	5.87915
328.185	217.051
333.018	322.09
337.848	485.139
342.676	994.899
347.5	1486.63
352.321	1726.66
357.14	2108.22
361.955	3139.15
366.768	3927.74
371.578	2908.39
376.384	1150.78
381.188	576.769
385.989	431.402
390.787	492.347
395.582	718.227
400.374	1363.37
405.164	2539.38
409.95	3211.96
414.733	3068.06
419.514	2646.74
424.292	2212.67
429.066	1586.55
433.838	1443.54
438.607	1855.35
443.373	2329.37
448.137	2647.72
452.897	2624.68
457.655	2413.49
462.409	1943.14
467.161	1768.16
471.91	1203.36
476.656	740.424
481.399	273.268
486.14	155.816
490.877	22.0864
495.612	127.059
500.344	178.528
505.073	526.42
509.799	1143.8
514.523	1970.56
519.243	2819.65
523.961	3751.1
528.676	3790.89
533.388	3341.05
538.097	2752.58
542.804	2662.77
547.508	2772.06
552.209	3093.64
556.907	3474.14
561.602	3880.99
566.295	3690.97
570.984	3168.06
575.671	2528.42
580.356	1949.34
585.037	1253.61
589.716	896.34
594.392	628.772
599.065	717.023
603.735	851.347
608.403	1246
613.068	1878.56
617.73	2781.56
622.389	4696.8
627.046	8604.65
631.7	13369.1
636.351	14495.2
641	9116.61
645.645	4031.67
650.288	2220.14
654.929	1375.76
659.566	750.409
664.201	516.031
668.833	281.835
673.463	197.346
678.09	47.4966
682.714	128.471
687.335	19.6357
691.954	126.103
696.57	66.2451
701.183	82.0649
705.793	14.77
710.401	79.0464
715.007	221.619
719.609	268.062
724.209	254.967
728.806	174.711
733.401	168.56
737.993	180.255
742.582	144.006
747.169	18.3716
751.753	35.2544
756.334	70.5068
760.913	99.874
765.489	23.6538
770.062	74.6001
774.633	10.873
779.201	58.2949
783.766	10.9736
788.329	52.706
792.889	145.863
797.447	97.8769
802.002	60.6401
806.554	171.102
811.104	169.094
815.651	254.597
820.196	276.569
824.738	450.966
829.277	481.981
833.814	620.844
838.348	923.49
842.88	1163.48
847.409	1557.06
851.935	2164.11
856.459	2459.78
860.98	2393.06
865.499	2031.18
870.015	1594.49
874.529	1337.66
879.04	1176.09
883.548	1219.08
888.054	1397.68
892.558	1684.96
897.058	1649.97
901.557	1112.92
906.052	627.846
910.546	415.371
915.036	260.496
919.524	254.02
924.01	77.6118
928.493	9.22266
932.974	20.6807
937.452	61.6025
941.927	110.467
946.4	19.7295
950.871	29.7085
955.339	32.8843
959.804	11.6592
964.267	21.7632
968.728	25.9277
973.185	16.8564
977.641	14.8374
982.094	107.53
986.544	69.9522
990.992	133.389
995.438	284.835
999.881	433.299
1004.32	861.81
1008.76	1252.37
1013.2	1542.98
1017.63	1206.7
1022.06	870.543
1026.49	590.666
1030.91	506.118
1035.34	459.768
1039.76	525.759
1044.18	612.019
1048.59	659.697
1053.01	1102.65
1057.42	1650.97
1061.83	1804.45
1066.23	1474.48
1070.64	1312.04
1075.04	1212.2
1079.44	1346.55
1083.83	1730.79
1088.23	2206.55
1092.62	3162.93
1097.01	4824.36
1101.39	7610.43
1105.78	10524
1110.16	10007.3
1114.54	6934.09
1118.92	4061.01
1123.29	2534.08
1127.67	1623.34
1132.04	1311.54
1136.4	1115.66
1140.77	1072.4
1145.13	1186.77
1149.49	1384.9
1153.85	1919.11
1158.21	2521.7
1162.56	2563.23
1166.91	2075.02
1171.26	1351.82
1175.61	979.513
1179.95	617.669
1184.29	352.93
1188.63	361.407
1192.97	195.859
1197.3	183.411
1201.64	158.113
1205.97	114.082
1210.29	72.9609
1214.62	18.9273
1218.94	125.04
1223.26	25.293
1227.58	49.6167
1231.9	11.9858
1236.21	57.7256
1240.52	75.4458
1244.83	25.105
1249.14	51.1416
1253.44	25.8745
1257.74	48.9863
1262.04	16.4219
1266.34	117.506
1270.64	2.25781
1274.93	6.78906
1279.22	39.8096
1283.51	47.8164
1287.79	4.60938
1292.08	75.1865
1296.36	109.855
1300.64	90.1934
1304.92	226.246
1309.19	54.6006
1313.46	114.094
1317.73	144.277
1322	136.462
1326.27	67.5098
1330.53	139.52
1334.79	76.3721
1339.05	70.7861
1343.31	184.824
1347.56	213.238
1351.81	241.023
1356.06	86.8164
1360.31	138.819
1364.56	172.792
1368.8	93.1279
1373.04	145.046
1377.28	23.624
1381.52	144.775
1385.75	152.519
1389.98	120.458
1394.21	52.581
1398.44	97.6397
1402.66	126.942
1406.89	97.1074
1411.11	82.0693
1415.33	163.631
1419.54	240.379
1423.76	82.8106
1427.97	236.784
1432.18	104.583
1436.39	78.5801
1440.59	132.935
1444.8	225.436
1449	233.773
1453.2	202.111
1457.39	138.293
1461.59	105.387
1465.78	103.616
1469.97	82.2978
1474.16	162.074
1478.35	265.46
1482.53	122.978
1486.71	19.6475
1490.89	106.767
1495.07	38.6621
1499.24	60.3535
1503.42	203.159
1507.59	197.121
1511.76	30.0234
1515.92	35.9815
1520.09	16.6064
1524.25	119.461
1528.41	65.249
1532.57	165.071
1536.72	45.5508
1540.88	9.90332
1545.03	159.645
1549.18	75.0469
1553.33	49.1377
1557.47	1.61035
1561.62	41.9248
