Measurement: Raman, 514 nm, ccw, Raman Data Processed
Mineral: Augelite
Rruff sample: R050060
Ideal chemistry: Al_2_PO_4_(OH)_3_
Locality: Machacamarca, Potosi Department, Bolivia
Source: Rock Currier
Description: Colorless prismatic crystals
Measured chemistry: Al_2.00_(P_1.00_O_4_)(OH)_3_; OH estimated by difference
Pin_id: L00994
Orientation: Laser parallel to -c* (0 0 -1). Fiducial mark perpendicular to laser is parallel to -a [-1 0 0]
Raman shift (cm-1)	intensity
140.049	0
145.005	13.03
149.958	597.564
154.908	1772.15
159.855	3340.98
164.798	3900.96
169.739	2493.4
174.676	1134.75
179.61	571.633
184.541	286.609
189.469	286.7
194.394	236.715
199.316	278.276
204.234	44.1577
209.15	95.9644
214.062	99.6248
218.971	434.649
223.877	1190
228.781	1270.17
233.681	344.002
238.577	219.587
243.471	85.3794
248.362	174.956
253.25	205.719
258.134	157.883
263.016	125.898
267.894	17.6262
272.77	50.0549
277.642	36.2109
282.512	31.9392
287.378	65.3569
292.241	61.6177
297.101	10.8799
301.959	14.8735
306.813	3.57983
311.664	17.0181
316.512	50.5874
321.357	27.1011
326.199	59.4116
331.038	50.3123
335.874	62.6206
340.708	48.365
345.538	19.5867
350.365	77.2725
355.189	13.3271
360.01	46.8804
364.828	37.0867
369.643	32.6162
374.455	75.5857
379.265	88.1948
384.071	162.169
388.874	196.205
393.674	388.965
398.472	719.987
403.266	1846.47
408.057	3258.55
412.846	2533.84
417.631	1508.62
422.414	1040.93
427.194	890.26
431.97	842.329
436.744	786.771
441.515	687.868
446.283	533.457
451.048	481.456
455.81	733.675
460.569	1167.5
465.326	1597.94
470.079	1778.36
474.83	1338.9
479.577	732.693
484.322	416.627
489.064	149.841
493.803	215.618
498.539	288.368
503.272	601.273
508.002	1030.32
512.729	1720.31
517.454	2863.17
522.176	4233.22
526.895	4739.48
531.61	4052.9
536.324	2910.48
541.034	2005.22
545.741	1460.04
550.446	1076.39
555.148	860.458
559.846	596.117
564.542	429.74
569.236	340.568
573.926	299.715
578.614	129.293
583.298	185.249
587.98	185.419
592.659	218.927
597.336	213.68
602.009	343.678
606.68	538.877
611.348	680.716
616.013	1024.34
620.675	1487.77
625.335	2463.42
629.992	4384.97
634.646	7778.3
639.297	7792.33
643.945	3986.38
648.591	2169.83
653.234	1313.09
657.874	771.754
662.511	510.099
667.146	314.786
671.777	150.304
676.407	27.7964
681.033	2.71118
685.656	50.2417
690.277	24.8726
694.895	70.6736
699.511	24.2227
704.123	34.075
708.733	1.91016
713.34	194.716
717.945	409.467
722.547	272.171
727.146	196.808
731.742	142.367
736.336	152.838
740.926	77.2161
745.515	87.4941
750.1	13.6597
754.683	13.6938
759.263	21.4194
763.841	14.9688
768.415	40.9204
772.987	36.7375
777.557	67.9795
782.123	3.79297
786.687	5.78784
791.249	54.6062
795.807	10.8899
800.363	40.885
804.917	97.6455
809.468	99.2598
814.016	167.73
818.561	114.049
823.104	161.369
827.644	202.441
832.181	311.782
836.716	320.377
841.248	472.134
845.778	717.85
850.305	927.249
854.829	1294.52
859.351	1403.06
863.87	1325.72
868.387	990.771
872.9	866.567
877.412	635.25
881.92	519.822
886.426	478.784
890.93	405.01
895.431	468.465
899.929	345.115
904.425	317.894
908.918	250.24
913.408	185.348
917.896	120.457
922.382	34.2849
926.864	58.23
931.345	60.9961
935.822	72.6921
940.297	59.3013
944.77	17.0532
949.24	14.8367
953.707	5.64526
958.172	15.5562
962.634	5.51856
967.094	0.421631
971.551	9.27734
976.006	13.8442
980.458	9.96167
984.908	29.094
989.355	28.7075
993.799	34.5403
998.241	86.8379
1002.68	237.19
1007.12	163.614
1011.55	158.108
1015.98	120.667
1020.41	209.305
1024.84	98.0237
1029.27	170.853
1033.69	128.957
1038.11	20.2688
1042.52	150.792
1046.94	172.547
1051.35	169.409
1055.76	268.456
1060.17	362.331
1064.57	427.659
1068.97	451.174
1073.37	540.816
1077.77	731.562
1082.16	972.739
1086.56	1174.18
1090.95	1652.29
1095.33	2251.23
1099.72	3758.21
1104.1	5572.43
1108.48	6904.89
1112.86	5301.32
1117.23	3030.07
1121.61	1770.87
1125.97	1064.88
1130.34	838.936
1134.71	760.449
1139.07	753.498
1143.43	932.095
1147.79	1112.37
1152.14	1538.02
1156.5	2278.69
1160.85	2818.46
1165.2	2524.6
1169.54	1810.59
1173.89	1085.67
1178.23	730.827
1182.57	464.059
1186.9	332.363
1191.24	261.74
1195.57	126.186
1199.9	111.697
1204.22	36.2671
1208.55	38.8975
1212.87	23.8242
1217.19	50.4609
1221.51	28.0532
1225.82	99.7959
1230.13	40.562
1234.44	14.978
1238.75	13.9741
1243.06	80.022
1247.36	13.1758
1251.66	20.6123
1255.96	18.9502
1260.26	58.856
1264.55	33.7041
1268.84	112.353
1273.13	76.2417
1277.41	4.12891
1281.7	81.0376
1285.98	21.9624
1290.26	94.8979
1294.54	56.2109
1298.81	133.958
1303.09	108.918
1307.36	44.8623
1311.62	197.803
1315.89	212.727
1320.15	124.659
1324.41	99.5981
1328.67	47.5371
1332.93	158.208
1337.18	40.5073
1341.43	70.6592
1345.68	91.9819
1349.93	71.6343
1354.18	44.084
1358.42	70.8013
1362.66	62.477
1366.9	57.2578
1371.13	9.8999
1375.37	42.7632
1379.6	19.9199
1383.83	71.7617
1388.06	102.332
1392.28	2.2251
1396.5	92.939
1400.72	68.5772
1404.94	67.3721
1409.15	118.038
1413.37	110.403
1417.58	100.718
1421.79	22.4219
1425.99	199.332
1430.2	86.1494
1434.4	121.875
1438.6	293.707
1442.8	265.5
1446.99	268.257
1451.19	341.975
1455.38	405.466
1459.57	331.213
1463.75	267.131
1467.94	218.704
1472.12	139.38
1476.3	144.106
1480.48	157.745
1484.65	107.494
1488.83	106.254
1493	154.416
1497.16	26.8442
1501.33	65.3369
1505.49	15.8608
1509.66	83.3115
1513.82	181.691
1517.97	3.36377
1522.13	72.2642
1526.29	115.223
1530.44	17.2695
1534.59	48.5073
1538.73	112.668
1542.88	108.609
1547.02	0.958496
1551.16	125.063
1555.3	150.298
1559.43	0.543945
