Measurement: Raman, 514 nm, ccw, Raman Data Processed
Mineral: Augelite
Rruff sample: R050060
Ideal chemistry: Al_2_PO_4_(OH)_3_
Locality: Machacamarca, Potosi Department, Bolivia
Source: Rock Currier
Description: Colorless prismatic crystals
Measured chemistry: Al_2.00_(P_1.00_O_4_)(OH)_3_; OH estimated by difference
Pin_id: L01787
Orientation: Laser parallel to (1 0 1). Fiducial mark perpendicular to laser is parallel to -b [0 -1 0]
Raman shift (cm-1)	intensity
142.528	0
147.482	1063.98
152.434	4639.04
157.382	9861.09
162.327	14240.1
167.269	11355.8
172.208	5815.6
177.144	2496.05
182.076	969.316
187.006	306.323
191.932	85.5278
196.855	81.2249
201.775	89.9407
206.692	54.1765
211.606	789.95
216.517	2272.27
221.425	3814.15
226.329	3784.31
231.231	2196.31
236.129	2066.86
241.025	3864.69
245.917	7497.74
250.806	12504.4
255.692	7798.53
260.576	2622.74
265.456	680.995
270.333	219.454
275.207	1.72778
280.077	187.528
284.945	219.774
289.81	197.769
294.672	180.301
299.53	106.059
304.386	8.021
309.239	112.271
314.088	472.993
318.935	1060.18
323.779	1939.24
328.619	2696.33
333.457	2909.41
338.291	2804.91
343.123	2952.24
347.952	3494.79
352.777	3712.76
357.6	4867.41
362.419	8541.7
367.236	13803.3
372.05	10751.8
376.86	4251.64
381.668	2006.74
386.473	1430.05
391.274	1382.59
396.073	1734.4
400.869	3107.53
405.662	5253.01
410.452	6956.13
415.239	6895.92
420.023	6671.22
424.804	5329.13
429.582	3690.97
434.358	3267.82
439.13	3599.45
443.899	4158.9
448.666	4690.42
453.429	4337.08
458.19	3648.91
462.948	2797.12
467.703	2126.03
472.455	1606.22
477.204	964.801
481.95	624.121
486.693	354.269
491.433	222.685
496.171	344.441
500.906	578.185
505.637	1195.7
510.366	2137.01
515.092	3710.14
519.815	5637.12
524.535	7244.93
529.253	7180.57
533.967	6119.04
538.679	5075.33
543.388	4507.43
548.094	4443.64
552.797	4628.54
557.497	5158.93
562.195	5039.86
566.889	4565.36
571.581	3715.44
576.27	2646.4
580.956	1864.62
585.64	1110.3
590.32	805.269
594.998	816.991
599.673	853.587
604.345	1216.1
609.014	2022.09
613.681	3248.36
618.344	5283.86
623.005	10075.3
627.664	20239.1
632.319	36236.2
636.971	43376.3
641.621	25408.2
646.268	10838
650.913	5151.37
655.554	2792.31
660.193	1703.23
664.829	1058.5
669.462	629.685
674.092	386.891
678.72	114.558
683.345	125.278
687.967	55.5596
692.587	99.4665
697.203	193.052
701.817	126.944
706.429	161.148
711.037	107.773
715.643	62.5418
720.246	77.221
724.846	14.1702
729.444	10.8772
734.039	29.9419
738.631	246.43
743.221	309.439
747.808	79.9544
752.392	26.9331
756.973	0.935791
761.552	28.9856
766.128	82.9736
770.702	22.9041
775.272	104.736
779.84	94.7087
784.406	105.862
788.968	228.337
793.528	242.226
798.086	215.53
802.641	438.328
807.193	377.377
811.742	611.921
816.289	754.88
820.833	847.658
825.374	1151.4
829.913	1521.62
834.449	1984.45
838.983	2644
843.514	3699.3
848.042	5121.87
852.568	6757.88
857.091	7991.54
861.611	8099.85
866.129	7042.23
870.644	5502.75
875.156	4194.85
879.666	3478.68
884.174	3209.11
888.678	3322.7
893.181	3888.29
897.68	3641.99
902.177	2459.93
906.672	1452.81
911.163	987.399
915.653	625.086
920.139	429.58
924.623	279.913
929.105	235.335
933.584	162.777
938.06	94.2561
942.534	103.791
947.005	49.4158
951.474	27.7956
955.94	7.9021
960.403	39.9587
964.864	68.074
969.323	21.3091
973.779	54.0981
978.232	39.3076
982.683	77.4062
987.131	227.016
991.577	369.589
996.02	555.233
1000.46	1094.88
1004.9	1832.62
1009.34	3131.67
1013.77	4075.03
1018.2	3709.71
1022.63	2694.73
1027.05	1998.3
1031.48	1504.52
1035.9	1294.29
1040.32	1041.7
1044.73	989.694
1049.14	1015.18
1053.56	1321.13
1057.96	1850.47
1062.37	2085.17
1066.77	1890.23
1071.17	1928.68
1075.57	2038.49
1079.97	2473.24
1084.36	3173.65
1088.75	4192.12
1093.14	6015.35
1097.53	9446.25
1101.91	14937.9
1106.29	21291.5
1110.67	21963
1115.05	15104.7
1119.42	9021.48
1123.79	5469.35
1128.16	3839.14
1132.53	2845.41
1136.89	2212.56
1141.25	1878.24
1145.61	1606.8
1149.97	1666.61
1154.32	1969.64
1158.67	2285.55
1163.02	2131.85
1167.37	1557.42
1171.71	1045.16
1176.06	664.135
1180.4	509.103
1184.73	345.265
1189.07	166.591
1193.4	131.933
1197.73	101.176
1202.06	73.5879
1206.39	37.5688
1210.71	26.9614
1215.03	16.2246
1219.35	45.541
1223.66	24.1416
1227.98	10.332
1232.29	36.4424
1236.6	7.38794
1240.9	11.0803
1245.21	8.08545
1249.51	14.6814
1253.81	5.69458
1258.11	78.1331
1262.4	65.9492
1266.69	32.5566
1270.98	81.7048
1275.27	64.4368
1279.56	38.0591
1283.84	97.7881
1288.12	72.1389
1292.4	179.156
1296.68	12.7097
1300.95	58.8362
1305.22	110.988
1309.49	117.377
1313.76	118.707
1318.02	120.432
1322.28	67.1238
1326.54	125.684
1330.8	124.94
1335.06	124.958
1339.31	87.0266
1343.56	120.696
1347.81	103.676
1352.06	52.1763
1356.3	69.323
1360.54	142.376
1364.78	167.524
1369.02	171.622
1373.25	88.687
1377.48	127.314
1381.71	26.7532
1385.94	74.1074
1390.17	45.958
1394.39	70.7102
1398.61	1.09619
1402.83	91.8071
1407.05	4.6582
1411.26	31.1831
1415.47	77.1387
1419.68	102.17
1423.89	24.667
1428.1	133.441
1432.3	140.82
1436.5	42.3193
1440.7	131.32
1444.9	102.842
1449.09	105.325
1453.28	107.166
1457.47	145.806
1461.66	84.9321
1465.85	166.268
1470.03	85.165
1474.21	101.644
1478.39	181.681
1482.56	21.2944
1486.74	101.416
1490.91	65.1401
1495.08	92.2051
1499.25	112.455
1503.41	75.5171
1507.58	108.581
1511.74	5.56104
1515.9	88.7896
1520.05	67.5371
1524.21	123.269
1528.36	51.2231
1532.51	56.7764
1536.66	81.0234
1540.81	4.15674
1544.95	55.5576
1549.09	82.8169
