Measurement: Raman, 514 nm, ccw, Raman Data Processed
Mineral: Augelite
Rruff sample: R050060
Ideal chemistry: Al_2_PO_4_(OH)_3_
Locality: Machacamarca, Potosi Department, Bolivia
Source: Rock Currier
Description: Colorless prismatic crystals
Measured chemistry: Al_2.00_(P_1.00_O_4_)(OH)_3_; OH estimated by difference
Pin_id: L00994
Orientation: Laser parallel to -c* (0 0 -1). Fiducial mark perpendicular to laser is parallel to -a [-1 0 0]
Raman shift (cm-1)	intensity
147.482	0
152.434	374.491
157.382	1512.3
162.327	2650.7
167.269	2402.52
172.208	1033.68
177.144	400.228
182.076	48.3804
187.006	15.447
191.932	66.5586
196.855	75.4043
201.775	168.194
206.692	35.2959
211.606	347.258
216.517	932.327
221.425	2075.06
226.329	2619.47
231.231	1240.87
236.129	491.451
241.025	267.984
245.917	183.646
250.806	178.7
255.692	160.502
260.576	135.545
265.456	21.2598
270.333	54.1907
275.207	25.6304
280.077	74.5427
284.945	91.9831
289.81	13.134
294.672	123.452
299.53	148.777
304.386	6.25977
309.239	8.62256
314.088	150.866
318.935	247.403
323.779	474.644
328.619	565.162
333.457	548.278
338.291	399.929
343.123	280.283
347.952	251.584
352.777	159.637
357.6	186.34
362.419	308.115
367.236	587.366
372.05	551.346
376.86	169.992
381.668	94.5491
386.473	114.955
391.274	172.139
396.073	283.675
400.869	658.264
405.662	1506.28
410.452	2076.85
415.239	1718.37
420.023	1644.32
424.804	1434.54
429.582	1024.66
434.358	760.227
439.13	729.681
443.899	627.542
448.666	583.895
453.429	581.269
458.19	694.871
462.948	817.856
467.703	773.131
472.455	730.342
477.204	636.573
481.95	381.881
486.693	327.258
491.433	277.758
496.171	326.167
500.906	372.909
505.637	472.047
510.366	794.408
515.092	1291.04
519.815	1853.86
524.535	2374.26
529.253	2332.53
533.967	1801.6
538.679	1239.21
543.388	876.997
548.094	579.301
552.797	510.972
557.497	403.681
562.195	333.816
566.889	248.415
571.581	181.97
576.27	58.0398
580.956	75.9609
585.64	12.7642
590.32	7.66577
594.998	22.6846
599.673	149.117
604.345	208.041
609.014	337.068
613.681	490.197
618.344	695.425
623.005	1241.78
627.664	2268.51
632.319	4580.42
636.971	6728.56
641.621	4719.96
646.268	2181.43
650.913	1083.39
655.554	719.895
660.193	403.097
664.829	216.508
669.462	161.014
674.092	119.374
678.72	76.5559
683.345	1.69702
687.967	19.8635
692.587	16.2676
697.203	33.8665
701.817	10.2393
706.429	15.8543
711.037	13.1274
715.643	75.4373
720.246	104.89
724.846	48.1206
729.444	129.142
734.039	136.983
738.631	293.923
743.221	361.722
747.808	215.375
752.392	135.877
756.973	23.7732
761.552	22.2842
766.128	1.95947
770.702	32.4404
775.272	43.4304
779.84	5.2793
784.406	0.64624
788.968	45.3935
793.528	50.1435
798.086	13.5881
802.641	39.1992
807.193	44.0442
811.742	59.9338
816.289	49.0144
820.833	108.278
825.374	119.335
829.913	159.263
834.449	165.071
838.983	164.346
843.514	268.207
848.042	258.372
852.568	470.91
857.091	475.614
861.611	452.245
866.129	478.744
870.644	358.113
875.156	282.358
879.666	234.477
884.174	309.476
888.678	342.358
893.181	465.507
897.68	539.558
902.177	283.58
906.672	161.934
911.163	128.698
915.653	127.225
920.139	79.3691
924.623	52.4055
929.105	2.20776
933.584	17.4448
938.06	0.280029
942.534	8.32373
947.005	1.38184
951.474	28.8037
955.94	5.48413
960.403	21.6431
964.864	25.5559
969.323	8.82544
973.779	25.3765
978.232	5.97729
982.683	23.2485
987.131	41.5147
991.577	66.4824
996.02	67.0081
1000.46	185.482
1004.9	263.308
1009.34	208.441
1013.77	233.649
1018.2	141.952
1022.63	144.329
1027.05	198.795
1031.48	205.413
1035.9	250.206
1040.32	296.165
1044.73	313.303
1049.14	401.677
1053.56	500.219
1057.96	681.005
1062.37	691.975
1066.77	583.112
1071.17	467.551
1075.57	464.047
1079.97	652.389
1084.36	795.489
1088.75	1003.45
1093.14	1589.92
1097.53	2242.94
1101.91	3756.48
1106.29	5629.81
1110.67	5880.65
1115.05	4212.63
1119.42	2680.1
1123.79	1790.66
1128.16	1545.31
1132.53	1295.05
1136.89	1118.05
1141.25	1085.17
1145.61	1090.38
1149.97	1116.05
1154.32	1035.23
1158.67	1278.61
1163.02	1282.15
1167.37	990.543
1171.71	614.003
1176.06	460.751
1180.4	381.663
1184.73	250.19
1189.07	147.823
1193.4	149.181
1197.73	85.2734
1202.06	98.1077
1206.39	25.021
1210.71	62.7805
1215.03	8.43604
1219.35	11.6819
1223.66	47.1765
1227.98	76.8394
1232.29	28.4268
1236.6	48.6389
1240.9	5.79932
1245.21	85.7612
1249.51	91.4531
1253.81	39.865
1258.11	31.2417
1262.4	76.054
1266.69	1.49634
1270.98	115.917
1275.27	29.7073
1279.56	73.0405
1283.84	59.3562
1288.12	56.6677
1292.4	116.701
1296.68	109.087
1300.95	8.58105
1305.22	42.4866
1309.49	65.6934
1313.76	106.713
1318.02	109.699
1322.28	79.6587
1326.54	88.5901
1330.8	141.494
1335.06	44.6289
1339.31	100.116
1343.56	59.957
1347.81	15.0669
1352.06	92.6743
1356.3	56.3218
1360.54	113.468
1364.78	45.123
1369.02	71.1479
1373.25	90.2998
1377.48	94.3369
1381.71	60.71
1385.94	87.7939
1390.17	89.0757
1394.39	115.504
1398.61	4.22266
1402.83	89.6567
1407.05	76.7808
1411.26	94.7163
1415.47	53.3662
1419.68	80.8745
1423.89	25.4839
1428.1	25.0503
1432.3	130.704
1436.5	125.401
1440.7	144.604
1444.9	176.764
1449.09	162.639
1453.28	207.085
1457.47	238.175
1461.66	242.546
1465.85	146.896
1470.03	134.099
1474.21	121.677
1478.39	70.1782
1482.56	64.7505
1486.74	137.914
1490.91	97.0454
1495.08	83.4522
1499.25	53.4399
1503.41	79.4761
1507.58	59.4844
1511.74	57.4273
1515.9	89.3496
1520.05	60.2778
1524.21	44.1929
1528.36	50.8682
1532.51	78.4448
1536.66	71.9805
1540.81	81.1631
1544.95	44.9722
1549.09	72.918
1553.23	80.2388
1557.37	96.833
1561.5	1.29785
