Measurement: Raman, 514 nm, ccw, Raman Data Processed
Mineral: Augelite
Rruff sample: R050060
Ideal chemistry: Al_2_PO_4_(OH)_3_
Locality: Machacamarca, Potosi Department, Bolivia
Source: Rock Currier
Description: Colorless prismatic crystals
Measured chemistry: Al_2.00_(P_1.00_O_4_)(OH)_3_; OH estimated by difference
Pin_id: L00872
Orientation: Laser parallel to -b* (0 -1 0). Fiducial mark perpendicular to laser is parallel to -c [0 0 -1]
Raman shift (cm-1)	intensity
90.314	0
95.302	14.905
100.286	171.986
105.268	745.613
110.246	1700.07
115.221	3199.01
120.193	5677.97
125.162	8959.7
130.128	10056.5
135.09	5803.77
140.049	3970.86
145.005	6231.79
149.958	11617.3
154.908	21098
159.855	33651.2
164.798	36355.9
169.739	24055.3
174.676	12712.9
179.61	7066.21
184.541	4230.63
189.469	2874.32
194.394	2047.83
199.316	1579.85
204.234	1278.74
209.15	1231.79
214.062	1521.34
218.971	2476.24
223.877	4857.15
228.781	4257.21
233.681	1286.34
238.577	1039.23
243.471	2157.4
248.362	4360.14
253.25	5693.94
258.134	2346.84
263.016	729.524
267.894	307.184
272.77	32.2024
277.642	5.87476
282.512	33.3582
287.378	67.5083
292.241	16.396
297.101	66.1992
301.959	88.321
306.813	151.512
311.664	147.672
316.512	169.847
321.357	174.888
326.199	75.8035
331.038	69.5364
335.874	48.1943
340.708	120.165
345.538	318.792
350.365	514.494
355.189	620.426
360.01	1017.98
364.828	2104.98
369.643	2988.09
374.455	1504.32
379.265	538.681
384.071	255.115
388.874	269.181
393.674	317.506
398.472	936.017
403.266	2392.62
408.057	4197.27
412.846	3768.94
417.631	2633.73
422.414	2109.42
427.194	2055.1
431.97	2223.9
436.744	2761.03
441.515	3376.59
446.283	3330.2
451.048	2645.92
455.81	1726.96
460.569	1138.31
465.326	682.845
470.079	404.281
474.83	288.103
479.577	101.265
484.322	60.3716
489.064	64.3291
493.803	168.963
498.539	247.215
503.272	381.091
508.002	594.594
512.729	1260.65
517.454	1934.24
522.176	2901.24
526.895	4218.03
531.61	4747.18
536.324	5462.76
541.034	6490.75
545.741	8007.15
550.446	10342.4
555.148	13297.3
559.846	16117.9
564.542	17576.9
569.236	17140.4
573.926	15137.5
578.614	11974.1
583.298	8771.23
587.98	5479.8
592.659	3295.19
597.336	2151.69
602.009	1759.35
606.68	1954.13
611.348	2257.12
616.013	2780.86
620.675	3995.58
625.335	6664.84
629.992	12268
634.646	19035.9
639.297	16319.9
643.945	7643.49
648.591	3405.07
653.234	1875.55
657.874	1199.22
662.511	752.5
667.146	444.369
671.777	324.847
676.407	249.554
681.033	160.231
685.656	91.9477
690.277	21.7085
694.895	85.5078
699.511	16.915
704.123	68.8359
708.733	0.770996
713.34	209.248
717.945	367.207
722.547	401.088
727.146	289.878
731.742	176.557
736.336	135.1
740.926	87.479
745.515	61.6685
750.1	121.598
754.683	7.87988
759.263	72.9673
763.841	40.7969
768.415	27.4517
772.987	37.0869
777.557	53.4966
782.123	6.72168
786.687	105.704
791.249	25.165
795.807	22.5366
800.363	87.7422
804.917	79.7271
809.468	112.582
814.016	146.078
818.561	234.635
823.104	371.469
827.644	353.653
832.181	469.879
836.716	736.435
841.248	1017.2
845.778	1323.46
850.305	1868.41
854.829	2313.52
859.351	2635.23
863.87	2426.9
868.387	1935.64
872.9	1529.82
877.412	1087.67
881.92	834.087
886.426	767.065
890.93	654.061
895.431	578.151
899.929	493.226
904.425	337.272
908.918	175.292
913.408	100.773
917.896	40.7432
922.382	97.8135
926.864	14.4482
931.345	5.73291
935.822	34.1792
940.297	16.7803
944.77	14.249
949.24	30.2529
953.707	104.114
958.172	12.9634
962.634	92.7466
967.094	32.4834
971.551	50.4043
976.006	145.406
980.458	103.545
984.908	123.493
989.355	67.9878
993.799	164.299
998.241	306.672
1002.68	370.123
1007.12	479.707
1011.55	712.453
1015.98	793.342
1020.41	712.427
1024.84	550.773
1029.27	449.515
1033.69	440.674
1038.11	510.294
1042.52	680.409
1046.94	931.957
1051.35	1538
1055.76	2517.07
1060.17	3426.91
1064.57	2930.87
1068.97	2280.96
1073.37	1946.47
1077.77	1920.33
1082.16	2142.96
1086.56	2742.41
1090.95	3892.1
1095.33	5685.29
1099.72	9026.44
1104.1	14482.9
1108.48	18906.2
1112.86	16642.1
1117.23	10618.5
1121.61	5891.95
1125.97	3770.7
1130.34	2490.71
1134.71	1795.11
1139.07	1329.08
1143.43	1051.55
1147.79	920.282
1152.14	784.89
1156.5	1079.51
1160.85	1095.01
1165.2	1075.14
1169.54	929.4
1173.89	762.549
1178.23	547.387
1182.57	458.178
1186.9	358.191
1191.24	230.444
1195.57	174.902
1199.9	140.569
1204.22	111.426
1208.55	16.624
1212.87	26.6714
1217.19	91.021
1221.51	58.5112
1225.82	40.1519
1230.13	38.1069
1234.44	0.013184
1238.75	54.9282
1243.06	6.15625
1247.36	78.8945
1251.66	24.0815
1255.96	38.3276
1260.26	115.45
1264.55	33.3804
1268.84	18.6977
1273.13	17.9277
1277.41	2.89941
1281.7	23.54
1285.98	28.3325
1290.26	35.5542
1294.54	99.3906
1298.81	41.457
1303.09	61.4546
1307.36	70.1973
1311.62	100.395
1315.89	81.9326
1320.15	36.477
1324.41	87.0488
1328.67	59.5884
1332.93	92.1172
1337.18	60.1973
1341.43	176.831
1345.68	41.0986
1349.93	141.829
1354.18	167.133
1358.42	89.2964
1362.66	138.343
1366.9	115.632
1371.13	88.4326
1375.37	119.306
1379.6	13.0078
1383.83	158.645
1388.06	76.4419
1392.28	102.838
1396.5	8.45801
1400.72	82.3379
1404.94	160.799
1409.15	20.9741
1413.37	195.987
1417.58	87.2353
1421.79	40.958
1425.99	74.3828
1430.2	51.1465
1434.4	88.0708
1438.6	126.927
1442.8	169.648
1446.99	195.258
1451.19	127.753
1455.38	160.134
1459.57	86.3315
1463.75	119.163
1467.94	73.2227
1472.12	81.3852
1476.3	95.3208
1480.48	158.639
1484.65	114.191
1488.83	91.1426
1493	82.416
1497.16	96.0142
1501.33	140.27
1505.49	78.7749
1509.66	105.978
1513.82	157.999
1517.97	210.907
1522.13	36.7437
1526.29	134.78
1530.44	103.373
1534.59	71.7896
1538.73	61.3838
1542.88	48.5068
1547.02	119.05
1551.16	113.682
1555.3	105.985
1559.43	28.165
