Measurement: Raman, 514 nm, ccw, Raman Data Processed
Mineral: Augelite
Rruff sample: R050060
Ideal chemistry: Al_2_PO_4_(OH)_3_
Locality: Machacamarca, Potosi Department, Bolivia
Source: Rock Currier
Description: Colorless prismatic crystals
Measured chemistry: Al_2.00_(P_1.00_O_4_)(OH)_3_; OH estimated by difference
Pin_id: L00872
Orientation: Laser parallel to -b* (0 -1 0). Fiducial mark perpendicular to laser is parallel to -c [0 0 -1]
Raman shift (cm-1)	intensity
140.049	0
145.005	359.759
149.958	2920.13
154.908	7430.03
159.855	12800.3
164.798	13761
169.739	8545.92
174.676	3891.39
179.61	1729.4
184.541	666.041
189.469	127.274
194.394	86.5198
199.316	63.467
204.234	361.781
209.15	1585.04
214.062	3944.48
218.971	7249.64
223.877	9775.6
228.781	6988.66
233.681	2781.43
238.577	1686.31
243.471	1948.6
248.362	2759.11
253.25	2707.09
258.134	959.237
263.016	185.644
267.894	134.531
272.77	168.15
277.642	189.994
282.512	305.875
287.378	104.413
292.241	180.369
297.101	430.372
301.959	172.664
306.813	178.614
311.664	529.686
316.512	971.713
321.357	1898.89
326.199	2618.04
331.038	2781.32
335.874	2391.94
340.708	1735.52
345.538	1398.42
350.365	1267.6
355.189	1251.35
360.01	2070.82
364.828	3648.41
369.643	4353.74
374.455	2060.95
379.265	710.442
384.071	331.23
388.874	308.332
393.674	467.803
398.472	1175.67
403.266	2699.85
408.057	4871.3
412.846	5830.69
417.631	6345.15
422.414	6092.82
427.194	4412.23
431.97	2938.2
436.744	2451.19
441.515	2576.16
446.283	2645.46
451.048	2820.45
455.81	2782.78
460.569	2575.91
465.326	2329.04
470.079	1844.48
474.83	1370.33
479.577	1088.72
484.322	908.195
489.064	838.278
493.803	939.571
498.539	1230.03
503.272	1944.7
508.002	3187.51
512.729	4857.32
517.454	7379.09
522.176	9677.79
526.895	10199.4
531.61	8598.78
536.324	6109.06
541.034	4337.16
545.741	3188.65
550.446	2558.01
555.148	2167.25
559.846	1843.55
564.542	1560.96
569.236	1156.79
573.926	727.765
578.614	439.482
583.298	256.22
587.98	118.087
592.659	244.967
597.336	425.435
602.009	693.462
606.68	1328
611.348	2100.02
616.013	3344.97
620.675	5388.19
625.335	10435.1
629.992	20920.3
634.646	33723.6
639.297	29281.3
643.945	14317.1
648.591	6924.94
653.234	3743.5
657.874	2165.5
662.511	1297.67
667.146	749.97
671.777	457.26
676.407	236.251
681.033	123.185
685.656	56.9631
690.277	66.3962
694.895	144.336
699.511	137.308
704.123	95.593
708.733	37.1352
713.34	69.7732
717.945	2.69775
722.547	36.5488
727.146	48.8928
731.742	325.767
736.336	743.159
740.926	1026.05
745.515	863.419
750.1	351.255
754.683	99.5337
759.263	15.0996
763.841	22.4229
768.415	26.7932
772.987	7.21558
777.557	9.74316
782.123	63.2698
786.687	99.1814
791.249	86.231
795.807	110.506
800.363	188.989
804.917	180.821
809.468	195
814.016	356.217
818.561	427.438
823.104	568.366
827.644	685.66
832.181	892.606
836.716	1158.33
841.248	1633.68
845.778	2152.05
850.305	2908.3
854.829	3642.96
859.351	4031.47
863.87	3777.73
868.387	3173.87
872.9	2572.61
877.412	2020.97
881.92	1902.97
886.426	1968.62
890.93	2466.3
895.431	2753.02
899.929	2138.52
904.425	1331.1
908.918	843.838
913.408	490.116
917.896	254.386
922.382	172.126
926.864	76.5591
931.345	39.7734
935.822	22.9258
940.297	51.3972
944.77	1.7688
949.24	66.7576
953.707	30.8318
958.172	72.9646
962.634	3.12207
967.094	41.5864
971.551	54.7207
976.006	39.5652
980.458	22.946
984.908	110.05
989.355	173.431
993.799	307.124
998.241	542.052
1002.68	807.234
1007.12	1133.66
1011.55	1566.33
1015.98	1720.25
1020.41	1467.44
1024.84	1180.91
1029.27	1015.81
1033.69	1036.3
1038.11	968.417
1042.52	1173.23
1046.94	1372.83
1051.35	1814.14
1055.76	2569.97
1060.17	2810.26
1064.57	2355.95
1068.97	1985.08
1073.37	1964.56
1077.77	2282.73
1082.16	2768.42
1086.56	3680.98
1090.95	5211.52
1095.33	7904.4
1099.72	12573.1
1104.1	20085.9
1108.48	25261.3
1112.86	21582
1117.23	13927.8
1121.61	8776.55
1125.97	6315.58
1130.34	5120.08
1134.71	4128.03
1139.07	3467.03
1143.43	2898.42
1147.79	2312.19
1152.14	1841.88
1156.5	1466.52
1160.85	1431.83
1165.2	1111.34
1169.54	924.527
1173.89	699.327
1178.23	451.129
1182.57	369.606
1186.9	327.212
1191.24	189.776
1195.57	126.231
1199.9	124.519
1204.22	9.13306
1208.55	3.39209
1212.87	11.6841
1217.19	16.2063
1221.51	53.6245
1225.82	9.63648
1230.13	56.6741
1234.44	5.05957
1238.75	39.3042
1243.06	47.5523
1247.36	21.5576
1251.66	53.467
1255.96	24.7712
1260.26	45.8655
1264.55	28.8555
1268.84	45.6702
1273.13	109.414
1277.41	101.141
1281.7	67.8389
1285.98	9.54907
1290.26	51.5776
1294.54	8.98315
1298.81	6.79126
1303.09	98.9849
1307.36	72.5361
1311.62	45.3147
1315.89	103.761
1320.15	31.0022
1324.41	117.116
1328.67	100.981
1332.93	34.3386
1337.18	140.702
1341.43	152.227
1345.68	102.333
1349.93	93.6797
1354.18	112.446
1358.42	50.4648
1362.66	108.524
1366.9	99.1885
1371.13	73.2085
1375.37	59.0332
1379.6	55.9788
1383.83	71.7561
1388.06	122.707
1392.28	85.7527
1396.5	0.900635
1400.72	63.9321
1404.94	56.4443
1409.15	43.1643
1413.37	20.8306
1417.58	8.90649
1421.79	26.0193
1425.99	72.8013
1430.2	108.31
1434.4	80.3196
1438.6	63.1812
1442.8	70.9014
1446.99	68.6567
1451.19	81.4626
1455.38	103.249
1459.57	65.4712
1463.75	64.7866
1467.94	158.804
1472.12	56.0049
1476.3	64.9463
1480.48	61.0107
1484.65	147.184
1488.83	88.2637
1493	132.38
1497.16	144.782
1501.33	91.5664
1505.49	70.1865
1509.66	148.686
1513.82	115.265
1517.97	42.5674
1522.13	30.9219
1526.29	49.5718
1530.44	211.848
1534.59	41.6621
1538.73	18.9624
1542.88	62.2422
1547.02	3.43848
1551.16	68.1406
1555.3	113.374
1559.43	105.633
