Measurement: Raman, 514 nm, ccw, Raman Data Processed
Mineral: Augelite
Rruff sample: R050060
Ideal chemistry: Al_2_PO_4_(OH)_3_
Locality: Machacamarca, Potosi Department, Bolivia
Source: Rock Currier
Description: Colorless prismatic crystals
Measured chemistry: Al_2.00_(P_1.00_O_4_)(OH)_3_; OH estimated by difference
Pin_id: L00994
Orientation: Laser parallel to -c* (0 0 -1). Fiducial mark perpendicular to laser is parallel to -a [-1 0 0]
Raman shift (cm-1)	intensity
146.244	0
151.196	248.985
156.145	937.288
161.091	2092.39
166.034	2038.47
170.973	1134.6
175.91	528.121
180.843	263.661
185.774	69.241
190.701	82.8442
195.625	66.5022
200.546	155.087
205.463	31.0862
210.378	47.1633
215.29	115.562
220.198	285.993
225.104	533.812
230.006	364.579
234.905	130.676
239.801	61.1785
244.694	2.60303
249.584	21.7676
254.471	14.0388
259.355	161.605
264.236	22.5696
269.114	22.9136
273.988	5.11499
278.86	19
283.729	5.42578
288.594	31.4465
293.457	16.2398
298.316	12.2681
303.173	14.626
308.026	91.769
312.876	103.399
317.724	231.274
322.568	551.812
327.409	685.067
332.248	599.898
337.083	530.099
341.915	341.695
346.745	205.027
351.571	265.418
356.394	228.593
361.215	289.91
366.032	525.863
370.846	650.818
375.658	271.627
380.466	164.814
385.272	38.4644
390.074	6.42139
394.874	111.507
399.67	154.29
404.464	527.842
409.255	862.315
414.043	717.101
418.827	447.779
423.609	280.532
428.388	228.674
433.164	160.611
437.937	217.002
442.707	241.849
447.475	158.701
452.239	214.639
457	191.993
461.759	134.72
466.514	79.3931
471.267	94.0454
476.017	82.71
480.764	133.504
485.508	48.4072
490.249	83.855
494.987	126.852
499.722	88.1558
504.455	261.943
509.184	317.944
513.911	544.116
518.635	801.505
523.356	1037.08
528.074	1121.82
532.789	957.716
537.501	614.852
542.211	531.135
546.918	232.009
551.621	387.059
556.323	277.363
561.021	304.382
565.716	260.333
570.409	189.491
575.098	103.65
579.785	92.3701
584.469	3.16113
589.15	87.3193
593.829	81.9844
598.504	44.2036
603.177	63.52
607.847	161.205
612.514	253.277
617.179	391.412
621.84	686.308
626.499	1307.66
631.155	2599.98
635.809	4588.85
640.459	3585.8
645.107	1614.53
649.752	802.174
654.394	526.635
659.033	307.272
663.67	276.166
668.304	71.0649
672.935	159.415
677.563	6.50146
682.189	114.826
686.812	69.916
691.432	60.6055
696.049	113.273
700.664	29.1494
705.276	164.736
709.885	35.7559
714.492	109.606
719.096	7.89893
723.697	0.125
728.295	22.7842
732.891	63.2217
737.484	57.207
742.074	73.0615
746.661	115.829
751.246	82.5093
755.828	55.793
760.408	0.437012
764.984	13.7124
769.559	92.6807
774.13	13.564
778.699	116.98
783.265	40.6099
787.828	23.4839
792.389	45.3496
796.947	48.918
801.502	109.437
806.055	72.8955
810.605	160.742
815.152	59.2422
819.697	51.1567
824.239	75.6157
828.779	150.642
833.315	119.561
837.85	83.9546
842.381	152.542
846.91	162.026
851.436	175.511
855.96	178.967
860.481	266.377
865	227.733
869.515	83.5093
874.029	191.171
878.539	178.71
883.047	101.126
887.553	177.418
892.055	55.98
896.556	253.287
901.053	140.292
905.548	69.915
910.041	117.554
914.53	64.6138
919.018	134.021
923.502	107.554
927.985	140.89
932.464	18.0561
936.941	33.7026
941.416	8.47754
945.887	90.3945
950.357	80.9824
954.824	30.1773
959.288	41.2529
963.749	122.723
968.208	21.3457
972.665	50.7441
977.119	152.351
981.571	148.449
986.02	84.6919
990.466	86.4136
994.91	147.126
999.351	61.8423
1003.79	183.578
1008.23	199.359
1012.66	215.148
1017.09	246.963
1021.52	293.793
1025.95	243.509
1030.37	270.453
1034.79	189.458
1039.21	172.505
1043.63	309.647
1048.04	345.836
1052.45	491.319
1056.86	671.678
1061.27	616.132
1065.67	409.093
1070.07	480.618
1074.47	429.767
1078.87	402.236
1083.26	484.98
1087.65	463.998
1092.04	661.509
1096.43	1057.18
1100.81	1660.65
1105.19	2710.23
1109.57	3553.49
1113.95	2883.46
1118.33	1826.53
1122.7	1229.91
1127.07	712.345
1131.43	688.798
1135.8	590.034
1140.16	326.644
1144.52	385.752
1148.88	149.494
1153.23	280.771
1157.59	260.468
1161.94	42.1929
1166.28	158.944
1170.63	152.72
1174.97	62.564
1179.31	105.387
1183.65	2.30469
1187.99	3.13916
1192.32	113.996
1196.65	76.8496
1200.98	27.9062
1205.3	0.812988
1209.63	44.771
1213.95	60.854
1218.27	47.0259
1222.59	40.0664
1226.9	14.123
1231.21	46.0518
1235.52	18.9253
1239.83	88.814
1244.13	45.6606
1248.43	124.462
1252.73	108.21
1257.03	34.9995
1261.33	117.723
1265.62	10.3975
1269.91	80.981
1274.2	69.5102
1278.49	18.981
1282.77	98.7319
1287.05	84.106
1291.33	113.439
1295.61	76.7334
1299.88	113.988
1304.15	174.653
1308.42	77.7593
1312.69	100.668
1316.96	87.1011
1321.22	165.3
1325.48	100.515
1329.74	183.9
1333.99	168.307
1338.25	96.0879
1342.5	147.92
1346.75	206.468
1350.99	97.1265
1355.24	84.5332
1359.48	130.139
1363.72	56.4009
1367.96	168.589
1372.19	60.1416
1376.43	158.25
1380.66	178.054
1384.88	83.6313
1389.11	110.981
1393.34	128.349
1397.56	135.315
1401.78	215.471
1405.99	30.0913
1410.21	83.8682
1414.42	140.051
1418.63	77.082
1422.84	88.7422
1427.05	117.477
1431.25	9.27246
1435.45	124.13
1439.65	14.2734
1443.85	203.505
1448.04	90.1455
1452.23	150.719
1456.42	125.469
1460.61	16.8223
1464.8	12.0684
1468.98	83.626
1473.16	16.5332
1477.34	114.665
1481.52	132.71
1485.69	253.044
1489.87	6.41504
1494.04	237.607
1498.21	133.969
1502.37	202.54
1506.54	156.615
1510.7	218.988
1514.86	153.745
1519.02	136.594
1523.17	134.101
1527.32	26.1084
1531.47	63.8897
1535.62	155.089
1539.77	213.938
1543.91	54.6709
1548.06	0
