Measurement: Raman, 514 nm, ccw, Raman Data Processed
Mineral: Augelite
Rruff sample: R050060
Ideal chemistry: Al_2_PO_4_(OH)_3_
Locality: Machacamarca, Potosi Department, Bolivia
Source: Rock Currier
Description: Colorless prismatic crystals
Measured chemistry: Al_2.00_(P_1.00_O_4_)(OH)_3_; OH estimated by difference
Pin_id: L01372
Orientation: Laser parallel to -a* (-1 0 0). Fiducial mark perpendicular to laser is parallel to -b [0 -1 0]
Raman shift (cm-1)	intensity
195.625	0
200.546	188.669
205.463	75.5264
210.378	153.287
215.29	881.249
220.198	2102.83
225.104	4472.56
230.006	2432.59
234.905	903.841
239.801	1619
244.694	4013.94
249.584	8069.36
254.471	7506.85
259.355	3258.12
264.236	1110.22
269.114	601.762
273.988	356.745
278.86	224.766
283.729	124.345
288.594	133.91
293.457	36.0147
298.316	21.2593
303.173	6.22998
308.026	124.168
312.876	29.0811
317.724	15.8491
322.568	2.73486
327.409	139.574
332.248	174.469
337.083	230.166
341.915	358.954
346.745	657.354
351.571	948.155
356.394	1571.88
361.215	3254.03
366.032	5744.12
370.846	5569.69
375.658	2495.55
380.466	922.961
385.272	385.945
390.074	358.217
394.874	414.699
399.67	486.694
404.464	797.312
409.255	1010.57
414.043	756.937
418.827	751.18
423.609	587.792
428.388	440.311
433.164	600.097
437.937	643.676
442.707	657.038
447.475	698.148
452.239	598.946
457	485.772
461.759	374.767
466.514	69.2891
471.267	161.846
476.017	96.9668
480.764	4.54297
485.508	21.0449
490.249	22.2197
494.987	101.569
499.722	168.513
504.455	538.969
509.184	538.174
513.911	993.321
518.635	1394.22
523.356	2161.09
528.074	2389.99
532.789	2590.34
537.501	2795.89
542.211	3439.66
546.918	4253.7
551.621	5754.02
556.323	7283.02
561.021	8678.53
565.716	8978.45
570.409	8174.89
575.098	7081.91
579.785	5610.27
584.469	3922.05
589.15	2611.34
593.829	1623.22
598.504	1121.18
603.177	1216.87
607.847	1381.09
612.514	1785.81
617.179	2722.71
621.84	4363.94
626.499	7726.36
631.155	12965.1
635.809	17004.4
640.459	11522.6
645.107	5213.46
649.752	2509.22
654.394	1520.45
659.033	963.051
663.67	717.05
668.304	520.007
672.935	469.056
677.563	320.03
682.189	85.666
686.812	90.75
691.432	23.3242
696.049	11.8799
700.664	3.76269
705.276	23.5449
709.885	121.696
714.492	120.612
719.096	149.312
723.697	319.807
728.295	380.078
732.891	112.11
737.484	129.874
742.074	105.653
746.661	114.763
751.246	43.377
755.828	70.084
760.408	63.3164
764.984	47.9131
769.559	11.8193
774.13	27.1025
778.699	33.2178
783.265	281.084
787.828	104.505
792.389	229.325
796.947	162.837
801.502	202.808
806.055	148.257
810.605	165.995
815.152	176.954
819.697	229.869
824.239	441.097
828.779	392.588
833.315	609.199
837.85	698.758
842.381	857.375
846.91	1160.89
851.436	1662.32
855.96	1974.01
860.481	1942.27
865	1693.11
869.515	1335.51
874.029	1130.32
878.539	886.932
883.047	850.053
887.553	679.454
892.055	716.463
896.556	607.083
901.053	390.948
905.548	436.298
910.041	219.44
914.53	354.287
919.018	95.5869
923.502	247.544
927.985	40.4609
932.464	92.2656
936.941	16.4307
941.416	126.186
945.887	62.6982
950.357	66.9287
954.824	15.6006
959.288	120.083
963.749	112.973
968.208	96.9394
972.665	50.7617
977.119	205.506
981.571	1.0791
986.02	189.963
990.466	278.753
994.91	340.5
999.351	530.184
1003.79	1117.74
1008.23	1402.19
1012.66	1623.62
1017.09	1491.12
1021.52	1037.8
1025.95	728.436
1030.37	892.083
1034.79	596.794
1039.21	572.62
1043.63	718.499
1048.04	973.419
1052.45	1533.88
1056.86	2573.64
1061.27	3130.28
1065.67	2356.47
1070.07	1853.56
1074.47	1432.35
1078.87	1324.23
1083.26	1581.77
1087.65	1855.45
1092.04	2412.53
1096.43	3682.32
1100.81	5791.09
1105.19	8497.29
1109.57	9077.31
1113.95	6628.11
1118.33	3718.89
1122.7	2281.81
1127.07	1641.12
1131.43	1208.27
1135.8	983.688
1140.16	764.687
1144.52	487.274
1148.88	508.714
1153.23	408.17
1157.59	617.241
1161.94	622.016
1166.28	591.056
1170.63	352.627
1174.97	325
1179.31	87.4775
1183.65	179.647
1187.99	136.681
1192.32	248.586
1196.65	193.374
1200.98	57.1963
1205.3	136.345
1209.63	76.0078
1213.95	44.3379
1218.27	31.8574
1222.59	95.9043
1226.9	207.555
1231.21	105.078
1235.52	25.9824
1239.83	180.473
1244.13	8.32031
1248.43	43.1934
1252.73	164.482
1257.03	211.904
1261.33	125.262
1265.62	114.867
1269.91	77.8438
1274.2	62.7676
1278.49	76.6543
1282.77	261.514
1287.05	194.656
1291.33	462.623
1295.61	115.404
1299.88	206.203
1304.15	211.596
1308.42	230.728
1312.69	202.699
1316.96	305.961
1321.22	283.5
1325.48	216.699
1329.74	322.875
1333.99	209.752
1338.25	355.246
1342.5	41.5156
1346.75	129.918
1350.99	194.121
1355.24	136.885
1359.48	278.268
1363.72	273.678
1367.96	99.0332
1372.19	167.084
1376.43	75.1914
1380.66	39.5312
1384.88	137.096
1389.11	16.6191
1393.34	208.299
1397.56	247.83
1401.78	22.3477
1405.99	190.562
1410.21	141.647
1414.42	230.978
1418.63	271
1422.84	234.217
1427.05	315.615
1431.25	381.535
1435.45	355.5
1439.65	393.459
1443.85	507.076
1448.04	416.787
1452.23	468.973
1456.42	298.85
1460.61	436.25
1464.8	364.215
1468.98	187.168
1473.16	288.137
1477.34	331.666
1481.52	154.818
1485.69	105.713
1489.87	206.938
1494.04	69.4981
1498.21	113.637
1502.37	336.156
1506.54	69.918
1510.7	159.877
1514.86	183.107
1519.02	213.656
1523.17	147.699
1527.32	4.07227
1531.47	33.1484
1535.62	170.971
1539.77	250.234
1543.91	279.238
1548.06	316.039
1552.19	181.334
1556.33	14.7383
1560.47	179.506
