Measurement: Raman, 514 nm, ccw, Raman Data Processed
Mineral: Augelite
Rruff sample: R050060
Ideal chemistry: Al_2_PO_4_(OH)_3_
Locality: Machacamarca, Potosi Department, Bolivia
Source: Rock Currier
Description: Colorless prismatic crystals
Measured chemistry: Al_2.00_(P_1.00_O_4_)(OH)_3_; OH estimated by difference
Pin_id: L00872
Orientation: Laser parallel to -b* (0 -1 0). Fiducial mark perpendicular to laser is parallel to -c [0 0 -1]
Raman shift (cm-1)	intensity
81.577	0
86.571	6.5849
91.561	28.2113
96.548	361.363
101.532	861.708
106.513	1762.92
111.49	2788.31
116.465	4756.73
121.436	7887.74
126.404	11378.7
131.368	10976.2
136.33	6048.83
141.289	5446.77
146.244	8619.58
151.196	15690
156.145	26984.8
161.091	39780
166.034	38326.7
170.973	23028.3
175.91	12423.2
180.843	7235.81
185.774	4605.95
190.701	3310.33
195.625	2525.71
200.546	2038.67
205.463	1811.8
210.378	1777.62
215.29	2354.68
220.198	3569.41
225.104	6299.61
230.006	3636.36
234.905	1462.82
239.801	1819.09
244.694	3212.36
249.584	6391.43
254.471	5982.27
259.355	2253.21
264.236	752.76
269.114	348.516
273.988	181.229
278.86	69.7368
283.729	31.1111
288.594	47.5708
293.457	101.081
298.316	184.797
303.173	114.42
308.026	179.931
312.876	176.909
317.724	167.452
322.568	151.542
327.409	63.1348
332.248	29.2109
337.083	140.066
341.915	219.75
346.745	628.914
351.571	716.986
356.394	754.29
361.215	1384.63
366.032	2865.38
370.846	2874.56
375.658	1226.83
380.466	410.51
385.272	173.144
390.074	304.075
394.874	621.086
399.67	1786.8
404.464	4174.3
409.255	6229.44
414.043	4974.93
418.827	3372.96
423.609	2756.54
428.388	2669.03
433.164	3035.02
437.937	3845.83
442.707	4463.96
447.475	4045.66
452.239	3098.5
457	2087.29
461.759	1314.57
466.514	792.436
471.267	507.848
476.017	263.841
480.764	159.863
485.508	21.7361
490.249	63.417
494.987	159.929
499.722	235.334
504.455	450.579
509.184	813.645
513.911	1433.5
518.635	2512.02
523.356	3690.17
528.074	4764.96
532.789	5495.36
537.501	6064.34
542.211	7105.9
546.918	8958.01
551.621	11555.7
556.323	14577.7
561.021	17221.7
565.716	18535.6
570.409	17648.3
575.098	14906.7
579.785	11500.6
584.469	8189.02
589.15	5122.92
593.829	3012.79
598.504	2141.73
603.177	1975.88
607.847	2124.14
612.514	2636
617.179	3420.42
621.84	5047.68
626.499	8884.28
631.155	15835.1
635.809	22272.5
640.459	15447
645.107	6746.25
649.752	3215.07
654.394	1800.56
659.033	1100.84
663.67	690.025
668.304	458.387
672.935	325.762
677.563	234.104
682.189	141.429
686.812	56.7288
691.432	1.02173
696.049	86.949
700.664	22.49
705.276	46.5537
709.885	42.8879
714.492	195.075
719.096	385.103
723.697	364.959
728.295	277.624
732.891	157.078
737.484	215.551
742.074	235.245
746.661	34.9028
751.246	22.1641
755.828	10.5908
760.408	44.0266
764.984	22.658
769.559	28.1541
774.13	37.4287
778.699	13.8782
783.265	10.375
787.828	44.0991
792.389	75.7593
796.947	156.639
801.502	88.7178
806.055	157.422
810.605	261.663
815.152	260.416
819.697	368.658
824.239	530.499
828.779	561.767
833.315	811.5
837.85	1063.18
842.381	1517.93
846.91	2135.27
851.436	2815.47
855.96	3381.26
860.481	3560.65
865	3101.66
869.515	2387.27
874.029	1843.51
878.539	1349.37
883.047	1129.38
887.553	951.438
892.055	879.232
896.556	872.769
901.053	579.888
905.548	337.232
910.041	273.901
914.53	121.404
919.018	50.9951
923.502	6.96387
927.985	145.903
932.464	11.7993
936.941	34.2227
941.416	49.439
945.887	24.6352
950.357	31.709
954.824	34.8901
959.288	63.8887
963.749	45.0688
968.208	72.0654
972.665	122.852
977.119	36.1724
981.571	44.7095
986.02	116.352
990.466	86.0918
994.91	126.981
999.351	312.988
1003.79	475.121
1008.23	754.414
1012.66	910.878
1017.09	918.627
1021.52	830.731
1025.95	542.339
1030.37	505.64
1034.79	435.436
1039.21	553.677
1043.63	851.402
1048.04	1257.59
1052.45	1927.86
1056.86	3199.01
1061.27	3863.05
1065.67	3150.85
1070.07	2350.63
1074.47	2038.12
1078.87	2280.93
1083.26	2654.15
1087.65	3401.59
1092.04	4777.32
1096.43	7116.16
1100.81	11716.5
1105.19	17906.6
1109.57	21534.4
1113.95	17170.6
1118.33	10200.5
1122.7	6068.39
1127.07	3878.33
1131.43	2746.74
1135.8	2009.78
1140.16	1456.7
1144.52	1231.16
1148.88	1118.38
1153.23	1066.29
1157.59	1296.6
1161.94	1340.72
1166.28	1306.33
1170.63	1092.2
1174.97	780.238
1179.31	573.737
1183.65	478.279
1187.99	382.612
1192.32	343.21
1196.65	145.952
1200.98	145.521
1205.3	92.5122
1209.63	46.3359
1213.95	40.3208
1218.27	38.4419
1222.59	52.6675
1226.9	7.95654
1231.21	16.6953
1235.52	41.2842
1239.83	31.1352
1244.13	43.6113
1248.43	6.15137
1252.73	37.4624
1257.03	61.897
1261.33	58.5498
1265.62	26.436
1269.91	12.9629
1274.2	32.6812
1278.49	14.2529
1282.77	88.7119
1287.05	35.4004
1291.33	74.0244
1295.61	18.6128
1299.88	50.5147
1304.15	46.1426
1308.42	2.2417
1312.69	88.8018
1316.96	105.93
1321.22	126.991
1325.48	135.964
1329.74	22.835
1333.99	40.6338
1338.25	153.319
1342.5	68.9136
1346.75	188.418
1350.99	160.784
1355.24	88.4097
1359.48	142.083
1363.72	107.587
1367.96	71.083
1372.19	103.718
1376.43	133.27
1380.66	15.7915
1384.88	100.099
1389.11	72.1904
1393.34	69.0981
1397.56	96.3198
1401.78	117.612
1405.99	106.518
1410.21	55.9477
1414.42	55.3818
1418.63	49.6416
1422.84	41.667
1427.05	68.6748
1431.25	134.39
1435.45	18.3838
1439.65	86.4575
1443.85	79.1538
1448.04	125.485
1452.23	185.716
1456.42	133.954
1460.61	137.992
1464.8	79.8613
1468.98	120.577
1473.16	100.726
1477.34	98.9268
1481.52	104.198
1485.69	116.562
1489.87	112.772
1494.04	57.5493
1498.21	55.8774
1502.37	53.8003
1506.54	66.5391
1510.7	46.1958
1514.86	13.5523
1519.02	59.6426
1523.17	41.3062
1527.32	73.2568
1531.47	197.648
1535.62	141.832
1539.77	3.87647
1543.91	61.2734
1548.06	12.0112
1552.19	128.641
1556.33	24.4014
1560.47	12.5264
