Measurement: Raman, 514 nm, ccw, Raman Data Processed
Mineral: Augite
Rruff sample: R070231
Ideal chemistry: (Ca,Mg,Fe)_2_(Si,Al)_2_O_6_
Locality: Old Goose Creek Quarry, Leesburg, Loudoun County, Virginia, USA
Source: Michael Scott
Description: Very dark grey-green prismatic crystals frozen in quartz
Measured chemistry: (Mg_0.44_Fe_0.37_Ca_0.17_Ti_0.01_Mn_0.01_)_Σ=1_(Si_0.98_Al_0.02_)_Σ=1_O_3_
Pin_id: M00062
Orientation: Laser parallel to -c* (0 0 -1). Fiducial mark perpendicular to laser is parallel to a [1 0 0]
Raman shift (cm-1)	intensity
147.362	0
151.063	432.059
154.762	110.853
158.46	62.5586
162.156	403.731
165.851	491.822
169.544	1404.33
173.235	2076.25
176.925	2984.81
180.613	3835.01
184.3	4724.59
187.985	4167.6
191.668	3542.02
195.35	2632.56
199.03	1972.22
202.709	1571.76
206.386	781.875
210.061	506.801
213.735	445.184
217.407	325.014
221.078	420.207
224.747	74.1641
228.414	317.065
232.08	416.723
235.744	135.031
239.407	100.922
243.068	238.369
246.728	448.334
250.386	312.807
254.042	413.754
257.697	899.141
261.35	331.906
265.001	57.0566
268.651	2.51562
272.3	104.289
275.947	119.576
279.592	99.7148
283.236	153.225
286.878	25.1816
290.518	204.57
294.157	311.779
297.795	501.478
301.431	741.699
305.065	1278.59
308.698	1253.58
312.329	1666.95
315.958	1938.41
319.586	1905.47
323.213	1939.13
326.838	1726.35
330.461	1589.09
334.083	1399.26
337.703	1494.9
341.321	1367.86
344.938	1488.43
348.554	1426.55
352.168	1389.33
355.78	1372.3
359.391	1076.42
363	913.844
366.608	1089.18
370.214	922.967
373.818	1101.56
377.421	954.25
381.023	1002.22
384.622	1144.43
388.221	1039.91
391.818	687.545
395.413	550.119
399.006	231.904
402.598	14.5625
406.189	16.9961
409.778	102.633
413.365	33.959
416.951	60.8438
420.536	20.4023
424.118	83.9414
427.7	91.1641
431.279	225.75
434.858	103.986
438.434	150.867
442.009	15.8711
445.583	100.664
449.155	94.9453
452.725	17.4492
456.294	216.666
459.861	408.685
463.427	619.574
466.991	750.336
470.554	624.975
474.115	355.518
477.675	411.963
481.233	237.332
484.79	129.635
488.345	400.889
491.898	603.111
495.45	687.311
499.001	776.484
502.55	1004.08
506.097	1206.83
509.643	1259.11
513.187	1589.66
516.73	1715.53
520.271	1971.81
523.811	2225.51
527.349	2480.62
530.886	2620.1
534.421	2916.77
537.955	3209.62
541.487	3353.36
545.017	3287.4
548.547	2958.42
552.074	2656.5
555.6	2298.52
559.125	1893.39
562.648	1987.49
566.169	1506.79
569.689	837.352
573.207	1077.24
576.724	999.844
580.24	1152.04
583.754	1086.56
587.266	1226.25
590.777	1138.39
594.286	1672.84
597.794	1828.32
601.3	1767.73
604.805	1851.34
608.309	2178.7
611.81	2302.05
615.311	2581.76
618.809	2431.72
622.307	2994.83
625.802	3177.42
629.297	3381.42
632.789	3473.56
636.281	4204.23
639.77	4705.17
643.259	5262.6
646.745	6012.79
650.231	7869.52
653.714	9885.6
657.197	12392.4
660.677	14417.3
664.157	15044.6
667.634	13330.4
671.111	11507.8
674.585	9221.43
678.059	7373.89
681.53	5498.15
685.001	4619.42
688.469	3888.18
691.937	2974.26
695.402	2465.95
698.867	2223.34
702.329	2094.78
705.791	1673.06
709.251	1559.49
712.709	1521.04
716.166	1261.26
719.621	1075.29
723.075	1134.21
726.527	912.82
729.978	881.191
733.428	690.246
736.876	800.51
740.322	534.482
743.767	548.537
747.21	612.451
750.652	258.518
754.093	418.299
757.532	236.953
760.969	84.8887
764.406	211.629
767.84	174.977
771.273	372.684
774.705	245.623
778.135	145.24
781.564	163.787
784.991	119.553
788.417	62.625
791.841	224.092
795.264	174.973
798.685	172.598
802.105	52.0859
805.523	61.293
808.94	129.277
812.356	3.17969
815.77	100.301
819.182	44.6875
822.593	39.7578
826.003	82.9102
829.411	236.312
832.818	222.973
836.223	212.231
839.627	204.746
843.029	64.4688
846.43	497.441
849.829	748.828
853.227	1027.63
856.623	806.844
860.018	500.473
863.412	575.516
866.804	891.373
870.194	580.118
873.583	537.812
876.971	381.361
880.357	295.769
883.742	355.753
887.125	622.547
890.507	431.246
893.888	168.731
897.267	271.879
900.644	676.09
904.02	408.746
907.395	732.941
910.768	331.504
914.14	773.316
917.51	412.758
920.879	472.57
924.246	448.473
927.612	606.168
930.976	604.07
934.339	464.598
937.701	727.148
941.061	823.539
944.42	767.367
947.777	800.137
951.133	252.617
954.487	566.633
957.84	171.414
961.192	617.106
964.542	675.328
967.89	453.418
971.238	714.09
974.583	554.461
977.928	784.848
981.271	1223.36
984.612	1299.46
987.952	1960.43
991.291	2486.27
994.628	2964.98
997.964	4253.58
1001.3	5324.08
1004.63	7629.83
1007.96	10303.6
1011.29	10456.6
1014.62	7922.5
1017.95	4573.98
1021.27	3033.72
1024.6	2147.18
1027.92	2005.8
1031.24	1874.78
1034.56	1909.5
1037.88	2028.3
1041.2	1934.24
1044.51	1923.81
1047.83	1822.2
1051.14	1880.69
1054.45	1040.75
1057.76	847.019
1061.07	1045.49
1064.38	871.098
1067.68	741.504
1070.99	488.055
1074.29	595.141
1077.59	508.231
1080.89	964.121
1084.19	899.902
1087.49	706.879
1090.79	397.543
1094.08	556.699
1097.37	653.109
1100.66	393.625
1103.95	477.488
1107.24	371.312
1110.53	11.7734
1113.82	198.43
1117.1	341.531
1120.38	507.738
1123.67	380.043
1126.95	329.844
1130.23	136.481
1133.5	90.3125
1136.78	104.129
1140.05	281.363
1143.33	297.297
1146.6	101.879
1149.87	215.352
1153.14	106.492
1156.41	19.0664
1159.67	178.488
1162.94	23.2305
1166.2	168.644
1169.46	428.172
1172.72	375.32
1175.98	96.4766
1179.24	60.5859
1182.5	362.871
1185.75	233.312
1189.01	289.027
1192.26	326.551
1195.51	198.504
1198.76	166.504
1202.01	153.008
1205.26	183.586
1208.5	127.754
1211.75	369.801
1214.99	502.672
1218.23	111.344
1221.47	255.824
1224.71	350.211
1227.94	49.9727
1231.18	30.0586
1234.41	122.867
1237.65	270.434
1240.88	245.473
1244.11	291.934
1247.34	238.137
1250.57	218.777
1253.79	218.785
1257.02	54.2109
1260.24	871.371
1263.46	360.359
1266.68	143.793
1269.9	50.4961
1273.12	159.922
1276.34	203.481
1279.55	96.7578
1282.77	97.8398
1285.98	430.266
1289.19	611.223
1292.4	353.812
1295.61	142.512
1298.81	217.746
1302.02	525.93
1305.22	405.387
1308.42	465.953
1311.63	79.1719
1314.83	305.109
1318.03	312.504
1321.22	264.973
1324.42	321.812
1327.61	435.816
1330.81	204.297
1334	531.449
1337.19	451.824
1340.38	569.031
1343.56	489.144
1346.75	467.203
1349.94	339.231
1353.12	172.363
1356.3	324.418
1359.48	654.75
1362.66	423.578
1365.84	279.394
1369.02	489.238
1372.19	270.66
1375.37	401.414
1378.54	367.664
1381.71	429.106
1384.88	616.477
1388.05	308.918
1391.22	4.82422
1394.38	266.891
1397.55	486.641
1400.71	307.422
1403.87	364.738
1407.03	259.555
1410.19	187.742
1413.35	370.812
1416.51	369.379
1419.66	163.746
1422.82	400.519
1425.97	212.356
1429.12	103.918
1432.27	57.4414
1435.42	285.461
1438.56	439.266
1441.71	419.844
1444.85	201.273
1448	590.938
1451.14	532
1454.28	438.234
1457.42	580.211
1460.56	51.6953
1463.69	557.547
1466.83	358.32
1469.96	189.246
