Measurement: Raman, 514 nm, ccw, Raman Data Processed
Mineral: Augite
Rruff sample: R061086
Ideal chemistry: (Ca,Mg,Fe)_2_(Si,Al)_2_O_6_
Locality: Boreslav, Teplitz, Bohemia, Czech Republic
Source: Michael Scott
Description: Black to dark green tabular euhedral crystal
Measured chemistry: (Ca_0.88_Mg_0.83_Fe_0.13_Al_0.08_Na_0.04_Ti_0.03_Cr_0.01_)_Σ=2_(Si_1.89_Al_0.11_)_Σ=2_O_6_
Pin_id: M00179
Orientation: Laser parallel to a* (1 0 0). Fiducial mark perpendicular to laser is parallel to b [0 1 0]
Raman shift (cm-1)	intensity
157.56	0
162.487	35.6855
167.411	192.797
172.332	244.308
177.25	293.378
182.165	289.664
187.078	325.782
191.987	402.175
196.894	258.123
201.798	158.477
206.699	36.5742
211.598	91.3193
216.493	404.168
221.386	458.672
226.276	625.851
231.163	485.168
236.048	329.796
240.929	158.688
245.808	222.879
250.684	336.487
255.557	104.363
260.428	307.354
265.295	82.6064
270.16	64.5254
275.022	123.592
279.882	42.7373
284.738	133.819
289.592	280.344
294.443	447.796
299.291	745.073
304.136	966.386
308.978	1521.92
313.818	2091.48
318.655	3020.25
323.489	3420.39
328.321	3202
333.15	2768.14
337.976	2245.05
342.799	2060.33
347.619	1923.09
352.437	1943.59
357.252	2003.44
362.064	1818.15
366.873	1804.74
371.68	1697.37
376.483	1665.01
381.284	2073.65
386.083	2607.43
390.878	3006.23
395.671	2539.39
400.461	1530.88
405.249	760.304
410.033	413.82
414.815	206.012
419.594	142.604
424.37	80.729
429.144	39.7661
433.915	65.7065
438.683	14.5327
443.448	28.7061
448.211	54.9873
452.971	0.037109
457.728	102.312
462.483	24.2173
467.235	69.8677
471.984	106.587
476.73	69.8955
481.474	42.0684
486.214	207.215
490.953	159.197
495.688	288.942
500.421	449.464
505.151	649.761
509.878	871.831
514.603	970.665
519.325	828.258
524.044	986.602
528.76	1034.69
533.474	1073.52
538.185	1014.09
542.894	837.381
547.599	795.401
552.302	687.21
557.003	770.888
561.7	732.421
566.395	719.664
571.087	650.57
575.777	564.95
580.464	496.278
585.148	284.182
589.829	194.714
594.508	25.5659
599.184	18.5708
603.858	0.014648
608.528	49.1865
613.197	176.811
617.862	125.463
622.525	56.7827
627.185	212.66
631.842	286.434
636.497	453.072
641.149	753.339
645.798	1247.24
650.445	2118.78
655.089	3629.96
659.73	6166.79
664.369	8192.27
669.005	6576.41
673.639	3804.21
678.269	2274.69
682.898	1189.85
687.523	759.688
692.146	490.225
696.766	284.461
701.384	259.404
705.998	193.06
710.611	145.439
715.22	55.2441
719.827	36.542
724.431	96.0894
729.033	34.3355
733.632	150.12
738.229	52.5034
742.822	77.6733
747.413	67.0147
752.002	8.08496
756.588	55.3921
761.171	139.623
765.752	217.948
770.33	222.834
774.905	185.684
779.478	238.513
784.048	316.337
788.615	240.175
793.18	276.044
797.742	279.962
802.302	228.944
806.859	332.006
811.414	555.162
815.965	474.429
820.515	618.819
825.061	577.348
829.605	568.029
834.147	658.877
838.686	575.905
843.222	518.127
847.755	646.557
852.286	816.079
856.815	1011.15
861.341	1026.46
865.864	781.966
870.384	571.144
874.902	502.249
879.418	437.217
883.931	364.688
888.441	305.897
892.949	347.685
897.454	282.207
901.956	261.471
906.456	234.363
910.954	339.783
915.448	321.802
919.941	425.387
924.43	472.514
928.917	368.261
933.402	385.563
937.884	396.352
942.363	356.62
946.84	382.375
951.314	442.583
955.786	446.254
960.255	390.401
964.722	509
969.186	543.049
973.647	705.54
978.106	873.47
982.562	854.83
987.016	1141.62
991.467	1538.87
995.916	2441.67
1000.36	3550.25
1004.8	5239.55
1009.25	5729.63
1013.68	4377.24
1018.12	2347.6
1022.55	1396.21
1026.98	1150.91
1031.41	1121.23
1035.84	1114.33
1040.26	1071.32
1044.68	995.115
1049.1	786.884
1053.52	704.844
1057.93	608.495
1062.34	481.76
1066.75	440.814
1071.15	320.068
1075.56	366.916
1079.96	423.027
1084.36	206.458
1088.75	343.842
1093.14	133.341
1097.53	242.667
1101.92	190.36
1106.31	216.572
1110.69	103.928
1115.07	174.255
1119.45	173.966
1123.82	182.464
1128.2	100.828
1132.57	95.4658
1136.93	45.9307
1141.3	9.24512
1145.66	25.3677
1150.02	174.679
1154.38	124.989
1158.74	34.8765
1163.09	25.0894
1167.44	41.48
1171.79	135.505
1176.13	24.0659
1180.48	45.0518
1184.82	9.50928
1189.15	6.49316
1193.49	110.954
1197.82	35.876
1202.15	56.4092
1206.48	180.541
1210.81	96.7969
1215.13	194.762
1219.45	27.8535
1223.77	151.565
1228.08	56.9482
1232.4	108.989
1236.71	76.7173
1241.02	143.109
1245.32	113.173
1249.62	123.892
1253.92	297.256
1258.22	211.307
1262.52	247.023
1266.81	114.419
1271.1	28.1753
1275.39	155.975
1279.68	161.025
1283.96	180.235
1288.24	141.925
1292.52	233.053
1296.8	196.939
1301.07	156.92
1305.34	169.801
1309.61	134.603
1313.88	177.256
1318.14	297.152
1322.4	84.1553
1326.66	210.333
1330.92	135.045
1335.17	161.056
1339.42	180.403
1343.67	175.54
1347.92	238.297
1352.16	148.258
1356.41	184.572
1360.64	135.77
1364.88	209.431
1369.12	214.403
1373.35	99.8535
1377.58	73.0293
1381.81	176.681
1386.03	222.644
1390.25	159.827
1394.47	220.63
1398.69	112.184
1402.91	190.523
1407.12	28.0117
1411.33	198.947
1415.54	20.9883
1419.74	63.624
1423.95	73.6279
1428.15	81.6299
1432.35	161.195
1436.54	120.314
1440.74	92.9688
1444.93	110.612
1449.12	208.133
1453.3	200.625
1457.49	148.817
1461.67	110.133
1465.85	28.4961
1470.02	150.972
1474.2	103.606
1478.37	87.3721
1482.54	102.224
1486.71	85.9219
1490.87	45.1201
1495.03	108.605
1499.19	35.3164
1503.35	48.8867
1507.51	75.1514
1511.66	88.6885
1515.81	82.3252
1519.96	83.4951
1524.1	89.3857
1528.25	123.452
1532.39	241.929
1536.53	172.881
1540.66	63.9922
1544.8	111.427
1548.93	200.285
1553.06	258.831
1557.18	56.0664
1561.31	0.019531
