Measurement: Raman, 514 nm, ccw, Raman Data Processed
Mineral: Augite
Rruff sample: R061108
Ideal chemistry: (Ca,Mg,Fe)_2_(Si,Al)_2_O_6_
Locality: Monti Rossi, near Mt. Etna, Sicily, Italy
Source: Michael Scott
Description: Euhedral, short prismatic, black crystals in vesicular basalt.
Measured chemistry: (Ca_0.86_Mg_0.74_Fe^2+^_0.18_Fe^3+^_0.08_Al_0.05_Ti_0.04_Na_0.04_Mn_0.01_)_Σ=2_(Si_1.83_Al_0.17_)_Σ=2_O_6_
Pin_id: L01364
Orientation: Laser parallel to b* (0 1 0). Fiducial mark perpendicular to laser is parallel to c [0 0 1]
Raman shift (cm-1)	intensity
161.107	0
166.012	388.768
170.915	743.985
175.815	975.734
180.713	1020.45
185.608	786.546
190.5	718.935
195.391	869.727
200.278	882.299
205.164	384.699
210.046	184.434
214.927	51.5772
219.805	316.86
224.68	780.843
229.553	1428.05
234.423	1961.39
239.291	2152.27
244.157	2678.19
249.019	2980.67
253.88	3328.14
258.738	3060.09
263.593	1969.61
268.446	1278.81
273.297	1340.63
278.145	1629.96
282.991	1965.69
287.834	2346.71
292.674	3169.91
297.512	4016.78
302.348	5748.1
307.181	7712.11
312.012	10567.5
316.84	14162.7
321.665	17057.3
326.488	17622.7
331.309	16159.4
336.127	14264
340.943	12481.2
345.756	11637.3
350.567	10782.9
355.375	9330.11
360.18	7572.16
364.983	6148.5
369.784	4578.92
374.582	3889.35
379.378	3444.7
384.171	3078.88
388.961	2666.79
393.75	2029.37
398.535	1478.58
403.318	998.37
408.099	589.717
412.877	572.58
417.652	508.92
422.425	312.694
427.196	389.867
431.964	54.3994
436.729	124.231
441.492	23.3057
446.253	94.0195
451.01	106.898
455.766	32.9463
460.519	189.722
465.269	243.906
470.017	383.769
474.762	374.462
479.505	443.833
484.245	739.413
488.983	1428.14
493.718	2470.23
498.451	4860.02
503.181	7224.67
507.909	7068.85
512.634	5066.53
517.356	3818.66
522.077	3251.22
526.794	3035.2
531.509	3246.59
536.221	2687.34
540.931	2807.47
545.639	2513.96
550.344	2414.8
555.046	2438.78
559.746	2068.5
564.443	2209.36
569.138	2080.55
573.83	1740.49
578.52	1358.86
583.207	873.607
587.891	318.081
592.573	19.1982
597.253	290.984
601.93	181.559
606.604	417.525
611.276	320.033
615.945	558.841
620.612	846.254
625.276	1346.28
629.938	2124.37
634.597	3318.87
639.254	5236.85
643.908	8661.32
648.559	14346.4
653.208	24339
657.855	39822.3
662.499	53190.4
667.14	51032.2
671.779	34204.9
676.415	19080.5
681.049	10993.1
685.68	6955.69
690.308	5165.44
694.934	4470.39
699.558	4310.59
704.179	4473.14
708.797	4770.1
713.413	4329.95
718.026	3497.61
722.637	2049.37
727.245	969.936
731.85	174.964
736.453	344.326
741.054	538.994
745.652	407.753
750.247	253.465
754.84	38.2461
759.43	221.84
764.017	242.576
768.602	478.303
773.185	690.463
777.765	787.174
782.342	794.532
786.917	613.316
791.489	664.627
796.059	796.559
800.626	676.204
805.191	985.65
809.753	1155.98
814.312	1528.29
818.869	1647.84
823.423	1664.14
827.975	1768.84
832.524	1523.83
837.07	1191.17
841.614	791.934
846.156	821.189
850.695	545
855.231	634.425
859.765	693.524
864.296	737.404
868.824	798.06
873.35	650.755
877.874	707.934
882.395	968.139
886.913	1079.37
891.428	1464.63
895.942	1451.19
900.452	1547.61
904.96	1766.52
909.465	2163.93
913.968	2229.34
918.468	2704.67
922.966	3221.9
927.461	3536.12
931.953	3644.75
936.443	3566.44
940.931	3640.39
945.415	3621.8
949.897	3679.66
954.377	3795.87
958.854	4045.32
963.328	4415.94
967.8	4968.69
972.269	5874.5
976.736	7255.3
981.2	8969.05
985.661	11679.7
990.12	16069.1
994.576	23241.4
999.03	32839.2
1003.48	44440.7
1007.93	50228.2
1012.38	42813.8
1016.82	27303.8
1021.26	16241.2
1025.7	10918
1030.13	8681.33
1034.57	7350.69
1039	6700.43
1043.42	5920.03
1047.85	4947.86
1052.27	4441.29
1056.69	3773.69
1061.11	3503.72
1065.53	3012.28
1069.94	2786.88
1074.35	2575.21
1078.75	2572.61
1083.16	2489.54
1087.56	2294.57
1091.96	2268.57
1096.36	2063.75
1100.75	1952.43
1105.14	1910.47
1109.53	1735.59
1113.92	1513.75
1118.3	1534.35
1122.68	1192.34
1127.06	1158.86
1131.44	728.14
1135.81	369.257
1140.18	43.2334
1144.55	86.3926
1148.91	314.774
1153.28	343.329
1157.64	186.304
1161.99	224.822
1166.35	301.758
1170.7	96.4951
1175.05	51.0176
1179.4	45.1387
1183.74	90.79
1188.09	57.5342
1192.42	195.643
1196.76	85.6426
1201.1	296.274
1205.43	270.114
1209.76	261.397
1214.08	377.773
1218.41	524.305
1222.73	480.19
1227.05	500.741
1231.36	512.941
1235.68	656.832
1239.99	640.454
1244.3	713.745
1248.6	720.736
1252.9	843.435
1257.2	728.87
1261.5	805.031
1265.8	857.958
1270.09	924.674
1274.38	949.335
1278.67	772.471
1282.95	692.843
1287.23	782.287
1291.51	799.982
1295.79	663.193
1300.06	590.595
1304.34	558.894
1308.61	520.628
1312.87	429.326
1317.13	430.772
1321.4	575.237
1325.65	585.955
1329.91	631.144
1334.16	464.218
1338.41	524.365
1342.66	502.371
1346.91	475.882
1351.15	368.583
1355.39	472.592
1359.63	436.922
1363.87	483.63
1368.1	503.079
1372.33	359.625
1376.56	444.179
1380.78	418.497
1385	530.922
1389.22	470.986
1393.44	485.69
1397.65	363.13
1401.86	522.921
1406.07	391.696
1410.28	500.652
1414.48	517.713
1418.68	561.887
1422.88	346.743
1427.08	492.042
1431.27	416.082
1435.46	396.106
1439.65	346.528
1443.84	310.43
1448.02	154.406
1452.2	220.84
1456.38	174.784
1460.55	157.856
1464.72	107.348
1468.89	101.018
1473.06	53.1602
1477.22	70.8838
1481.39	98.3232
1485.55	20.5781
1489.7	49.6377
1493.86	140.452
1498.01	23.9512
1502.16	116.978
1506.3	204.581
1510.44	195.077
1514.59	41.544
1518.72	103.145
1522.86	76.0371
1526.99	101.282
1531.12	41.6768
1535.25	52.6533
1539.38	279.671
1543.5	124.772
1547.62	153.84
1551.74	89.9648
1555.85	191.936
1559.96	81.4834
1564.07	0
