Measurement: Raman, 514 nm, ccw, Raman Data Processed
Mineral: Augite
Rruff sample: R070231
Ideal chemistry: (Ca,Mg,Fe)_2_(Si,Al)_2_O_6_
Locality: Old Goose Creek Quarry, Leesburg, Loudoun County, Virginia, USA
Source: Michael Scott
Description: Very dark grey-green prismatic crystals frozen in quartz
Measured chemistry: (Mg_0.44_Fe_0.37_Ca_0.17_Ti_0.01_Mn_0.01_)_Σ=1_(Si_0.98_Al_0.02_)_Σ=1_O_3_
Pin_id: M00357
Orientation: Laser parallel to b* (0 1 0). Fiducial mark perpendicular to laser is parallel to c [0 0 1]
Raman shift (cm-1)	intensity
132.542	0
137.485	182.512
142.425	375.635
147.362	1471.89
152.296	1317.21
157.228	128.24
162.156	337.591
167.082	906.144
172.005	1803.79
176.925	1962.18
181.842	1806.32
186.757	1992.51
191.668	2004.55
196.577	2241.59
201.483	1968.01
206.386	1952.62
211.286	2334.19
216.183	3186.77
221.078	3203.38
225.969	3091.18
230.858	2061.26
235.744	1581.43
240.628	670.141
245.508	330.829
250.386	47.1807
255.26	32.8418
260.132	114.522
265.001	33.669
269.868	30.7627
274.731	374.53
279.592	339.703
284.45	803.347
289.305	1157.07
294.157	2030.16
299.007	2771.18
303.854	4359.34
308.698	6643.83
313.539	9120.31
318.377	10737.7
323.213	10073
328.046	7952.03
332.876	6533.48
337.703	6190.34
342.527	6015.72
347.349	6369.2
352.168	6236.42
356.984	6022
361.797	5417.59
366.608	5036.24
371.415	5107.94
376.22	5883.65
381.023	6979.28
385.822	7311.56
390.619	5949.39
395.413	4131.9
400.204	2249.34
404.992	1366.99
409.778	957.78
414.561	897.599
419.341	933.747
424.118	851.844
428.893	939.23
433.665	695.008
438.434	298.913
443.201	165.504
447.964	14.4805
452.725	101.828
457.483	272.438
462.239	221.047
466.991	222.877
471.741	154.115
476.489	192.685
481.233	430.062
485.975	583.335
490.714	1168.76
495.45	1972.53
500.184	2835.72
504.915	3517.31
509.643	3381.31
514.368	3344.74
519.091	3941.57
523.811	4343.84
528.528	4696.57
533.243	4742.9
537.955	4528.97
542.664	4233.18
547.37	4200.7
552.074	4367.67
556.775	4106.97
561.473	3666.72
566.169	2993.2
570.862	1986.85
575.552	1319.27
580.24	712.572
584.925	32.6855
589.607	233.49
594.286	289.615
598.963	379.187
603.637	167.185
608.309	97.7207
612.977	324.029
617.643	815.28
622.307	1317.85
626.967	1980.71
631.625	2843.41
636.281	4352.4
640.933	6488.53
645.583	9786.84
650.231	15467.4
654.875	25112.2
659.517	38552.3
664.157	44207.9
668.793	34401.7
673.427	20332
678.059	11944.8
682.687	7783.19
687.313	5840.81
691.937	5282.34
696.557	5390.3
701.175	5846.08
705.791	6550.96
710.403	7219.48
715.014	7705.25
719.621	7738.8
724.226	7602.75
728.828	7056.17
733.428	6223.49
738.025	5101.33
742.619	4068.65
747.21	3025.18
751.799	2508.16
756.386	1914.42
760.969	1778.85
765.551	1666.48
770.129	1483.91
774.705	1632.13
779.278	1513.19
783.849	1390.15
788.417	1189.06
792.982	955.961
797.545	723.902
802.105	477.548
806.663	339.079
811.217	127.394
815.77	99.9053
820.319	1.6543
824.867	57.5635
829.411	146.364
833.953	309.549
838.492	139.605
843.029	425.566
847.563	147.308
852.094	836.46
856.623	1474.12
861.15	1113.4
865.673	974.943
870.194	612.768
874.713	570.315
879.229	713.269
883.742	928.171
888.253	1214.32
892.761	1387.62
897.267	1523.12
901.77	1664.87
906.27	1839.95
910.768	2351.33
915.263	2523.07
919.756	2753.61
924.246	2776.74
928.734	2552.32
933.219	2368.83
937.701	2341.09
942.181	2118.02
946.658	2133.58
951.133	2282.71
955.605	2332.11
960.075	2656.92
964.542	2909.26
969.006	3547.58
973.468	4313.8
977.928	5745.91
982.385	9006.28
986.839	13032.2
991.291	15510.5
995.74	15775.2
1000.19	18235.2
1004.63	25330.5
1009.07	35082.9
1013.51	33732.2
1017.95	20277.6
1022.38	11931.5
1026.81	8985.34
1031.24	7995.21
1035.67	7634.82
1040.09	7054.26
1044.51	6356.09
1048.93	5541.47
1053.35	4958.78
1057.76	4276.6
1062.17	3658.59
1066.58	2831.17
1070.99	2514.91
1075.39	2166.89
1079.79	1838.95
1084.19	1627.07
1088.59	1495.47
1092.98	1337.53
1097.37	1351.33
1101.76	988.645
1106.15	992.812
1110.53	906.974
1114.91	757.879
1119.29	657.023
1123.67	703.417
1128.04	466.22
1132.41	326.541
1136.78	189.93
1141.15	12.209
1145.51	109.402
1149.87	24.333
1154.23	72.6191
1158.59	97.9141
1162.94	120.345
1167.29	91.417
1171.64	39.6328
1175.98	128.635
1180.33	27.918
1184.67	23.3516
1189.01	120.892
1193.34	10.4111
1197.68	25.2402
1202.01	243.616
1206.34	254.692
1210.66	175.621
1214.99	248.163
1219.31	276.474
1223.63	202.542
1227.94	366.377
1232.26	321.995
1236.57	353.414
1240.88	280.668
1245.19	458.106
1249.49	441.918
1253.79	353.524
1258.09	513.577
1262.39	273.169
1266.68	495.21
1270.97	520.951
1275.26	534.231
1279.55	443.691
1283.84	521.225
1288.12	398.135
1292.4	274.07
1296.67	303.333
1300.95	481.984
1305.22	309.173
1309.49	257.464
1313.76	209.477
1318.03	260.753
1322.29	317.769
1326.55	318.803
1330.81	306.719
1335.06	253.795
1339.31	170.3
1343.56	287.927
1347.81	285.92
1352.06	261.797
1356.3	231.386
1360.54	267.807
1364.78	187.65
1369.02	187.945
1373.25	156.724
1377.48	197.697
1381.71	135.322
1385.94	149.609
1390.16	202.055
1394.38	114.806
1398.6	205.193
1402.82	168.764
1407.03	207.843
1411.24	168.536
1415.45	130.773
1419.66	177.405
1423.87	151.703
1428.07	283.472
1432.27	366.447
1436.46	261.656
1440.66	126.498
1444.85	277.391
1449.04	227.791
1453.23	241.157
1457.42	293.657
1461.6	75.5098
1465.78	196.636
1469.96	235.981
1474.14	145.112
1478.31	324.474
1482.48	203.65
1486.65	143.698
1490.82	28.9551
1494.98	222.037
1499.14	160.536
1503.3	152.453
1507.46	73.6865
1511.61	186.231
1515.77	19.3838
1519.92	153.225
1524.06	54.8584
1528.21	101.368
1532.35	128.869
1536.49	52.4141
1540.63	51.8867
1544.77	63.9062
1548.9	72.2051
1553.03	161.422
1557.16	141.516
1561.29	151.789
1565.41	5.31738
1569.53	53.7432
