Measurement: Raman, 514 nm, ccw, Raman Data Processed
Mineral: Augite
Rruff sample: R070231
Ideal chemistry: (Ca,Mg,Fe)_2_(Si,Al)_2_O_6_
Locality: Old Goose Creek Quarry, Leesburg, Loudoun County, Virginia, USA
Source: Michael Scott
Description: Very dark grey-green prismatic crystals frozen in quartz
Measured chemistry: (Mg_0.44_Fe_0.37_Ca_0.17_Ti_0.01_Mn_0.01_)_Σ=1_(Si_0.98_Al_0.02_)_Σ=1_O_3_
Pin_id: M00250
Orientation: Laser parallel to (-1 0 -1). Fiducial mark perpendicular to laser is parallel to b [0 1 0]
Raman shift (cm-1)	intensity
144.894	0
149.83	113.833
154.762	436.432
159.692	31.8848
164.62	301.881
169.544	386.265
174.465	443.021
179.384	862.764
184.3	1258.12
189.213	1498.82
194.123	1192.64
199.03	866.919
203.934	589.138
208.836	25.6172
213.735	211.602
218.631	386.559
223.524	763.24
228.414	1154.16
233.302	1464.87
238.186	1311.22
243.068	1221.37
247.947	1268.3
252.823	1218.53
257.697	1157.14
262.567	553.571
267.435	385.839
272.3	402.938
277.162	414.862
282.021	415.627
286.878	611.645
291.732	943.021
296.583	1502.33
301.431	2423.97
306.276	3986.97
311.119	6087.81
315.958	8794.02
320.795	11787.3
325.629	12571.4
330.461	9831.26
335.289	6197.31
340.115	4501.86
344.938	3479.68
349.759	3391.16
354.576	3319.54
359.391	2856.26
364.203	2242.06
369.012	2093.03
373.818	2041.2
378.622	2250.64
383.423	2632.59
388.221	3045.1
393.016	3073.44
397.809	2345.6
402.598	1305.58
407.386	632.393
412.17	218.987
416.951	32.2685
421.73	26.7383
426.506	6.31348
431.279	38.4629
436.05	41.7022
440.818	101.333
445.583	54.3281
450.345	10.3994
455.105	74.6299
459.861	258.661
464.615	232.773
469.367	133.135
474.115	178.227
478.861	57.4336
483.604	174.315
488.345	273.001
493.082	818.474
497.817	1383.7
502.55	2609.73
507.279	3475.48
512.006	3018.88
516.73	1923.91
521.451	1596.56
526.17	1527.82
530.886	1661.67
535.599	1682.13
540.31	1255.16
545.017	1189.78
549.723	1524.97
554.425	1874.37
559.125	2251.25
563.822	1239.65
568.516	843.729
573.207	721.182
577.896	522.577
582.583	47.1523
587.266	100.469
591.947	25.1367
596.625	3.55762
601.3	238.978
605.973	308.403
610.643	480.842
615.311	902.309
619.975	1332.74
624.637	2054.73
629.297	2437.94
633.953	3242.25
638.607	4388.92
643.259	6464.99
647.907	9779.47
652.553	16909.3
657.197	27960.7
661.837	41188.5
666.475	44222.7
671.111	32607.2
675.743	20286.3
680.373	11500.7
685.001	6285.64
689.625	3892.03
694.247	2338.9
698.867	1648.31
703.483	1268.33
708.097	834.216
712.709	618.919
717.318	395.321
721.924	182.514
726.527	18.832
731.128	62.4893
735.726	74.3135
740.322	158.275
744.915	121.061
749.505	135.269
754.093	49.8838
758.678	13.6416
763.26	38.5098
767.84	14.9023
772.417	233.349
776.992	107.436
781.564	157.394
786.133	221.252
790.7	317.039
795.264	103.781
799.825	156.505
804.384	203.244
808.94	68.0332
813.494	504.9
818.045	721.875
822.593	1091.98
827.139	1410.26
831.682	1098.71
836.223	918.385
840.761	615.294
845.296	404.459
849.829	410.901
854.359	378.64
858.887	401.699
863.412	179.462
867.934	251.894
872.454	249.523
876.971	296.844
881.486	455.909
885.998	209.278
890.507	442.45
895.014	429.521
899.518	405.968
904.02	658.043
908.519	842.776
913.016	935.774
917.51	1453.7
922.001	1367.95
926.49	1373.85
930.976	1320.74
935.46	1316.7
939.941	1189.88
944.42	1171
948.896	1347.17
953.369	1522.27
957.84	1755.2
962.309	2134.12
966.774	2833.85
971.238	3784.41
975.698	5072.83
980.156	7511.09
984.612	11752.2
989.065	18409
993.516	24870.7
997.964	28583.1
1002.41	32984.8
1006.85	43511
1011.29	49727.1
1015.73	39257.4
1020.16	20464.1
1024.6	11181
1029.03	7181.54
1033.46	5707.97
1037.88	4948.72
1042.3	4649.2
1046.72	3941.78
1051.14	2894.77
1055.56	2128.3
1059.97	1383.56
1064.38	1149.04
1068.79	900.87
1073.19	882.644
1077.59	866.038
1081.99	1177.27
1086.39	805.139
1090.79	703.967
1095.18	698.32
1099.57	480.414
1103.95	435.216
1108.34	455.381
1112.72	484.542
1117.1	360.495
1121.48	676.769
1125.85	580.694
1130.23	328.922
1134.6	300.996
1138.96	146.472
1143.33	129.622
1147.69	177.194
1152.05	46.6055
1156.41	95.7119
1160.76	73.4102
1165.11	12.4951
1169.46	86.1162
1173.81	67.1094
1178.16	15.6094
1182.5	10.7832
1186.84	133.585
1191.18	61.5205
1195.51	45.834
1199.84	255.375
1204.17	111.664
1208.5	67.9883
1212.83	70.9863
1217.15	218.701
1221.47	119.377
1225.79	258.115
1230.1	146.172
1234.41	186.519
1238.73	332.029
1243.03	216.805
1247.34	353.908
1251.64	312.324
1255.94	278.045
1260.24	231.231
1264.54	442.609
1268.83	237.846
1273.12	246.852
1277.41	360.205
1281.69	376.848
1285.98	682.859
1290.26	371.371
1294.54	337.684
1298.81	382.867
1303.09	504.988
1307.36	494.008
1311.63	331.94
1315.89	429.385
1320.16	507.928
1324.42	451.383
1328.68	356.717
1332.93	417.26
1337.19	416.397
1341.44	514.242
1345.69	519.406
1349.94	537.99
1354.18	413.986
1358.42	512.992
1362.66	367.627
1366.9	398.016
1371.13	393.41
1375.37	288.586
1379.6	169.656
1383.82	65.5586
1388.05	388.49
1392.27	249.394
1396.49	160.598
1400.71	273.883
1404.92	124.268
1409.14	15.8633
1413.35	302.496
1417.56	64.3164
1421.76	189.082
1425.97	208.969
1430.17	110.857
1434.37	268.805
1438.56	297.685
1442.76	412.816
1446.95	248.152
1451.14	208.754
1455.33	260.992
1459.51	309.762
1463.69	30.877
1467.87	241.16
1472.05	156.787
1476.22	153.449
1480.4	26.0938
1484.57	204.287
1488.73	191.537
1492.9	167.363
1497.06	71.3027
1501.22	132.307
1505.38	57.6328
1509.54	57.6191
1513.69	30.2461
1517.84	138.217
1521.99	151.475
1526.14	188.648
1530.28	92.4824
1534.42	184.002
1538.56	281.402
1542.7	275.91
1546.83	179.299
1550.97	214.148
1555.1	681.213
1559.22	124.799
1563.35	73.8496
1567.47	259.916
