Measurement: Raman, 514 nm, ccw, Raman Data Processed
Mineral: Augite
Rruff sample: R061108
Ideal chemistry: (Ca,Mg,Fe)_2_(Si,Al)_2_O_6_
Locality: Monti Rossi, near Mt. Etna, Sicily, Italy
Source: Michael Scott
Description: Euhedral, short prismatic, black crystals in vesicular basalt.
Measured chemistry: (Ca_0.86_Mg_0.74_Fe^2+^_0.18_Fe^3+^_0.08_Al_0.05_Ti_0.04_Na_0.04_Mn_0.01_)_Σ=2_(Si_1.83_Al_0.17_)_Σ=2_O_6_
Pin_id: L01693
Orientation: Laser parallel to -c* (0 0 -1). Fiducial mark perpendicular to laser is parallel to a [1 0 0]
Raman shift (cm-1)	intensity
158.697	0
163.633	5.8457
168.567	259.901
173.497	412.32
178.424	614.634
183.348	647.032
188.269	851.086
193.187	1124.42
198.102	1464.18
203.014	1756.83
207.923	1236.19
212.829	1951.66
217.732	2699.69
222.632	2882.65
227.528	2774.54
232.422	2372.59
237.313	1977.36
242.201	1556.49
247.085	1252.54
251.967	978.213
256.846	584.472
261.722	160.685
266.594	259.242
271.464	146.295
276.331	85.6221
281.194	247.273
286.055	917.38
290.913	2045.29
295.768	3310.03
300.62	5230.6
305.469	8096.19
310.315	11705.7
315.158	16402.9
319.998	20121.3
324.835	21762.8
329.669	20224.3
334.5	16206.6
339.328	12578.1
344.154	9792.98
348.976	8144.27
353.795	7726.18
358.612	7338.32
363.425	7594.04
368.236	8995.54
373.044	11424.9
377.849	15477.8
382.651	21797.2
387.45	27287.1
392.246	27549.4
397.039	21842.8
401.829	13782.4
406.617	7267.94
411.401	4028.34
416.183	2460.21
420.962	1758.33
425.738	1320.57
430.511	815.206
435.281	493.279
440.048	155.258
444.812	23.4795
449.574	79.3076
454.333	48.2363
459.089	303.822
463.842	734.947
468.592	685.363
473.339	960.153
478.084	1252.38
482.825	1336.77
487.564	1607.67
492.3	1513.67
497.033	1657.57
501.763	2019.82
506.491	2538.52
511.216	2927.59
515.938	3721.94
520.657	4605.48
525.373	5145.14
530.086	5561.4
534.797	5157.46
539.505	4811.98
544.21	4499.41
548.912	4275.4
553.612	4103.19
558.308	4112.72
563.002	3799.96
567.693	3356.74
572.382	2920.96
577.067	2323.69
581.75	1616.76
586.43	925.36
591.108	379.435
595.782	55.1318
600.454	118.956
605.123	160.932
609.789	10.2588
614.453	38.0244
619.114	62.2783
623.772	223.815
628.427	492.272
633.08	878.574
637.73	1616.62
642.377	2709.54
647.021	4676.38
651.663	8132.18
656.302	13934
660.939	20154.9
665.572	22710.9
670.203	18087
674.831	11112.4
679.457	6301.14
684.08	3574.24
688.7	2208.78
693.317	1334.85
697.932	780.54
702.544	505.916
707.153	107.071
711.76	136.03
716.364	202.506
720.965	336.769
725.564	410.435
730.16	491.448
734.754	349.882
739.344	83.1963
743.932	140.934
748.518	439.888
753.101	1178.78
757.681	1747.82
762.258	2311.49
766.833	3224.36
771.405	2883.12
775.975	2781.81
780.542	2512.25
785.106	2115.44
789.668	1951.52
794.227	1980.62
798.783	2086.9
803.337	2395.48
807.889	2870.5
812.437	3124.09
816.983	3250.37
821.527	2948.48
826.067	2475.53
830.606	2102.65
835.141	2043.95
839.674	1894.56
844.205	1942.59
848.733	2193.17
853.258	2428.97
857.781	2558.31
862.301	2243.02
866.819	2036.07
871.334	1783.52
875.846	1970.42
880.356	1957.34
884.863	2099.24
889.368	2054.21
893.87	2229.4
898.37	2210.64
902.867	2320.4
907.362	2235.61
911.854	2412.98
916.344	2631.26
920.831	2827.13
925.315	2989.73
929.797	2790.82
934.276	2690.44
938.753	2542.41
943.228	2283.41
947.699	2301.13
952.169	2395.84
956.636	2936.64
961.1	3385.49
965.562	4160.42
970.021	4929.32
974.478	6433.15
978.932	7768.81
983.384	10128.3
987.833	13607
992.28	19293.5
996.725	27732.9
1001.17	37844.4
1005.61	45737.9
1010.04	44168.5
1014.48	32222.2
1018.91	19532.6
1023.34	12739.6
1027.77	9857.93
1032.19	8815.67
1036.61	8323.08
1041.03	7380.31
1045.45	6621.44
1049.86	5194.07
1054.28	4333.71
1058.69	3551.24
1063.09	2864.56
1067.5	2422.95
1071.9	2204.15
1076.3	1858.64
1080.7	1859.6
1085.1	1676.8
1089.49	1693.83
1093.88	1593.36
1098.27	1399.62
1102.65	1573.31
1107.04	1687.96
1111.42	1353.53
1115.79	1494.35
1120.17	1289.62
1124.54	867.199
1128.91	657.161
1133.28	299.741
1137.65	63.96
1142.01	165.533
1146.38	270.174
1150.73	339.755
1155.09	210.397
1159.45	352.098
1163.8	236.044
1168.15	146.914
1172.5	140.538
1176.84	10.2207
1181.18	67.0342
1185.52	126.16
1189.86	55.0625
1194.2	307.098
1198.53	248.869
1202.86	374.151
1207.19	427.522
1211.52	301.25
1215.84	572.23
1220.16	616.705
1224.48	539.602
1228.8	584.125
1233.11	732.039
1237.42	798.229
1241.73	679.202
1246.04	699.137
1250.35	881.371
1254.65	896.963
1258.95	945.128
1263.25	1038.76
1267.54	885.716
1271.84	1082.36
1276.13	1024.85
1280.42	978.065
1284.7	826.385
1288.99	846.927
1293.27	636.789
1297.55	637.361
1301.83	612.332
1306.1	590.721
1310.38	758.476
1314.65	441.685
1318.91	547.064
1323.18	640.722
1327.44	482.32
1331.71	645.011
1335.97	561.045
1340.22	525.199
1344.48	590.938
1348.73	569.643
1352.98	544.549
1357.23	403.327
1361.47	524.573
1365.72	483.799
1369.96	414.152
1374.2	439.852
1378.43	407.753
1382.67	500.389
1386.9	441.027
1391.13	293.788
1395.36	311.59
1399.59	215.102
1403.81	252.172
1408.03	172.243
1412.25	237.414
1416.47	316.658
1420.68	11.1621
1424.89	116.799
1429.1	112.22
1433.31	126.47
1437.52	134.398
1441.72	165.101
1445.92	63.7217
1450.12	134.849
1454.32	98.9805
1458.51	33.2715
1462.7	49.4893
1466.89	175.83
1471.08	24.3809
1475.27	60.2969
1479.45	5.26172
1483.63	192.81
1487.81	49.2451
1491.99	22.1816
1496.16	41.3018
1500.34	161.286
1504.51	212.486
1508.68	236.832
1512.84	281.259
1517.01	213.764
1521.17	149.54
1525.33	231.649
1529.49	242.485
1533.64	105.033
1537.8	135.05
1541.95	161.445
1546.1	46.8438
1550.24	130.279
1554.39	119.472
1558.53	16.6592
1562.67	53.1621
