Measurement: Raman, 514 nm, ccw, Raman Data Processed
Mineral: Augite
Rruff sample: R061086
Ideal chemistry: (Ca,Mg,Fe)_2_(Si,Al)_2_O_6_
Locality: Boreslav, Teplitz, Bohemia, Czech Republic
Source: Michael Scott
Description: Black to dark green tabular euhedral crystal
Measured chemistry: (Ca_0.88_Mg_0.83_Fe_0.13_Al_0.08_Na_0.04_Ti_0.03_Cr_0.01_)_Σ=2_(Si_1.89_Al_0.11_)_Σ=2_O_6_
Pin_id: M00162
Orientation: Laser parallel to c* (0 0 1). Fiducial mark perpendicular to laser is parallel to a [1 0 0]
Raman shift (cm-1)	intensity
166.18	0
171.102	30.3852
176.021	68.3357
180.937	71.0381
185.85	117.742
190.76	251.772
195.668	247.715
200.572	213.765
205.474	16.7529
210.374	5.5105
215.27	52.8901
220.163	117.987
225.054	118.306
229.942	157.035
234.827	113.141
239.709	31.8306
244.589	114.761
249.465	95.8396
254.339	104.118
259.21	243.945
264.079	109.168
268.944	18.8843
273.807	2.79175
278.667	93.4853
283.524	135.163
288.378	114.612
293.23	193.595
298.079	311.996
302.925	398.137
307.768	537.243
312.609	767.856
317.446	992.659
322.281	1222.89
327.113	1437.66
331.943	1258.65
336.769	1037.47
341.593	820.394
346.414	904.636
351.233	927.057
356.048	963.523
360.861	818.258
365.671	819.129
370.478	642.13
375.283	691.253
380.084	779.489
384.883	1061.83
389.68	1309.26
394.473	1342.78
399.264	929.392
404.052	447.078
408.837	213.84
413.62	63.5964
418.4	56.4956
423.177	38.4553
427.951	23.4712
432.722	8.5376
437.491	57.6504
442.257	4.81592
447.021	17.4138
451.781	4.09912
456.539	26.9482
461.294	0.805908
466.047	36.3662
470.797	198.354
475.544	66.55
480.288	50.5618
485.03	15.0342
489.768	1.4646
494.504	30.8689
499.238	109.288
503.969	90.6743
508.697	149.014
513.422	203.301
518.144	172.528
522.864	280.689
527.582	288.778
532.296	289.79
537.008	296.717
541.717	300.555
546.423	315.298
551.127	281.942
555.828	331.48
560.526	355.909
565.222	196.222
569.915	192.499
574.605	105.649
579.292	81.0054
583.977	59.2444
588.659	93.5798
593.339	21.739
598.016	2.93335
602.69	14.6445
607.361	27.9993
612.03	31.9661
616.696	152.154
621.359	122.653
626.02	150.029
630.678	211.057
635.333	286.852
639.986	334.413
644.636	570.739
649.284	899.829
653.928	1477.68
658.57	2785.9
663.21	4160.47
667.846	4215.84
672.481	2651.75
677.112	1429.44
681.741	783.9
686.367	434.131
690.99	248.138
695.611	170.923
700.229	149.488
704.845	57.8384
709.458	89.9729
714.068	37.8957
718.676	30.9277
723.281	63.6257
727.883	16.7124
732.483	34.2756
737.08	11.5227
741.674	28.718
746.266	7.14624
750.855	53.5574
755.442	79.1099
760.025	116.149
764.607	164.593
769.185	238.94
773.761	283.198
778.335	266.374
782.906	248.478
787.474	180.52
792.039	239.513
796.602	148.466
801.162	108.388
805.72	136.292
810.275	141.185
814.828	172.079
819.378	195.982
823.925	112.904
828.47	119.096
833.012	112.276
837.551	140.477
842.088	101.899
846.622	63.0649
851.154	171.043
855.683	238.685
860.209	394.863
864.733	289.512
869.254	212.565
873.773	189.019
878.289	152.663
882.803	174.599
887.314	144.637
891.822	91.4497
896.328	144.11
900.831	94.1201
905.332	106.019
909.83	121.355
914.325	110.52
918.818	172.202
923.308	205.618
927.796	242.377
932.281	144.61
936.764	242.119
941.244	152.971
945.721	163.106
950.196	276.526
954.668	250.247
959.138	205.299
963.605	309.652
968.07	293.331
972.532	466.328
976.991	480.634
981.448	656.242
985.903	809.176
990.355	976.414
994.804	1526.04
999.251	2366.89
1003.7	3656.29
1008.14	4679.85
1012.58	4319.57
1017.01	2594.95
1021.45	1498.67
1025.88	992.234
1030.31	788.588
1034.73	686.271
1039.16	698.747
1043.58	675.472
1048	508.332
1052.41	514.743
1056.83	362.403
1061.24	245.987
1065.65	174.282
1070.05	230.699
1074.46	115.665
1078.86	248.468
1083.26	198.794
1087.65	203.842
1092.05	188.946
1096.44	214.567
1100.83	182.747
1105.21	188.446
1109.6	144.079
1113.98	164.066
1118.36	145.708
1122.73	194.736
1127.1	172.675
1131.47	134.073
1135.84	40.6177
1140.21	35.1221
1144.57	9.53174
1148.93	145.131
1153.29	63.0195
1157.65	112.013
1162	61.5215
1166.35	61.5933
1170.7	102.565
1175.05	119.387
1179.39	11.1006
1183.73	114.22
1188.07	77.853
1192.41	30.7061
1196.74	20.3213
1201.07	15.7471
1205.4	80.0259
1209.72	30.0967
1214.05	97.0835
1218.37	73.7935
1222.69	7.29248
1227.01	37.6538
1231.32	156.702
1235.63	17.5513
1239.94	18.2261
1244.24	4.66748
1248.55	133.911
1252.85	33.9346
1257.15	59.77
1261.44	91.4111
1265.74	108.439
1270.03	155.088
1274.32	105.219
1278.61	141.906
1282.89	48.3369
1287.17	86.5308
1291.45	60.9312
1295.73	172.553
1300	155.702
1304.27	110.624
1308.54	66.4341
1312.81	71.1445
1317.08	103.957
1321.34	127.166
1325.6	88.0723
1329.85	87.9829
1334.11	69.0762
1338.36	187.947
1342.61	134.916
1346.86	168.265
1351.1	57.1128
1355.35	138.433
1359.59	117.538
1363.82	41.8525
1368.06	135.247
1372.29	187.33
1376.52	93.5957
1380.75	91.9458
1384.97	128.982
1389.2	44.2417
1393.42	128.462
1397.64	25.3936
1401.85	143.441
1406.07	176.647
1410.28	2.89453
1414.49	76.1489
1418.69	124.053
1422.9	47.1011
1427.1	128.356
1431.3	110.904
1435.49	20.0859
1439.69	154.776
1443.88	97.8769
1448.07	139.253
1452.26	21.5962
1456.44	208.02
1460.62	27.6562
1464.8	35.3491
1468.98	21.1743
1473.15	71.1499
1477.33	138.982
1481.5	130.851
1485.66	42.7959
1489.83	57.9019
1493.99	65.1611
1498.15	91.4673
1502.31	85.1743
1506.47	113.538
1510.62	80.4385
1514.77	160.2
1518.92	174.181
1523.07	189.097
1527.21	152.627
1531.35	75.7832
1535.49	118.082
1539.63	145.392
1543.76	130.652
1547.9	131.798
1552.03	19.6543
1556.15	0
