Measurement: Raman, 514 nm, ccw, Raman Data Processed
Mineral: Augite
Rruff sample: R070231
Ideal chemistry: (Ca,Mg,Fe)_2_(Si,Al)_2_O_6_
Locality: Old Goose Creek Quarry, Leesburg, Loudoun County, Virginia, USA
Source: Michael Scott
Description: Very dark grey-green prismatic crystals frozen in quartz
Measured chemistry: (Mg_0.44_Fe_0.37_Ca_0.17_Ti_0.01_Mn_0.01_)_Σ=1_(Si_0.98_Al_0.02_)_Σ=1_O_3_
Pin_id: M00062
Orientation: Laser parallel to -c* (0 0 -1). Fiducial mark perpendicular to laser is parallel to a [1 0 0]
Raman shift (cm-1)	intensity
157.228	0
160.925	406.99
164.62	609.156
168.313	21.4648
172.005	18.8047
175.695	12.3984
179.384	587.346
183.071	1018.71
186.757	1717.65
190.44	1360.53
194.123	1265.34
197.803	1029.07
201.483	1602.3
205.16	800.016
208.836	938.981
212.51	1192.32
216.183	1190.42
219.854	1263.08
223.524	1552.99
227.192	1970.73
230.858	2405.64
234.523	2807.85
238.186	2358.37
241.848	2013.98
245.508	2713.19
249.166	3673.33
252.823	4445.62
256.479	4408.18
260.132	4674.13
263.784	2829.54
267.435	1917.44
271.084	1038.82
274.731	412.828
278.377	581.992
282.021	613.861
285.664	1129.39
289.305	1229.26
292.945	1320.81
296.583	1410.39
300.219	2045.83
303.854	2932.66
307.487	3758.66
311.119	4233.55
314.749	4875.62
318.377	5323.28
322.004	5038.65
325.629	4771.7
329.253	4402.09
332.876	4824.62
336.496	4161.1
340.115	4109.35
343.733	4072.28
347.349	3624.65
350.963	3785.47
354.576	2877.68
358.187	2324.27
361.797	1896.21
365.405	1594.44
369.012	1760.57
372.617	1535.51
376.22	1126.34
379.822	1277.13
383.423	1284.92
387.022	1209.78
390.619	749.723
394.215	96.7773
397.809	372.356
401.401	467.416
404.992	727.055
408.582	609.856
412.17	479.465
415.756	128.846
419.341	1044.07
422.924	1281.99
426.506	1139.91
430.086	894.367
433.665	504.502
437.242	217.15
440.818	355.316
444.392	413.881
447.964	538.902
451.535	810.387
455.105	1031.36
458.672	2162.82
462.239	3070.73
465.804	4786.08
469.367	4707.85
472.928	3668.05
476.489	2227.67
480.047	1403.7
483.604	694.156
487.16	910.037
490.714	975.369
494.266	1027.17
497.817	972.453
501.367	974.285
504.915	996.752
508.461	1455
512.006	1671.06
515.549	1822.34
519.091	2153.01
522.631	2902.88
526.17	2913.13
529.707	3446.43
533.243	4063.91
536.777	4852.34
540.31	5193.94
543.841	5551.64
547.37	5409.23
550.898	5252.65
554.425	5043.9
557.95	4254.29
561.473	3757.98
564.995	3012.38
568.516	2642.71
572.035	3132.03
575.552	2642.98
579.068	2715.4
582.583	3180.52
586.095	3521.37
589.607	4495.41
593.117	5553.33
596.625	6500.05
600.132	7584.83
603.637	9072.68
607.141	9774.6
610.643	9990.61
614.144	10396.7
617.643	10198.9
621.141	9671.09
624.637	8967.34
628.132	8459.9
631.625	7974.92
635.117	7406.28
638.607	7370.52
642.096	7186.36
645.583	6995.29
649.069	6920.33
652.553	7296.23
656.036	8037.45
659.517	9191.98
662.997	10196.8
666.475	10136.4
669.952	9057.5
673.427	7884.66
676.901	6500.2
680.373	5286.52
683.844	4514.05
687.313	3605.77
690.781	3246.87
694.247	2759.61
697.712	2533.38
701.175	2068.91
704.637	1776.64
708.097	1914.15
711.556	1663.42
715.014	1443.48
718.469	1486.4
721.924	1077.14
725.377	1359.62
728.828	1066.34
732.278	876.402
735.726	1093.65
739.173	1051.9
742.619	1018.93
746.063	923.387
749.505	878.684
752.946	787.391
756.386	522.41
759.824	444.457
763.26	432.723
766.695	387.457
770.129	409.203
773.561	30.8711
776.992	239.133
780.421	101.113
783.849	67.5352
787.275	209.859
790.7	125.602
794.123	268.086
797.545	306.219
800.965	278.246
804.384	58.3242
807.802	111.109
811.217	44.1016
814.632	75.6094
818.045	40.0469
821.456	432.852
824.867	357.988
828.275	387.469
831.682	316.301
835.088	813.453
838.492	819.965
841.895	1011.84
845.296	1588.08
848.696	2094.69
852.094	2544.67
855.491	2560.03
858.887	2701.17
862.281	2482.86
865.673	2436.34
869.064	2454.21
872.454	2015.44
875.842	1972.06
879.229	1600.06
882.614	1399.46
885.998	1011.25
889.38	872.438
892.761	926.027
896.14	799.035
899.518	883.418
902.895	1033.86
906.27	964.664
909.644	1379.96
913.016	1349.39
916.387	826.348
919.756	784.949
923.124	518.027
926.49	489.109
929.855	239.238
933.219	290.285
936.581	327.898
939.941	256.637
943.301	55.0078
946.658	290.234
950.015	0.035156
953.369	84.5352
956.723	361.434
960.075	339.352
963.425	357.266
966.774	366.512
970.122	500.867
973.468	711.055
976.813	983.738
980.156	1110.29
983.498	1469.89
986.839	1569.37
990.178	2246.75
993.516	2370.03
996.852	3012.24
1000.19	3453.39
1003.52	4923.5
1006.85	6576.53
1010.18	8820.52
1013.51	7970.45
1016.84	5388.31
1020.16	3433.1
1023.49	2509.84
1026.81	1780.3
1030.13	1840.68
1033.46	1347.57
1036.78	1309.36
1040.09	1744.61
1043.41	1653.56
1046.72	1208.64
1050.04	1225.1
1053.35	1409.75
1056.66	948.828
1059.97	1033.67
1063.28	989.055
1066.58	881.727
1069.89	867.414
1073.19	858.438
1076.49	574.688
1079.79	321.418
1083.09	597.035
1086.39	730.074
1089.69	545.746
1092.98	414.555
1096.28	473.625
1099.57	530.551
1102.86	612.703
1106.15	362.43
1109.43	483.473
1112.72	338.637
1116.01	420.809
1119.29	348.758
1122.57	312.723
1125.85	390
1129.13	263.379
1132.41	447.031
1135.69	421.289
1138.96	443.207
1142.24	267.07
1145.51	325.656
1148.78	130.816
1152.05	160.598
1155.32	80.457
1158.59	33.8203
1161.85	301.488
1165.11	61.6992
1168.38	73.9727
1171.64	198.227
1174.9	212.106
1178.16	235.266
1181.41	197.148
1184.67	210.652
1187.92	38.5312
1191.18	0.277344
1194.43	8.23438
1197.68	304.941
1200.93	5.48047
1204.17	5.65625
1207.42	181.512
1210.66	290.953
1213.91	184.914
1217.15	341.629
1220.39	314.664
1223.63	78.125
1226.87	345.352
1230.1	513.461
1233.34	403.246
1236.57	275.434
1239.8	283.965
1243.03	226.641
1246.26	216.383
1249.49	416.172
1252.72	503.074
1255.94	575.75
1259.17	548.027
1262.39	452.422
1265.61	270.18
1268.83	86.2891
1272.05	78.4258
1275.26	253.441
1278.48	284.965
1281.69	0
