Measurement: Raman, 514 nm, ccw, Raman Data Processed
Mineral: Augite
Rruff sample: R061108
Ideal chemistry: (Ca,Mg,Fe)_2_(Si,Al)_2_O_6_
Locality: Monti Rossi, near Mt. Etna, Sicily, Italy
Source: Michael Scott
Description: Euhedral, short prismatic, black crystals in vesicular basalt.
Measured chemistry: (Ca_0.86_Mg_0.74_Fe^2+^_0.18_Fe^3+^_0.08_Al_0.05_Ti_0.04_Na_0.04_Mn_0.01_)_Σ=2_(Si_1.83_Al_0.17_)_Σ=2_O_6_
Pin_id: L00942
Orientation: Laser parallel to -a* (-1 0 0). Fiducial mark perpendicular to laser is parallel to b [0 1 0]
Raman shift (cm-1)	intensity
159.881	0
164.786	411.547
169.689	868.951
174.59	1298.93
179.488	2026.08
184.384	2203.77
189.277	2504.61
194.168	2602.3
199.057	2313.28
203.942	1419.48
208.826	400.707
213.707	1022.5
218.585	1290.11
223.461	1402.4
228.335	1612.12
233.206	1554.83
238.074	1047.49
242.94	936.789
247.804	652.932
252.665	128.891
257.524	471.764
262.38	212.365
267.233	466.688
272.085	283.287
276.933	68.916
281.779	357.606
286.623	616.598
291.464	1176.56
296.303	2043.68
301.139	3243.74
305.973	4945.81
310.804	7261.87
315.633	10641
320.459	13694.5
325.283	15063.8
330.104	13736.9
334.923	11683.1
339.739	9800.16
344.553	8157.66
349.364	7294.23
354.173	6685.8
358.979	6346.31
363.783	5818.17
368.584	5818.74
373.383	6183.55
378.179	7160.61
382.973	8675.89
387.764	10366.3
392.553	9773.54
397.339	6920.94
402.123	4229.73
406.904	2190.03
411.682	1160.4
416.459	885.633
421.232	737.246
426.003	574.691
430.772	459.32
435.538	121.938
440.302	183.606
445.063	25.7188
449.821	101.32
454.577	80.1406
459.331	341.455
464.082	668.926
468.83	753.871
473.576	537.553
478.32	1031.79
483.06	901.199
487.799	1110
492.535	1501.95
497.268	2504.06
501.999	3937.36
506.727	4889.98
511.453	5283.97
516.176	5168.33
520.897	5714.03
525.615	6500.03
530.331	7300.32
535.044	7800.86
539.754	7493.69
544.462	6698.94
549.168	6389.62
553.871	6247.06
558.571	6002.83
563.269	6048.18
567.964	5854.06
572.657	5385.13
577.347	4347.87
582.035	3010.29
586.72	1719.88
591.403	659.119
596.083	249.848
600.761	94.7441
605.436	44.3516
610.108	43.7227
614.778	90.7754
619.446	623.777
624.111	719.111
628.773	1234.08
633.433	2271.71
638.09	3466.03
642.745	5508.03
647.397	9390.75
652.046	15556.2
656.693	26680.4
661.338	40388.3
665.98	42453
670.619	29870.6
675.256	17198
679.89	10320.2
684.522	6213.27
689.151	4119.27
693.778	2707.19
698.402	2219.02
703.024	2126.76
707.643	1216.45
712.259	894.107
716.873	707.773
721.484	206.51
726.093	327.762
730.699	375.873
735.303	484.465
739.904	317.49
744.502	242.988
749.098	143.164
753.692	129.914
758.282	139.906
762.871	351.268
767.456	446.4
772.04	572.482
776.62	690.072
781.198	733.752
785.774	806.602
790.346	851.701
794.917	1253.12
799.485	1388.92
804.05	1753.18
808.612	1903.96
813.172	2230.33
817.73	2379.35
822.285	2427.1
826.837	2454.63
831.387	2134.01
835.934	2096.3
840.479	1880.56
845.021	2064.86
849.56	2803.25
854.097	3563.8
858.631	4152.58
863.163	4145.64
867.692	3654.7
872.219	2491.38
876.743	2245.88
881.265	1811.03
885.783	1481.25
890.3	1551.8
894.813	1285.97
899.325	1376.85
903.833	1248.43
908.339	1496.92
912.843	1623.36
917.343	2040.74
921.842	2401.96
926.337	2335.86
930.831	2154.27
935.321	2380.07
939.809	1964.35
944.294	2019.06
948.777	2219.1
953.257	2172.59
957.735	2271.45
962.21	2477.7
966.682	2591.98
971.152	3158.67
975.619	3206.61
980.084	3749.83
984.546	4429.25
989.006	5175.98
993.463	6941.64
997.917	9968.84
1002.37	13222.4
1006.82	15861.8
1011.26	14211.1
1015.71	9927.15
1020.15	6874.9
1024.59	5644.53
1029.03	5372.81
1033.46	5442.51
1037.89	5380.09
1042.32	5404.7
1046.74	4917.58
1051.17	3971.83
1055.59	3452.03
1060.01	3014.61
1064.42	2804.55
1068.83	2576.23
1073.24	2325.59
1077.65	2172.63
1082.06	2187.08
1086.46	2023.05
1090.86	1714.18
1095.26	1686.92
1099.65	1578.89
1104.04	1406.41
1108.43	1319.31
1112.82	1297.91
1117.2	1081.35
1121.59	1076.57
1125.96	779.09
1130.34	369.725
1134.72	136.6
1139.09	41.2949
1143.46	78.4941
1147.82	189.272
1152.19	209.758
1156.55	48.1367
1160.9	134.908
1165.26	244.309
1169.61	166.074
1173.96	89.1582
1178.31	144.773
1182.66	53.5254
1187	3.50391
1191.34	217.477
1195.68	31.0684
1200.01	196.709
1204.35	186.856
1208.67	272.416
1213	408.435
1217.33	230.789
1221.65	457.6
1225.97	236.986
1230.28	392.783
1234.6	315.066
1238.91	338.832
1243.22	372.992
1247.53	393.648
1251.83	246.783
1256.13	470.272
1260.43	527.258
1264.72	462.779
1269.02	568.869
1273.31	601.373
1277.6	419.916
1281.88	641.629
1286.16	409.69
1290.44	407.394
1294.72	491.295
1299	536.393
1303.27	375.467
1307.54	400.631
1311.81	468.203
1316.07	408.209
1320.33	301.504
1324.59	395.287
1328.85	447.74
1333.1	279.221
1337.35	541.123
1341.6	345.701
1345.85	569.781
1350.09	521.344
1354.33	618.67
1358.57	514.666
1362.81	375.334
1367.04	544.019
1371.27	551.617
1375.5	516.682
1379.72	436.658
1383.95	383.412
1388.17	407.443
1392.38	493.006
1396.6	371.035
1400.81	283.815
1405.02	510.592
1409.23	506.31
1413.43	429.703
1417.63	458.137
1421.83	380.598
1426.03	525.301
1430.22	379.193
1434.41	319.672
1438.6	106.572
1442.79	205.531
1446.97	169.562
1451.15	34.6328
1455.33	55.4219
1459.51	202.516
1463.68	212.631
1467.85	249.951
1472.02	261.93
1476.18	134.34
1480.35	168.994
1484.51	213.086
1488.66	123.828
1492.82	127.24
1496.97	111.168
1501.12	126.01
1505.27	128.711
1509.41	90.625
1513.55	167.535
1517.69	37.4707
1521.83	92.5762
1525.96	89.2988
1530.09	228.527
1534.22	152.863
1538.35	205.344
1542.47	75.2754
1546.59	188.676
1550.71	4.08594
1554.82	215.356
1558.93	38.6289
1563.05	0
