Measurement: Raman, 514 nm, ccw, Raman Data Processed
Mineral: Augite
Rruff sample: R061086
Ideal chemistry: (Ca,Mg,Fe)_2_(Si,Al)_2_O_6_
Locality: Boreslav, Teplitz, Bohemia, Czech Republic
Source: Michael Scott
Description: Black to dark green tabular euhedral crystal
Measured chemistry: (Ca_0.88_Mg_0.83_Fe_0.13_Al_0.08_Na_0.04_Ti_0.03_Cr_0.01_)_Σ=2_(Si_1.89_Al_0.11_)_Σ=2_O_6_
Pin_id: M00351
Orientation: Laser parallel to (1 0 1). Fiducial mark perpendicular to laser is parallel to b [0 1 0]
Raman shift (cm-1)	intensity
168.504	0
173.442	14.3423
178.377	43.2334
183.309	34.6714
188.238	309.859
193.163	234.982
198.086	185.445
203.005	247.451
207.921	2.12793
212.834	7.47217
217.744	69.3066
222.651	227.836
227.555	324.195
232.456	250.161
237.354	106.722
242.248	120.889
247.14	70.5259
252.028	87.5117
256.914	109.828
261.796	158.406
266.675	23.8691
271.551	17.2017
276.425	110.608
281.295	165.343
286.162	237.395
291.026	279.728
295.887	504.265
300.745	632.083
305.6	748.122
310.451	990.785
315.3	1295.14
320.146	1751.86
324.989	2005.1
329.829	2034.58
334.666	1827.41
339.5	1626.11
344.33	1451.09
349.158	1721.34
353.983	2017.91
358.805	2098.63
363.624	1677.56
368.44	1519.59
373.253	1341.84
378.062	1598.29
382.869	1917.92
387.673	2285.73
392.474	2704.71
397.273	2145.84
402.068	1236.11
406.86	599.521
411.649	373.406
416.435	180.802
421.219	53.5527
425.999	30.4351
430.776	91.4116
435.551	33.4663
440.323	40.7109
445.091	22.248
449.857	54.2324
454.62	66.5947
459.38	178.68
464.137	179.348
468.891	190.32
473.642	121.706
478.39	151.447
483.136	216.951
487.878	165.026
492.618	67.0029
497.355	204.96
502.089	157.888
506.82	432.734
511.548	405.489
516.273	403.143
520.996	478.685
525.715	480.107
530.432	665.397
535.146	797.548
539.857	667.548
544.565	565.391
549.27	501.833
553.972	648.589
558.672	517.955
563.369	558.133
568.063	398.114
572.754	267.095
577.442	287.549
582.127	189.483
586.81	57.2144
591.49	75.6831
596.167	47.0737
600.841	27.352
605.513	9.28565
610.181	73.5293
614.847	77.188
619.51	99.1001
624.17	157.577
628.828	236.691
633.482	443.445
638.134	659.838
642.783	815.869
647.43	1206.54
652.073	1919.85
656.714	3192.8
661.352	4719.39
665.987	6009.62
670.62	4787.5
675.25	2685.03
679.877	1523.22
684.501	788.059
689.122	471.562
693.741	405.858
698.357	315.575
702.97	122.211
707.581	162.294
712.189	81.1826
716.794	34.231
721.396	17.293
725.996	129.209
730.593	41.0171
735.187	12.252
739.779	67.7144
744.368	75.2285
748.954	97.3169
753.538	78.144
758.118	62.4761
762.696	257.309
767.272	388.93
771.845	312.452
776.415	337.888
780.982	380.255
785.547	270.566
790.109	264.841
794.668	149.095
799.225	244.346
803.779	191.608
808.33	234.898
812.879	271.228
817.425	355.612
821.968	316.071
826.509	230.613
831.047	295.257
835.583	215.017
840.116	168.903
844.646	210.933
849.174	336.96
853.699	521.645
858.221	788.505
862.741	626.608
867.258	646.503
871.772	535.602
876.284	418.167
880.793	332.529
885.3	324.157
889.804	265.78
894.306	182.175
898.805	226.228
903.301	242.832
907.795	240.94
912.286	163.493
916.774	281.474
921.26	331.001
925.744	351.155
930.225	295.872
934.703	271.12
939.179	303.815
943.652	291.948
948.122	357.577
952.59	398.679
957.056	375.207
961.519	451.262
965.979	459.774
970.437	595.721
974.892	545.089
979.345	766.893
983.795	990.117
988.243	1116.78
992.688	1522.06
997.131	2469.97
1001.57	3708.58
1006.01	5175.81
1010.44	5529.74
1014.88	3941.85
1019.31	2251.42
1023.73	1344.81
1028.16	968.471
1032.58	1004.71
1037	869.328
1041.42	871.124
1045.83	731.145
1050.25	494.946
1054.66	532.305
1059.06	356.889
1063.47	311.231
1067.87	315.546
1072.27	257.935
1076.67	244.99
1081.07	144.75
1085.46	228.205
1089.85	282.219
1094.24	192.935
1098.62	276.626
1103.01	198.065
1107.38	314.667
1111.76	160.232
1116.14	186.567
1120.51	292.975
1124.88	200.307
1129.25	145.11
1133.62	127.522
1137.98	86.4307
1142.34	71.9277
1146.7	33.209
1151.06	44.0195
1155.41	82.0508
1159.76	99.75
1164.11	53.1621
1168.46	4.10254
1172.8	23.5918
1177.14	10.9893
1181.48	9.85547
1185.82	32.3516
1190.15	9.44141
1194.48	45.9853
1198.81	125.947
1203.14	223.675
1207.47	46.9434
1211.79	48.9746
1216.11	161.583
1220.43	133.88
1224.74	4.77051
1229.06	111.312
1233.37	177.619
1237.67	29.6572
1241.98	236.386
1246.28	178.832
1250.59	115.108
1254.88	220.993
1259.18	203.89
1263.47	81.3193
1267.77	191.474
1272.06	127.449
1276.34	226.586
1280.63	92.8994
1284.91	264.789
1289.19	242.234
1293.47	209.904
1297.74	251.422
1302.02	149.614
1306.29	203.943
1310.56	265.264
1314.82	147.075
1319.09	173.348
1323.35	107.16
1327.61	176.867
1331.87	134.002
1336.12	63.5088
1340.37	208.889
1344.62	185.122
1348.87	278.08
1353.12	143.737
1357.36	150.088
1361.6	156.555
1365.84	105.893
1370.08	119.522
1374.31	31.5547
1378.54	141.94
1382.77	149.454
1387	171.77
1391.22	49.9707
1395.45	118.747
1399.67	182.362
1403.88	83.6465
1408.1	205.501
1412.32	216.278
1416.53	114.262
1420.74	196.425
1424.94	181.628
1429.15	137.831
1433.35	75.3975
1437.55	126.815
1441.75	116.066
1445.94	199.365
1450.14	220.741
1454.33	165.433
1458.52	183.265
1462.71	202.224
1466.89	107.096
1471.07	187.05
1475.25	171.743
1479.43	265.554
1483.61	39.9228
1487.78	96.4971
1491.95	83.2627
1496.12	280.168
1500.29	210.394
1504.45	115.671
1508.62	40.5732
1512.78	12.7607
1516.94	171.265
1521.09	61.0029
1525.25	357.417
1529.4	96.1269
1533.55	25.2607
1537.69	94.7969
1541.84	108.577
1545.98	98.8457
1550.12	213.74
1554.26	226.935
1558.4	0.636719
1562.54	0
