Measurement: Raman, 514 nm, ccw, Raman Data Processed
Mineral: Augite
Rruff sample: R061108
Ideal chemistry: (Ca,Mg,Fe)_2_(Si,Al)_2_O_6_
Locality: Monti Rossi, near Mt. Etna, Sicily, Italy
Source: Michael Scott
Description: Euhedral, short prismatic, black crystals in vesicular basalt.
Measured chemistry: (Ca_0.86_Mg_0.74_Fe^2+^_0.18_Fe^3+^_0.08_Al_0.05_Ti_0.04_Na_0.04_Mn_0.01_)_Σ=2_(Si_1.83_Al_0.17_)_Σ=2_O_6_
Pin_id: L01906
Orientation: Laser parallel to (1 0 1). Fiducial mark perpendicular to laser is parallel to -b [0 -1 0]
Raman shift (cm-1)	intensity
158.697	0
163.633	482.562
168.567	840.414
173.497	560.139
178.424	407.978
183.348	177.695
188.269	509.773
193.187	525.152
198.102	435.219
203.014	621.869
207.923	201.738
212.829	911.334
217.732	1644.05
222.632	2231.92
227.528	2000.75
232.422	1625.32
237.313	1067.25
242.201	615.496
247.085	412.707
251.967	268.475
256.846	106.99
261.722	79.9297
266.594	95.1894
271.464	73.9082
276.331	576.752
281.194	1133.07
286.055	2058.45
290.913	3489.4
295.768	4525.08
300.62	6024.44
305.469	7306.76
310.315	9509.95
315.158	12331.7
319.998	15022.4
324.835	16265.7
329.669	15801.6
334.5	14008.8
339.328	13933.5
344.154	14425.1
348.976	16343.8
353.795	17590
358.612	16089.1
363.425	13725.7
368.236	11754.1
373.044	11216.1
377.849	12220.6
382.651	15263.3
387.45	18336.3
392.246	17840.4
397.039	12547.5
401.829	6901.06
406.617	3444.59
411.401	1810.95
416.183	1290.32
420.962	863.582
425.738	602.125
430.511	286.865
435.281	122.992
440.048	36.0215
444.812	231.484
449.574	111.834
454.333	162.023
459.089	637.322
463.842	1131.16
468.592	1288.6
473.339	1393.9
478.084	1448.92
482.825	1700.69
487.564	1705.94
492.3	1933.34
497.033	2162.96
501.763	2395.34
506.491	3212.91
511.216	3511.55
515.938	4209.19
520.657	5051.73
525.373	6064.1
530.086	6365.19
534.797	6694.96
539.505	6147.31
544.21	6100.19
548.912	5987.54
553.612	5713.39
558.308	5648.68
563.002	5203.28
567.693	4455.11
572.382	4001.94
577.067	3031.52
581.75	2052.72
586.43	1053.35
591.108	1138.79
595.782	70.9336
600.454	103.722
605.123	80.4727
609.789	242.658
614.453	157.565
619.114	410.903
623.772	366.467
628.427	662.741
633.08	949.795
637.73	1893.23
642.377	2986.19
647.021	4851.72
651.663	8721.86
656.302	14391.7
660.939	21929.2
665.572	24422.6
670.203	17898.8
674.831	10617.9
679.457	5998.07
684.08	3271.32
688.7	2069.75
693.317	1126.44
697.932	738.485
702.544	387.978
707.153	140.022
711.76	74.4336
716.364	329.988
720.965	413.033
725.564	594.525
730.16	704.084
734.754	384.281
739.344	217.58
743.932	484.297
748.518	1149.57
753.101	2026.19
757.681	3245.36
762.258	4097.45
766.833	4651.37
771.405	4466.14
775.975	3924.12
780.542	3249.74
785.106	2535.17
789.668	1957.57
794.227	1948.1
798.783	1918.91
803.337	2218.16
807.889	2956.99
812.437	3215.56
816.983	3251.01
821.527	3285.48
826.067	2636.1
830.606	2437.03
835.141	2079.38
839.674	1724.3
844.205	2043.9
848.733	2835.09
853.258	3540.07
857.781	4261.41
862.301	4288.66
866.819	3950.93
871.334	3436.31
875.846	3601.17
880.356	3464.52
884.863	3533.84
889.368	3451.83
893.87	3330.48
898.37	3591.41
902.867	3510.1
907.362	3648.14
911.854	3759.93
916.344	4041.48
920.831	4464.4
925.315	4244.49
929.797	4198.66
934.276	3995.93
938.753	3573.08
943.228	3177.21
947.699	3393.22
952.169	3734.95
956.636	4187.34
961.1	4718.34
965.562	5351.92
970.021	5957.03
974.478	6567.62
978.932	7495.65
983.384	9071.19
987.833	10710.6
992.28	13777.5
996.725	19030.6
1001.17	25877.1
1005.61	31794.8
1010.04	30094.8
1014.48	20775.4
1018.91	12614.8
1023.34	8629.93
1027.77	6741.05
1032.19	6297.59
1036.61	5911.44
1041.03	5489.92
1045.45	4980.9
1049.86	4086.72
1054.28	3279.3
1058.69	2856.99
1063.09	2375.31
1067.5	2134.61
1071.9	2070.53
1076.3	1913.87
1080.7	1846.41
1085.1	1818.83
1089.49	1869.4
1093.88	1756.92
1098.27	1768.39
1102.65	1699.85
1107.04	1685.57
1111.42	1494.14
1115.79	1723.06
1120.17	1464.59
1124.54	985.24
1128.91	533.525
1133.28	398.913
1137.65	5.34961
1142.01	246.052
1146.38	311.718
1150.73	416.764
1155.09	421.771
1159.45	316.378
1163.8	259.394
1168.15	186.082
1172.5	64.3916
1176.84	7.45996
1181.18	31.7451
1185.52	107.658
1189.86	238.715
1194.2	223.501
1198.53	356.985
1202.86	336.348
1207.19	421.514
1211.52	583.063
1215.84	661.53
1220.16	712.167
1224.48	884.601
1228.8	763.118
1233.11	906.172
1237.42	839.586
1241.73	938.05
1246.04	1029.5
1250.35	975.089
1254.65	1111.13
1258.95	1146.88
1263.25	1080.42
1267.54	1125.7
1271.84	1069.25
1276.13	1140.21
1280.42	1128.18
1284.7	995.556
1288.99	882.061
1293.27	1014.65
1297.55	646.199
1301.83	687.177
1306.1	687.22
1310.38	661.835
1314.65	640.069
1318.91	620.855
1323.18	668.652
1327.44	686.906
1331.71	451.055
1335.97	686.145
1340.22	602.266
1344.48	712.965
1348.73	645.468
1352.98	573.858
1357.23	522.349
1361.47	499.161
1365.72	456.112
1369.96	413.657
1374.2	518.999
1378.43	483.393
1382.67	367.685
1386.9	287.375
1391.13	470.124
1395.36	228.503
1399.59	336.639
1403.81	415.356
1408.03	166.39
1412.25	93.2832
1416.47	7.83398
1420.68	77.5156
1424.89	230.502
1429.1	19.5205
1433.31	152.28
1437.52	66.9336
1441.72	89.7676
1445.92	64.7568
1450.12	43.7617
1454.32	127.26
1458.51	48.1045
1462.7	148.394
1466.89	124.528
1471.08	153.43
1475.27	59.8223
1479.45	157.512
1483.63	125.314
1487.81	17.124
1491.99	185.394
1496.16	301.997
1500.34	170.785
1504.51	296.807
1508.68	273.593
1512.84	221.625
1517.01	428.989
1521.17	181.037
1525.33	305.918
1529.49	124.431
1533.64	123.371
1537.8	239.258
1541.95	123.054
1546.1	117.624
1550.24	81.6846
1554.39	134.603
1558.53	72.2227
1562.67	160.548
