Measurement: Raman, 514 nm, ccw, Raman Data Processed
Mineral: Augite
Rruff sample: R061108
Ideal chemistry: (Ca,Mg,Fe)_2_(Si,Al)_2_O_6_
Locality: Monti Rossi, near Mt. Etna, Sicily, Italy
Source: Michael Scott
Description: Euhedral, short prismatic, black crystals in vesicular basalt.
Measured chemistry: (Ca_0.86_Mg_0.74_Fe^2+^_0.18_Fe^3+^_0.08_Al_0.05_Ti_0.04_Na_0.04_Mn_0.01_)_Σ=2_(Si_1.83_Al_0.17_)_Σ=2_O_6_
Pin_id: L01364
Orientation: Laser parallel to b* (0 1 0). Fiducial mark perpendicular to laser is parallel to c [0 0 1]
Raman shift (cm-1)	intensity
159.881	0
164.786	417.9
169.689	830.691
174.59	917.125
179.488	1448.98
184.384	1548.03
189.277	1664.4
194.168	1662.5
199.057	1343.37
203.942	894.557
208.826	244.424
213.707	38.0957
218.585	4.08008
223.461	56.2344
228.335	343.537
233.206	14.7969
238.074	9.61523
242.94	142.119
247.804	188.984
252.665	41.0938
257.524	667.203
262.38	151.019
267.233	47.3555
272.085	52.2285
276.933	403.606
281.779	725.662
286.623	1197.24
291.464	1736.18
296.303	2809.33
301.139	3922.56
305.973	5930.89
310.804	8097.98
315.633	10464.5
320.459	12852.4
325.283	13467.2
330.104	12555.1
334.923	11337.9
339.739	10213.5
344.553	9957.54
349.364	9485.67
354.173	8951.91
358.979	7994.36
363.783	7060.32
368.584	6566.61
373.383	6807.79
378.179	7574.32
382.973	9203.25
387.764	10572.9
392.553	9192.81
397.339	6413.01
402.123	3491.41
406.904	1897.93
411.682	1023.04
416.459	1028.65
421.232	655.185
426.003	535.585
430.772	541.787
435.538	176.728
440.302	179.345
445.063	4.57812
449.821	297.347
454.577	408.554
459.331	729.07
464.082	968.299
468.83	1278.72
473.576	1439.55
478.32	1509.14
483.06	1719.82
487.799	1959.25
492.535	2367.03
497.268	3291.46
501.999	4447.75
506.727	4771.5
511.453	4519.69
516.176	4454.19
520.897	5076.94
525.615	5718.93
530.331	6274.1
535.044	6147.41
539.754	5570.81
544.462	5191.26
549.168	4948.75
553.871	4653.24
558.571	4455.72
563.269	4382.14
567.964	3965.49
572.657	3405.74
577.347	2346.89
582.035	1567.91
586.72	919.561
591.403	362.528
596.083	194.603
600.761	349.015
605.436	257.121
610.108	6.91016
614.778	114.523
619.446	241.943
624.111	600.512
628.773	1309.41
633.433	2149.04
638.09	3449.46
642.745	5977.7
647.397	10005.8
652.046	17321.9
656.693	28502.9
661.338	39914.9
665.98	40151.1
670.619	27500.4
675.256	15626.9
679.89	9063.74
684.522	5340.92
689.151	3381.54
693.778	2501.67
698.402	2237.39
703.024	2031.78
707.643	1798.92
712.259	1578.89
716.873	1002.78
721.484	271.673
726.093	32.3828
730.699	465.539
735.303	486.867
739.904	393.335
744.502	66.0391
749.098	31.7061
753.692	336.728
758.282	1027.91
762.871	1558.8
767.456	1459.34
772.04	1562.4
776.62	1428.47
781.198	1189.66
785.774	735.096
790.346	615.887
794.917	484.148
799.485	463.986
804.05	458.508
808.612	656.812
813.172	781.004
817.73	967.178
822.285	774.428
826.837	671.848
831.387	558.531
835.934	120.557
840.479	313.018
845.021	483.992
849.56	1322.56
854.097	2244.8
858.631	2939.79
863.163	2882.49
867.692	2399.42
872.219	1481.64
876.743	1243.76
881.265	1185.49
885.783	965.119
890.3	1066.46
894.813	1008.98
899.325	1176.9
903.833	1076.93
908.339	1313.82
912.843	1683.51
917.343	2003.25
921.842	2384.88
926.337	2842.76
930.831	2831.56
935.321	2895.26
939.809	2791.81
944.294	2958
948.777	2938.87
953.257	2852.32
957.735	3221.27
962.21	3366.63
966.682	3624.42
971.152	4292.53
975.619	4890.91
980.084	6256.49
984.546	7820.22
989.006	10712
993.463	15153.9
997.917	21216.7
1002.37	29526.2
1006.82	34791.9
1011.26	31193.8
1015.71	21218.6
1020.15	13377.2
1024.59	9558.61
1029.03	8309.66
1033.46	7553.43
1037.89	7360.17
1042.32	6874.75
1046.74	5785.58
1051.17	4624.49
1055.59	3797.45
1060.01	3383.94
1064.42	2770.26
1068.83	2789.62
1073.24	2581.84
1077.65	2553.08
1082.06	2314.75
1086.46	2371.81
1090.86	2296.84
1095.26	2491.02
1099.65	2273.26
1104.04	2164.94
1108.43	2206.36
1112.82	2009.19
1117.2	2031.29
1121.59	2003.17
1125.96	1584.97
1130.34	1152.84
1134.72	528.411
1139.09	294.808
1143.46	48.9961
1147.82	134.559
1152.19	285.422
1156.55	334.128
1160.9	228.894
1165.26	142.674
1169.61	118.7
1173.96	61.4619
1178.31	121.497
1182.66	48.794
1187	29.7051
1191.34	98.8037
1195.68	89.1777
1200.01	253.69
1204.35	309.555
1208.67	376.962
1213	401.784
1217.33	473.173
1221.65	595.188
1225.97	515.817
1230.28	605.992
1234.6	593.038
1238.91	676.359
1243.22	687.452
1247.53	702.188
1251.83	743.557
1256.13	773.557
1260.43	744.174
1264.72	756.447
1269.02	841.391
1273.31	942.916
1277.6	916.394
1281.88	819.642
1286.16	717.622
1290.44	645.668
1294.72	603.804
1299	716.986
1303.27	699.303
1307.54	484.805
1311.81	523.1
1316.07	614.622
1320.33	560.384
1324.59	518.134
1328.85	427.187
1333.1	567.634
1337.35	495.071
1341.6	546.062
1345.85	634.224
1350.09	514.886
1354.33	463.804
1358.57	487.059
1362.81	300.779
1367.04	454.195
1371.27	405.435
1375.5	369.119
1379.72	423.785
1383.95	388.068
1388.17	473.572
1392.38	314.975
1396.6	338.771
1400.81	373.113
1405.02	297.555
1409.23	395.965
1413.43	247.393
1417.63	346.898
1421.83	261.638
1426.03	389.569
1430.22	361.837
1434.41	215.885
1438.6	313.324
1442.79	248.017
1446.97	276.094
1451.15	176.56
1455.33	144.169
1459.51	99.75
1463.68	50.5254
1467.85	60.8057
1472.02	164.321
1476.18	50.9336
1480.35	78.1992
1484.51	34.2715
1488.66	180.257
1492.82	104.137
1496.97	76.5967
1501.12	142.446
1505.27	166.624
1509.41	225.776
1513.55	78.6484
1517.69	197.369
1521.83	57.4375
1525.96	140.731
1530.09	109.056
1534.22	139.735
1538.35	165.983
1542.47	42.7207
1546.59	0.711914
1550.71	170.928
1554.82	175.95
1558.93	168.147
1563.05	0
