Measurement: Raman, 514 nm, ccw, Raman Data Processed
Mineral: Augite
Rruff sample: R061086
Ideal chemistry: (Ca,Mg,Fe)_2_(Si,Al)_2_O_6_
Locality: Boreslav, Teplitz, Bohemia, Czech Republic
Source: Michael Scott
Description: Black to dark green tabular euhedral crystal
Measured chemistry: (Ca_0.88_Mg_0.83_Fe_0.13_Al_0.08_Na_0.04_Ti_0.03_Cr_0.01_)_Σ=2_(Si_1.89_Al_0.11_)_Σ=2_O_6_
Pin_id: M00351
Orientation: Laser parallel to (1 0 1). Fiducial mark perpendicular to laser is parallel to b [0 1 0]
Raman shift (cm-1)	intensity
158.619	0
163.563	130.784
168.504	67.8901
173.442	68.9719
178.377	88.0461
183.309	112.045
188.238	117.796
193.163	193.471
198.086	246.895
203.005	204.498
207.921	15.7214
212.834	63.2339
217.744	55.919
222.651	214.618
227.555	218.028
232.456	91.1431
237.354	56.7109
242.248	30.644
247.14	38.0049
252.028	92.7798
256.914	117.956
261.796	138.351
266.675	58.8657
271.551	74.3144
276.425	112.838
281.295	131.698
286.162	131.916
291.026	231.377
295.887	311.174
300.745	494.567
305.6	506.737
310.451	775.865
315.3	978.923
320.146	1360.57
324.989	1664.78
329.829	1690.44
334.666	1446.09
339.5	1381.04
344.33	1342.3
349.158	1327.79
353.983	1620.7
358.805	1634.29
363.624	1437.38
368.44	1250.7
373.253	1275.27
378.062	1297.07
382.869	1492.08
387.673	2119.29
392.474	2395.74
397.273	1952.35
402.068	1080.14
406.86	478.103
411.649	236.175
416.435	100.061
421.219	142.498
425.999	52.0762
430.776	31.7876
435.551	67.6362
440.323	39.6397
445.091	32.0459
449.857	41.1162
454.62	128.06
459.38	179.33
464.137	115.148
468.891	111.394
473.642	204.657
478.39	227.114
483.136	197.612
487.878	191.837
492.618	192.063
497.355	124.296
502.089	151.575
506.82	305.847
511.548	224.093
516.273	291.302
520.996	367.466
525.715	459.574
530.432	645.618
535.146	820.624
539.857	669.547
544.565	629.379
549.27	496.114
553.972	452.75
558.672	553.311
563.369	459.761
568.063	290.082
572.754	276.264
577.442	145.1
582.127	173.662
586.81	114.042
591.49	57.8887
596.167	8.57031
600.841	40.9126
605.513	1.34228
610.181	34.1079
614.847	14.3765
619.51	135.871
624.17	105.954
628.828	207.945
633.482	255.547
638.134	418.861
642.783	604.885
647.43	1029.62
652.073	1601.06
656.714	2629.2
661.352	4405.06
665.987	6027.61
670.62	4753.88
675.25	2687.86
679.877	1530.55
684.501	940.956
689.122	615.077
693.741	406.916
698.357	330.476
702.97	220.762
707.581	97.7764
712.189	33.5239
716.794	68.9644
721.396	45.3584
725.996	12.3726
730.593	27.5044
735.187	6.51465
739.779	53.5137
744.368	1.0166
748.954	41.7954
753.538	42.6938
758.118	208.86
762.696	227.908
767.272	280.147
771.845	297.281
776.415	250.322
780.982	244.284
785.547	221.177
790.109	205.016
794.668	220.814
799.225	144.583
803.779	224.339
808.33	172.092
812.879	341.853
817.425	203.637
821.968	344.456
826.509	358.32
831.047	278.245
835.583	238.239
840.116	273.315
844.646	199.485
849.174	396.345
853.699	543.339
858.221	694.47
862.741	793.401
867.258	634.956
871.772	536.592
876.284	388.554
880.793	296.133
885.3	180.392
889.804	161.319
894.306	222.68
898.805	203.489
903.301	139.808
907.795	148.562
912.286	203.728
916.774	169.249
921.26	260.182
925.744	258.576
930.225	212.376
934.703	253.618
939.179	245.239
943.652	263.229
948.122	343.601
952.59	333.414
957.056	290.597
961.519	357.155
965.979	372.072
970.437	466.352
974.892	481.992
979.345	437.982
983.795	660.317
988.243	839.023
992.688	1163.18
997.131	1833.89
1001.57	2758.17
1006.01	3819.27
1010.44	4554.42
1014.88	3275.38
1019.31	1828.05
1023.73	1073.05
1028.16	849.707
1032.58	657.74
1037	656.069
1041.42	655.365
1045.83	555.769
1050.25	512.554
1054.66	283.522
1059.06	267.89
1063.47	373.631
1067.87	266.439
1072.27	187.451
1076.67	227.539
1081.07	186.515
1085.46	223.44
1089.85	166.645
1094.24	215.092
1098.62	228.024
1103.01	180.534
1107.38	166.474
1111.76	195.119
1116.14	222.886
1120.51	149.594
1124.88	95.3106
1129.25	47.5024
1133.62	197.09
1137.98	32.4482
1142.34	40.0635
1146.7	62.291
1151.06	44.6055
1155.41	13.1719
1159.76	34.1143
1164.11	32.0498
1168.46	30.207
1172.8	16.9399
1177.14	71.7759
1181.48	44.3784
1185.82	47.3989
1190.15	19.3872
1194.48	112.847
1198.81	118.166
1203.14	44.0054
1207.47	153.567
1211.79	45.148
1216.11	102.717
1220.43	83.3701
1224.74	93.8149
1229.06	108.004
1233.37	131.942
1237.67	199.709
1241.98	101.565
1246.28	174.817
1250.59	165.418
1254.88	227.275
1259.18	140.804
1263.47	46.1777
1267.77	132.518
1272.06	129.725
1276.34	243.186
1280.63	229.623
1284.91	73.1011
1289.19	204.001
1293.47	99.8711
1297.74	185.487
1302.02	88.6773
1306.29	175.078
1310.56	155.732
1314.82	141.733
1319.09	166.324
1323.35	75.1377
1327.61	179.497
1331.87	179.561
1336.12	194.445
1340.37	107.15
1344.62	152.833
1348.87	123.806
1353.12	242.219
1357.36	146.119
1361.6	28.6016
1365.84	50.4448
1370.08	133.454
1374.31	95.624
1378.54	110.457
1382.77	74.2256
1387	111.446
1391.22	122.474
1395.45	160.972
1399.67	110.349
1403.88	17.8838
1408.1	25.4355
1412.32	186.912
1416.53	90.6856
1420.74	77.5537
1424.94	64.3672
1429.15	79.001
1433.35	40.5898
1437.55	279.303
1441.75	157.079
1445.94	152.389
1450.14	179.076
1454.33	113.975
1458.52	159.943
1462.71	25.9668
1466.89	130.609
1471.07	60.3711
1475.25	116.044
1479.43	69.04
1483.61	4.76562
1487.78	74.4766
1491.95	144.002
1496.12	171.692
1500.29	58.5
1504.45	106.399
1508.62	75.4551
1512.78	66.71
1516.94	160.45
1521.09	101.966
1525.25	95.1562
1529.4	208.08
1533.55	129.089
1537.69	201.579
1541.84	87.5742
1545.98	184.935
1550.12	125.764
1554.26	198.818
1558.4	94.3594
1562.54	0
