Measurement: Raman, 514 nm, ccw, Raman Data Processed
Mineral: Augite
Rruff sample: R061086
Ideal chemistry: (Ca,Mg,Fe)_2_(Si,Al)_2_O_6_
Locality: Boreslav, Teplitz, Bohemia, Czech Republic
Source: Michael Scott
Description: Black to dark green tabular euhedral crystal
Measured chemistry: (Ca_0.88_Mg_0.83_Fe_0.13_Al_0.08_Na_0.04_Ti_0.03_Cr_0.01_)_Σ=2_(Si_1.89_Al_0.11_)_Σ=2_O_6_
Pin_id: M00351
Orientation: Laser parallel to (1 0 1). Fiducial mark perpendicular to laser is parallel to b [0 1 0]
Raman shift (cm-1)	intensity
226.329	0
230.006	45.8086
233.681	164.699
237.354	205.115
241.025	319.039
244.694	258.15
248.362	485.766
252.028	191.25
255.692	360.969
259.355	443.713
263.016	188.555
266.675	13.1152
270.333	80.4902
273.988	57.8789
277.642	34.5938
281.295	162.824
284.945	271.043
288.594	270.356
292.241	408.654
295.887	1025.76
299.53	1059.45
303.173	1359.36
306.813	1817.44
310.451	2452.69
314.088	3466.08
317.724	4490.6
321.357	4939.14
324.989	5647.6
328.619	5230.17
332.248	4529.97
335.874	3888.97
339.5	3320.02
343.123	2753.79
346.745	2480.03
350.365	2623.59
353.983	2400.98
357.6	2216.61
361.215	2149.65
364.828	1981.35
368.44	2028.7
372.05	1929.61
375.658	2344.52
379.265	3126.07
382.869	3995.89
386.473	4765.76
390.074	5442.71
393.674	5253.49
397.273	4044.97
400.869	2591.58
404.464	1737.23
408.057	1106.19
411.649	386.647
415.239	459.006
418.827	405.986
422.414	246.033
425.999	47.0801
429.582	18.8926
433.164	231.644
436.744	135.207
440.323	183.014
443.899	309.578
447.475	57.3711
451.048	8.52344
454.62	72.6914
458.19	330.471
461.759	367.744
465.326	131.619
468.891	180.9
472.455	445.637
476.017	321.935
479.577	375.883
483.136	311.371
486.693	274.978
490.249	319.891
493.803	189.711
497.355	460.9
500.906	835.717
504.455	734.154
508.002	949.205
511.548	1130.88
515.092	1145.16
518.635	1131.11
522.176	846.693
525.715	1073.91
529.253	1033.75
532.789	1056.19
536.324	929.246
539.857	1005.9
543.388	796.148
546.918	962.982
550.446	981.393
553.972	1342.38
557.497	1090.99
561.021	864.186
564.542	1091.98
568.063	769.305
571.581	433.545
575.098	248.209
578.614	400.277
582.127	178.93
585.64	10.3984
589.15	92.2695
592.659	50.8594
596.167	138.506
599.673	76.9707
603.177	5.06641
606.68	147.059
610.181	88.2481
613.681	147.853
617.179	169.156
620.675	249.668
624.17	380.193
627.664	527.396
631.155	586.055
634.646	690.043
638.134	689.453
641.621	1217.35
645.107	1644.67
648.591	2391.43
652.073	3340.62
655.554	4966.24
659.033	7189.31
662.511	9182.82
665.987	9819.78
669.462	8322.19
672.935	6034.07
676.407	3883.41
679.877	2370.22
683.345	1622.5
686.812	1361.27
690.277	666.514
693.741	523.256
697.203	665.496
700.664	365.242
704.123	524.502
707.581	369.277
711.037	449.582
714.492	329.81
717.945	151.277
721.396	102.549
724.846	367.047
728.295	68.9199
731.742	29.1914
735.187	256.988
738.631	52.459
742.074	0.619141
745.515	86.8144
748.954	124.678
752.392	42.6211
755.828	189.082
759.263	190.898
762.696	362.477
766.128	563.312
769.559	475.482
772.987	525.947
776.415	547.273
779.84	679.461
783.265	481.527
786.687	346.484
790.109	303.346
793.528	364.125
796.947	503.842
800.363	333.504
803.779	496.125
807.193	599.719
810.605	200.299
814.016	493.877
817.425	592.471
820.833	597.09
824.239	588.746
827.644	494.31
831.047	691.236
834.449	577.094
837.85	471.012
841.248	346.062
844.646	276.094
848.042	372.389
851.436	267.475
854.829	300.17
858.221	541.49
861.611	389.672
865	546.807
868.387	435.227
871.772	584.469
875.156	452.445
878.539	169.34
881.92	209.119
885.3	341.674
888.678	241.076
892.055	319.279
895.431	192.053
898.805	218.643
902.177	384.754
905.548	52.2617
908.918	414.178
912.286	574.752
915.653	417.754
919.018	597.152
922.382	278.994
925.744	678.42
929.105	789.33
932.464	605.664
935.822	632.412
939.179	607.588
942.534	481.203
945.887	625.244
949.24	463.773
952.59	653.859
955.94	644.459
959.288	513.637
962.634	1024.94
965.979	1294.85
969.323	1129.26
972.665	1369.1
976.006	1489.36
979.345	2003.06
982.683	2357.23
986.02	2796.83
989.355	3627.85
992.688	4861.68
996.02	6569.21
999.351	8866.24
1002.68	12192.3
1006.01	14672.4
1009.34	14800.5
1012.66	12380.3
1015.98	8123.28
1019.31	5379.55
1022.63	3476.78
1025.95	2382.24
1029.27	2236.19
1032.58	2389.59
1035.9	2185.03
1039.21	1676.05
1042.52	1605.44
1045.83	1689.35
1049.14	1353.95
1052.45	850.578
1055.76	1103.48
1059.06	817.711
1062.37	548.484
1065.67	266.867
1068.97	256.633
1072.27	401.473
1075.57	228.316
1078.87	54.2383
1082.16	385.154
1085.46	277.09
1088.75	373.705
1092.04	176.107
1095.33	433.586
1098.62	516.445
1101.91	468.053
1105.19	40.7109
1108.48	203.236
1111.76	449.816
1115.05	413.033
1118.33	192.791
1121.61	156.545
1124.88	440.293
1128.16	211.022
1131.43	367.717
1134.71	204.654
1137.98	345.533
1141.25	2.95508
1144.52	97.5586
1147.79	18.625
1151.06	136.75
1154.32	143.58
1157.59	103.242
1160.85	136.955
1164.11	169.537
1167.37	26.0898
1170.63	93.0039
1173.89	38.2305
1177.14	273.91
1180.4	238.859
1183.65	52.3711
1186.9	62.9824
1190.15	0.132813
1193.4	219.43
1196.65	254.795
1199.9	102.951
1203.14	374.857
1206.39	50.5332
1209.63	231.932
1212.87	154.996
1216.11	52.4863
1219.35	513.68
1222.59	568.65
1225.82	16.3926
1229.06	292.803
1232.29	209.941
1235.52	286.852
1238.75	323.519
1241.98	288.893
1245.21	238.955
1248.43	391.785
1251.66	336.367
1254.88	532.721
1258.11	359.902
1261.33	513.266
1264.55	11.9727
1267.77	324.232
1270.98	374.857
1274.2	278.25
1277.41	65.791
1280.63	19.3047
1283.84	357.959
1287.05	660.68
1290.26	296.494
1293.47	123.584
1296.68	719.729
1299.88	469.916
1303.09	456.059
1306.29	374.562
1309.49	309.85
1312.69	639.504
1315.89	321.861
1319.09	289.961
1322.28	131.644
1325.48	507.193
1328.67	364.387
1331.87	454.535
1335.06	444.768
1338.25	291.824
1341.43	351.803
1344.62	131.041
1347.81	162.728
1350.99	505.402
1354.18	459.91
1357.36	486.768
1360.54	402.228
1363.72	606.637
1366.9	412.172
1370.08	237.176
1373.25	553.477
1376.43	568.75
1379.6	566.01
1382.77	481.941
1385.94	159.195
1389.11	179.467
1392.28	306.404
1395.45	417.496
1398.61	274.787
1401.78	230.994
1404.94	395.293
1408.1	504.512
1411.26	317.334
1414.42	254.838
1417.58	454.959
1420.74	403.287
1423.89	143.832
1427.05	113.059
1430.2	256.523
1433.35	470.568
1436.5	234.41
1439.65	96.7129
1442.8	228.789
1445.94	372.92
1449.09	397.062
1452.23	455.299
1455.38	207.004
1458.52	456.863
1461.66	410.846
1464.8	86.8965
1467.94	124.143
1471.07	346.565
1474.21	292.053
1477.34	272.549
1480.48	181.555
1483.61	262.986
1486.74	263.902
1489.87	272.152
1493	243.641
1496.12	257.353
1499.25	566.281
1502.37	521.457
1505.49	260.031
1508.62	91.0488
1511.74	287.529
1514.86	170.254
1517.97	177.572
1521.09	110.727
1524.21	369.678
1527.32	612.441
1530.44	385.658
1533.55	60.3633
1536.66	88.6231
1539.77	289.35
1542.88	509.518
1545.98	211.291
1549.09	342.191
1552.19	486.16
1555.3	277.461
1558.4	346.098
1561.5	385.084
