Measurement: Raman, 514 nm, ccw, Raman Data Processed
Mineral: Augite
Rruff sample: R061108
Ideal chemistry: (Ca,Mg,Fe)_2_(Si,Al)_2_O_6_
Locality: Monti Rossi, near Mt. Etna, Sicily, Italy
Source: Michael Scott
Description: Euhedral, short prismatic, black crystals in vesicular basalt.
Measured chemistry: (Ca_0.86_Mg_0.74_Fe^2+^_0.18_Fe^3+^_0.08_Al_0.05_Ti_0.04_Na_0.04_Mn_0.01_)_Σ=2_(Si_1.83_Al_0.17_)_Σ=2_O_6_
Pin_id: L00942
Orientation: Laser parallel to -a* (-1 0 0). Fiducial mark perpendicular to laser is parallel to b [0 1 0]
Raman shift (cm-1)	intensity
154.972	0
159.881	35.4746
164.786	1569.11
169.689	2196.95
174.59	2328.32
179.488	3008.48
184.384	3505.93
189.277	3959.3
194.168	4376.03
199.057	3905.02
203.942	3150.89
208.826	2050.81
213.707	2890.26
218.585	3077.3
223.461	3111.75
228.335	2860.58
233.206	2216.13
238.074	1520.25
242.94	1154.48
247.804	598.947
252.665	370.51
257.524	531.859
262.38	261.703
267.233	262.397
272.085	239.316
276.933	194.426
281.779	548.648
286.623	1209.84
291.464	1946.41
296.303	2987.51
301.139	4306.54
305.973	6298.63
310.804	8630.59
315.633	12220.6
320.459	14991.6
325.283	16476.2
330.104	15638.6
334.923	13793.9
339.739	11997.5
344.553	11204.5
349.364	10666.3
354.173	10361.5
358.979	9390.11
363.783	8957.38
368.584	8499.55
373.383	8640.55
378.179	9802.27
382.973	12291.7
387.764	14660.6
392.553	14461.1
397.339	10139
402.123	5749.17
406.904	2875.99
411.682	1683.16
416.459	1097.86
421.232	937.334
426.003	781.232
430.772	340.139
435.538	432.049
440.302	112.057
445.063	111.764
449.821	50.1152
454.577	109.053
459.331	625.617
464.082	681.18
468.83	740.91
473.576	1041.49
478.32	1163.43
483.06	1624.26
487.799	1777.53
492.535	2271.55
497.268	3070.67
501.999	4328.49
506.727	5603.43
511.453	6417.52
516.176	7366.98
520.897	7509.3
525.615	8032.11
530.331	7977.37
535.044	8037.03
539.754	7743.03
544.462	7346.35
549.168	7086.99
553.871	7281.85
558.571	7079.01
563.269	6881.81
567.964	6508.73
572.657	6049.76
577.347	4666.87
582.035	3156.31
586.72	1619.41
591.403	931.617
596.083	288.492
600.761	103.848
605.436	8.69727
610.108	61.2305
614.778	45.4141
619.446	196.346
624.111	213.562
628.773	509.889
633.433	1248.38
638.09	2031.5
642.745	3749.28
647.397	5617.77
652.046	9895.99
656.693	17216
661.338	26095.8
665.98	27679.5
670.619	19085.1
675.256	11217.7
679.89	6344.29
684.522	3990.97
689.151	2431.11
693.778	1554.78
698.402	1383.02
703.024	1024.54
707.643	874.418
712.259	537.721
716.873	360.525
721.484	298.227
726.093	357.066
730.699	556.566
735.303	351.008
739.904	389.209
744.502	16.0996
749.098	83.4902
753.692	459.068
758.282	589.768
762.871	1141.11
767.456	1430.67
772.04	1486.7
776.62	1575.67
781.198	1394.16
785.774	1101.28
790.346	1028.15
794.917	1200.88
799.485	1368.58
804.05	1549.37
808.612	2229.34
813.172	2165.61
817.73	2424.28
822.285	2368.45
826.837	2415.22
831.387	2576.69
835.934	1819.95
840.479	1992.1
845.021	1977.23
849.56	2129.42
854.097	2807.77
858.631	2825.64
863.163	2810.74
867.692	2432.74
872.219	1931.62
876.743	1606.85
881.265	1530.85
885.783	1467.92
890.3	1587.81
894.813	1529.12
899.325	1574.04
903.833	1725.8
908.339	1600.01
912.843	1941.8
917.343	2691.87
921.842	2931.2
926.337	2984.34
930.831	2892.29
935.321	2801.22
939.809	2281.73
944.294	2314.92
948.777	2692.9
953.257	2567.56
957.735	2695.66
962.21	3076.22
966.682	3999.2
971.152	4207.54
975.619	4935.24
980.084	5597.26
984.546	6728.52
989.006	9011.02
993.463	12161.9
997.917	17122.1
1002.37	22609.4
1006.82	26817.6
1011.26	23296.3
1015.71	15609.3
1020.15	9962.22
1024.59	7660.2
1029.03	6619.22
1033.46	6690.52
1037.89	6855.41
1042.32	6354.95
1046.74	5495.19
1051.17	4569.52
1055.59	4013.17
1060.01	3450.24
1064.42	2814.3
1068.83	2882.74
1073.24	2779.81
1077.65	2421.12
1082.06	2411.06
1086.46	2022.74
1090.86	2209.3
1095.26	2099.04
1099.65	1777.19
1104.04	1650.32
1108.43	1694.68
1112.82	1486.62
1117.2	1305.69
1121.59	1277.95
1125.96	1051.84
1130.34	578.791
1134.72	259.336
1139.09	179.522
1143.46	66.0977
1147.82	63.3438
1152.19	199.344
1156.55	262.609
1160.9	428.49
1165.26	100.336
1169.61	137.537
1173.96	111.525
1178.31	48.3086
1182.66	58.6816
1187	172.994
1191.34	266.838
1195.68	167.264
1200.01	286.769
1204.35	128.01
1208.67	327.746
1213	229.912
1217.33	453.715
1221.65	349.481
1225.97	374.086
1230.28	466.541
1234.6	408.879
1238.91	759.994
1243.22	716.941
1247.53	614.799
1251.83	573.445
1256.13	527.777
1260.43	901.736
1264.72	834.41
1269.02	779.197
1273.31	731.188
1277.6	684.019
1281.88	804.283
1286.16	767.316
1290.44	561
1294.72	724.769
1299	806.666
1303.27	384.746
1307.54	649.658
1311.81	492.195
1316.07	496.834
1320.33	553.879
1324.59	422.045
1328.85	635.482
1333.1	644.238
1337.35	561.867
1341.6	546.25
1345.85	511.633
1350.09	567.994
1354.33	794.49
1358.57	654.785
1362.81	696.672
1367.04	679.887
1371.27	805.787
1375.5	495.16
1379.72	586.394
1383.95	417.625
1388.17	574.016
1392.38	418.31
1396.6	523.566
1400.81	369.68
1405.02	400.103
1409.23	371.049
1413.43	483.584
1417.63	380.85
1421.83	410.25
1426.03	293.147
1430.22	221.342
1434.41	387.795
1438.6	393.297
1442.79	252.17
1446.97	497.902
1451.15	292.387
1455.33	361.408
1459.51	351.231
1463.68	133.897
1467.85	240.555
1472.02	9.93555
1476.18	304.084
1480.35	142.799
1484.51	175.152
1488.66	81.2324
1492.82	163.045
1496.97	95.2109
1501.12	202.094
1505.27	110.019
1509.41	237.844
1513.55	5.78125
1517.69	175.434
1521.83	184.361
1525.96	357.469
1530.09	178.188
1534.22	101.174
1538.35	10.582
1542.47	232.045
1546.59	35.9863
1550.71	130.051
1554.82	196.795
1558.93	0.335938
1563.05	0
