Measurement: Raman, 514 nm, ccw, Raman Data Processed
Mineral: Augite
Rruff sample: R061086
Ideal chemistry: (Ca,Mg,Fe)_2_(Si,Al)_2_O_6_
Locality: Boreslav, Teplitz, Bohemia, Czech Republic
Source: Michael Scott
Description: Black to dark green tabular euhedral crystal
Measured chemistry: (Ca_0.88_Mg_0.83_Fe_0.13_Al_0.08_Na_0.04_Ti_0.03_Cr_0.01_)_Σ=2_(Si_1.89_Al_0.11_)_Σ=2_O_6_
Pin_id: M00179
Orientation: Laser parallel to a* (1 0 0). Fiducial mark perpendicular to laser is parallel to b [0 1 0]
Raman shift (cm-1)	intensity
157.56	0
162.487	39.2925
167.411	296.369
172.332	418.763
177.25	564.098
182.165	731.461
187.078	742.797
191.987	697.166
196.894	639.103
201.798	457.281
206.699	179.893
211.598	241.004
216.493	526.088
221.386	720.786
226.276	722.609
231.163	572.773
236.048	544.346
240.929	459.44
245.808	374.109
250.684	332.426
255.557	198.334
260.428	312.777
265.295	38.3633
270.16	101.123
275.022	75.5249
279.882	139.405
284.738	272.586
289.592	617.487
294.443	774.331
299.291	1149.94
304.136	1776.4
308.978	2555.95
313.818	3757.23
318.655	4857.73
323.489	5419.78
328.321	5236.91
333.15	4477.62
337.976	3725.97
342.799	3024.19
347.619	2907.62
352.437	2657.77
357.252	2468.87
362.064	2540.12
366.873	2299.15
371.68	2421.38
376.483	2716.77
381.284	3285.3
386.083	4158.93
390.878	4292.66
395.671	3751.47
400.461	2318.33
405.249	1111.24
410.033	509.602
414.815	205.351
419.594	223.59
424.37	195.531
429.144	160.452
433.915	42.3306
438.683	48.7583
443.448	37.081
448.211	16.502
452.971	16.2564
457.728	30.4097
462.483	61.2798
467.235	168.885
471.984	192.333
476.73	55.9233
481.474	163.085
486.214	203.096
490.953	282.211
495.688	478.988
500.421	651.236
505.151	1012.7
509.878	1242.63
514.603	1315.27
519.325	1227.59
524.044	1453.59
528.76	1354.25
533.474	1290.57
538.185	1364.54
542.894	1138.13
547.599	1036.35
552.302	1199.23
557.003	1078.85
561.7	1057.27
566.395	1017.34
571.087	879.985
575.777	817.76
580.464	626.677
585.148	495.151
589.829	259.547
594.508	142.142
599.184	22.3008
603.858	59.7856
608.528	76.5923
613.197	144.422
617.862	99.8696
622.525	223.909
627.185	299.251
631.842	488.175
636.497	745.535
641.149	1228.33
645.798	2188.02
650.445	4159.07
655.089	6329.64
659.73	9191.02
664.369	11177.1
669.005	9382.66
673.639	5882.69
678.269	3295.23
682.898	1889.26
687.523	1166.81
692.146	778.879
696.766	600.481
701.384	632.627
705.998	420.321
710.611	269.58
715.22	105.439
719.827	127.888
724.431	101.048
729.033	109.802
733.632	8.81836
738.229	155.18
742.822	45.666
747.413	148.065
752.002	10.9658
756.588	61.7295
761.171	254.17
765.752	269.947
770.33	361.018
774.905	332.088
779.478	402.106
784.048	430.101
788.615	403.095
793.18	498.109
797.742	603.17
802.302	509.299
806.859	653.519
811.414	788.85
815.965	796.313
820.515	938.164
825.061	912.734
829.605	1017.74
834.147	844.956
838.686	900.417
843.222	876.139
847.755	913.14
852.286	1027.32
856.815	1201.93
861.341	1055.69
865.864	966.284
870.384	719.105
874.902	596.367
879.418	442.944
883.931	367.72
888.441	402.431
892.949	351.385
897.454	360.862
901.956	545.144
906.456	258.231
910.954	476.111
915.448	510.798
919.941	568.303
924.43	558.524
928.917	716.42
933.402	562.074
937.884	510.704
942.363	533.378
946.84	469.006
951.314	522.406
955.786	526.572
960.255	601.434
964.722	815.92
969.186	766.023
973.647	997.745
978.106	1181.99
982.562	1480.04
987.016	2036.6
991.467	2699.78
995.916	4092.61
1000.36	6064.38
1004.8	8134.2
1009.25	8580.9
1013.68	6307.44
1018.12	3792.92
1022.55	2435.87
1026.98	1822.43
1031.41	1696.42
1035.84	1808.53
1040.26	1707.06
1044.68	1419.46
1049.1	1136.11
1053.52	904.466
1057.93	768.72
1062.34	723.99
1066.75	643.959
1071.15	508.3
1075.56	488.499
1079.96	353.275
1084.36	354.881
1088.75	268.869
1093.14	316.837
1097.53	316.997
1101.92	298.026
1106.31	303.033
1110.69	216.901
1115.07	291.126
1119.45	114.963
1123.82	235.945
1128.2	211.643
1132.57	64.0596
1136.93	38.7022
1141.3	27.0508
1145.66	103.268
1150.02	9.90332
1154.38	75.0518
1158.74	81.9756
1163.09	103.755
1167.44	66.3731
1171.79	60.2295
1176.13	103.669
1180.48	50.5391
1184.82	4.83203
1189.15	91.6963
1193.49	102.002
1197.82	77.5801
1202.15	63.919
1206.48	155.62
1210.81	46.8506
1215.13	15.4307
1219.45	208.099
1223.77	103.346
1228.08	232.133
1232.4	189.471
1236.71	167.331
1241.02	131.712
1245.32	75.6963
1249.62	167.16
1253.92	285.143
1258.22	284.667
1262.52	307.739
1266.81	204.982
1271.1	220.55
1275.39	284.705
1279.68	229.613
1283.96	202.487
1288.24	237.406
1292.52	200.983
1296.8	280.68
1301.07	196.685
1305.34	201.541
1309.61	254.134
1313.88	205.465
1318.14	281.438
1322.4	266.092
1326.66	166.802
1330.92	239.909
1335.17	288.809
1339.42	266.457
1343.67	273.746
1347.92	148.615
1352.16	316.506
1356.41	294.56
1360.64	227.227
1364.88	353.647
1369.12	117.767
1373.35	265.295
1377.58	295.363
1381.81	301.25
1386.03	294.778
1390.25	173.942
1394.47	332.996
1398.69	312.974
1402.91	95.2295
1407.12	159.233
1411.33	112.201
1415.54	138.585
1419.74	95.1562
1423.95	125.593
1428.15	4.00488
1432.35	115.204
1436.54	186.487
1440.74	148.351
1444.93	85.2812
1449.12	277.323
1453.3	123.487
1457.49	151.161
1461.67	9.92969
1465.85	160.779
1470.02	68.6006
1474.2	30.585
1478.37	41.6738
1482.54	149.923
1486.71	285.169
1490.87	95.8096
1495.03	13.7373
1499.19	51.2559
1503.35	54.2764
1507.51	112.411
1511.66	147.131
1515.81	31.7354
1519.96	116.551
1524.1	165.691
1528.25	114.689
1532.39	4.45117
1536.53	20.6826
1540.66	9.92383
1544.8	14.6045
1548.93	124.078
1553.06	223.872
1557.18	2.9707
1561.31	0.727539
