Measurement: Raman, 514 nm, ccw, Raman Data Processed
Mineral: Augite
Rruff sample: R061108
Ideal chemistry: (Ca,Mg,Fe)_2_(Si,Al)_2_O_6_
Locality: Monti Rossi, near Mt. Etna, Sicily, Italy
Source: Michael Scott
Description: Euhedral, short prismatic, black crystals in vesicular basalt.
Measured chemistry: (Ca_0.86_Mg_0.74_Fe^2+^_0.18_Fe^3+^_0.08_Al_0.05_Ti_0.04_Na_0.04_Mn_0.01_)_Σ=2_(Si_1.83_Al_0.17_)_Σ=2_O_6_
Pin_id: L00942
Orientation: Laser parallel to -a* (-1 0 0). Fiducial mark perpendicular to laser is parallel to b [0 1 0]
Raman shift (cm-1)	intensity
137.775	0
142.691	242.783
147.606	196.457
152.517	451.067
157.427	86.9541
162.334	229.624
167.238	671.94
172.14	1140.8
177.04	1561.47
181.937	1524.58
186.831	1712.46
191.723	2033.08
196.613	2422.98
201.5	2828.77
206.384	2540.05
211.267	2778.3
216.146	3485.64
221.024	3910.11
225.898	3896.93
230.771	3729.7
235.64	2570.24
240.508	2111.05
245.373	1939.33
250.235	1566.97
255.095	1401.75
259.952	914.66
264.807	376.9
269.659	216.85
274.509	203.084
279.357	487.371
284.202	954.836
289.044	1790.55
293.884	2580.97
298.721	4093.22
303.556	6072.21
308.389	9097.57
313.219	12471.8
318.046	16900.2
322.871	19800
327.694	19295
332.514	16278.9
337.331	13181.1
342.146	10520.1
346.959	9140.98
351.769	8395.81
356.576	7791.85
361.381	7513.94
366.184	8085.04
370.984	9239.43
375.781	11745
380.576	16464.7
385.369	22947.3
390.159	27197.8
394.946	23136
399.731	14316.8
404.514	7556
409.293	4023.58
414.071	2611.39
418.846	1924.3
423.618	1389.21
428.388	1054.03
433.155	749.174
437.92	370.117
442.682	146.478
447.442	40.4707
452.2	35.7383
456.954	291.346
461.707	619.256
466.456	663.508
471.204	826.156
475.948	1050.47
480.69	1508.36
485.43	1773.63
490.167	1898.61
494.902	1850.52
499.634	2213.6
504.363	2471.64
509.09	3164.57
513.815	3749.27
518.537	4593.66
523.256	5497.66
527.973	5842.16
532.687	5741.1
537.399	5566.4
542.108	5112.08
546.815	4844.58
551.519	4483.63
556.221	4278.58
560.92	4165.55
565.617	3925.45
570.311	3666.24
575.003	2965.82
579.692	2240.27
584.378	1465.38
589.062	655.132
593.743	85.2578
598.422	211.405
603.099	345.221
607.772	256.273
612.444	229.075
617.112	119.59
621.778	12.4062
626.442	144.476
631.103	591.048
635.762	1129.43
640.418	1918.96
645.071	3198.68
649.722	5905.05
654.37	10194.9
659.016	16807.3
663.659	22538.1
668.3	19182.3
672.938	11929.9
677.574	6902.01
682.207	3939.67
686.837	2383.95
691.465	1295.9
696.09	944.593
700.713	725.106
705.333	475.515
709.951	110.894
714.566	66.6973
719.179	277.139
723.789	330.878
728.396	358.101
733.001	289.394
737.604	185.794
742.203	19.7227
746.801	616.033
751.395	953.178
755.987	1746.48
760.577	2283.27
765.164	2887.79
769.748	3045.91
774.33	2966.71
778.909	2510.01
783.486	2239.09
788.06	1979.94
792.632	1872.73
797.201	1643.59
801.767	1812.64
806.331	1993.23
810.893	2377.84
815.451	2610.22
820.008	2208.27
824.561	2037.12
829.112	1845.87
833.661	1474.62
838.207	1350.5
842.75	1307.61
847.291	1379.03
851.829	1837.91
856.365	1891.03
860.898	1808.37
865.428	1268.13
869.956	1376.31
874.481	1393.76
879.004	1361.81
883.524	1471.18
888.042	1526.48
892.557	1533.72
897.069	1351.58
901.579	1451.49
906.087	1574.88
910.591	1547.26
915.093	1845.31
919.593	2187.75
924.09	2481.43
928.584	2457.36
933.076	2286.46
937.565	2086.68
942.052	2005.96
946.536	1862.19
951.018	2318.27
955.496	2662.12
959.973	2936.66
964.446	3657.9
968.918	4556.7
973.386	5549.14
977.852	6883.1
982.316	8287.57
986.776	11122.5
991.235	15433.6
995.69	21933.3
1000.14	30798.8
1004.59	39517.6
1009.04	40195.2
1013.49	29840.7
1017.93	17832.5
1022.37	11286.4
1026.81	9260.56
1031.24	8031.42
1035.67	7889.02
1040.1	7232.14
1044.53	6387.76
1048.96	5438.36
1053.38	4185.8
1057.8	3426.89
1062.21	3144.26
1066.63	2530.52
1071.04	2410.19
1075.45	2146.61
1079.86	2076.51
1084.26	1980.97
1088.66	1858.93
1093.06	1818.66
1097.45	1817.19
1101.85	1625.76
1106.24	1431.38
1110.63	1427.18
1115.01	1466.03
1119.4	1283.37
1123.78	1064.55
1128.15	603.167
1132.53	497.549
1136.9	132.65
1141.27	73.543
1145.64	260.383
1150	291.092
1154.37	309.735
1158.73	283.389
1163.08	263.801
1167.44	180.129
1171.79	181.272
1176.14	80.5254
1180.48	40.7978
1184.83	2.20508
1189.17	15.752
1193.51	159.377
1197.85	130.607
1202.18	231.961
1206.51	186.613
1210.84	429.647
1215.16	410.232
1219.49	500.446
1223.81	591.536
1228.13	532.188
1232.44	706.244
1236.75	682.99
1241.06	642.346
1245.37	803.3
1249.68	871.813
1253.98	679.249
1258.28	817.211
1262.58	784.356
1266.87	946.199
1271.16	820.425
1275.45	747.422
1279.74	834.481
1284.02	712.453
1288.3	758.516
1292.58	761.232
1296.86	685.951
1301.13	657.49
1305.4	604.645
1309.67	735.796
1313.94	472.188
1318.2	496.852
1322.46	556.092
1326.72	614.31
1330.97	496.539
1335.23	535.992
1339.48	479.582
1343.72	527.116
1347.97	371.247
1352.21	432.144
1356.45	385.458
1360.69	583.096
1364.92	618.587
1369.15	459.376
1373.38	417.251
1377.61	457.557
1381.84	356.086
1386.06	376.333
1390.28	291.907
1394.49	331.58
1398.7	392.511
1402.92	303.17
1407.12	197.277
1411.33	55.4131
1415.53	262.7
1419.73	169.801
1423.93	166.949
1428.13	162.049
1432.32	62.2676
1436.51	62.7148
1440.7	52.3291
1444.88	64.4541
1449.06	53.4492
1453.24	112.733
1457.42	44.6572
1461.59	4.5918
1465.77	105.102
1469.93	0.191406
1474.1	87.7793
1478.27	69.2119
1482.43	130.3
1486.58	28.126
1490.74	186.531
1494.89	104.564
1499.04	147.887
1503.19	200.703
1507.34	280.313
1511.48	210.81
1515.62	114.586
1519.76	211.534
1523.89	250.192
1528.03	173.706
1532.15	140.28
1536.28	246.325
1540.41	296.294
1544.53	252.01
1548.65	144.47
1552.77	549.515
1556.88	273.745
1560.99	297.33
