Measurement: Raman, 514 nm, ccw, Raman Data Processed
Mineral: Augite
Rruff sample: R070231
Ideal chemistry: (Ca,Mg,Fe)_2_(Si,Al)_2_O_6_
Locality: Old Goose Creek Quarry, Leesburg, Loudoun County, Virginia, USA
Source: Michael Scott
Description: Very dark grey-green prismatic crystals frozen in quartz
Measured chemistry: (Mg_0.44_Fe_0.37_Ca_0.17_Ti_0.01_Mn_0.01_)_Σ=1_(Si_0.98_Al_0.02_)_Σ=1_O_3_
Pin_id: M00357
Orientation: Laser parallel to b* (0 1 0). Fiducial mark perpendicular to laser is parallel to c [0 0 1]
Raman shift (cm-1)	intensity
139.955	0
144.894	213.236
149.83	857.637
154.762	621.801
159.692	48.6904
164.62	969.887
169.544	1726.02
174.465	1733.08
179.384	2130.78
184.3	2196.58
189.213	2182.11
194.123	2464.36
199.03	2702.82
203.934	1637.8
208.836	862.078
213.735	937.6
218.631	1007.15
223.524	927.203
228.414	873.928
233.302	797.943
238.186	780.188
243.068	322.875
247.947	64.2647
252.823	72.9971
257.697	81.2041
262.567	54.502
267.435	74.4688
272.3	43.7978
277.162	207.939
282.021	375.264
286.878	767.834
291.732	1325.01
296.583	2141.75
301.431	3502.4
306.276	5658.7
311.119	8561.49
315.958	10969.6
320.795	10913.7
325.629	8369.25
330.461	6215.05
335.289	5237.71
340.115	4679.54
344.938	4857.88
349.759	4836.16
354.576	4616.99
359.391	4023.39
364.203	3705.63
369.012	3584.32
373.818	4039.04
378.622	4974.94
383.423	5737.6
388.221	5185.52
393.016	3762.39
397.809	2351.56
402.598	1326
407.386	1121.31
412.17	740.433
416.951	618.097
421.73	713.16
426.506	798.687
431.279	561.531
436.05	398.91
440.818	266.862
445.583	53.1807
450.345	195.53
455.105	222.084
459.861	116.69
464.615	30.0625
469.367	85.1162
474.115	93.9453
478.861	132.272
483.604	420.585
488.345	855.13
493.082	1479.16
497.817	2521.82
502.55	3517.19
507.279	3368.23
512.006	3267.95
516.73	3788.39
521.451	3590.55
526.17	4324.47
530.886	4151.22
535.599	4320.81
540.31	3924.71
545.017	4068.74
549.723	4520.16
554.425	4998.4
559.125	4291.32
563.822	3434.75
568.516	2486.72
573.207	1806.28
577.896	1078.9
582.583	319.817
587.266	115.561
591.947	205.376
596.625	230.609
601.3	120.957
605.973	83.2061
610.643	228.238
615.311	453.204
619.975	859.9
624.637	1255.68
629.297	1889.3
633.953	2885.63
638.607	4450.43
643.259	6753.74
647.907	10537.6
652.553	17947
657.197	30363
661.837	42368.7
666.475	36287.1
671.111	21786.3
675.743	12098.2
680.373	7466.89
685.001	5337.45
689.625	4566.89
694.247	4516.38
698.867	4995.32
703.483	5567.36
708.097	6171.1
712.709	6706.55
717.318	6982.51
721.924	7146.13
726.527	6702.27
731.128	5972.71
735.726	5255.95
740.322	4275.33
744.915	3262.7
749.505	2548.56
754.093	1954.99
758.678	1614.38
763.26	1556.61
767.84	1369.63
772.417	1483.39
776.992	1143.92
781.564	1077.26
786.133	1240.47
790.7	720.583
795.264	662.633
799.825	679.653
804.384	429.676
808.94	325.734
813.494	328.856
818.045	161.07
822.593	168
827.139	68.8701
831.682	28.1699
836.223	199.922
840.761	320.478
845.296	301.631
849.829	57.0469
854.359	328.461
858.887	568.264
863.412	496.578
867.934	259.219
872.454	240.649
876.971	348.928
881.486	587.253
885.998	812.521
890.507	945.709
895.014	1087.21
899.518	1160.6
904.02	1451.86
908.519	1512.78
913.016	1801.71
917.51	1833.7
922.001	1959.69
926.49	1911.3
930.976	1659.35
935.46	1657.97
939.941	1512.02
944.42	1746.52
948.896	1910.36
953.369	2051.48
957.84	2279.82
962.309	2533.36
966.774	4813.81
971.238	5662.16
975.698	5644.94
980.156	8308.7
984.612	11984.3
989.065	15783.9
993.516	16787.5
997.964	19268.2
1002.41	26391
1006.85	38652.8
1011.29	44403.8
1015.73	29577.6
1020.16	15874.2
1024.6	9596.94
1029.03	7478.09
1033.46	6646.23
1037.88	6277.27
1042.3	5350.59
1046.72	4585.36
1051.14	3925.45
1055.56	3369.98
1059.97	2938.27
1064.38	2453.73
1068.79	2165.15
1073.19	1976.66
1077.59	1927.76
1081.99	1518.06
1086.39	1777.34
1090.79	1425.63
1095.18	1223.57
1099.57	1209.55
1103.95	1127.13
1108.34	973.333
1112.72	931.575
1117.1	944.523
1121.48	934.15
1125.85	657.431
1130.23	517.784
1134.6	353.499
1138.96	113.002
1143.33	22.5137
1147.69	47.3018
1152.05	126.733
1156.41	6.09277
1160.76	184.907
1165.11	56.6123
1169.46	101.408
1173.81	19.3926
1178.16	169.801
1182.5	21.9395
1186.84	80.2793
1191.18	118.5
1195.51	19.0654
1199.84	116.52
1204.17	79.791
1208.5	118.762
1212.83	279.591
1217.15	226.371
1221.47	262.187
1225.79	372.909
1230.1	247.617
1234.41	290.286
1238.73	295.938
1243.03	366.675
1247.34	477.53
1251.64	302.025
1255.94	507.541
1260.24	458.955
1264.54	356.543
1268.83	335.281
1273.12	433.413
1277.41	453.744
1281.69	323.633
1285.98	371.072
1290.26	344.883
1294.54	250.659
1298.81	275.433
1303.09	260.933
1307.36	279.392
1311.63	104.618
1315.89	242.894
1320.16	281.507
1324.42	274.023
1328.68	289.835
1332.93	225.551
1337.19	199.637
1341.44	315.844
1345.69	180.752
1349.94	152.216
1354.18	217.727
1358.42	201.611
1362.66	230.607
1366.9	67.9609
1371.13	229.809
1375.37	147.716
1379.6	203.903
1383.82	217.55
1388.05	188.036
1392.27	148.231
1396.49	203.048
1400.71	29.1445
1404.92	118.264
1409.14	173.096
1413.35	57.7119
1417.56	168.671
1421.76	191.938
1425.97	119.391
1430.17	169.66
1434.37	204.858
1438.56	286.217
1442.76	168.768
1446.95	98.2539
1451.14	151.323
1455.33	255.444
1459.51	236.821
1463.69	289.227
1467.87	210.842
1472.05	92.4795
1476.22	185.144
1480.4	133.411
1484.57	141.387
1488.73	60.2119
1492.9	191.071
1497.06	67.6689
1501.22	62.9297
1505.38	107.568
1509.54	33.5205
1513.69	52.9395
1517.84	156.885
1521.99	16.5664
1526.14	39.7051
1530.28	126.234
1534.42	122.876
1538.56	165.957
1542.7	161.395
1546.83	130.462
1550.97	23.8564
1555.1	130.44
1559.22	166.026
1563.35	283.069
1567.47	11.4287
