Measurement: Raman, 514 nm, ccw, Raman Data Processed
Mineral: Augite
Rruff sample: R061108
Ideal chemistry: (Ca,Mg,Fe)_2_(Si,Al)_2_O_6_
Locality: Monti Rossi, near Mt. Etna, Sicily, Italy
Source: Michael Scott
Description: Euhedral, short prismatic, black crystals in vesicular basalt.
Measured chemistry: (Ca_0.86_Mg_0.74_Fe^2+^_0.18_Fe^3+^_0.08_Al_0.05_Ti_0.04_Na_0.04_Mn_0.01_)_Σ=2_(Si_1.83_Al_0.17_)_Σ=2_O_6_
Pin_id: L01906
Orientation: Laser parallel to (1 0 1). Fiducial mark perpendicular to laser is parallel to -b [0 -1 0]
Raman shift (cm-1)	intensity
158.697	0
163.633	63.2822
168.567	238.353
173.497	302.659
178.424	717.311
183.348	863.701
188.269	789.529
193.187	1266.13
198.102	1340.23
203.014	1804.57
207.923	1312.84
212.829	2174.88
217.732	2777.32
222.632	3207.61
227.528	2998.67
232.422	2431.61
237.313	1782.17
242.201	1473.44
247.085	1251.86
251.967	1190.03
256.846	594.629
261.722	168.08
266.594	140.156
271.464	273.084
276.331	79.2188
281.194	377.201
286.055	1167.9
290.913	2029.58
295.768	3160.68
300.62	5154.47
305.469	8512.93
310.315	11581.1
315.158	16424.4
319.998	21121.4
324.835	22126.3
329.669	19671.6
334.5	15763.6
339.328	12117.1
344.154	9767.66
348.976	8168.29
353.795	7488.3
358.612	7575.32
363.425	7745.91
368.236	8688.88
373.044	11299.5
377.849	15381.7
382.651	22186.3
387.45	28578.2
392.246	28912.3
397.039	20665.5
401.829	11486.7
406.617	6132.68
411.401	3475.16
416.183	2246.68
420.962	1729.2
425.738	1365.36
430.511	852.797
435.281	321.603
440.048	173.322
444.812	134.534
449.574	75.8447
454.333	182.356
459.089	319.123
463.842	647.327
468.592	783.523
473.339	862.658
478.084	1240.04
482.825	1219.93
487.564	1707.28
492.3	1796.49
497.033	1889.26
501.763	2057.85
506.491	2561.72
511.216	3373.81
515.938	4039.02
520.657	4700.27
525.373	5723.48
530.086	5909.56
534.797	5685.45
539.505	5193.08
544.21	4909.97
548.912	4876.27
553.612	4396.74
558.308	4335
563.002	4128.03
567.693	3861.49
572.382	3341.37
577.067	2546.58
581.75	1866.47
586.43	919.783
591.108	335.633
595.782	99.3838
600.454	205.082
605.123	171.628
609.789	83.6445
614.453	35.8135
619.114	162.296
623.772	168.312
628.427	489.779
633.08	813.01
637.73	1508.86
642.377	2683.52
647.021	4518.03
651.663	8218.43
656.302	14083.8
660.939	21892.1
665.572	24410.5
670.203	17685.1
674.831	10368.8
679.457	5917.85
684.08	3370.2
688.7	1984.98
693.317	1317.77
697.932	758.13
702.544	379.671
707.153	183.972
711.76	97.8926
716.364	230.468
720.965	274.101
725.564	499.537
730.16	351.38
734.754	233.958
739.344	93.0127
743.932	134.283
748.518	698.232
753.101	1452.06
757.681	1945.69
762.258	2599.41
766.833	3141.9
771.405	3134.84
775.975	2914.29
780.542	2444.43
785.106	2149.41
789.668	1951.38
794.227	1853.49
798.783	2076.87
803.337	2996.98
807.889	2849.01
812.437	3104.03
816.983	3273.87
821.527	2950.64
826.067	2520.48
830.606	2172.51
835.141	1786.85
839.674	1862.45
844.205	1941.91
848.733	2353.1
853.258	2713.23
857.781	2617.52
862.301	2139.5
866.819	2013.91
871.334	1858.89
875.846	1813.62
880.356	1808.2
884.863	1963.52
889.368	2221.16
893.87	2218.15
898.37	2241.13
902.867	2094.63
907.362	2289.85
911.854	2421.48
916.344	2727.4
920.831	3068.18
925.315	2948.86
929.797	3023.18
934.276	2854.83
938.753	2456.11
943.228	2292.7
947.699	2246.65
952.169	2405.95
956.636	2809.45
961.1	3423.11
965.562	4120.88
970.021	4993.66
974.478	6204.47
978.932	7753.25
983.384	10265
987.833	13729.1
992.28	19276.2
996.725	27721.7
1001.17	38256.5
1005.61	47388
1010.04	45461.3
1014.48	31270.6
1018.91	17900.5
1023.34	11870
1027.77	9396.19
1032.19	8850.35
1036.61	8147.77
1041.03	7138.68
1045.45	6363.05
1049.86	5048.54
1054.28	3927.98
1058.69	3240.52
1063.09	2940.72
1067.5	2415.45
1071.9	2134.33
1076.3	2106.55
1080.7	1913.42
1085.1	1772.82
1089.49	1775.46
1093.88	1723.71
1098.27	1604.14
1102.65	1631.29
1107.04	1710.31
1111.42	1311.37
1115.79	1324.04
1120.17	1234.78
1124.54	1005.14
1128.91	586.043
1133.28	390.372
1137.65	49.9756
1142.01	190.002
1146.38	188.443
1150.73	362.768
1155.09	370.435
1159.45	262.396
1163.8	213.174
1168.15	145.308
1172.5	58.8272
1176.84	165.4
1181.18	36.1826
1185.52	175.019
1189.86	210.412
1194.2	321.787
1198.53	364.482
1202.86	448.418
1207.19	444.519
1211.52	392.059
1215.84	526.568
1220.16	569.461
1224.48	723.778
1228.8	825.554
1233.11	710.645
1237.42	695.045
1241.73	748.325
1246.04	907.675
1250.35	826.087
1254.65	952.106
1258.95	882.925
1263.25	1047.32
1267.54	950.273
1271.84	1007.17
1276.13	923.773
1280.42	1029.39
1284.7	858.282
1288.99	744.809
1293.27	771.052
1297.55	735.09
1301.83	533.595
1306.1	513.064
1310.38	566.714
1314.65	593.438
1318.91	596.142
1323.18	636.491
1327.44	618.848
1331.71	590.792
1335.97	490.872
1340.22	546.862
1344.48	447.683
1348.73	596.069
1352.98	543.701
1357.23	487.579
1361.47	447.976
1365.72	497.696
1369.96	471.726
1374.2	322.22
1378.43	385.58
1382.67	203.883
1386.9	298.94
1391.13	265.975
1395.36	175.986
1399.59	236.268
1403.81	235.705
1408.03	243.606
1412.25	102.95
1416.47	210.045
1420.68	157.827
1424.89	123.232
1429.1	67.9766
1433.31	45.1221
1437.52	35.333
1441.72	61.4815
1445.92	128.893
1450.12	40.7695
1454.32	59.875
1458.51	44.2676
1462.7	110.66
1466.89	50.9541
1471.08	76.0107
1475.27	75.1836
1479.45	135.512
1483.63	84.5107
1487.81	38.623
1491.99	81.9385
1496.16	230.243
1500.34	153.374
1504.51	105.606
1508.68	146.272
1512.84	198.659
1517.01	293.826
1521.17	244.906
1525.33	124.978
1529.49	59.8105
1533.64	84.9824
1537.8	272.95
1541.95	41.2363
1546.1	34.3242
1550.24	103.752
1554.39	97.4424
1558.53	115.439
1562.67	22.3721
