Measurement: Raman, 514 nm, ccw, Raman Data Processed
Mineral: Augite
Rruff sample: R061108
Ideal chemistry: (Ca,Mg,Fe)_2_(Si,Al)_2_O_6_
Locality: Monti Rossi, near Mt. Etna, Sicily, Italy
Source: Michael Scott
Description: Euhedral, short prismatic, black crystals in vesicular basalt.
Measured chemistry: (Ca_0.86_Mg_0.74_Fe^2+^_0.18_Fe^3+^_0.08_Al_0.05_Ti_0.04_Na_0.04_Mn_0.01_)_Σ=2_(Si_1.83_Al_0.17_)_Σ=2_O_6_
Pin_id: L01693
Orientation: Laser parallel to -c* (0 0 -1). Fiducial mark perpendicular to laser is parallel to a [1 0 0]
Raman shift (cm-1)	intensity
157.462	0
162.4	294.565
167.334	276.239
172.265	501.099
177.193	28.2852
182.117	10.1475
187.039	216.83
191.958	481.367
196.874	516.822
201.787	574.085
206.696	144.476
211.603	36.4141
216.506	31.9199
221.407	3.2832
226.304	65.2481
231.199	332.411
236.091	373.993
240.979	856.996
245.864	1285.78
250.747	1538.52
255.626	1741.18
260.503	1751.09
265.376	1353.21
270.247	1132.73
275.114	1262.86
279.979	1322.48
284.84	1729.71
289.699	2072.73
294.554	2694.14
299.407	3821.58
304.257	4938.19
309.103	6633.94
313.947	8592.66
318.788	10418.7
323.626	11932.2
328.461	12138.8
333.292	11229.3
338.121	9726.48
342.947	8045.89
347.771	6881.37
352.591	6070.84
357.408	5020.1
362.222	4380.73
367.034	3578.21
371.842	3019.82
376.648	2893.04
381.45	2692.81
386.25	2610.08
391.047	2360.81
395.841	1869.93
400.632	1130.4
405.42	626.151
410.205	419.14
414.988	342.312
419.767	390.61
424.544	375.986
429.318	245.389
434.089	94.7676
438.857	78.0791
443.622	25.7686
448.384	227.785
453.143	169.398
457.9	505.367
462.654	498.012
467.405	728.868
472.153	707.002
476.898	780.238
481.64	938.797
486.38	913.534
491.116	1065.28
495.85	1538.13
500.581	1916.12
505.309	2504.16
510.035	2772.21
514.757	2347.2
519.477	2449.1
524.194	2574.85
528.908	2923.44
533.62	2835.19
538.328	2838.99
543.034	2448.9
547.737	2262.53
552.437	2032.86
557.134	1930.88
561.829	1921.55
566.521	1682.87
571.21	1541.82
575.896	975.392
580.58	681.584
585.261	136.326
589.939	88.7363
594.614	231.029
599.286	123.984
603.956	60.2647
608.623	180.281
613.287	273.992
617.949	562.971
622.608	855.044
627.264	1357.55
631.917	2084.53
636.568	3395.01
641.215	5315.03
645.861	8701.63
650.503	14475.9
655.143	24194.7
659.78	35613.3
664.414	42416.6
669.046	36882.7
673.674	22939.7
678.301	12539.5
682.924	7186.33
687.545	4280.15
692.163	3091.03
696.778	2393.04
701.391	2134.24
706.001	2009.69
710.609	1858.46
715.213	1568.11
719.815	1017.72
724.415	509.452
729.011	41.8096
733.606	271.69
738.197	505.778
742.786	290.154
747.372	241.823
751.955	329.796
756.536	1010.82
761.114	1418.99
765.69	1963.27
770.262	1936.42
774.833	2160.54
779.4	1844.73
783.965	1582.08
788.528	1397.68
793.087	1244.63
797.645	1246
802.199	1226.88
806.751	1321.35
811.3	1490.5
815.847	1647.4
820.391	1614.12
824.933	1426.74
829.471	1205.34
834.008	947.962
838.541	510.69
843.073	215.586
847.601	68.71
852.127	225.102
856.65	316.828
861.171	158.031
865.69	187.069
870.205	139.26
874.718	200.125
879.229	108.379
883.737	339.203
888.242	718.637
892.745	1027.64
897.246	1300.84
901.743	1342.26
906.239	1738.75
910.731	2009.28
915.221	2305.66
919.709	3024.63
924.194	3368.01
928.677	3704.86
933.157	3955.03
937.634	3836.56
942.109	3945.31
946.582	4019.15
951.052	3990.05
955.519	4152.9
959.984	4233.7
964.447	4620.37
968.906	5213.83
973.364	6004.03
977.819	7145.92
982.271	8994.39
986.721	12390
991.169	17009.5
995.614	24524.6
1000.06	34398.1
1004.5	43458.8
1008.93	44516
1013.37	34989.8
1017.8	21449.3
1022.23	13100.5
1026.66	9284.12
1031.09	7306.05
1035.51	6086.62
1039.93	5560.13
1044.35	4762.96
1048.76	4128.01
1053.17	3424.37
1057.58	2818.81
1061.99	2597.42
1066.4	2366.04
1070.8	2331.41
1075.2	2307.69
1079.6	2254.62
1084	2246.06
1088.39	2192.44
1092.78	2215.23
1097.17	2200.66
1101.56	2158.99
1105.94	2057.7
1110.32	2016.52
1114.7	1981.83
1119.08	1740.76
1123.45	1505.5
1127.82	1205.21
1132.19	721.398
1136.56	448.036
1140.92	142.175
1145.29	115.564
1149.65	217.269
1154	240.565
1158.36	204.742
1162.71	279.463
1167.06	63.1025
1171.41	82.8618
1175.76	114.628
1180.1	47.085
1184.44	73.7544
1188.78	30.8892
1193.11	76.3413
1197.45	126.203
1201.78	205.49
1206.11	248.388
1210.43	351.228
1214.76	404.859
1219.08	383.385
1223.4	449.54
1227.72	562.563
1232.03	500.773
1236.35	653.894
1240.66	691.224
1244.96	593.519
1249.27	678.63
1253.57	725.707
1257.88	744.675
1262.17	724.58
1266.47	796.192
1270.76	747.84
1275.06	754.191
1279.35	834.856
1283.63	688.822
1287.92	704.38
1292.2	611.937
1296.48	576.251
1300.76	517.357
1305.04	509.985
1309.31	497.806
1313.58	492.809
1317.85	443.032
1322.12	566.242
1326.38	487.154
1330.64	404.817
1334.9	460.441
1339.16	404.727
1343.41	421.27
1347.67	470.975
1351.92	446.886
1356.17	445.313
1360.41	329.556
1364.66	288.46
1368.9	227.337
1373.14	242.877
1377.38	359.961
1381.61	288.543
1385.84	404.166
1390.08	253.529
1394.3	190.116
1398.53	223.144
1402.75	254.547
1406.97	211.965
1411.19	235.776
1415.41	211.248
1419.63	163.004
1423.84	115.852
1428.05	169.214
1432.26	111.972
1436.46	45.6333
1440.67	78.9507
1444.87	11.9956
1449.07	136.756
1453.27	39.3931
1457.46	52.0122
1461.66	18.8852
1465.85	55.3706
1470.04	11.9048
1474.22	63.105
1478.41	61.7056
1482.59	100.814
1486.77	44.0278
1490.95	88.1538
1495.12	159.35
1499.3	94.668
1503.47	121.751
1507.63	119.4
1511.8	213.378
1515.97	80.2471
1520.13	42.1753
1524.29	151.245
1528.45	190.856
1532.61	140.374
1536.76	169.769
1540.91	56.4653
1545.06	263.294
1549.21	48.8882
1553.35	126.925
1557.5	204.662
1561.64	23.5747
