Measurement: Raman, 514 nm, ccw, Raman Data Processed
Mineral: Augite
Rruff sample: R070231
Ideal chemistry: (Ca,Mg,Fe)_2_(Si,Al)_2_O_6_
Locality: Old Goose Creek Quarry, Leesburg, Loudoun County, Virginia, USA
Source: Michael Scott
Description: Very dark grey-green prismatic crystals frozen in quartz
Measured chemistry: (Mg_0.44_Fe_0.37_Ca_0.17_Ti_0.01_Mn_0.01_)_Σ=1_(Si_0.98_Al_0.02_)_Σ=1_O_3_
Pin_id: M00250
Orientation: Laser parallel to (-1 0 -1). Fiducial mark perpendicular to laser is parallel to b [0 1 0]
Raman shift (cm-1)	intensity
143.66	0
148.596	96.126
153.53	185.093
158.46	29.623
163.388	178.107
168.313	239.497
173.235	441.001
178.155	928.14
183.071	1548.48
187.985	2184.14
192.896	1948.84
197.803	1334.25
202.709	1062.91
207.611	43.5898
212.51	183.092
217.407	363.909
222.301	683.36
227.192	1070.82
232.08	1080.38
236.965	933.423
241.848	782.627
246.728	676.109
251.604	680.12
256.479	529.27
261.35	288.293
266.218	42.3438
271.084	40.4199
275.947	21.4404
280.807	220.949
285.664	303.494
290.518	781.432
295.37	1361.18
300.219	2056.14
305.065	3130.48
309.908	4948.65
314.749	7477.98
319.586	10698.6
324.421	12003.7
329.253	9825.03
334.083	6590.45
338.909	4564.36
343.733	3678.12
348.554	3983.45
353.372	4230.17
358.187	4173.76
363	3822.58
367.81	3572.28
372.617	4202.25
377.421	5287.19
382.223	7393.11
387.022	9514
391.818	9563.82
396.611	7283.64
401.401	4399.27
406.189	2293.67
410.974	994.679
415.756	448.239
420.536	175.382
425.312	62.916
430.086	32.6182
434.858	22.875
439.626	101.856
444.392	10.2861
449.155	33.7734
453.915	289.742
458.672	459.426
463.427	519.229
468.179	332.525
472.928	306.792
477.675	134.873
482.419	125.637
487.16	186.474
491.898	327.187
496.634	815.705
501.367	1997.42
506.097	3257.51
510.825	3558.64
515.549	2818.48
520.271	2489.76
524.991	2373.16
529.707	2521.99
534.421	2247.45
539.132	1877.54
543.841	1864.27
548.547	2275.62
553.25	3146.69
557.95	3460.57
562.648	2447.21
567.343	1722.95
572.035	1013.31
576.724	745.641
581.411	322.048
586.095	186.198
590.777	26.3516
595.456	122.118
600.132	0.841797
604.805	7.5332
609.476	393.358
614.144	765.154
618.809	858.952
623.472	1414.7
628.132	2029.8
632.789	2762.49
637.444	3383.27
642.096	4418.01
646.745	6470.93
651.392	10355
656.036	17240.5
660.677	26510.3
665.316	31421.4
669.952	24527.8
674.585	15356.6
679.216	9232.62
683.844	5035.02
688.469	3029.75
693.092	1822.84
697.712	1450.29
702.329	1019.11
706.944	765.367
711.556	496.112
716.166	344.378
720.773	304.267
725.377	0.064453
729.978	88.7686
734.577	76.2266
739.173	102.667
743.767	47.081
748.358	40.9522
752.946	41.1191
757.532	100.608
762.115	107.581
766.695	5.64648
771.273	12.2139
775.848	107.932
780.421	72.6748
784.991	212.555
789.558	150.105
794.123	110.524
798.685	142.847
803.245	16.6074
807.802	230.335
812.356	424.566
816.907	485.835
821.456	887.167
826.003	1210.59
830.547	1097.14
835.088	936.843
839.627	776.721
844.163	499.807
848.696	455.125
853.227	552.7
857.755	567.105
862.281	441.22
866.804	519.631
871.324	382.154
875.842	369.129
880.357	396.036
884.87	302.383
889.38	602.791
893.888	549.995
898.393	607.549
902.895	526.769
907.395	761.61
911.892	918.814
916.387	1111.89
920.879	1454.32
925.368	1251.83
929.855	1095.33
934.339	1168.99
938.821	1006.65
943.301	1160.45
947.777	1215.34
952.251	1465.19
956.723	1427.9
961.192	1680.47
965.658	2298.93
970.122	2937.26
974.583	3946.44
979.042	5374.15
983.498	8256.39
987.952	13172.2
992.403	19263.8
996.852	22863.5
1001.3	26158.5
1005.74	33956.8
1010.18	42533.3
1014.62	35943.2
1019.06	19663.6
1023.49	10476
1027.92	6984.73
1032.35	5431.96
1036.78	5115.35
1041.2	4702.13
1045.62	4128.13
1050.04	3190.19
1054.45	2278.3
1058.87	1704.99
1063.28	1400.09
1067.68	1022.55
1072.09	899.561
1076.49	873.222
1080.89	952.245
1085.29	786.825
1089.69	617.744
1094.08	573.634
1098.47	489.111
1102.86	429.571
1107.24	493.315
1111.63	322.19
1116.01	501.64
1120.38	683.703
1124.76	548.451
1129.13	358.912
1133.5	323.465
1137.87	229.383
1142.24	193.014
1146.6	126.393
1150.96	4.47559
1155.32	41.0088
1159.67	85.2344
1164.03	98.6074
1168.38	79.6436
1172.72	57.2998
1177.07	66.085
1181.41	122.473
1185.75	13.585
1190.09	5.22363
1194.43	55.9463
1198.76	81.1123
1203.09	43.7705
1207.42	27.3066
1211.75	89.3369
1216.07	235.677
1220.39	130.43
1224.71	169.55
1229.02	293.022
1233.34	200.868
1237.65	175.096
1241.96	221.737
1246.26	317.711
1250.57	124.069
1254.87	249.769
1259.17	332.813
1263.46	257.215
1267.76	294.985
1272.05	334.208
1276.34	345.18
1280.62	433.455
1284.91	367.667
1289.19	442.516
1293.47	472.612
1297.74	370.272
1302.02	454.787
1306.29	362.244
1310.56	396.045
1314.83	382.392
1319.09	485.21
1323.35	419.78
1327.61	494.587
1331.87	436.943
1336.12	482.382
1340.38	380.708
1344.63	334.298
1348.87	534.417
1353.12	428.927
1357.36	207.769
1361.6	360.094
1365.84	209.185
1370.08	285.466
1374.31	379.562
1378.54	301.07
1382.77	311.905
1386.99	215.119
1391.22	207.288
1395.44	179.533
1399.66	174.768
1403.87	271.815
1408.09	152.244
1412.3	163.596
1416.51	163.381
1420.71	201.417
1424.92	226.69
1429.12	300.49
1433.32	233.175
1437.51	433.903
1441.71	376.049
1445.9	363.627
1450.09	351.188
1454.28	177.22
1458.46	242.962
1462.65	263.746
1466.83	143.62
1471	109.509
1475.18	96.4502
1479.35	175.49
1483.52	217.744
1487.69	80.9473
1491.86	60.707
1496.02	128.009
1500.18	22.0635
1504.34	20.4463
1508.5	114.144
1512.65	54.2715
1516.8	71.7158
1520.95	92.4551
1525.1	10.4336
1529.24	20.373
1533.39	130.752
1537.53	136.586
1541.66	178.535
1545.8	67.4531
1549.93	174.552
1554.06	35.3154
1558.19	82.5205
1562.32	88.2471
1566.44	63.8633
1570.56	0
