Measurement: Raman, 514 nm, ccw, Raman Data Processed
Mineral: Augite
Rruff sample: R061086
Ideal chemistry: (Ca,Mg,Fe)_2_(Si,Al)_2_O_6_
Locality: Boreslav, Teplitz, Bohemia, Czech Republic
Source: Michael Scott
Description: Black to dark green tabular euhedral crystal
Measured chemistry: (Ca_0.88_Mg_0.83_Fe_0.13_Al_0.08_Na_0.04_Ti_0.03_Cr_0.01_)_Σ=2_(Si_1.89_Al_0.11_)_Σ=2_O_6_
Pin_id: M00179
Orientation: Laser parallel to a* (1 0 0). Fiducial mark perpendicular to laser is parallel to b [0 1 0]
Raman shift (cm-1)	intensity
174.791	0
179.708	131.342
184.622	6.09766
189.533	29.4224
194.441	106.984
199.347	23.5942
204.249	8.9209
209.149	232.014
214.046	483.595
218.94	758.888
223.832	921.8
228.72	911.12
233.606	700.912
238.489	532.973
243.369	341.127
248.247	324.54
253.121	176.593
257.993	218.306
262.862	68.8057
267.728	94.9263
272.592	46.9424
277.452	31.6606
282.31	292.837
287.165	518.55
292.017	848.762
296.867	1232.15
301.714	1831.68
306.558	2487.64
311.399	3656.24
316.237	4888.16
321.073	5756.39
325.906	5808.93
330.736	5018.96
335.563	4069.42
340.387	3375.85
345.209	3193.97
350.028	3138.45
354.844	3042.25
359.658	2924.35
364.469	3031.73
369.277	3032.97
374.082	3398.14
378.884	4423.59
383.684	5801.27
388.481	6918.14
393.275	6465.19
398.066	4946.38
402.855	2355.69
407.641	1227.11
412.424	729.93
417.205	451.312
421.983	302.887
426.758	264.475
431.53	152.063
436.299	107.658
441.066	6.75781
445.83	60.7505
450.591	71.5772
455.35	66.4546
460.106	175.106
464.859	175.882
469.609	223.675
474.357	169.997
479.102	231.349
483.844	397.987
488.584	260.883
493.321	354.651
498.055	547.684
502.786	649
507.515	874.483
512.241	953.213
516.964	1230.48
521.685	1382.28
526.402	1325.57
531.118	1555.36
535.83	1398.61
540.54	1327.33
545.247	1202.48
549.951	1093.06
554.653	999.094
559.352	962.69
564.048	918.382
568.742	716.198
573.432	724.43
578.121	471.481
582.806	371.867
587.489	165.047
592.169	62.6597
596.847	6.19531
601.521	60.3193
606.193	79.3828
610.863	102.696
615.53	19.4145
620.194	54.8047
624.855	176.602
629.514	299.352
634.17	372.273
638.823	651.404
643.474	1098.76
648.122	1837.34
652.767	3182.16
657.41	5375.23
662.05	7474.56
666.688	7432.16
671.322	5201.05
675.954	2987.25
680.584	1749.76
685.211	955.602
689.835	594.794
694.456	411.353
699.075	305.295
703.691	179.637
708.305	221.397
712.916	15.5605
717.524	16.1148
722.13	84.98
726.733	130.489
731.333	96.6968
735.931	155.499
740.526	92.7607
745.118	53.3286
749.708	67.46
754.295	241.36
758.88	215.454
763.462	597.721
768.041	720.064
772.618	638.411
777.192	730.203
781.763	620.958
786.332	724.802
790.898	721.77
795.462	582.895
800.023	728.213
804.581	733.754
809.137	1007.55
813.69	1002.63
818.24	980.019
822.788	1008.76
827.334	985.865
831.876	855.373
836.416	870.311
840.954	824.703
845.489	865.515
850.021	1016.08
854.551	1119.25
859.078	1150.23
863.602	1036.34
868.124	803.356
872.644	803.686
877.16	639.531
881.675	609.979
886.186	640.238
890.695	522.186
895.202	495.541
899.705	535.39
904.207	566.398
908.705	524.48
913.201	498.694
917.695	645.067
922.186	576.565
926.674	692.088
931.16	634.856
935.643	655.623
940.124	553.329
944.602	412.976
949.077	504.603
953.55	753.155
958.021	873.613
962.489	890.994
966.954	1148.28
971.417	1406.44
975.877	1615.46
980.334	1907.38
984.789	2462.22
989.242	3411.94
993.692	4943.6
998.139	7219.5
1002.58	10167.7
1007.03	11808.2
1011.47	10136.6
1015.9	6085.45
1020.34	3399.22
1024.77	2247.48
1029.2	1772.07
1033.63	1873.82
1038.05	1735.34
1042.47	1511.35
1046.89	1380.06
1051.31	1039.65
1055.72	838.171
1060.14	697.361
1064.55	608.694
1068.95	520.747
1073.36	564.755
1077.76	489.972
1082.16	321.716
1086.55	303.156
1090.95	422.765
1095.34	197.583
1099.73	281.266
1104.12	399.667
1108.5	272.05
1112.88	259.373
1117.26	136.881
1121.64	265.636
1126.01	55.2148
1130.38	42.6641
1134.75	70.2236
1139.12	79.2139
1143.48	13.3604
1147.84	155.839
1152.2	108.025
1156.56	30.333
1160.91	113.828
1165.27	75.5723
1169.61	22.8506
1173.96	68.9853
1178.31	4.26758
1182.65	8.57227
1186.98	56.2158
1191.32	138.81
1195.66	74.9189
1199.99	162.011
1204.32	52.4912
1208.64	51.2881
1212.97	225.394
1217.29	128.835
1221.61	260.64
1225.93	146.848
1230.24	274.405
1234.55	307.353
1238.86	347.661
1243.17	169.258
1247.47	292.18
1251.78	410.485
1256.07	282.826
1260.37	391.229
1264.67	225.662
1268.96	294.007
1273.25	345.037
1277.54	254.059
1281.82	177.609
1286.1	269.009
1290.38	308.461
1294.66	313.194
1298.93	224.788
1303.21	214.208
1307.48	226.395
1311.74	311.207
1316.01	317.271
1320.27	282.407
1324.53	188.22
1328.79	316.874
1333.05	289.087
1337.3	136.764
1341.55	273.877
1345.8	270.54
1350.04	333.387
1354.29	185.412
1358.53	294.18
1362.76	300.535
1367	260.819
1371.23	211.61
1375.46	276.06
1379.69	133.644
1383.92	269.025
1388.14	299.451
1392.36	231.891
1396.58	128.26
1400.8	200.688
1405.01	161.4
1409.22	303.817
1413.43	119.508
1417.64	35.6406
1421.85	203.946
1426.05	233.23
1430.25	93.9648
1434.44	89.8232
1438.64	104.12
1442.83	193.468
1447.02	181.393
1451.21	135.311
1455.39	175.292
1459.58	138.26
1463.76	270.209
1467.94	60.2832
1472.11	76.459
1476.28	56.7441
1480.45	82.2451
1484.62	58.5977
1488.79	2.61328
1492.95	92.4268
1497.11	13.4541
1501.27	29.7617
1505.43	252.398
1509.58	144.236
1513.73	270.025
1517.88	168.89
1522.03	70.8984
1526.18	71.1562
1530.32	126.579
1534.46	141.213
1538.6	91.2412
1542.73	106.059
1546.86	48.1221
1550.99	80.4648
1555.12	279.457
1559.25	95.5596
