Measurement: Raman, 514 nm, ccw, Raman Data Processed
Mineral: Augite
Rruff sample: R061108
Ideal chemistry: (Ca,Mg,Fe)_2_(Si,Al)_2_O_6_
Locality: Monti Rossi, near Mt. Etna, Sicily, Italy
Source: Michael Scott
Description: Euhedral, short prismatic, black crystals in vesicular basalt.
Measured chemistry: (Ca_0.86_Mg_0.74_Fe^2+^_0.18_Fe^3+^_0.08_Al_0.05_Ti_0.04_Na_0.04_Mn_0.01_)_Σ=2_(Si_1.83_Al_0.17_)_Σ=2_O_6_
Pin_id: L01364
Orientation: Laser parallel to b* (0 1 0). Fiducial mark perpendicular to laser is parallel to c [0 0 1]
Raman shift (cm-1)	intensity
163.56	0
168.464	330.717
173.365	784.432
178.264	1287.57
183.16	1284.28
188.054	1588.96
192.946	1485.77
197.835	1391.53
202.721	1239.35
207.605	59.919
212.487	38.3857
217.366	10.2725
222.243	132.736
227.117	358.259
231.988	319.911
236.857	268.133
241.724	498.512
246.588	659.52
251.45	750.888
256.309	701.538
261.166	567.173
266.02	292.13
270.872	455.504
275.721	657.957
280.568	976.587
285.412	1396.93
290.254	1878.26
295.094	2783.61
299.93	4064.79
304.765	5769.57
309.597	7955.22
314.426	11061
319.253	12955.3
324.077	14626
328.899	14111.8
333.718	12947.8
338.535	11624.2
343.35	10731.7
348.162	10164.4
352.971	9956.78
357.778	8633.77
362.582	7388.57
367.384	6347.07
372.183	5970.05
376.98	6246.98
381.775	7011.95
386.566	7938.67
391.356	7919.45
396.143	5842.21
400.927	3581.86
405.709	1989.35
410.488	947.631
415.265	614.652
420.039	690.338
424.811	555.616
429.58	1051.42
434.347	309.688
439.111	20.3438
443.873	117.722
448.632	148.743
453.388	43.9023
458.143	365.269
462.894	971.619
467.643	730.67
472.39	889.231
477.134	1262.02
481.875	1120.14
486.614	1473.9
491.351	2023.06
496.085	2752.45
500.816	4231.63
505.545	5176.19
510.272	5014.98
514.995	4329.76
519.717	4355.5
524.436	4718.16
529.152	5062.68
533.866	5274.05
538.577	4968.23
543.285	4514.18
547.992	4181.88
552.695	3871.31
557.396	3839.44
562.095	3611.26
566.791	3429.76
571.484	3038.92
576.175	2342.72
580.863	1619.45
585.549	961.565
590.233	341.098
594.913	63.4072
599.592	336.279
604.267	158.211
608.94	20.7207
613.611	39.2529
618.279	362.486
622.945	676.442
627.608	1127.5
632.268	1867.14
636.926	3021.46
641.581	5089.5
646.234	8392.31
650.884	14398
655.532	24860.5
660.177	38045
664.82	44013.5
669.46	34921.1
674.097	21154.9
678.732	11778
683.364	6794.33
687.994	4412.12
692.622	3223.42
697.246	2622.31
701.868	2347.87
706.488	2446.87
711.105	2326.14
715.72	2016.2
720.332	1193.4
724.941	458.565
729.548	161.449
734.152	436.366
738.754	499.601
743.353	313.931
747.949	152.284
752.544	424.729
757.135	824.074
761.724	1224.91
766.31	1682.11
770.894	1727.08
775.475	1590.67
780.054	1219.62
784.63	714.442
789.203	865.798
793.774	449.805
798.343	419.575
802.909	438.224
807.472	629.856
812.033	809.578
816.591	901.493
821.146	767.701
825.699	1003.3
830.25	693.378
834.798	556.032
839.343	82.6484
843.885	107.389
848.426	571.26
852.963	1394.04
857.498	2101.82
862.031	2206.66
866.56	1858.86
871.088	1495.99
875.612	1267.27
880.134	931.404
884.654	982.188
889.171	1075.76
893.685	1140.06
898.197	1346.38
902.706	1332.01
907.213	1664.62
911.717	1720.95
916.218	2076.92
920.717	2588.37
925.214	2836.18
929.707	3269.33
934.199	3228.69
938.687	3244.11
943.173	3208.45
947.657	3225.63
952.137	3327.68
956.616	3414.41
961.091	3536.82
965.564	3969.85
970.035	4547.45
974.503	5361.86
978.968	6606.35
983.431	8001.17
987.891	10809.2
992.349	15249.5
996.804	21762
1001.26	30954.5
1005.71	39256.8
1010.15	39841.4
1014.6	29480.8
1019.04	18315.7
1023.48	12212.4
1027.92	9506.07
1032.35	8307.26
1036.78	8027.8
1041.21	7324.47
1045.64	6439.88
1050.06	5450.47
1054.48	4442.49
1058.9	3703.43
1063.32	3170.55
1067.73	2788.13
1072.14	2660.48
1076.55	2630.21
1080.96	2464.57
1085.36	2447.02
1089.76	2388.07
1094.16	2158.27
1098.55	2245.89
1102.95	2298.02
1107.34	2251.12
1111.72	1955.99
1116.11	1959.2
1120.49	1741.51
1124.87	1477.92
1129.25	1122.68
1133.62	483.109
1137.99	375.844
1142.36	281.308
1146.73	118.058
1151.1	349.339
1155.46	400.529
1159.82	335.194
1164.17	153.84
1168.53	147.488
1172.88	76.6094
1177.22	87.7422
1181.57	22.5869
1185.91	53.5596
1190.26	197.552
1194.59	164.254
1198.93	313.8
1203.26	352.472
1207.59	465.409
1211.92	355.631
1216.24	468.066
1220.57	463.935
1224.89	520.096
1229.2	497.593
1233.52	592.4
1237.83	686.607
1242.14	743.213
1246.45	696.243
1250.75	769.688
1255.05	814.548
1259.35	794.877
1263.65	887.662
1267.94	853.96
1272.23	1036.77
1276.52	917.087
1280.81	961.064
1285.09	763.366
1289.37	619.151
1293.65	811.602
1297.93	642.576
1302.2	635.237
1306.47	547.67
1310.74	652.11
1315	586.78
1319.27	670.035
1323.53	537.382
1327.78	579.364
1332.04	609.715
1336.29	616.659
1340.54	558.864
1344.79	522.22
1349.03	480.089
1353.27	468.503
1357.51	534.117
1361.75	548.354
1365.98	477.368
1370.21	557.948
1374.44	386.541
1378.67	393.442
1382.89	449.271
1387.11	340.878
1391.33	532.306
1395.55	365.356
1399.76	382.582
1403.97	418.852
1408.18	392.725
1412.38	343.011
1416.58	321.703
1420.78	313.625
1424.98	296.714
1429.17	300.354
1433.37	430.901
1437.56	425.188
1441.74	452.972
1445.93	266.69
1450.11	391.465
1454.29	178.361
1458.46	215.019
1462.64	198.128
1466.81	141.801
1470.98	213.016
1475.14	191.131
1479.31	111.183
1483.47	41.5762
1487.62	49.8516
1491.78	25.2559
1495.93	26.2246
1500.08	94.7256
1504.23	54.6621
1508.37	109.298
1512.52	38.7842
1516.65	16.7295
1520.79	85.5059
1524.93	193.39
1529.06	233.259
1533.19	80.3408
1537.31	15.3623
1541.44	10.0459
1545.56	1.28223
1549.68	41.2402
1553.79	181.1
1557.91	197.964
1562.02	253.623
