Measurement: Raman, 514 nm, ccw, Raman Data Processed
Mineral: Augite
Rruff sample: R061108
Ideal chemistry: (Ca,Mg,Fe)_2_(Si,Al)_2_O_6_
Locality: Monti Rossi, near Mt. Etna, Sicily, Italy
Source: Michael Scott
Description: Euhedral, short prismatic, black crystals in vesicular basalt.
Measured chemistry: (Ca_0.86_Mg_0.74_Fe^2+^_0.18_Fe^3+^_0.08_Al_0.05_Ti_0.04_Na_0.04_Mn_0.01_)_Σ=2_(Si_1.83_Al_0.17_)_Σ=2_O_6_
Pin_id: L01906
Orientation: Laser parallel to (1 0 1). Fiducial mark perpendicular to laser is parallel to -b [0 -1 0]
Raman shift (cm-1)	intensity
161.166	0
166.1	110.392
171.032	298.074
175.961	217.899
180.887	535.764
185.809	702.109
190.729	1005.94
195.645	1058.24
200.559	1268.1
205.469	788.734
210.376	45.1094
215.281	51.8447
220.182	1.90918
225.08	16.1914
229.976	61.5742
234.868	143.002
239.757	104.389
244.643	35.6348
249.527	216.477
254.407	358.417
259.284	230.416
264.158	211.394
269.029	287.504
273.898	315.954
278.763	514.942
283.625	680.843
288.485	997.635
293.341	1603.27
298.194	2252.71
303.045	3274.89
307.892	5077.54
312.736	7324.94
317.578	10221.3
322.417	12501.3
327.252	13317.5
332.085	12421.8
336.914	11442.3
341.741	10942.1
346.565	11380.4
351.386	11786.5
356.204	11731.2
361.019	11268
365.831	10708.3
370.64	10857.9
375.447	11636.6
380.25	14526.1
385.05	18149
389.848	19684.1
394.643	16396.8
399.434	10543.3
404.223	5951.54
409.009	3359.48
413.792	2432.08
418.573	1776.33
423.35	1527.18
428.124	1209.58
432.896	1123.45
437.665	732.832
442.431	777.646
447.194	788.792
451.954	1040.61
456.711	1387.14
461.465	1829.67
466.217	2015.91
470.966	2084.83
475.712	2084.84
480.455	2109.86
485.195	2173.58
489.932	2367.04
494.667	2347.07
499.399	2358.05
504.128	2676.61
508.854	3261.91
513.577	3888
518.297	4916.44
523.015	6054.72
527.73	7402.38
532.442	7776.47
537.151	7394.85
541.858	6443.12
546.561	5683.02
551.262	5020.79
555.96	4675.39
560.656	4273.74
565.348	3963.8
570.038	3241.5
574.725	2399.78
579.409	1678.84
584.091	928.178
588.769	273.031
593.445	1.72656
598.119	283.192
602.789	148.831
607.457	19.5732
612.122	110.193
616.784	377.484
621.443	710.09
626.1	1324.12
630.754	2270.29
635.405	3405.36
640.054	5205.54
644.7	8471.06
649.343	13943.9
653.983	23464.1
658.621	36968.6
663.256	47475.4
667.888	41221.5
672.518	26454.9
677.144	15527.6
681.769	9014.65
686.39	5572.01
691.009	3541.73
695.625	2287.82
700.238	1535.3
704.849	1062.19
709.457	647.537
714.062	269.318
718.665	222.8
723.265	397.149
727.863	558.479
732.457	612.213
737.049	519.613
741.639	177.861
746.225	194.226
750.81	796.446
755.391	1496.46
759.97	2076.6
764.546	2694.21
769.12	2800.4
773.69	2794.27
778.259	2472.92
782.824	2179.45
787.387	1771.95
791.948	1518.52
796.506	1649.25
801.061	1712.51
805.613	1829.55
810.163	1780.29
814.711	1821.55
819.255	1784.42
823.797	1557.98
828.337	1416.32
832.874	1117.52
837.408	1173.67
841.94	1485.85
846.469	2580.66
850.996	4319.63
855.52	6176.12
860.041	6341.04
864.56	5711.31
869.077	4667.45
873.59	3460.8
878.101	2837.08
882.61	2377.71
887.116	2254.28
891.62	1760.75
896.121	1849.95
900.619	1718.08
905.115	1507.14
909.608	1632.94
914.099	1816.6
918.587	2044.2
923.073	2103.25
927.556	2333.47
932.037	2524.03
936.515	2360.34
940.991	2349.7
945.464	2424.16
949.934	2419.76
954.403	2664.45
958.868	2773.12
963.331	2992.77
967.792	3241.36
972.25	3516.84
976.705	4122.2
981.158	4849.42
985.609	6008.48
990.057	7624.78
994.503	10861.5
998.946	15720.4
1003.39	21554.1
1007.83	23923.3
1012.26	19003.5
1016.69	11537.8
1021.12	7246.29
1025.55	4976.19
1029.98	3795.78
1034.4	3503.87
1038.82	3298.98
1043.24	3090.3
1047.66	2703.34
1052.07	2201.99
1056.48	2014.29
1060.89	1796.38
1065.3	1862.98
1069.7	1735.87
1074.1	1706.65
1078.5	1748.36
1082.9	1744.37
1087.29	1812
1091.68	1832.51
1096.07	1892.14
1100.46	1619.03
1104.84	1749.94
1109.23	1539.12
1113.61	1693.5
1117.98	1531.33
1122.36	1315.91
1126.73	787.479
1131.1	656.859
1135.47	310.538
1139.83	71.4443
1144.19	117.114
1148.56	297.56
1152.91	233.367
1157.27	213.944
1161.62	333.346
1165.97	294.598
1170.32	165.515
1174.67	40.4502
1179.01	133.157
1183.35	87.0508
1187.69	78.3398
1192.03	156.394
1196.36	116.02
1200.7	150.519
1205.03	266.866
1209.35	306.018
1213.68	312.744
1218	360.282
1222.32	467.67
1226.64	447.94
1230.95	654.071
1235.27	573.137
1239.58	652.223
1243.89	487.238
1248.19	703.893
1252.5	730.07
1256.8	776.449
1261.1	822.773
1265.4	843.355
1269.69	829.495
1273.98	943.297
1278.27	834.535
1282.56	747.106
1286.85	811.202
1291.13	570.459
1295.41	552.842
1299.69	628.684
1303.97	607.963
1308.24	613.049
1312.51	498.527
1316.78	385.571
1321.05	515.194
1325.31	506.797
1329.58	554.643
1333.84	512.279
1338.1	520.921
1342.35	507.786
1346.61	455.374
1350.86	465.887
1355.11	429.49
1359.35	379.383
1363.6	296.772
1367.84	354.657
1372.08	415.611
1376.32	193.181
1380.55	304.334
1384.79	278.428
1389.02	275.387
1393.25	218.601
1397.47	279.917
1401.7	117.985
1405.92	267.243
1410.14	194.908
1414.36	253.084
1418.57	87.6621
1422.79	80.8623
1427	181.009
1431.21	164.333
1435.41	49.0107
1439.62	106.894
1443.82	127.115
1448.02	81.8701
1452.22	46.79
1456.41	63.2988
1460.61	20.2764
1464.8	73.9736
1468.99	54.9658
1473.17	35.5713
1477.36	93.2129
1481.54	63.6895
1485.72	35.8535
1489.9	63.1807
1494.08	107.27
1498.25	129.414
1502.42	127.315
1506.59	223.061
1510.76	222.223
1514.93	2.16113
1519.09	172.35
1523.25	166.617
1527.41	133.282
1531.57	88.8291
1535.72	97.8867
1539.87	182.487
1544.02	189.715
1548.17	219.192
1552.32	129.336
1556.46	227.388
1560.6	3.89356
