Measurement: Raman, 514 nm, ccw, Raman Data Processed
Mineral: Augite
Rruff sample: R061086
Ideal chemistry: (Ca,Mg,Fe)_2_(Si,Al)_2_O_6_
Locality: Boreslav, Teplitz, Bohemia, Czech Republic
Source: Michael Scott
Description: Black to dark green tabular euhedral crystal
Measured chemistry: (Ca_0.88_Mg_0.83_Fe_0.13_Al_0.08_Na_0.04_Ti_0.03_Cr_0.01_)_Σ=2_(Si_1.89_Al_0.11_)_Σ=2_O_6_
Pin_id: M00244
Orientation: Laser parallel to -b* (0 -1 0). Fiducial mark perpendicular to laser is parallel to c [0 0 1]
Raman shift (cm-1)	intensity
162.487	0
167.411	32.384
172.332	109.007
177.25	162.269
182.165	240.847
187.078	203.867
191.987	315.606
196.894	170.226
201.798	131.175
206.699	5.04272
211.598	5.37866
216.493	28.1638
221.386	57.6467
226.276	183.768
231.163	185.065
236.048	194.991
240.929	115.919
245.808	197.037
250.684	341.362
255.557	252.874
260.428	503.513
265.295	101.095
270.16	16.894
275.022	47.8982
279.882	85.0935
284.738	109.465
289.592	354.997
294.443	347.224
299.291	478.988
304.136	786.61
308.978	1083.5
313.818	1481.96
318.655	2004.7
323.489	2500.85
328.321	2554.24
333.15	2307.77
337.976	1841.2
342.799	1675.71
347.619	1669.42
352.437	1627.9
357.252	1719.95
362.064	1482.18
366.873	1276.43
371.68	1045.79
376.483	1131.25
381.284	1250.79
386.083	1800.38
390.878	1934.04
395.671	1676.73
400.461	957.463
405.249	540.225
410.033	154.013
414.815	170.821
419.594	127.192
424.37	18.9839
429.144	111.693
433.915	73.4927
438.683	15.2722
443.448	37.01
448.211	25.1814
452.971	88.043
457.728	74.8489
462.483	154.971
467.235	98.7092
471.984	77.7471
476.73	122.908
481.474	170.988
486.214	172.24
490.953	206.365
495.688	279.356
500.421	505.239
505.151	978.042
509.878	859.684
514.603	621.158
519.325	517.456
524.044	549.573
528.76	627.49
533.474	704.071
538.185	599.764
542.894	607.089
547.599	584.201
552.302	468.096
557.003	489.769
561.7	464.223
566.395	433.931
571.087	348.922
575.777	314.674
580.464	284.185
585.148	189.728
589.829	90.2988
594.508	48.0234
599.184	45.7424
603.858	7.32153
608.528	84.98
613.197	54.4053
617.862	98.9377
622.525	208.639
627.185	255.465
631.842	304.97
636.497	552.835
641.149	746.535
645.798	1268.9
650.445	1978.98
655.089	3546.74
659.73	6141.19
664.369	8933.34
669.005	8009.19
673.639	4926.75
678.269	2618.03
682.898	1507.04
687.523	858.777
692.146	597.253
696.766	407.476
701.384	448.455
705.998	233.2
710.611	269.727
715.22	215.036
719.827	93.1377
724.431	117.054
729.033	16.5781
733.632	116.637
738.229	58.0752
742.822	83.0273
747.413	26.502
752.002	45.0942
756.588	171.441
761.171	151.204
765.752	183.063
770.33	308.917
774.905	276.78
779.478	277.669
784.048	315.599
788.615	204.588
793.18	247.653
797.742	211.812
802.302	196.08
806.859	309.477
811.414	335.016
815.965	234.716
820.515	415.591
825.061	465.655
829.605	404.923
834.147	314.412
838.686	243.133
843.222	249.102
847.755	199.331
852.286	356.832
856.815	702.618
861.341	618.701
865.864	523.23
870.384	459.721
874.902	305.649
879.418	390.773
883.931	298.129
888.441	187.401
892.949	231.327
897.454	209.003
901.956	157.299
906.456	160.144
910.954	204.508
915.448	139.42
919.941	272.998
924.43	406.16
928.917	299.942
933.402	298.364
937.884	403.189
942.363	272.08
946.84	439.366
951.314	356.228
955.786	395.596
960.255	360.482
964.722	500.982
969.186	598.005
973.647	662.523
978.106	869.538
982.562	1077.03
987.016	1461.98
991.467	2082.4
995.916	3040.93
1000.36	4610.65
1004.8	6844.85
1009.25	8226.56
1013.68	6606.59
1018.12	3737.44
1022.55	2242.46
1026.98	1471.7
1031.41	1239.45
1035.84	1259.89
1040.26	1276.73
1044.68	1066.52
1049.1	958.193
1053.52	728.788
1057.93	488.825
1062.34	446.133
1066.75	271.175
1071.15	282.804
1075.56	253.131
1079.96	297.15
1084.36	211.426
1088.75	274.983
1093.14	196.825
1097.53	322.213
1101.92	129.768
1106.31	259.83
1110.69	244.732
1115.07	233.153
1119.45	180.434
1123.82	195.854
1128.2	121.3
1132.57	118.703
1136.93	7.56396
1141.3	75.2148
1145.66	36.8931
1150.02	14.8198
1154.38	8.00195
1158.74	12.168
1163.09	29.3574
1167.44	45.916
1171.79	6.87354
1176.13	12.3989
1180.48	35.7227
1184.82	14.2559
1189.15	78.3525
1193.49	57.9312
1197.82	51.874
1202.15	160.241
1206.48	19.04
1210.81	51.2817
1215.13	115.098
1219.45	80.6841
1223.77	25.7251
1228.08	112.194
1232.4	94.5234
1236.71	95.2197
1241.02	176.534
1245.32	168.496
1249.62	144.115
1253.92	151.43
1258.22	131.387
1262.52	95.9165
1266.81	247.775
1271.1	188.87
1275.39	186.992
1279.68	183.108
1283.96	161.02
1288.24	202.184
1292.52	219.19
1296.8	225.331
1301.07	112.975
1305.34	161.58
1309.61	153.33
1313.88	122.237
1318.14	147.393
1322.4	198.518
1326.66	125.918
1330.92	151.499
1335.17	213.245
1339.42	174.111
1343.67	115.713
1347.92	149.094
1352.16	148.002
1356.41	119.735
1360.64	143.642
1364.88	209.101
1369.12	105.06
1373.35	123.187
1377.58	190.108
1381.81	111.54
1386.03	158.538
1390.25	156.191
1394.47	114.906
1398.69	164.897
1402.91	110.7
1407.12	61.5273
1411.33	114.934
1415.54	149.685
1419.74	84.6807
1423.95	61.5239
1428.15	181.258
1432.35	38.1938
1436.54	120.969
1440.74	180.931
1444.93	68.3086
1449.12	63.999
1453.3	49.5537
1457.49	60.206
1461.67	27.2241
1465.85	203.243
1470.02	43.0898
1474.2	133.162
1478.37	66.3496
1482.54	162.622
1486.71	13.0293
1490.87	51.5996
1495.03	33.0864
1499.19	7.33594
1503.35	57.4522
1507.51	57.5273
1511.66	33.998
1515.81	95.1558
1519.96	125.941
1524.1	150.416
1528.25	84.0308
1532.39	15.6445
1536.53	38.6611
1540.66	54.0688
1544.8	44.0923
1548.93	1.46045
1553.06	1.17529
