Measurement: Raman, 514 nm, ccw, Raman Data Processed
Mineral: Augite
Rruff sample: R070231
Ideal chemistry: (Ca,Mg,Fe)_2_(Si,Al)_2_O_6_
Locality: Old Goose Creek Quarry, Leesburg, Loudoun County, Virginia, USA
Source: Michael Scott
Description: Very dark grey-green prismatic crystals frozen in quartz
Measured chemistry: (Mg_0.44_Fe_0.37_Ca_0.17_Ti_0.01_Mn_0.01_)_Σ=1_(Si_0.98_Al_0.02_)_Σ=1_O_3_
Pin_id: M00250
Orientation: Laser parallel to (-1 0 -1). Fiducial mark perpendicular to laser is parallel to b [0 1 0]
Raman shift (cm-1)	intensity
115.22	0
120.173	9.41699
125.123	517.938
130.07	1082.22
135.014	757.293
139.955	1172.28
144.894	720.275
149.83	618.487
154.762	296.223
159.692	26.4814
164.62	104.675
169.544	114.987
174.465	198.692
179.384	418.736
184.3	462.19
189.213	450.838
194.123	355.269
199.03	442.299
203.934	503.534
208.836	343.234
213.735	833.577
218.631	1451.65
223.524	2062.19
228.414	2298.33
233.302	2050.06
238.186	1773.14
243.068	1309.54
247.947	1134.22
252.823	905.138
257.697	508.269
262.567	174.199
267.435	13.6973
272.3	116.863
277.162	29.46
282.021	359.986
286.878	870.459
291.732	1618.97
296.583	2438.97
301.431	3485.7
306.276	5005.96
311.119	8245.33
315.958	14041.7
320.795	20583.6
325.629	22257
330.461	16584.6
335.289	10694.6
340.115	7303.95
344.938	6159.23
349.759	6601.31
354.576	7319.29
359.391	7126.29
364.203	6825.29
369.012	7442.27
373.818	9453.2
378.622	13577.1
383.423	20398.9
388.221	26097.5
393.016	23784.1
397.809	15217.6
402.598	8597.85
407.386	4251.97
412.17	2116.66
416.951	1019.74
421.73	714.346
426.506	195.14
431.279	102.758
436.05	69.4785
440.818	89.6885
445.583	95.3662
450.345	48.6465
455.105	224.546
459.861	220.466
464.615	259.377
469.367	282.751
474.115	245.394
478.861	184.223
483.604	173.527
488.345	296.592
493.082	530.194
497.817	606.497
502.55	1205.49
507.279	1728.02
512.006	2195.14
516.73	2557.79
521.451	3346.9
526.17	4263.33
530.886	4577.07
535.599	4058.11
540.31	3439.43
545.017	2962.01
549.723	2963.85
554.425	3151.95
559.125	2919.43
563.822	2174.2
568.516	1719.17
573.207	1457.05
577.896	1110.01
582.583	674.408
587.266	458.086
591.947	144.345
596.625	1.95898
601.3	53.3359
605.973	47.332
610.643	172.332
615.311	244.348
619.975	713.797
624.637	805.621
629.297	916.748
633.953	1419.78
638.607	2000.02
643.259	3120.82
647.907	5130.17
652.553	8832.01
657.197	14621.3
661.837	21994.1
666.475	23442.7
671.111	16670.3
675.743	10307.1
680.373	6154.97
685.001	3688.94
689.625	2318.06
694.247	1607.32
698.867	1174.75
703.483	1011.36
708.097	724.174
712.709	580.206
717.318	332.648
721.924	174.695
726.527	203.348
731.128	16.1074
735.726	197.643
740.322	235.232
744.915	73.6904
749.505	57.0244
754.093	77.6836
758.678	119.542
763.26	49.3398
767.84	6.04981
772.417	105.147
776.992	67.293
781.564	42.1416
786.133	68.5117
790.7	8.46777
795.264	8.07227
799.825	133.42
804.384	151.956
808.94	300.996
813.494	553.299
818.045	961.652
822.593	1108.1
827.139	1187.66
831.682	1346.37
836.223	1303.27
840.761	933.388
845.296	847.755
849.829	1212.4
854.359	1505.36
858.887	1394.01
863.412	1190.85
867.934	1050.2
872.454	1001.46
876.971	965.941
881.486	1003.16
885.998	1105.28
890.507	1183.21
895.014	864.986
899.518	823.3
904.02	762.343
908.519	948.471
913.016	980.146
917.51	1200.63
922.001	1315.46
926.49	1378.56
930.976	1424.27
935.46	1386.61
939.941	1616.08
944.42	1607.41
948.896	1833.64
953.369	1731.76
957.84	1776.77
962.309	1893.67
966.774	2367.46
971.238	3009.14
975.698	4287.71
980.156	5885.16
984.612	8860.5
989.065	13630.7
993.516	19175.8
997.964	22820.8
1002.41	28693.8
1006.85	39508.8
1011.29	46425.7
1015.73	33913.7
1020.16	17394.9
1024.6	9569.37
1029.03	6683.32
1033.46	5347.47
1037.88	4499.02
1042.3	4148.18
1046.72	3622.96
1051.14	2781.43
1055.56	2288.58
1059.97	1862.43
1064.38	1501.19
1068.79	1342.7
1073.19	1295.72
1077.59	891.572
1081.99	1047.16
1086.39	900.935
1090.79	722.696
1095.18	712.546
1099.57	643.623
1103.95	504.716
1108.34	559.89
1112.72	535.118
1117.1	604.379
1121.48	735.645
1125.85	556.894
1130.23	482.098
1134.6	253.231
1138.96	208.264
1143.33	39.1728
1147.69	7.16309
1152.05	142.06
1156.41	2.69141
1160.76	7.83691
1165.11	174.416
1169.46	4.75586
1173.81	0.051758
1178.16	154.06
1182.5	54.2158
1186.84	95.8613
1191.18	91.1553
1195.51	194.223
1199.84	163.037
1204.17	148.418
1208.5	102.353
1212.83	174.824
1217.15	229.834
1221.47	236.369
1225.79	201.435
1230.1	365.022
1234.41	398.131
1238.73	325.33
1243.03	455.993
1247.34	502.75
1251.64	351.124
1255.94	465.077
1260.24	459.557
1264.54	579.573
1268.83	581.131
1273.12	609.26
1277.41	726.39
1281.69	634.817
1285.98	686.1
1290.26	547.708
1294.54	679.864
1298.81	772.111
1303.09	702.802
1307.36	714.468
1311.63	575.812
1315.89	640.962
1320.16	515.797
1324.42	555.847
1328.68	484.419
1332.93	495.817
1337.19	578.794
1341.44	633.936
1345.69	466.698
1349.94	526.549
1354.18	388.374
1358.42	317.088
1362.66	333.921
1366.9	408.566
1371.13	263.659
1375.37	238.201
1379.6	308.603
1383.82	287.081
1388.05	293.343
1392.27	328.353
1396.49	222.3
1400.71	327.228
1404.92	291.494
1409.14	349.818
1413.35	411.208
1417.56	479.53
1421.76	404.401
1425.97	490.005
1430.17	542.238
1434.37	806.594
1438.56	846.618
1442.76	920.787
1446.95	1020.17
1451.14	888.138
1455.33	666.269
1459.51	935.477
1463.69	484.293
1467.87	406.244
1472.05	286.399
1476.22	198.645
1480.4	110.015
1484.57	45.6816
1488.73	248.665
1492.9	102.077
1497.06	172.929
1501.22	71.6269
1505.38	7.46973
1509.54	68.4189
1513.69	120.005
1517.84	118.186
1521.99	169.017
1526.14	118.601
1530.28	133.406
1534.42	64.2285
1538.56	238.133
1542.7	70.875
1546.83	114.55
1550.97	309.404
1555.1	499.305
1559.22	249.485
1563.35	121.989
1567.47	2.46875
