Measurement: Raman, 514 nm, ccw, Raman Data Processed
Mineral: Augite
Rruff sample: R061086
Ideal chemistry: (Ca,Mg,Fe)_2_(Si,Al)_2_O_6_
Locality: Boreslav, Teplitz, Bohemia, Czech Republic
Source: Michael Scott
Description: Black to dark green tabular euhedral crystal
Measured chemistry: (Ca_0.88_Mg_0.83_Fe_0.13_Al_0.08_Na_0.04_Ti_0.03_Cr_0.01_)_Σ=2_(Si_1.89_Al_0.11_)_Σ=2_O_6_
Pin_id: M00162
Orientation: Laser parallel to c* (0 0 1). Fiducial mark perpendicular to laser is parallel to a [1 0 0]
Raman shift (cm-1)	intensity
166.18	0
171.102	67.8535
176.021	21.3572
180.937	36.2668
185.85	181.614
190.76	167.853
195.668	195.505
200.572	169.157
205.474	45.7517
210.374	14.4197
215.27	42.2019
220.163	41.5583
225.054	143.505
229.942	180.909
234.827	81.5523
239.709	43.4866
244.589	93.6875
249.465	44.0283
254.339	65.5232
259.21	148.75
264.079	32.8865
268.944	27.7331
273.807	9.30566
278.667	50.7639
283.524	31.937
288.378	69.2087
293.23	111.206
298.079	219.886
302.925	270.264
307.768	404.839
312.609	596.418
317.446	898.392
322.281	1098.94
327.113	1230.67
331.943	1013.68
336.769	842.533
341.593	675.519
346.414	563.585
351.233	568.794
356.048	605.869
360.861	516.138
365.671	536.451
370.478	463.682
375.283	473.945
380.084	620.269
384.883	1003.65
389.68	1338.07
394.473	1497.54
399.264	1107.05
404.052	557.594
408.837	208.168
413.62	70.5305
418.4	84.8545
423.177	46.9082
427.951	35.5127
432.722	56.2031
437.491	7.93628
442.257	8.70557
447.021	3.21973
451.781	31.8726
456.539	82.6597
461.294	11.3423
466.047	41.4949
470.797	30.6482
475.544	107.546
480.288	45.5525
485.03	45.344
489.768	13.8643
494.504	30.1318
499.238	27.2766
503.969	109.338
508.697	127.334
513.422	151.26
518.144	178.115
522.864	184.895
527.582	233.595
532.296	245.209
537.008	240.737
541.717	241.172
546.423	211.512
551.127	171.752
555.828	248.895
560.526	264.935
565.222	177.599
569.915	74.709
574.605	127.392
579.292	66.1973
583.977	57.4976
588.659	60.0508
593.339	4.39356
598.016	0.740234
602.69	12.8918
607.361	29.1287
612.03	69.0017
616.696	13.6794
621.359	8.74902
626.02	68.5359
630.678	80.6064
635.333	134.478
639.986	175.207
644.636	241.754
649.284	374.119
653.928	665.301
658.57	1138.3
663.21	1765.12
667.846	1951.77
672.481	1363.23
677.112	735.517
681.741	490.629
686.367	197.567
690.99	178.455
695.611	123.052
700.229	76.4824
704.845	70.7407
709.458	87.8115
714.068	72.6997
718.676	34.3779
723.281	3.80273
727.883	24.6509
732.483	25.5173
737.08	7.01636
741.674	45.3772
746.266	31.3594
750.855	63.436
755.442	47.0056
760.025	32.0395
764.607	129.642
769.185	186.216
773.761	212.904
778.335	223.562
782.906	165.213
787.474	131.795
792.039	149.334
796.602	91.8369
801.162	68.3108
805.72	126.762
810.275	134.198
814.828	125.626
819.378	147.053
823.925	72.4841
828.47	143.925
833.012	74.3794
837.551	16.8579
842.088	67.6682
846.622	93.9898
851.154	116.665
855.683	147.053
860.209	123.306
864.733	160.47
869.254	90.5007
873.773	52.417
878.289	173.447
882.803	117.969
887.314	106.464
891.822	160.836
896.328	79.9409
900.831	82.2412
905.332	46.7063
909.83	96.6538
914.325	93.4314
918.818	111.69
923.308	146.122
927.796	117.749
932.281	102.595
936.764	154.623
941.244	96.6804
945.721	119.356
950.196	144.013
954.668	124.855
959.138	153.886
963.605	145.982
968.07	207.385
972.532	230.974
976.991	318.754
981.448	405.744
985.903	467.95
990.355	696.37
994.804	1067.1
999.251	1536.12
1003.7	2355.04
1008.14	3056.63
1012.58	3023.28
1017.01	1694.62
1021.45	903.496
1025.88	588.758
1030.31	502.356
1034.73	474.509
1039.16	458.529
1043.58	408.855
1048	410.305
1052.41	309.942
1056.83	168.293
1061.24	233.644
1065.65	152.652
1070.05	161.141
1074.46	147.057
1078.86	171.246
1083.26	65.9058
1087.65	100.506
1092.05	71.9148
1096.44	37.4788
1100.83	109.159
1105.21	106.668
1109.6	141.21
1113.98	82.9614
1118.36	100.322
1122.73	166.003
1127.1	90.1289
1131.47	45.4019
1135.84	29.0515
1140.21	39.8152
1144.57	1.50977
1148.93	3.77026
1153.29	41.7246
1157.65	3.87134
1162	9.91455
1166.35	37.8843
1170.7	45.7688
1175.05	6.6333
1179.39	59.8967
1183.73	88.9421
1188.07	92.8821
1192.41	14.6606
1196.74	4.55762
1201.07	27.9385
1205.4	62.3147
1209.72	59.4448
1214.05	66.4578
1218.37	35.3533
1222.69	30.4998
1227.01	52.3171
1231.32	142.003
1235.63	79.5752
1239.94	1.0647
1244.24	123.32
1248.55	140.43
1252.85	99.3726
1257.15	49.1484
1261.44	62.0686
1265.74	33.9731
1270.03	110.289
1274.32	82.7402
1278.61	95.6894
1282.89	29.7266
1287.17	93.7822
1291.45	119.902
1295.73	135.365
1300	169.701
1304.27	15.0137
1308.54	75.7886
1312.81	134.843
1317.08	142.92
1321.34	20.9531
1325.6	182.018
1329.85	102.88
1334.11	130.913
1338.36	81.4048
1342.61	176.148
1346.86	115.037
1351.1	42.2461
1355.35	115.654
1359.59	134.332
1363.82	73.5244
1368.06	109.207
1372.29	73.9009
1376.52	176.874
1380.75	94.52
1384.97	15.5981
1389.2	114.457
1393.42	130.499
1397.64	61.6538
1401.85	54.6108
1406.07	143.865
1410.28	103.267
1414.49	42.9492
1418.69	66.7363
1422.9	143.096
1427.1	112.44
1431.3	134.22
1435.49	17.7471
1439.69	117.677
1443.88	111.663
1448.07	90.0723
1452.26	142.684
1456.44	123.118
1460.62	129.77
1464.8	111.182
1468.98	161.688
1473.15	150.598
1477.33	63.8276
1481.5	107.574
1485.66	100.057
1489.83	142.766
1493.99	88.8281
1498.15	108.524
1502.31	139.564
1506.47	162.324
1510.62	94.5581
1514.77	136.323
1518.92	126.326
1523.07	220.957
1527.21	121.472
1531.35	23.7568
1535.49	160.065
1539.63	77.3354
