Measurement: Raman, 514 nm, ccw, Raman Data Processed
Mineral: Augite
Rruff sample: R061086
Ideal chemistry: (Ca,Mg,Fe)_2_(Si,Al)_2_O_6_
Locality: Boreslav, Teplitz, Bohemia, Czech Republic
Source: Michael Scott
Description: Black to dark green tabular euhedral crystal
Measured chemistry: (Ca_0.88_Mg_0.83_Fe_0.13_Al_0.08_Na_0.04_Ti_0.03_Cr_0.01_)_Σ=2_(Si_1.89_Al_0.11_)_Σ=2_O_6_
Pin_id: M00244
Orientation: Laser parallel to -b* (0 -1 0). Fiducial mark perpendicular to laser is parallel to c [0 0 1]
Raman shift (cm-1)	intensity
161.256	0
166.18	98.5718
171.102	128.586
176.021	225.776
180.937	200.434
185.85	274.497
190.76	253.496
195.668	240.311
200.572	129.682
205.474	20.5984
210.374	23.7454
215.27	108.038
220.163	112.628
225.054	198.994
229.942	200.092
234.827	163.951
239.709	103.525
244.589	158.563
249.465	362.043
254.339	241.898
259.21	270.815
264.079	70.0798
268.944	0.648926
273.807	45.6597
278.667	121.097
283.524	148.943
288.378	275.18
293.23	331.791
298.079	607.757
302.925	739.058
307.768	1087.7
312.609	1525.22
317.446	2012.11
322.281	2677.94
327.113	3028.01
331.943	2708.93
336.769	2351.52
341.593	2111.53
346.414	2001.9
351.233	2074.62
356.048	2191.56
360.861	2002.89
365.671	1892.49
370.478	1711.81
375.283	1618.48
380.084	1886.84
384.883	2475.4
389.68	3106.18
394.473	3054.14
399.264	2043.29
404.052	1082.61
408.837	509.096
413.62	319.74
418.4	157.537
423.177	125.471
427.951	52.529
432.722	92.7002
437.491	51.9736
442.257	13.3386
447.021	32.1926
451.781	16.9202
456.539	41.0337
461.294	122.425
466.047	178.235
470.797	172.746
475.544	193.42
480.288	112.939
485.03	193.866
489.768	203.377
494.504	234.95
499.238	417.508
503.969	684.066
508.697	823.534
513.422	642.898
518.144	651.148
522.864	719.27
527.582	688.256
532.296	885.095
537.008	986.774
541.717	821.287
546.423	733.621
551.127	709.769
555.828	683.72
560.526	676.466
565.222	572
569.915	562.311
574.605	430.393
579.292	322.238
583.977	188.053
588.659	79.6047
593.339	29.1348
598.016	63.5498
602.69	25.8193
607.361	28.7082
612.03	96.1907
616.696	150.115
621.359	170.575
626.02	199.616
630.678	362.259
635.333	516.51
639.986	787.369
644.636	1260.84
649.284	2051.91
653.928	3451.6
658.57	6091.9
663.21	9633.82
667.846	10026.4
672.481	6399.53
677.112	3597.33
681.741	1900.77
686.367	1239.42
690.99	719.591
695.611	439.987
700.229	425.05
704.845	351.788
709.458	274.21
714.068	138.326
718.676	162.144
723.281	56.6716
727.883	36.2341
732.483	25.271
737.08	111.255
741.674	6.89185
746.266	3.0813
750.855	38.6194
755.442	87.8184
760.025	173.839
764.607	246.251
769.185	402.926
773.761	384.561
778.335	367.175
782.906	272.791
787.474	357.43
792.039	225.113
796.602	291.86
801.162	308.693
805.72	307.627
810.275	389.681
814.828	499.875
819.378	491.224
823.925	435.748
828.47	401.465
833.012	348.392
837.551	295.546
842.088	353.943
846.622	373.6
851.154	640.532
855.683	1098.76
860.209	1103.07
864.733	966.773
869.254	778.603
873.773	681.619
878.289	442.845
882.803	440.707
887.314	305.295
891.822	282.926
896.328	271.653
900.831	202.148
905.332	249.372
909.83	230.288
914.325	233.959
918.818	220.413
923.308	384.664
927.796	422.681
932.281	495.399
936.764	382.702
941.244	371.007
945.721	437.131
950.196	479.283
954.668	426.034
959.138	623.444
963.605	536.455
968.07	643.057
972.532	818.231
976.991	899.974
981.448	1123.28
985.903	1339.13
990.355	1916.53
994.804	2833.48
999.251	4302.12
1003.7	6407.68
1008.14	8392.31
1012.58	7590.02
1017.01	4442.95
1021.45	2431.71
1025.88	1655.22
1030.31	1424.77
1034.73	1297.15
1039.16	1325.35
1043.58	1169.64
1048	1118.42
1052.41	800.384
1056.83	538.231
1061.24	515
1065.65	342.233
1070.05	421.325
1074.46	323.959
1078.86	362.273
1083.26	244.115
1087.65	207.706
1092.05	330.725
1096.44	373.485
1100.83	264.44
1105.21	294.494
1109.6	268.489
1113.98	228.649
1118.36	254.7
1122.73	240.436
1127.1	202.958
1131.47	107.176
1135.84	17.4043
1140.21	54.9702
1144.57	12.5298
1148.93	6.1875
1153.29	82.2139
1157.65	33.9163
1162	84.0142
1166.35	8.27905
1170.7	4.02271
1175.05	54.3735
1179.39	36.5779
1183.73	55.5102
1188.07	7.10571
1192.41	22.8054
1196.74	45.0056
1201.07	45.8679
1205.4	61.1624
1209.72	157.945
1214.05	17.3037
1218.37	80.187
1222.69	85.542
1227.01	137.48
1231.32	181.977
1235.63	175.065
1239.94	202.438
1244.24	154.736
1248.55	129.617
1252.85	94.1284
1257.15	109.144
1261.44	237.908
1265.74	263.109
1270.03	202.819
1274.32	229.806
1278.61	213.027
1282.89	171.142
1287.17	144
1291.45	172.533
1295.73	222.15
1300	152.893
1304.27	192.062
1308.54	193.207
1312.81	193.54
1317.08	175.866
1321.34	169.892
1325.6	69.3521
1329.85	185.422
1334.11	182.977
1338.36	116.854
1342.61	122.862
1346.86	124.69
1351.1	152.353
1355.35	160.561
1359.59	149.907
1363.82	169.591
1368.06	122.309
1372.29	133.133
1376.52	73.1089
1380.75	190.689
1384.97	38.8794
1389.2	151.681
1393.42	122.827
1397.64	75.3276
1401.85	137.412
1406.07	96.6294
1410.28	102.408
1414.49	77.2915
1418.69	133.603
1422.9	172.908
1427.1	117.857
1431.3	144.851
1435.49	55.936
1439.69	119.27
1443.88	10.4917
1448.07	127.759
1452.26	41.3115
1456.44	155.91
1460.62	54.5562
1464.8	43.646
1468.98	83.7695
1473.15	44.1504
1477.33	8.55957
1481.5	93.959
1485.66	29.5645
1489.83	71.126
1493.99	2.90576
1498.15	67.5327
1502.31	92.1514
1506.47	117.885
1510.62	67.6787
1514.77	143.771
1518.92	42.5322
1523.07	62.1406
1527.21	43.9629
1531.35	63.5044
1535.49	94.0254
1539.63	88.2856
1543.76	49.8652
1547.9	52.6455
1552.03	88.7759
1556.15	64.4849
1560.28	52.272
