Measurement: Raman, 514 nm, ccw, Raman Data Processed
Mineral: Augite
Rruff sample: R061086
Ideal chemistry: (Ca,Mg,Fe)_2_(Si,Al)_2_O_6_
Locality: Boreslav, Teplitz, Bohemia, Czech Republic
Source: Michael Scott
Description: Black to dark green tabular euhedral crystal
Measured chemistry: (Ca_0.88_Mg_0.83_Fe_0.13_Al_0.08_Na_0.04_Ti_0.03_Cr_0.01_)_Σ=2_(Si_1.89_Al_0.11_)_Σ=2_O_6_
Pin_id: M00162
Orientation: Laser parallel to c* (0 0 1). Fiducial mark perpendicular to laser is parallel to a [1 0 0]
Raman shift (cm-1)	intensity
126.705	0
131.649	95.7297
136.591	153.753
141.529	66.8704
146.465	62.978
151.398	47.353
156.328	8.11572
161.256	23.2495
166.18	82.5894
171.102	114.744
176.021	161.169
180.937	237.689
185.85	315.207
190.76	584.651
195.668	642.953
200.572	357.647
205.474	60.0808
210.374	80.8147
215.27	26.8589
220.163	146.8
225.054	230.839
229.942	165.339
234.827	152.318
239.709	47.8289
244.589	168.793
249.465	310.18
254.339	331.993
259.21	278.982
264.079	91.8298
268.944	65.8149
273.807	15.9817
278.667	11.7661
283.524	48.2905
288.378	74.2339
293.23	264.271
298.079	454.572
302.925	572.935
307.768	818.598
312.609	1239.47
317.446	1870.96
322.281	2480.97
327.113	2749.44
331.943	2348.22
336.769	1886.68
341.593	1446.22
346.414	1262.27
351.233	1207.44
356.048	1193.3
360.861	1134.99
365.671	1022.27
370.478	1042.25
375.283	1127.43
380.084	1351.8
384.883	1931.34
389.68	2525.04
394.473	2499.91
399.264	1619.91
404.052	871.043
408.837	473.3
413.62	173.668
418.4	45.8372
423.177	112.36
427.951	48.2395
432.722	66.1484
437.491	66.8174
442.257	50.5054
447.021	4.91821
451.781	27.5195
456.539	107.666
461.294	160.61
466.047	213.235
470.797	124.507
475.544	90.0513
480.288	162.336
485.03	30.5569
489.768	101.271
494.504	130.027
499.238	148.7
503.969	279.283
508.697	472.769
513.422	478.142
518.144	449.66
522.864	404.504
527.582	327.475
532.296	383.293
537.008	422.949
541.717	351.434
546.423	436.741
551.127	573.69
555.828	717.785
560.526	616.511
565.222	432.029
569.915	276.869
574.605	238.404
579.292	63.9458
583.977	17.9219
588.659	58.3528
593.339	24.2456
598.016	36.4983
602.69	32.5784
607.361	16.3428
612.03	51.802
616.696	56.5022
621.359	49.6367
626.02	198.186
630.678	180.461
635.333	409.373
639.986	443.925
644.636	817.115
649.284	1243.95
653.928	2064.42
658.57	3877.54
663.21	5872.31
667.846	6150.74
672.481	3829.82
677.112	2015.56
681.741	1106.97
686.367	680.053
690.99	403.812
695.611	262.257
700.229	231.393
704.845	152.209
709.458	147.766
714.068	107.018
718.676	137.986
723.281	12.2102
727.883	105.659
732.483	97.4434
737.08	53.4504
741.674	62.4009
746.266	56.5732
750.855	67.0078
755.442	184.111
760.025	188.443
764.607	345.325
769.185	388.024
773.761	445.671
778.335	388.279
782.906	431.867
787.474	353.449
792.039	292.044
796.602	260.666
801.162	240.333
805.72	318.058
810.275	279.857
814.828	321.746
819.378	299.74
823.925	389.856
828.47	384.106
833.012	349.507
837.551	378.072
842.088	360.815
846.622	340.75
851.154	212.891
855.683	265.617
860.209	302.89
864.733	317.661
869.254	266.976
873.773	203.155
878.289	66.8486
882.803	148.535
887.314	213.886
891.822	311.127
896.328	301.06
900.831	248.688
905.332	248.028
909.83	219.903
914.325	227.306
918.818	229.21
923.308	310.654
927.796	276.661
932.281	409.138
936.764	334.119
941.244	308.603
945.721	328.565
950.196	365.99
954.668	360.995
959.138	480.479
963.605	540.423
968.07	649.833
972.532	768.702
976.991	987.027
981.448	1145.8
985.903	1489.02
990.355	1987.71
994.804	3234.93
999.251	4796.76
1003.7	7029.52
1008.14	8985.14
1012.58	7874.42
1017.01	4441
1021.45	2372.38
1025.88	1527.27
1030.31	1132.42
1034.73	888.061
1039.16	936.913
1043.58	876.97
1048	679.637
1052.41	628.47
1056.83	403.15
1061.24	364.742
1065.65	380.682
1070.05	325.215
1074.46	203.08
1078.86	137.454
1083.26	285.385
1087.65	260.658
1092.05	195.329
1096.44	155.146
1100.83	184.643
1105.21	241.631
1109.6	199.193
1113.98	192.506
1118.36	183.414
1122.73	178.026
1127.1	212.498
1131.47	82.0742
1135.84	108.295
1140.21	33.9233
1144.57	18.5068
1148.93	58.6123
1153.29	18.2002
1157.65	5.56055
1162	55.3774
1166.35	25.272
1170.7	7.19043
1175.05	50.2007
1179.39	24.9468
1183.73	145.246
1188.07	51.6621
1192.41	72.4956
1196.74	23.2974
1201.07	122.563
1205.4	97.1943
1209.72	104.603
1214.05	26.5425
1218.37	119.987
1222.69	125.21
1227.01	44.1519
1231.32	114.814
1235.63	92.1514
1239.94	125.202
1244.24	112.013
1248.55	58.5244
1252.85	250.72
1257.15	53.6226
1261.44	137.35
1265.74	215.566
1270.03	213.483
1274.32	94.0957
1278.61	162.303
1282.89	158.402
1287.17	134.955
1291.45	89.4356
1295.73	162.968
1300	109.619
1304.27	60.7119
1308.54	253.012
1312.81	16.6045
1317.08	32.5889
1321.34	106.607
1325.6	62.9712
1329.85	138.305
1334.11	111.994
1338.36	110.186
1342.61	100.776
1346.86	139.278
1351.1	53.625
1355.35	149.489
1359.59	60.04
1363.82	157.027
1368.06	57.4878
1372.29	159.58
1376.52	112.795
1380.75	168.424
1384.97	32.5908
1389.2	75.2476
1393.42	156.399
1397.64	92.7622
1401.85	72.7022
1406.07	95.5356
1410.28	15.2012
1414.49	159.152
1418.69	41.2861
1422.9	2.93603
1427.1	90.2549
1431.3	52.978
1435.49	59.9551
1439.69	118.865
1443.88	73.8569
1448.07	64.1973
1452.26	95.2632
1456.44	114.803
1460.62	34.2261
1464.8	62.665
1468.98	90.0644
1473.15	31.4941
1477.33	33.7783
1481.5	106.471
1485.66	77.3477
1489.83	6.18457
1493.99	1.14404
1498.15	112.873
1502.31	126.624
1506.47	73.6231
1510.62	36.8374
1514.77	37.9937
1518.92	48.1426
1523.07	53.2095
1527.21	128.746
1531.35	26.271
1535.49	36.3916
1539.63	131.743
1543.76	97.3354
1547.9	145.492
1552.03	122.707
1556.15	73.1836
1560.28	0.11377
