Measurement: Raman, 514 nm, ccw, Raman Data Processed
Mineral: Augite
Rruff sample: R061108
Ideal chemistry: (Ca,Mg,Fe)_2_(Si,Al)_2_O_6_
Locality: Monti Rossi, near Mt. Etna, Sicily, Italy
Source: Michael Scott
Description: Euhedral, short prismatic, black crystals in vesicular basalt.
Measured chemistry: (Ca_0.86_Mg_0.74_Fe^2+^_0.18_Fe^3+^_0.08_Al_0.05_Ti_0.04_Na_0.04_Mn_0.01_)_Σ=2_(Si_1.83_Al_0.17_)_Σ=2_O_6_
Pin_id: L01693
Orientation: Laser parallel to -c* (0 0 -1). Fiducial mark perpendicular to laser is parallel to a [1 0 0]
Raman shift (cm-1)	intensity
215.281	0
218.957	98.2793
222.632	359.664
226.304	158.417
229.976	322.603
233.645	273.737
237.313	65.6191
240.979	20.0049
244.643	44.9785
248.306	188.973
251.967	76.6553
255.626	141.024
259.284	101.219
262.94	91.4014
266.594	9.88867
270.247	63.3164
273.898	145.77
277.547	432.287
281.194	684.794
284.84	1114.6
288.485	1812.1
292.127	2371.81
295.768	3158.27
299.407	4125.69
303.045	4980.14
306.68	6009.6
310.315	7438.88
313.947	8882.77
317.578	10233.4
321.207	11624.9
324.835	12319.3
328.461	12280.5
332.085	11432.7
335.707	10341.7
339.328	9476.03
342.947	8924.08
346.565	8687.82
350.181	8785.7
353.795	9112
357.408	8777.48
361.019	8365.95
364.628	7837.31
368.236	7543.97
371.842	7609.71
375.447	8696.02
379.049	10201.6
382.651	11973.4
386.25	13577.1
389.848	13792.6
393.444	13077.7
397.039	10607.8
400.632	7698.69
404.223	5050.59
407.813	3093.38
411.401	2233.52
414.988	1594.69
418.573	1350.91
422.156	1196.68
425.738	958.622
429.318	756.361
432.896	677.124
436.473	797.76
440.048	582.238
443.622	444.031
447.194	583.809
450.764	741.427
454.333	1066.76
457.9	1259.45
461.465	1619.69
465.029	1680.45
468.592	1747.53
472.153	1548.93
475.712	1467.35
479.269	1568.67
482.825	1558.28
486.38	1594.85
489.932	1762.71
493.484	1906.43
497.033	2062.53
500.581	2369.3
504.128	2813.78
507.672	3196.24
511.216	3521.65
514.757	3518.97
518.297	3672.06
521.836	3686.15
525.373	3820.93
528.908	4014.47
532.442	3974.74
535.974	4103.72
539.505	4004.35
543.034	4020.62
546.561	4226.49
550.087	4540.96
553.612	4976.99
557.134	5042.57
560.656	4596.69
564.175	3791.31
567.693	3267.43
571.21	2472.03
574.725	1981.09
578.238	1508.61
581.75	874.578
585.261	353.513
588.769	91.1231
592.277	145.873
595.782	244.477
599.286	257.228
602.789	245.73
606.29	33.2568
609.789	30.5684
613.287	80.1201
616.784	212.314
620.279	388.422
623.772	411.851
627.264	767.948
630.754	921.144
634.243	1375.64
637.73	1929.48
641.215	2868.72
644.7	4278.94
648.182	6453.44
651.663	9665.98
655.143	14497
658.621	20423.5
662.097	24877.6
665.572	26920.3
669.046	23580.5
672.518	17097.5
675.988	11094
679.457	6957.3
682.924	4438.32
686.39	3018.12
689.854	1970.74
693.317	1493.22
696.778	983.598
700.238	664.91
703.697	862.205
707.153	773.523
710.609	790.908
714.062	531.404
717.515	556.058
720.965	55.4424
724.415	184.528
727.863	340.101
731.309	468.06
734.754	668.587
738.197	607.082
741.639	286.275
745.079	121.228
748.518	361.428
751.955	1118.12
755.391	1640.89
758.825	2293.06
762.258	3080.82
765.69	3278.13
769.12	3524
772.548	3575.59
775.975	3212.78
779.4	2766.66
782.824	2405.29
786.247	1884.72
789.668	1548.02
793.087	1610.24
796.506	1541.45
799.922	1401.7
803.337	1619.06
806.751	1973.56
810.163	2230.27
813.574	2496.24
816.983	2605.52
820.391	2432.16
823.797	2108.22
827.202	1730.88
830.606	1348.14
834.008	1046.58
837.408	906.557
840.807	768.406
844.205	616.949
847.601	571.234
850.996	969.301
854.389	1003.19
857.781	1288.93
861.171	1342.06
864.56	1311.81
867.948	1268.17
871.334	1253.38
874.718	1494.42
878.101	1465.51
881.483	1657.7
884.863	1883.6
888.242	2165.68
891.62	2255.9
894.996	2455.02
898.37	2456.93
901.743	2457.43
905.115	2741.21
908.485	2884.23
911.854	2959.37
915.221	3588.55
918.587	3793.63
921.952	3618.54
925.315	4086.4
928.677	4120.1
932.037	4086.5
935.396	3947.53
938.753	3661.17
942.109	3524.4
945.464	3710.09
948.817	3738.42
952.169	3766.12
955.519	4003.28
958.868	4355.9
962.216	4561.93
965.562	5019.31
968.906	5578.03
972.25	6423.06
975.592	6894.38
978.932	7889.95
982.271	9257.74
985.609	10848.7
988.945	13362.9
992.28	16393.2
995.614	21491.7
998.946	27593.8
1002.28	33853.9
1005.61	38814.1
1008.93	39272.2
1012.26	34098.2
1015.59	25486
1018.91	17625.4
1022.23	12312.7
1025.55	9456.73
1028.87	8014.76
1032.19	7457.79
1035.51	6817.86
1038.82	6453.39
1042.14	5909.9
1045.45	5278.02
1048.76	4715.42
1052.07	4004.47
1055.38	3391.77
1058.69	2852.14
1061.99	2761.75
1065.3	2197.87
1068.6	2166.09
1071.9	2183.4
1075.2	2113.54
1078.5	2047.17
1081.8	2040.75
1085.1	1958.26
1088.39	1803.38
1091.68	1834.95
1094.97	1753.19
1098.27	1873.95
1101.56	1742.79
1104.84	1873.61
1108.13	1842.1
1111.42	1823.62
1114.7	1657.57
1117.98	1648.7
1121.26	1600.57
1124.54	1231.96
1127.82	781.28
1131.1	533.324
1134.38	343.086
1137.65	229.795
1140.92	77.3184
1144.19	56.874
1147.47	383.336
1150.73	400.113
1154	384.732
1157.27	339.225
1160.54	307.177
1163.8	151.571
1167.06	200.385
1170.32	146.295
1173.58	26.5771
1176.84	60.5498
1180.1	8.88867
1183.35	15.4365
1186.61	88.6113
1189.86	185.76
1193.11	144.81
1196.36	273.975
1199.61	387.807
1202.86	397.602
1206.11	423.69
1209.35	580.157
1212.6	645.023
1215.84	502.379
1219.08	710.089
1222.32	600.11
1225.56	699.981
1228.8	714.762
1232.03	798.404
1235.27	778.246
1238.5	865.259
1241.73	904.902
1244.96	877.342
1248.19	895.596
1251.42	902.222
1254.65	985.812
1257.88	1076.32
1261.1	1077.25
1264.32	1089.86
1267.54	1172.85
1270.76	1102.43
1273.98	1039.82
1277.2	1162.72
1280.42	1090.29
1283.63	1014.4
1286.85	908.649
1290.06	855.248
1293.27	718.053
1296.48	842.605
1299.69	659.886
1302.9	741.393
1306.1	648.055
1309.31	701.996
1312.51	678.374
1315.71	693.74
1318.91	777.859
1322.12	714.22
1325.31	575.898
1328.51	752.87
1331.71	627.987
1334.9	567.838
1338.1	538.732
1341.29	638.312
1344.48	501.385
1347.67	734.984
1350.86	374.453
1354.04	629.847
1357.23	468.279
1360.41	494.511
1363.6	512.477
1366.78	470.618
1369.96	419.383
1373.14	318.507
1376.32	342.632
1379.49	415.886
1382.67	325.95
1385.84	497.86
1389.02	388.468
1392.19	312.801
1395.36	356.969
1398.53	351.681
1401.7	243.482
1404.86	385.69
1408.03	200.57
1411.19	222.166
1414.36	292.13
1417.52	159.52
1420.68	56.6357
1423.84	196.942
1427	274.981
1430.15	150.278
1433.31	157.615
1436.46	229.56
1439.62	140.908
1442.77	105.189
1445.92	122.97
1449.07	46.3535
1452.22	36.9736
1455.37	60.2031
1458.51	4.18555
1461.66	36.8496
1464.8	24.9434
1467.94	160.305
1471.08	128.485
1474.22	12.9678
1477.36	36.6807
1480.5	12.4375
1483.63	14.1025
1486.77	96.6055
1489.9	67.7246
1493.03	183.125
1496.16	134.211
1499.3	253.095
1502.42	56.3594
1505.55	232.129
1508.68	169.325
1511.8	181.954
1514.93	130.018
1518.05	278.75
1521.17	279.515
1524.29	188.636
1527.41	315.18
1530.53	159.024
1533.64	165.67
1536.76	83.0791
1539.87	81.4316
1542.99	118.184
1546.1	113.072
1549.21	170.609
1552.32	50.3809
1555.42	106.656
1558.53	30.1367
1561.64	64.5537
