Measurement: Raman, 514 nm, ccw, Raman Data Processed
Mineral: Augite
Rruff sample: R070231
Ideal chemistry: (Ca,Mg,Fe)_2_(Si,Al)_2_O_6_
Locality: Old Goose Creek Quarry, Leesburg, Loudoun County, Virginia, USA
Source: Michael Scott
Description: Very dark grey-green prismatic crystals frozen in quartz
Measured chemistry: (Mg_0.44_Fe_0.37_Ca_0.17_Ti_0.01_Mn_0.01_)_Σ=1_(Si_0.98_Al_0.02_)_Σ=1_O_3_
Pin_id: M00062
Orientation: Laser parallel to -c* (0 0 -1). Fiducial mark perpendicular to laser is parallel to a [1 0 0]
Raman shift (cm-1)	intensity
149.83	0
153.53	42.3047
157.228	405.516
160.925	286.68
164.62	928.592
168.313	469.023
172.005	258.033
175.695	341.096
179.384	662.269
183.071	878.197
186.757	1257.56
190.44	845.584
194.123	840.865
197.803	1049.53
201.483	1025.01
205.16	645.93
208.836	534.004
212.51	517.014
216.183	235.344
219.854	446.826
223.524	850.107
227.192	576.699
230.858	811.244
234.523	826.797
238.186	630.938
241.848	648.785
245.508	802.426
249.166	1064.91
252.823	1205.28
256.479	1043.55
260.132	1447.74
263.784	807.857
267.435	548.898
271.084	425.865
274.731	114.76
278.377	263.303
282.021	286.65
285.664	397.252
289.305	722.842
292.945	621.709
296.583	579.844
300.219	600.088
303.854	799.277
307.487	1287.06
311.119	1572.18
314.749	1813.79
318.377	2091.95
322.004	1718.79
325.629	1705.96
329.253	1262.47
332.876	1038.27
336.496	1011.28
340.115	870.463
343.733	899.787
347.349	843.219
350.963	818.74
354.576	721.332
358.187	417.978
361.797	379.654
365.405	584.312
369.012	597.945
372.617	704.525
376.22	901.039
379.822	1013.49
383.423	1197.88
387.022	1149.22
390.619	938.525
394.215	479.793
397.809	138.027
401.401	38.7754
404.992	131.766
408.582	92.1582
412.17	113.82
415.756	104.387
419.341	324.586
422.924	533.543
426.506	161.81
430.086	205.975
433.665	52.1621
437.242	228.754
440.818	146.471
444.392	62.6758
447.964	64.6699
451.535	91.7676
455.105	53.5527
458.672	537.91
462.239	365.31
465.804	872.74
469.367	771.195
472.928	1003.67
476.489	615.158
480.047	292.674
483.604	285.231
487.16	440.826
490.714	547.447
494.266	489.092
497.817	543.744
501.367	742.445
504.915	881.523
508.461	1037.2
512.006	1301.25
515.549	1151.43
519.091	1667.02
522.631	1727.53
526.17	1967.41
529.707	2183.36
533.243	2329.8
536.777	2398.94
540.31	2500.39
543.841	2508.36
547.37	2590.33
550.898	2267.94
554.425	2158.23
557.95	2052.68
561.473	1934.2
564.995	1801.77
568.516	1510.38
572.035	1699.99
575.552	1661.28
579.068	1723.96
582.583	1715.76
586.095	1490.8
589.607	1929.58
593.117	2233.54
596.625	2387.81
600.132	2572.54
603.637	3114.2
607.141	3165.89
610.643	3342.54
614.144	3120.19
617.643	2800.54
621.141	2857.11
624.637	2893.25
628.132	2537.18
631.625	2625.55
635.117	2733.3
638.607	2452.27
642.096	2347.63
645.583	2350.26
649.069	2765.65
652.553	2714.41
656.036	3027.3
659.517	3420.77
662.997	3795.02
666.475	3824.29
669.952	3354.88
673.427	2917.75
676.901	2484.32
680.373	1991.71
683.844	1509.27
687.313	1454.09
690.781	1201.96
694.247	1020.87
697.712	1003.51
701.175	611.078
704.637	873.656
708.097	808.229
711.556	663.971
715.014	585.574
718.469	632.039
721.924	523.551
725.377	451.996
728.828	561.117
732.278	316.234
735.726	613.084
739.173	482.516
742.619	404.514
746.063	667.074
749.505	577.191
752.946	279.852
756.386	279.043
759.824	63.7422
763.26	103.887
766.695	404.496
770.129	349.586
773.561	326.16
776.992	16.668
780.421	59.0781
783.849	314.254
787.275	42.2109
790.7	130.012
794.123	352.996
797.545	75.1758
800.965	108.184
804.384	241.426
807.802	117.918
811.217	89.957
814.632	80.4102
818.045	92.2695
821.456	32.4531
824.867	216.332
828.275	254.371
831.682	41.582
835.088	187.566
838.492	108.363
841.895	252.57
845.296	278.852
848.696	826.566
852.094	1191.74
855.491	1107.39
858.887	1201.51
862.281	1317.09
865.673	1393.95
869.064	1354.34
872.454	1145.33
875.842	1188.72
879.229	1139.67
882.614	998.082
885.998	943.918
889.38	676.973
892.761	781.156
896.14	835.922
899.518	647.238
902.895	624.594
906.27	415.496
909.644	673.629
913.016	806.684
916.387	651.254
919.756	522.516
923.124	301.731
926.49	216.922
929.855	199.707
933.219	358.012
936.581	91.418
939.941	123.18
943.301	54.3984
946.658	128.254
950.015	175.168
953.369	104.305
956.723	35.75
960.075	230.785
963.425	265.269
966.774	15.9805
970.122	231.656
973.468	128
976.813	362.094
980.156	215.066
983.498	159.066
986.839	605.055
990.178	602.996
993.516	871.894
996.852	911.828
1000.19	1328.71
1003.52	1990.58
1006.85	2938.44
1010.18	4085.3
1013.51	3857.18
1016.84	2162.09
1020.16	1423.94
1023.49	808.781
1026.81	660.625
1030.13	614.5
1033.46	373.426
1036.78	332.41
1040.09	492.465
1043.41	256.578
1046.72	106.336
1050.04	13.7227
1053.35	270.809
1056.66	182.996
1059.97	228.68
1063.28	273.641
1066.58	462.57
1069.89	346.305
1073.19	316.238
1076.49	333.242
1079.79	485.984
1083.09	284.223
1086.39	441.277
1089.69	523.309
1092.98	489.973
1096.28	573.582
1099.57	450.883
1102.86	437.711
1106.15	478.969
1109.43	455.828
1112.72	522.981
1116.01	336.144
1119.29	399.773
1122.57	262.156
1125.85	271.328
1129.13	250.293
1132.41	337.91
1135.69	268.039
1138.96	182.637
1142.24	125.644
1145.51	63.6328
1148.78	325.769
1152.05	483.023
1155.32	360.074
1158.59	164.34
1161.85	359.055
1165.11	113.258
1168.38	488.984
1171.64	128.277
1174.9	206.129
1178.16	360.582
1181.41	250.652
1184.67	357.234
1187.92	241.309
1191.18	198.856
1194.43	363.977
1197.68	274.629
1200.93	359.375
1204.17	573.316
1207.42	272.519
1210.66	193.523
1213.91	299.879
1217.15	230.555
1220.39	388.051
1223.63	549.379
1226.87	604.754
1230.1	480.031
1233.34	316.195
1236.57	164.383
1239.8	108.602
1243.03	304.941
1246.26	107.223
1249.49	189.359
1252.72	259.887
1255.94	247.633
1259.17	224.172
1262.39	291.367
1265.61	229.055
1268.83	109.231
1272.05	87.6914
1275.26	613.93
