Measurement: Raman, 514 nm, ccw, Raman Data Processed
Mineral: Augite
Rruff sample: R070231
Ideal chemistry: (Ca,Mg,Fe)_2_(Si,Al)_2_O_6_
Locality: Old Goose Creek Quarry, Leesburg, Loudoun County, Virginia, USA
Source: Michael Scott
Description: Very dark grey-green prismatic crystals frozen in quartz
Measured chemistry: (Mg_0.44_Fe_0.37_Ca_0.17_Ti_0.01_Mn_0.01_)_Σ=1_(Si_0.98_Al_0.02_)_Σ=1_O_3_
Pin_id: M00357
Orientation: Laser parallel to b* (0 1 0). Fiducial mark perpendicular to laser is parallel to c [0 0 1]
Raman shift (cm-1)	intensity
133.778	0
138.72	111.936
143.66	355.161
148.596	1785.12
153.53	1421.68
158.46	117.872
163.388	29.1943
168.313	226.227
173.235	707.213
178.155	938.119
183.071	683.1
187.985	861.342
192.896	928.855
197.803	1264.35
202.709	2041.48
207.611	1454.64
212.51	2208.47
217.407	2496.19
222.301	2697.77
227.192	2336.13
232.08	1748.2
236.965	1151.8
241.848	823.576
246.728	539.001
251.604	256.727
256.479	343.507
261.35	189.326
266.218	213.88
271.084	105.984
275.947	237.666
280.807	439.371
285.664	823.789
290.518	1302.45
295.37	1885.08
300.219	2903.82
305.065	4249.86
309.908	6250.19
314.749	8641.66
319.586	10016.3
324.421	9355.63
329.253	8017.06
334.083	7269.49
338.909	7504.93
343.733	7680.46
348.554	7963.99
353.372	7888.98
358.187	6904.56
363	6175.54
367.81	6105.88
372.617	6860.61
377.421	9103.75
382.223	11309.3
387.022	11604.6
391.818	9077.12
396.611	5465.12
401.401	2916.64
406.189	1449.39
410.974	1114.5
415.756	468.64
420.536	437.233
425.312	320.731
430.086	334.655
434.858	57.6084
439.626	3.90576
444.392	26.2012
449.155	119.613
453.915	14.582
458.672	104.099
463.427	22.7231
468.179	43.0742
472.928	24.0723
477.675	38.3359
482.419	134.014
487.16	268.288
491.898	352.467
496.634	701.599
501.367	1258.8
506.097	1490.21
510.825	1638.92
515.549	1867.08
520.271	2252.76
524.991	2812.84
529.707	3276.16
534.421	3129.63
539.132	3000.26
543.841	2667.09
548.547	2752.11
553.25	2990.34
557.95	2550.39
562.648	2065.35
567.343	1608.96
572.035	1219.73
576.724	852.976
581.411	564.529
586.095	254.692
590.777	20.7407
595.456	124.985
600.132	61.2661
604.805	72.3769
609.476	302.114
614.144	685.279
618.809	1132.39
623.472	1589.68
628.132	2278.38
632.789	3222.91
637.444	4710.89
642.096	7320.6
646.745	11390.2
651.392	18140
656.036	29176.6
660.677	42097.3
665.316	44034.1
669.952	30733.1
674.585	17425.1
679.216	9371.69
683.844	5657.59
688.469	3548.84
693.092	2570.47
697.712	1947.48
702.329	1504.92
706.944	1274.84
711.556	1049.3
716.166	838.345
720.773	683.075
725.377	646.124
729.978	427.466
734.577	361.386
739.173	310.539
743.767	163.033
748.358	100.48
752.946	30.9468
757.532	2.1875
762.115	0.258301
766.695	46.1958
771.273	28.1773
775.848	73.2222
780.421	66.6773
784.991	63.8765
789.558	94.438
794.123	116.67
798.685	195.522
803.245	61.7842
807.802	33.979
812.356	211.144
816.907	330.707
821.456	364.746
826.003	513.296
830.547	575.394
835.088	508.075
839.627	500.37
844.163	745.313
848.696	1424.94
853.227	2817.27
857.755	3601.35
862.281	3208.2
866.804	2369.99
871.324	1646.24
875.842	1619.12
880.357	1482.45
884.87	1573.8
889.38	1650.32
893.888	1678.87
898.393	1662.48
902.895	1788.94
907.395	2087.14
911.892	2310.43
916.387	2668.34
920.879	2836.97
925.368	2470.99
929.855	2312.49
934.339	1865.67
938.821	1714.11
943.301	1788.99
947.777	1949
952.251	2149.23
956.723	2174.67
961.192	2208.33
965.658	2699.19
970.122	3259.21
974.583	4370.42
979.042	6129.81
983.498	9561.33
987.952	13630
992.403	15174.7
996.852	15398.6
1001.3	18480.5
1005.74	26787.5
1010.18	34647.5
1014.62	29451.8
1019.06	16823.4
1023.49	10606.9
1027.92	8329.81
1032.35	7528.78
1036.78	7141.32
1041.2	6819.92
1045.62	5970.21
1050.04	4926.62
1054.45	4271.98
1058.87	3383.37
1063.28	2879.28
1067.68	2265.86
1072.09	1978.31
1076.49	1770.66
1080.89	1621.97
1085.29	1371.89
1089.69	1291.78
1094.08	1279.23
1098.47	1126.9
1102.86	1009.42
1107.24	857.097
1111.63	772.461
1116.01	766.589
1120.38	674.94
1124.76	604.636
1129.13	401.77
1133.5	392.841
1137.87	218.933
1142.24	114.213
1146.6	33.6602
1150.96	102.436
1155.32	49.439
1159.67	134.371
1164.03	106.336
1168.38	197.366
1172.72	35.7305
1177.07	31.6943
1181.41	10.7773
1185.75	22.2852
1190.09	66.7642
1194.43	5.75488
1198.76	34.9551
1203.09	129.74
1207.42	175.601
1211.75	149.644
1216.07	163.921
1220.39	134.8
1224.71	169.043
1229.02	253.911
1233.34	305.991
1237.65	224.204
1241.96	273.585
1246.26	318.188
1250.57	283.987
1254.87	292.727
1259.17	288.13
1263.46	307.466
1267.76	368.144
1272.05	288.852
1276.34	324.439
1280.62	281.657
1284.91	359.447
1289.19	226.516
1293.47	302.846
1297.74	200.491
1302.02	175.853
1306.29	371.738
1310.56	329.005
1314.83	218.172
1319.09	252.577
1323.35	188.246
1327.61	243.314
1331.87	249.684
1336.12	202.168
1340.38	219.499
1344.63	258.166
1348.87	282.227
1353.12	182.449
1357.36	163.095
1361.6	260.279
1365.84	100.549
1370.08	175.931
1374.31	273.278
1378.54	124.312
1382.77	213.85
1386.99	159.168
1391.22	213.169
1395.44	83.5967
1399.66	128.363
1403.87	163.812
1408.09	42.0513
1412.3	144.884
1416.51	104.162
1420.71	7.35889
1424.92	59.8032
1429.12	141.988
1433.32	51.9941
1437.51	9.02685
1441.71	67.4976
1445.9	103.666
1450.09	109.176
1454.28	99.2129
1458.46	102.19
1462.65	139.155
1466.83	40.9263
1471	81.0981
1475.18	48.8667
1479.35	50.294
1483.52	89.4331
1487.69	76.0474
1491.86	34.9141
1496.02	100.238
1500.18	98.7295
1504.34	12.1953
1508.5	29.6177
1512.65	125.149
1516.8	136.669
1520.95	165.225
1525.1	59.7095
1529.24	153.726
1533.39	31.1128
1537.53	69.6445
1541.66	74.54
1545.8	54.5151
1549.93	114.883
1554.06	117.843
1558.19	84.085
1562.32	53.6938
1566.44	124.344
1570.56	0
