Measurement: Raman, 514 nm, ccw, Raman Data Processed
Mineral: Augite
Rruff sample: R061086
Ideal chemistry: (Ca,Mg,Fe)_2_(Si,Al)_2_O_6_
Locality: Boreslav, Teplitz, Bohemia, Czech Republic
Source: Michael Scott
Description: Black to dark green tabular euhedral crystal
Measured chemistry: (Ca_0.88_Mg_0.83_Fe_0.13_Al_0.08_Na_0.04_Ti_0.03_Cr_0.01_)_Σ=2_(Si_1.89_Al_0.11_)_Σ=2_O_6_
Pin_id: M00244
Orientation: Laser parallel to -b* (0 -1 0). Fiducial mark perpendicular to laser is parallel to c [0 0 1]
Raman shift (cm-1)	intensity
139.061	0
143.998	4.49439
148.932	68.062
153.864	101.541
158.792	18.228
163.718	2.4668
168.641	202.607
173.562	310.868
178.479	531.851
183.394	567.205
188.305	521.792
193.214	543.482
198.12	330.082
203.024	330.416
207.924	18.3533
212.822	72.7925
217.717	200.625
222.609	209.814
227.498	425.741
232.385	621.147
237.269	650.365
242.149	751.845
247.027	993.471
251.903	1215.18
256.775	1079.98
261.645	745.857
266.512	387.804
271.376	269.808
276.237	309.857
281.096	313.939
285.952	412.525
290.805	591.503
295.655	728.13
300.502	876.408
305.347	1295.55
310.189	1843.16
315.028	2728.9
319.864	3913.35
324.698	4686.51
329.528	4703.5
334.356	3854.55
339.182	3131.9
344.004	2759.53
348.824	2582.27
353.641	2382.09
358.455	2049.97
363.266	1671.89
368.075	1259.86
372.881	1046.85
377.684	880.852
382.484	933.845
387.282	993.817
392.077	903.759
396.869	725.665
401.658	389.529
406.445	229.344
411.229	154.105
416.01	145.803
420.788	41.4346
425.564	42.3374
430.337	59.4712
435.107	104.864
439.875	6.82519
444.639	50.6435
449.401	48.3062
454.161	54.5679
458.917	54.438
463.671	48.436
468.422	22.126
473.17	35.8101
477.916	21.4736
482.659	53.5391
487.399	168.386
492.137	209.029
496.872	547.482
501.604	1216.74
506.333	2344.79
511.06	2056.63
515.784	1174.25
520.505	809.648
525.223	547.819
529.939	476.969
534.652	520.456
539.363	516.913
544.07	396.123
548.775	496.085
553.478	507.794
558.177	524.247
562.874	495.442
567.568	377.375
572.26	387.046
576.949	403.452
581.635	209.935
586.319	100.624
590.999	17.7637
595.677	15.7065
600.353	19.0815
605.026	53.0542
609.696	123.315
614.363	167.211
619.028	296.347
623.69	325.507
628.349	393.3
633.006	763.891
637.66	964.158
642.311	1516.55
646.96	2379.74
651.606	3993.07
656.25	7002.1
660.89	11892.8
665.528	16161.3
670.164	12577.5
674.797	7021.38
679.427	3815.03
684.054	2121.44
688.679	1383.6
693.301	968.54
697.921	710.26
702.537	710.773
707.152	699.091
711.763	709.225
716.372	454.187
720.978	407.012
725.582	340.734
730.183	123.628
734.781	41.2715
739.377	112.183
743.97	94.9233
748.561	71.6352
753.149	35.7935
757.734	2.59082
762.316	158.003
766.896	105.655
771.474	232.37
776.048	277.166
780.62	216.065
785.19	237.09
789.757	286.26
794.321	314.593
798.883	299.109
803.442	359.824
807.998	361.756
812.552	570.926
817.103	591.35
821.652	619.045
826.198	618.028
830.741	673.315
835.282	534.923
839.82	421.866
844.355	360.16
848.888	404.818
853.419	304.856
857.946	410.287
862.472	412.122
866.994	424.514
871.514	306.469
876.032	230.183
880.546	332.382
885.059	264.971
889.568	269.691
894.075	385.529
898.58	414.701
903.082	327.676
907.581	323.618
912.078	369.523
916.572	436.252
921.063	475.783
925.552	596.028
930.039	573.963
934.523	523.551
939.004	516.205
943.483	522.127
947.959	544.585
952.432	577.991
956.903	569.446
961.372	763.773
965.838	893.104
970.301	906.069
974.762	1194.66
979.22	1470.84
983.676	2040.61
988.129	2598.94
992.58	3891.85
997.028	5659.31
1001.47	8933.34
1005.92	12760.3
1010.36	13805.3
1014.79	9862.29
1019.23	5212.75
1023.66	2942.2
1028.09	2073.79
1032.52	1757.92
1036.94	1536.8
1041.37	1360.59
1045.79	1268.51
1050.2	1009.82
1054.62	910.825
1059.03	712.19
1063.44	674.821
1067.85	429.625
1072.26	446.819
1076.66	408.625
1081.06	377.13
1085.45	312.955
1089.85	434.419
1094.24	297.391
1098.63	357.314
1103.02	270.819
1107.4	205.446
1111.79	188.226
1116.17	144.514
1120.54	188.082
1124.92	42.5855
1129.29	126.299
1133.66	78.0659
1138.03	30.7061
1142.39	29.8242
1146.75	48.7393
1151.11	39.7373
1155.47	127.688
1159.83	53.4805
1164.18	10.0479
1168.53	176.157
1172.87	0.27832
1177.22	2.07812
1181.56	12.6631
1185.9	1.24951
1190.24	71.5894
1194.57	40.5986
1198.9	50.1577
1203.23	32.8325
1207.56	31.4399
1211.89	93.1426
1216.21	148.326
1220.53	183.085
1224.85	58.3135
1229.16	117.03
1233.47	151.236
1237.78	95.9394
1242.09	176.171
1246.4	245.946
1250.7	167.303
1255	162.152
1259.3	162.878
1263.59	285.852
1267.88	231.393
1272.17	243.489
1276.46	256.146
1280.75	194.798
1285.03	291.09
1289.31	127.266
1293.59	205.079
1297.87	206.85
1302.14	177.73
1306.41	156.447
1310.68	182.141
1314.94	122.455
1319.21	216.072
1323.47	268.487
1327.72	240.535
1331.98	192.117
1336.23	163.57
1340.49	100.718
1344.73	141.615
1348.98	141.023
1353.22	273.413
1357.47	78.166
1361.7	157.73
1365.94	152.915
1370.17	237.606
1374.41	141.632
1378.64	187.335
1382.86	9.97266
1387.09	232.71
1391.31	211.971
1395.53	215.608
1399.75	150.375
1403.96	35.0742
1408.17	119.866
1412.38	143.706
1416.59	158.337
1420.8	85.5762
1425	152.812
1429.2	90.3877
1433.4	147.211
1437.59	121.136
1441.78	42.7783
1445.97	148.572
1450.16	101.587
1454.35	155.921
1458.53	192.237
1462.71	119.786
1466.89	94.52
1471.07	83.3315
1475.24	6.88769
1479.41	72.9565
1483.58	76.1387
1487.75	92.0171
1491.91	109.749
1496.07	124.712
1500.23	126.834
1504.39	202.217
1508.55	175.006
1512.7	106.14
1516.85	107.56
1520.99	122.544
1525.14	105.096
1529.28	83.2002
1533.42	151.915
1537.56	112.73
1541.7	136.569
1545.83	136.073
1549.96	13.8018
1554.09	248.254
1558.22	56.4531
1562.34	0
