Measurement: Raman, 514 nm, ccw, Raman Data Processed
Mineral: Axinite-(Fe)
Rruff sample: R060183
Ideal chemistry: Ca_4_Fe^2+^_2_Al_4_[B_2_Si_8_O_30_](OH)_2_
Locality: Skagit Bluffs, near Manning Park, British Columbia, Canada
Source: Lloyd Twaites
Description: Light-pink transparent axe-head-shaped single crystal
Measured chemistry: Ca_2.00_(Fe^2+^_0.58_Mn_0.23_Mg_0.19_)Al_2.00_B_1.00_Si_4.00_O_15_(OH)
Pin_id: L01743
Orientation: Laser parallel to (0 1 1). Fiducial mark perpendicular to laser is parallel to -a [-1 0 0]
Raman shift (cm-1)	intensity
52.671	0
57.626	192.1
62.579	82.6064
67.529	67.4697
72.477	349.427
77.423	1138.9
82.367	1863.37
87.308	2688.66
92.246	4386.39
97.182	5155.62
102.116	9331.4
107.047	20013.9
111.976	10454
116.903	4755.13
121.827	2501.25
126.749	2038.72
131.668	3098.03
136.585	5605.52
141.5	6336.98
146.412	7086.94
151.321	6977.95
156.229	5525.22
161.134	6772.71
166.036	13160.3
170.936	15862.7
175.834	7241.8
180.729	2796.32
185.622	2769.17
190.512	6571.42
195.4	6906.32
200.286	10098.2
205.169	17969.4
210.049	22036
214.928	15733.5
219.803	8525.38
224.677	3359.94
229.548	1562.99
234.416	1604.43
239.282	2202.61
244.146	3822.85
249.007	6467.93
253.866	9007.29
258.722	7940.94
263.576	9222.57
268.427	16378.9
273.276	20317.6
278.123	14809.6
282.967	8938.73
287.809	10592
292.648	15864.1
297.485	17952
302.319	17376.5
307.151	15378.4
311.98	18278.7
316.807	27651.8
321.631	17960.3
326.454	8030.7
331.273	5683.66
336.09	9952.17
340.905	21196
345.717	16319
350.527	9072.14
355.334	3346.06
360.139	691.34
364.941	336.825
369.741	591.029
374.538	29.21
379.333	1718.29
384.126	6568.77
388.916	7941.22
393.703	5457.72
398.488	2490.81
403.271	1542.37
408.051	3167.31
412.828	9086.53
417.603	11934
422.376	15080.6
427.146	21645.2
431.914	17781.9
436.679	9075.46
441.442	9760.85
446.202	9781.98
450.96	1782.76
455.715	349.126
460.467	178.296
465.218	206.115
469.965	124.196
474.711	352.327
479.454	1745.74
484.194	4165.34
488.932	1050.06
493.667	262.354
498.4	164.375
503.13	28.7676
507.858	303.967
512.583	202.193
517.306	304.009
522.026	197.276
526.744	1.99609
531.459	854.133
536.172	2487.85
540.882	5844.16
545.59	7135.1
550.295	5593.53
554.998	5746.75
559.698	6589.25
564.396	4420.47
569.091	4273.34
573.784	4498.8
578.474	4027.62
583.162	5586.78
587.847	6868.27
592.529	3487.05
597.209	1452.12
601.887	908.059
606.562	1047.06
611.235	2423.49
615.905	2814.81
620.572	2329.78
625.237	952.02
629.9	582.667
634.56	1426.71
639.217	2994.89
643.872	3439.02
648.524	1788.15
653.174	681.87
657.821	407.574
662.466	673.118
667.108	2346.05
671.748	6463.7
676.385	9554.27
681.02	5811.71
685.652	2800.03
690.281	2446.9
694.908	3655.94
699.533	7480.54
704.155	17456.9
708.774	37821.1
713.391	50809.9
718.005	32976.3
722.617	15547.5
727.226	7565.26
731.833	4401.77
736.437	2649.03
741.039	2038.31
745.638	1720.49
750.234	1704.72
754.828	2409.42
759.419	4124.04
764.008	6649.51
768.595	6631.85
773.178	4018.36
777.759	2165.33
782.338	1010.77
786.914	469.357
791.488	150.629
796.059	18.0088
800.627	66.9131
805.193	255.005
809.756	598.514
814.317	484.037
818.875	63.5879
823.431	211.255
827.984	101.413
832.534	359.034
837.082	158.361
841.627	103.659
846.17	235.861
850.71	317.273
855.248	414.847
859.783	961.604
864.316	1116.91
868.846	1276.75
873.373	1163.2
877.898	972.921
882.42	1048.97
886.94	985.368
891.457	1440.31
895.971	2069.11
900.483	2708.51
904.993	2446.39
909.5	1659.73
914.004	1240.81
918.505	1279.29
923.004	1554.16
927.501	2009.26
931.995	2329.05
936.486	2634.94
940.975	3354.66
945.461	5000.54
949.945	7911.83
954.426	12759.9
958.904	22750.8
963.38	30284.5
967.853	24460.9
972.324	22704.5
976.792	27902.3
981.258	25618.6
985.72	17330.3
990.181	13150.7
994.639	12220.8
999.094	12895.9
1003.55	12601.9
1008	9549.75
1012.44	5446.53
1016.89	3347.23
1021.33	2642.52
1025.77	2698.56
1030.21	2486.68
1034.64	2389.05
1039.07	2558.74
1043.5	3012.05
1047.93	3869.28
1052.35	5762.19
1056.78	6599.8
1061.19	5128.14
1065.61	3498.07
1070.02	3101.05
1074.43	4756.94
1078.84	8448.17
1083.25	10963.6
1087.65	7184.43
1092.05	3871.7
1096.45	2381.14
1100.85	1751.27
1105.24	1151.32
1109.63	857.984
1114.02	463.018
1118.4	427.233
1122.78	174.873
1127.16	260.36
1131.54	93.9141
1135.92	0.671875
1140.29	52.5967
1144.66	79.9121
1149.02	130.289
1153.39	70.8203
1157.75	32.1123
1162.11	4.30664
1166.46	88.6426
1170.82	38.5176
1175.17	145.808
1179.52	61.6074
1183.86	78.9111
1188.21	20.1357
1192.55	36.7705
1196.89	48.8154
1201.22	20.5244
1205.55	21.2178
1209.88	86.1084
1214.21	97.8447
1218.54	27.2832
1222.86	166.085
1227.18	151.6
1231.5	123.244
1235.81	31.4102
1240.12	80.0625
1244.43	38.9941
1248.74	57.1953
1253.04	75.7988
1257.34	16.6758
1261.64	52.207
1265.94	115.051
1270.23	97.3691
1274.52	257.322
1278.81	192.43
1283.1	291.512
1287.38	125.025
1291.66	141.374
1295.94	175.107
1300.21	147.9
1304.48	166.795
1308.75	52.3643
1313.02	124.864
1317.29	53.373
1321.55	165.526
1325.81	194.365
1330.06	140.221
1334.32	115.134
1338.57	214.26
1342.82	226.894
1347.06	245.324
1351.31	158.16
1355.55	225.695
1359.79	283.074
1364.02	219.862
1368.26	193.065
1372.49	312.638
1376.71	200.105
1380.94	246.065
1385.16	186.12
1389.38	230.757
1393.6	150.615
1397.81	138.109
1402.02	139.188
1406.23	14.2139
1410.44	235.949
1414.64	161.24
1418.85	195.712
1423.04	161.467
1427.24	147.307
1431.43	148.329
1435.62	187.581
1439.81	69.9805
1444	204.132
1448.18	201.985
1452.36	137.289
1456.54	270.685
1460.71	214.31
1464.89	192.471
1469.06	113.552
1473.22	89.0635
1477.39	57.3213
1481.55	54.8496
1485.71	47.126
1489.86	133.722
1494.02	97.0439
1498.17	53.1494
1502.32	133.794
1506.46	138.106
1510.61	123.745
1514.75	250.433
1518.88	161.031
1523.02	71.624
1527.15	95.3213
1531.28	46.2227
1535.41	35.0283
1539.53	170.867
1543.66	261.585
1547.78	138.847
1551.89	361.062
1556.01	388.551
1560.12	133.344
1564.23	15.0938
1568.33	34.1768
