Measurement: Raman, 514 nm, ccw, Raman Data Processed
Mineral: Axinite-(Fe)
Rruff sample: R060558
Ideal chemistry: Ca_4_Fe^2+^_2_Al_4_[B_2_Si_8_O_30_](OH)_2_
Locality: unknown
Source: Gemological Institute of America
Description: Brown flattened crystal
Measured chemistry: Ca_2.00_(Fe^2+^_0.60_Mg_0.35_Mn_0.05_)_Î£=1_Al_2.00_BSi_4.00_O_15_(OH) ; B not measured
Pin_id: M00869
Orientation: Laser parallel to (0 1 1). Fiducial mark perpendicular to laser is parallel to a [1 0 0]
Raman shift (cm-1)	intensity
132.7	0
137.631	134.809
142.56	582.852
147.485	559.217
152.408	765.837
157.328	810.319
162.246	554.987
167.16	457.302
172.073	946.222
176.982	686.631
181.888	202.008
186.792	5.97436
191.694	171.585
196.592	794.997
201.488	680.264
206.381	1226.17
211.271	1419.58
216.159	1261.62
221.044	794.306
225.926	324.531
230.806	4.40649
235.683	78.4141
240.557	31.0486
245.429	107.52
250.298	282.296
255.164	699.924
260.027	929.02
264.888	1117.83
269.746	1816.01
274.601	2008.43
279.454	1494.96
284.304	874.049
289.151	606.949
293.996	926.524
298.838	1525.4
303.677	1899.45
308.514	2103.88
313.348	1452.3
318.179	916.118
323.008	752.665
327.834	452.51
332.657	328.918
337.478	441.037
342.295	837.48
347.111	1580.17
351.923	2148.83
356.733	2016.75
361.54	762.806
366.345	152.968
371.147	22.2268
375.946	5.57642
380.743	100.049
385.537	408.964
390.328	1226.86
395.116	1220.42
399.902	506.212
404.686	263.969
409.466	439.778
414.244	1155.63
419.019	2832.59
423.792	2751.57
428.562	2853.63
433.329	2044.71
438.094	991.821
442.856	1111.93
447.616	1785.05
452.372	720.163
457.126	109.275
461.878	50.6152
466.627	24.3667
471.373	156.327
476.116	425.291
480.857	932.824
485.596	2031.28
490.331	1542.3
495.064	428.669
499.795	215.303
504.522	107.307
509.247	208.3
513.97	161.462
518.69	93.9624
523.407	47.7625
528.121	97.209
532.833	12.1824
537.543	17.3525
542.249	34.3611
546.953	47.3284
551.655	0.719238
556.354	25.2219
561.05	181.202
565.743	347.199
570.434	479.145
575.123	720.023
579.808	681.828
584.491	848.559
589.172	1429.21
593.85	1403.78
598.525	606.272
603.197	308.641
607.868	286.265
612.535	498.496
617.2	660.638
621.862	554.689
626.522	253.646
631.178	67.5063
635.833	13.2271
640.485	123.784
645.134	251.233
649.78	142.585
654.424	56.9834
659.066	10.4617
663.704	69.532
668.341	266.866
672.974	793.674
677.605	1360.26
682.234	976.502
686.859	425.062
691.483	271.623
696.103	351.054
700.721	631.415
705.337	1503.19
709.949	3380.7
714.56	5941
719.167	4622.16
723.772	2106.18
728.375	921.06
732.975	435.809
737.572	233.426
742.167	133.57
746.759	65.3552
751.349	110.664
755.936	122.854
760.52	274.759
765.102	470.889
769.681	568.74
774.258	438.783
778.832	253.151
783.404	133.698
787.973	10.1523
792.539	2.0293
797.103	34.8972
801.665	65.9919
806.223	38.6506
810.779	8.53687
815.333	83.7632
819.884	16.9768
824.433	9.125
828.979	38.5117
833.522	31.1316
838.063	15.6262
842.601	2.25073
847.137	132.102
851.67	204.454
856.2	317.811
860.729	314.18
865.254	334.566
869.777	354.978
874.297	271.426
878.815	334.957
883.33	443.593
887.843	740.313
892.353	1179.12
896.861	1905.97
901.366	2889.89
905.869	3624.88
910.369	3413.97
914.866	2434.16
919.361	1420.43
923.854	924.497
928.344	622.393
932.831	562.088
937.316	543.06
941.798	577.977
946.278	749.505
950.755	1132.21
955.23	1580.11
959.702	2231.26
964.171	3252.72
968.638	3510.76
973.103	3134.9
977.565	3841.25
982.025	4765.34
986.482	4097.61
990.936	3674.04
995.388	3950.66
999.837	4259.45
1004.28	4486.69
1008.73	3590.24
1013.17	2125.27
1017.61	1097.19
1022.05	675.127
1026.48	568.936
1030.91	593.907
1035.34	458.037
1039.77	243.325
1044.19	224.768
1048.62	291.364
1053.03	291.747
1057.45	352.833
1061.87	411.316
1066.28	344.814
1070.69	218.77
1075.09	158.729
1079.5	210.89
1083.9	221.686
1088.3	238.861
1092.69	162.79
1097.09	102.728
1101.48	77.8845
1105.87	161.97
1110.26	187.247
1114.64	114.431
1119.02	132.68
1123.4	43.2942
1127.78	57.8328
1132.15	46.1973
1136.53	5.65015
1140.89	32.0478
1145.26	2.68188
1149.63	42.4836
1153.99	20.665
1158.35	79.7808
1162.7	45.9766
1167.06	66.029
1171.41	105.066
1175.76	61.0842
1180.11	32.0759
1184.45	5.02222
1188.79	15.2632
1193.13	72.8289
1197.47	78.3215
1201.81	97.2725
1206.14	56.2707
1210.47	44.9663
1214.79	21.4475
1219.12	37.0576
1223.44	18.0222
1227.76	47.0166
1232.08	25.7793
1236.39	85.9163
1240.7	83.2944
1245.02	75.7134
1249.32	60.0566
1253.63	45.8062
1257.93	67.6231
1262.23	81.7507
1266.53	119.636
1270.82	75.0493
1275.12	73.0325
1279.41	95.3123
1283.69	86.5811
1287.98	40.99
1292.26	139.288
1296.54	147.483
1300.82	80.5671
1305.1	148.534
1309.37	116.38
1313.64	126.444
1317.91	51.6091
1322.17	37.0161
1326.44	75.2388
1330.7	76.2361
1334.96	90.5029
1339.21	48.6902
1343.47	50.1352
1347.72	87.3076
1351.97	70.8411
1356.21	84.6091
1360.46	95.7268
1364.7	98.5581
1368.94	35.2595
1373.17	118.708
1377.41	19.3608
1381.64	87.3962
1385.87	39.7639
1390.1	0.491943
1394.32	57.9119
1398.54	87.3682
1402.76	53.8054
1406.98	61.4341
1411.19	93.6877
1415.41	41.2353
1419.62	58.4668
1423.82	79.7117
1428.03	123.398
1432.23	205.809
1436.43	234.93
1440.63	226.192
1444.82	186.432
1449.02	172.754
1453.21	195.407
1457.4	224.197
1461.58	173.715
1465.77	102.786
1469.95	127.825
1474.12	141.175
1478.3	69.2034
1482.47	24.3777
1486.64	12.6016
1490.81	18.345
1494.98	20.3384
1499.14	41.447
1503.31	7.23169
1507.47	44.2502
1511.62	52.8357
1515.78	72.5383
1519.93	79.4346
1524.08	59.6089
1528.23	67.9321
1532.37	42.9761
1536.51	2.75708
1540.65	70.5405
1544.79	14.8015
1548.93	119.383
1553.06	124.164
1557.19	96.9959
1561.32	21.2388
