Measurement: Raman, 514 nm, ccw, Raman Data Processed
Mineral: Axinite-(Fe)
Rruff sample: R050026
Ideal chemistry: Ca_4_Fe^2+^_2_Al_4_[B_2_Si_8_O_30_](OH)_2_
Locality: Pouyva mine, Polar Urals, Western Siberian Region, Russia
Source: Rock Currier
Description: Brown transparent flat crystal
Measured chemistry: Ca_2.00_(Fe^2+^_0.61_Mn_0.26_Mg_0.13_)Al_2.00_BSi_4_O_15_(OH)
Pin_id: L00137
Orientation: Laser parallel to (1 0 1). Fiducial mark perpendicular to laser is parallel to b* (0 1 0)
Raman shift (cm-1)	intensity
86.858	0
91.065	117.902
95.269	358.528
99.471	784.759
103.67	791.781
107.868	870.467
112.063	719.502
116.256	482.778
120.447	215.787
124.636	253.794
128.822	332.487
133.006	25.477
137.188	197.645
141.368	261.027
145.545	726.938
149.72	1627.16
153.893	792.508
158.064	387.095
162.233	295.525
166.399	665.779
170.563	1667.65
174.725	1231.4
178.885	629.727
183.043	86.179
187.198	22.889
191.351	72.802
195.502	57.69
199.651	166.548
203.797	262.191
207.942	762.411
212.084	978.93
216.224	1280
220.362	1066.32
224.497	150.456
228.631	70.119
232.762	54.433
236.891	226.568
241.018	550.467
245.143	638.061
249.265	526.142
253.386	742.719
257.504	729.76
261.62	771.294
265.734	919.569
269.845	1036.28
273.955	1240.42
278.062	1185.57
282.167	965.862
286.27	803.625
290.371	670.902
294.47	647.908
298.567	605.433
302.661	797.468
306.753	1116.67
310.843	924.047
314.931	1144.89
319.017	1806.47
323.101	1551.78
327.182	1435.65
331.261	1311.09
335.339	1417.96
339.414	2278.88
343.487	2615.62
347.557	1611.95
351.626	1299.97
355.693	563.739
359.757	230.062
363.819	58.884
367.879	58.353
371.937	202.115
375.993	270.607
380.047	314.805
384.099	650.259
388.148	1291.65
392.196	1530.6
396.241	943.475
400.284	461.194
404.325	252.829
408.364	277.441
412.401	467.792
416.435	935.17
420.468	1469.21
424.498	1968.85
428.527	1899.11
432.553	1022.01
436.577	498.576
440.599	567.641
444.619	657.793
448.637	409.212
452.653	210.6
456.667	213.739
460.678	160.659
464.688	129.368
468.695	271.937
472.701	391.468
476.704	676.119
480.705	1743.75
484.704	2624.4
488.701	1166.17
492.696	424.038
496.689	234.392
500.68	212.995
504.668	99.877
508.655	126.396
512.639	113.991
516.622	21.727
520.602	64.397
524.581	87.8
528.557	40.094
532.531	22.551
536.503	11.925
540.473	11.543
544.441	77.483
548.407	98.406
552.371	116.405
556.333	226.713
560.293	471.17
564.251	546.29
568.206	671.969
572.16	905.877
576.112	721.042
580.061	499.125
584.009	393.133
587.954	354.068
591.897	162.951
595.839	20.819
599.778	1.433
603.716	125.207
607.651	265.784
611.584	605.126
615.515	1190.42
619.444	1746.7
623.372	1162.68
627.297	371.781
631.22	77.347
635.141	112.137
639.06	201.695
642.977	331.425
646.892	258.978
650.805	115.131
654.716	71.178
658.625	111.784
662.532	166.974
666.437	284.96
670.34	554.73
674.241	1161.45
678.139	1594
682.036	990.828
685.931	513.804
689.824	382.394
693.715	407.95
697.604	733.395
701.491	1211.4
705.376	2310.52
709.259	3957.01
713.139	6282
717.018	5004.94
720.895	2509.81
724.77	1116.63
728.643	579.388
732.514	360.085
736.383	213.719
740.25	153.294
744.115	75.81
747.978	62.269
751.839	81.298
755.698	149.653
759.555	182.471
763.41	238.714
767.263	266.907
771.114	170.055
774.964	103.167
778.811	47.251
782.656	18.77
786.499	49.189
790.341	73.882
794.18	91.017
798.017	54.528
801.853	10.436
805.686	21.255
809.518	114.272
813.347	182.306
817.175	141.772
821.001	45.435
824.824	39.889
828.646	38.734
832.466	34.044
836.284	59.254
840.1	91.176
843.914	149.21
847.726	220.284
851.536	230.378
855.344	240.499
859.15	296.631
862.954	356.776
866.756	420.927
870.557	327.112
874.355	324.323
878.152	310.549
881.946	401.804
885.739	487.077
889.53	671.362
893.318	925.663
897.105	1321.99
900.89	1734.32
904.673	2133.74
908.454	1773.18
912.234	1510.66
916.011	1143.19
919.786	962.771
923.56	701.422
927.331	898.153
931.101	962.777
934.868	964.648
938.634	1010.36
942.398	1285.2
946.16	1906.77
949.92	2842.55
953.678	3578.94
957.435	4771.19
961.189	6002.45
964.941	5161.86
968.692	3530.36
972.441	3218.95
976.187	3578.61
979.932	3339.35
983.675	2671.22
987.416	2346.18
991.155	2006.23
994.893	1845.36
998.628	1963.57
1002.36	2013.98
1006.09	1551.52
1009.82	1087.4
1013.55	699.954
1017.28	509.592
1021	401.121
1024.72	398.791
1028.44	413.172
1032.16	370.95
1035.88	344.029
1039.59	429.231
1043.31	504.102
1047.02	645.995
1050.73	890.128
1054.43	1031.54
1058.14	870.025
1061.84	552.24
1065.54	429.325
1069.24	414.438
1072.94	516.848
1076.64	670.677
1080.33	821.906
1084.03	619.858
1087.71	354.154
1091.4	303.63
1095.09	285.473
1098.78	383.438
1102.46	448.659
1106.14	442.657
1109.82	336.965
1113.5	181.903
1117.17	161.501
1120.85	164.474
1124.52	130.417
1128.19	96.901
1131.86	56.341
1135.52	31.563
1139.19	35.009
1142.85	18.618
1146.51	26.052
1150.17	7.163
1153.83	11.51
1157.48	9.737
1161.14	6.828
1164.79	50.724
1168.44	19.155
1172.09	7.109
1175.73	35.689
1179.38	27.145
1183.02	1.306
1186.66	39.373
1190.3	10.482
1193.94	26.76
1197.58	13.57
1201.21	11.55
1204.84	3.518
1208.47	12.404
1212.1	14.084
1215.72	14.972
1219.35	12.639
1222.97	15.584
1226.59	49.498
1230.21	7.865
1233.83	7.233
1237.45	6.305
1241.06	21.539
1244.67	4.222
1248.28	47.286
1251.89	23.754
1255.5	26.161
1259.1	17.367
1262.7	11.534
1266.31	8.177
1269.9	38.865
1273.5	45.593
1277.1	29.288
1280.69	53.797
1284.29	29.147
1287.88	66.477
1291.46	14.883
1295.05	29.413
1298.64	22.092
1302.22	0.688
1305.8	64.382
1309.38	23.559
1312.96	61.016
1316.54	32.245
1320.11	34.317
1323.68	53.357
1327.25	45.255
1330.82	47.019
1334.39	55.537
1337.96	60.048
1341.52	66.762
1345.08	53.187
1348.64	26.402
1352.2	68.967
1355.76	22.05
1359.31	40.562
1362.87	53.718
1366.42	45.043
1369.97	13.598
1373.52	73.831
1377.06	51.771
1380.61	20.558
1384.15	92.323
1387.69	82.518
1391.23	57.394
1394.77	34.535
1398.3	59.042
1401.84	34.05
1405.37	27.868
1408.9	20.371
1412.43	54.355
1415.96	54.625
1419.48	78.081
1423.01	59.93
1426.53	84.983
1430.05	43.722
1433.57	52.486
1437.08	20.733
1440.6	33.276
1444.11	16.827
1447.62	51.474
1451.13	15.294
1454.64	35.938
1458.15	50.069
1461.65	85.111
1465.16	70.36
1468.66	44.577
1472.16	45.694
1475.65	40.086
1479.15	13.347
1482.64	8.605
1486.14	45.459
1489.63	22.139
1493.12	31.455
1496.61	27.739
1500.09	36.718
1503.58	62.263
1507.06	31.085
1510.54	30.822
1514.02	4.878
