Measurement: Raman, 514 nm, ccw, Raman Data Processed
Mineral: Axinite-(Fe)
Rruff sample: R040074
Ideal chemistry: Ca_4_Fe^2+^_2_Al_4_[B_2_Si_8_O_30_](OH)_2_
Locality: Luning, Nevada, USA
Source: University of Arizona Mineral Museum
Description: Pale brown wedge-shaped crystal
Measured chemistry: (Ca_0.98_Mn_0.01_)_2_(Fe_0.41_Mg_0.39_Mn_0.20_)Al_1.95_B_1.20_Si_3.90_O_15_(OH)
Pin_id: L00132
Orientation: Laser parallel to (-1 -1 0). Fiducial mark perpendicular to laser is parallel to c [0 0 1]
Raman shift (cm-1)	intensity
90.003	0
94.188	71.92
98.37	1336.39
102.55	1897.28
106.729	4671.01
110.905	5906.8
115.079	4707.74
119.251	3464.65
123.422	2588.53
127.59	1960.96
131.756	1329.61
135.92	579.947
140.082	1381.14
144.242	2606.19
148.4	3806.55
152.556	4983.5
156.71	3397.83
160.862	2882.63
165.012	3202.04
169.16	8013.69
173.306	10592.4
177.449	4562.98
181.591	956.174
185.731	277.916
189.869	680.46
194.005	3560.99
198.139	2133.72
202.271	2068.49
206.4	4044.33
210.528	5711
214.654	6688.08
218.778	5395.57
222.9	2592.25
227.019	628.811
231.137	435.197
235.253	689.062
239.367	222.664
243.479	663.131
247.589	1793.17
251.697	3030.89
255.803	2697.43
259.906	2099.22
264.008	3148.53
268.108	3911.39
272.206	4596.15
276.302	4131.92
280.396	2988.03
284.488	1413.92
288.578	1499.55
292.666	3654.77
296.753	6679.59
300.837	9026.15
304.919	9447.61
308.999	8021.34
313.077	4640.9
317.154	4340.57
321.228	5339.72
325.3	3628.16
329.371	1980.13
333.439	1561.29
337.506	2627.36
341.57	6808.9
345.633	9909.93
349.693	8054.13
353.752	6969.3
357.809	3860.71
361.863	1037.21
365.916	247.177
369.967	499.315
374.016	1272.3
378.063	974.833
382.108	1325.62
386.151	4216.22
390.192	8556.65
394.231	8698.33
398.269	5086.61
402.304	3209.58
406.337	2026.55
410.369	1645.58
414.398	4024.44
418.426	7303.11
422.452	6421.61
426.475	7839.82
430.497	10327.7
434.517	7695.08
438.535	3772.06
442.551	2938.59
446.565	2884.66
450.577	970.265
454.588	455.4
458.596	410.062
462.602	44.209
466.607	67.46
470.61	1010.02
474.61	812.902
478.609	900.496
482.606	2623.19
486.601	4144.58
490.594	1646.22
494.585	328.515
498.575	413.145
502.562	1232.68
506.548	2415.7
510.531	2416.24
514.513	1197.19
518.493	118.287
522.47	291.147
526.446	424.445
530.421	321.662
534.393	29.271
538.363	631.815
542.331	1932.46
546.298	3048.1
550.263	2702.49
554.225	2312.17
558.186	3553.1
562.145	4815.23
566.103	3447.26
570.058	3288.88
574.011	3800.07
577.963	3850.83
581.912	4121.16
585.86	5561.06
589.806	6360.54
593.75	4059.59
597.692	2158.2
601.632	1986.4
605.571	2204.18
609.507	2811.53
613.442	3078.27
617.375	2953.98
621.306	2882.76
625.235	1748.81
629.162	634.156
633.087	89.106
637.011	339.465
640.932	879.278
644.852	1133.77
648.77	863.604
652.686	590.032
656.6	197.771
660.513	559.243
664.423	740.528
668.332	1704.78
672.239	4253.31
676.144	7710.57
680.047	7345.67
683.948	3942.61
687.848	1947.15
691.746	1561.91
695.641	1867.15
699.535	2914.74
703.427	5442.04
707.318	11961.3
711.206	24255.8
715.093	34562.3
718.978	24358.5
722.861	11334.3
726.742	5569.94
730.621	3175.26
734.499	2270.31
738.374	1485.1
742.248	919.633
746.12	743.921
749.99	727.973
753.859	1231.8
757.725	1885.4
761.59	2698.79
765.453	3921.98
769.314	4794.97
773.174	3597.78
777.031	2200.47
780.887	1113.27
784.741	495.938
788.593	155.169
792.443	106.724
796.291	135.516
800.138	214.934
803.983	125.777
807.826	61.811
811.667	374.709
815.507	366.207
819.344	282.058
823.18	149.646
827.014	233.438
830.847	307.609
834.677	282.055
838.506	124.181
842.333	391.636
846.158	560.056
849.981	628.727
853.803	657.566
857.623	696.465
861.441	1085.42
865.257	1154.71
869.071	894.172
872.884	733.855
876.695	1133.79
880.504	1164.01
884.311	1384.42
888.117	1725.05
891.92	2315.8
895.722	3206.72
899.523	5147.84
903.321	6569.13
907.118	5720.6
910.913	4332.27
914.706	2784.11
918.497	1716.21
922.287	1608.38
926.075	1760.63
929.861	2102.94
933.645	2275.33
937.428	2347.8
941.208	2569.93
944.987	3269.16
948.765	4924.44
952.54	7101.6
956.314	9133.73
960.086	13479
963.856	17452.3
967.625	16065.8
971.392	13889.4
975.157	15619.5
978.92	17992
982.682	15381.4
986.441	10775.1
990.199	8790.54
993.956	8754.7
997.71	10649.1
1001.46	13657.6
1005.21	13548.7
1008.96	10116.5
1012.71	6486.73
1016.46	4054.75
1020.2	3183.28
1023.94	3341.59
1027.68	3454.89
1031.42	3003.25
1035.16	2309
1038.9	2352.61
1042.63	2383.01
1046.36	2582.99
1050.09	3041.94
1053.82	3789.5
1057.55	4428.69
1061.27	4351.32
1065	3352.04
1068.72	2699.64
1072.44	2316.32
1076.16	3292.31
1079.87	4788.86
1083.59	5853.81
1087.3	4621.97
1091.01	2818.14
1094.72	1953.71
1098.43	1919.82
1102.14	1785.61
1105.84	2031.59
1109.55	1598.16
1113.25	1083.91
1116.94	619.434
1120.64	715.867
1124.34	629.68
1128.03	713.281
1131.73	486.277
1135.42	729.352
1139.11	582.059
1142.8	126.26
1146.48	55.391
1150.16	14.289
1153.85	196.643
1157.53	297.057
1161.21	355.455
1164.88	63.404
1168.56	139.881
1172.23	284.289
1175.91	98.904
1179.58	105.297
1183.25	157.871
1186.91	280.449
1190.58	282.779
1194.24	192.465
1197.91	194.748
1201.57	147.459
1205.23	110.879
1208.88	153.441
1212.54	286.145
1216.19	401.93
1219.85	456.709
1223.5	461.279
1227.14	445.627
1230.79	59.76
1234.44	233.629
1238.08	577.199
1241.72	720.459
1245.37	812.381
1249	974.018
1252.64	863.137
1256.28	796.502
1259.91	405.633
1263.54	173.943
1267.17	425.15
1270.8	663.029
1274.43	890.037
1278.06	857.162
1281.68	861.125
1285.3	487.568
1288.92	355.457
1292.54	313.336
1296.16	105.838
1299.78	136.918
1303.39	525.33
1307	481.346
1310.61	1134.8
1314.22	913.793
1317.83	891.104
1321.44	557.357
1325.04	214.4
1328.64	157.451
1332.24	116.617
1335.85	293.453
1339.44	532.203
1343.04	659.385
1346.63	858.582
1350.23	600.336
1353.82	503.92
1357.41	0
