Measurement: Raman, 514 nm, ccw, Raman Data Processed
Mineral: Axinite-(Fe)
Rruff sample: R050061
Ideal chemistry: Ca_4_Fe^2+^_2_Al_4_[B_2_Si_8_O_30_](OH)_2_
Locality: Jamestown, California, USA
Source: Rock Currier
Description: Brown colored axe-head-shaped single crystals
Measured chemistry: Ca_2.00_(Fe^2+^_0.73_Mg_0.20_Mn_0.07_)Al_2.00_BSi_4_O_15_(OH)
Pin_id: L00399
Orientation: Laser parallel to c* (0 0 1). Fiducial mark perpendicular to laser is parallel to a [1 0 0]
Raman shift (cm-1)	intensity
91.065	0
95.269	172.732
99.471	1249.71
103.67	2417.54
107.868	4927.08
112.063	3673.59
116.256	1178.7
120.447	353.599
124.636	11.743
128.822	96.444
133.006	307.309
137.188	1173.95
141.368	1294.62
145.545	971.255
149.72	1827.08
153.893	3321.79
158.064	3420.82
162.233	1738.46
166.399	2647.1
170.563	4979.27
174.725	4031.1
178.885	1561.59
183.043	280.864
187.198	3.323
191.351	669.6
195.502	1460.56
199.651	1764.91
203.797	4273.99
207.942	6603.46
212.084	5746.24
216.224	3440.12
220.362	1735.11
224.497	597.719
228.631	40.665
232.762	327.428
236.891	200.021
241.018	507.144
245.143	1270.86
249.265	1839.13
253.386	2686.75
257.504	2886.65
261.62	2579.56
265.734	3790.15
269.845	5774.07
273.955	6610.48
278.062	4728.13
282.167	2622.18
286.27	2049.01
290.371	2949.87
294.47	5138.35
298.567	7933.56
302.661	11646.8
306.753	14980.8
310.843	10109
314.931	4126.29
319.017	1742.82
323.101	911.384
327.182	721.935
331.261	897.788
335.339	979.574
339.414	1916.67
343.487	4684.1
347.557	8406.5
351.626	12825.5
355.693	9567.87
359.757	3685.85
363.819	1379.95
367.879	522.584
371.937	137.393
375.993	66.792
380.047	415.273
384.099	1491.85
388.148	3721.51
392.196	5102.85
396.241	3506.97
400.284	1596.61
404.325	957.751
408.364	1103.34
412.401	2831.8
416.435	8263.1
420.468	10100.5
424.498	9097.78
428.527	9504.97
432.553	6312.05
436.577	3185.05
440.599	4024
444.619	7582.94
448.637	4870.85
452.653	1389.76
456.667	201.888
460.678	163.84
464.688	111.05
468.695	412.372
472.701	935.456
476.704	1799.12
480.705	4533.28
484.704	8857.67
488.701	5584.04
492.696	1559.42
496.689	497.464
500.68	587.561
504.668	873.426
508.655	1185.88
512.639	1453.63
516.622	1077.78
520.602	523.248
524.581	192.03
528.557	8.953
532.531	186.551
536.503	313.292
540.473	284.186
544.441	475.079
548.407	452.941
552.371	76.823
556.333	161.907
560.293	26.539
564.251	38.238
568.206	52.818
572.16	537.794
576.112	1089.72
580.061	1930.6
584.009	4051.42
587.954	7753.19
591.897	8300.91
595.839	4388.57
599.778	2095.19
603.716	1243.75
607.651	1343.25
611.584	1764.7
615.515	1846.09
619.444	1108.18
623.372	412.002
627.297	71.092
631.22	53.874
635.141	110.438
639.06	152.394
642.977	426.128
646.892	413.813
650.805	165.45
654.716	80.024
658.625	39.878
662.532	199.981
666.437	699.389
670.34	1864.69
674.241	4188.29
678.139	5758.08
682.036	3985.06
685.931	2213.18
689.824	1449.6
693.715	1355.81
697.604	1957.92
701.491	3593.93
705.376	7093.85
709.259	15077.5
713.139	24039.4
717.018	21557
720.895	11859.9
724.77	6309.06
728.643	3585.42
732.514	2282.7
736.383	1445.9
740.25	1076.03
744.115	900.092
747.978	801.082
751.839	890.005
755.698	1087.86
759.555	1607.66
763.41	2777.39
767.263	3700.07
771.114	3224.69
774.964	2284.31
778.811	1251.17
782.656	836.969
786.499	576.569
790.341	417.551
794.18	253.876
798.017	110.662
801.853	225.438
805.686	314.206
809.518	409.809
813.347	296.404
817.175	103.77
821.001	138.517
824.824	148.227
828.646	86.528
832.466	142.415
836.284	58.866
840.1	52.479
843.914	99.858
847.726	305.273
851.536	540.751
855.344	532.293
859.15	543.926
862.954	513.628
866.756	518.573
870.557	602.927
874.355	748.564
878.152	918.37
881.946	1105.3
885.739	1791.33
889.53	3054.47
893.318	5008.72
897.105	7150.07
900.89	7702.53
904.673	7185.08
908.454	6214.73
912.234	4701.47
916.011	3174.33
919.786	2293.3
923.56	1951.37
927.331	1577.54
931.101	1407.85
934.868	1512.26
938.634	1634.92
942.398	1958.02
946.16	2435.43
949.92	3235.95
953.678	4236.59
957.435	6499.35
961.189	10290.3
964.941	12285.5
968.692	10961
972.441	11012.8
976.187	14928.4
979.932	17323.2
983.675	14332.6
987.416	12259.2
991.155	12402.6
994.893	13651.9
998.628	15199.8
1002.36	15557.1
1006.09	13566.5
1009.82	9235.73
1013.55	5660.06
1017.28	3691.7
1021	2757.53
1024.72	2552.2
1028.44	2471.33
1032.16	1856.63
1035.88	1271.39
1039.59	955.832
1043.31	663.761
1047.02	579.34
1050.73	498.53
1054.43	449.645
1058.14	505.557
1061.84	437.23
1065.54	343.756
1069.24	299.038
1072.94	253.368
1076.64	388.376
1080.33	666.859
1084.03	836.9
1087.71	695.591
1091.4	603.65
1095.09	540.846
1098.78	200.124
1102.46	150.874
1106.14	100.876
1109.82	79.773
1113.5	89.262
1117.17	97.19
1120.85	45.543
1124.52	18.052
1128.19	8.797
1131.86	28.947
1135.52	43.771
1139.19	4.812
1142.85	48.242
1146.51	7.708
1150.17	6.853
1153.83	43.092
1157.48	0.514
1161.14	22.809
1164.79	32.733
1168.44	28.138
1172.09	44.21
1175.73	0.774
1179.38	14.063
1183.02	30.596
1186.66	11.041
1190.3	14.6
1193.94	37.423
1197.58	10.896
1201.21	24.234
1204.84	43.201
1208.47	20.047
1212.1	12.016
1215.72	28.016
1219.35	40.385
1222.97	44.67
1226.59	36.899
1230.21	18.894
1233.83	43.758
1237.45	12.443
1241.06	22.984
1244.67	29.898
1248.28	21.515
1251.89	40.646
1255.5	36.636
1259.1	62.567
1262.7	44.733
1266.31	72.649
1269.9	91.251
1273.5	71.093
1277.1	62.081
1280.69	78.284
1284.29	52.824
1287.88	75.094
1291.46	65.689
1295.05	28.95
1298.64	5.198
1302.22	6.67
1305.8	26.465
1309.38	41.562
1312.96	17.858
1316.54	16.5
1320.11	28.447
1323.68	55.56
1327.25	80.729
1330.82	69.546
1334.39	77.656
1337.96	43.084
1341.52	59.446
1345.08	85.443
1348.64	88.031
1352.2	86.36
1355.76	63.326
1359.31	85.875
1362.87	122.072
1366.42	98.501
1369.97	117.314
1373.52	96.43
1377.06	104.812
1380.61	117.732
1384.15	54.878
1387.69	79.829
1391.23	114.497
1394.77	119.216
1398.3	112.651
1401.84	116.994
1405.37	81.536
1408.9	84.48
1412.43	94.056
1415.96	61.064
1419.48	81.797
1423.01	157.67
1426.53	61.407
1430.05	98.896
1433.57	86.953
1437.08	112.056
1440.6	92.556
1444.11	54.044
1447.62	23.514
1451.13	20.553
1454.64	31.788
1458.15	24.037
1461.65	68.613
1465.16	24.188
1468.66	51.398
1472.16	108.887
1475.65	53.352
1479.15	40.22
1482.64	84.267
1486.14	47.281
1489.63	77.806
1493.12	65.717
1496.61	40.179
1500.09	15.311
1503.58	10.901
1507.06	73.348
1510.54	0.81
1514.02	38.296
