Measurement: Raman, 514 nm, ccw, Raman Data Processed
Mineral: Axinite-(Fe)
Rruff sample: R060558
Ideal chemistry: Ca_4_Fe^2+^_2_Al_4_[B_2_Si_8_O_30_](OH)_2_
Locality: unknown
Source: Gemological Institute of America
Description: Brown flattened crystal
Measured chemistry: Ca_2.00_(Fe^2+^_0.60_Mg_0.35_Mn_0.05_)_Î£=1_Al_2.00_BSi_4.00_O_15_(OH) ; B not measured
Pin_id: M01661
Orientation: Laser parallel to (1 1 0). Fiducial mark perpendicular to laser is parallel to c [0 0 1]
Raman shift (cm-1)	intensity
95.272	0
100.257	1410.79
105.239	3583.31
110.218	3127.1
115.194	1336.14
120.166	451.444
125.136	15.2432
130.102	141.768
135.065	131.47
140.025	977.517
144.981	1037.05
149.935	2155.17
154.886	2395.93
159.833	1729.53
164.777	1793.34
169.718	3186.18
174.656	2413.14
179.591	549.737
184.523	338.591
189.452	1432.02
194.377	3352.3
199.3	2732.45
204.219	4348.42
209.136	4782.57
214.049	3913.74
218.959	2593.11
223.866	983.649
228.77	81.3848
233.671	227.708
238.569	200.392
243.464	701.218
248.356	1209.93
253.244	2076.19
258.13	2598.76
263.013	3373.04
267.892	4914.47
272.769	5007.74
277.643	3266.58
282.513	1669.87
287.381	1691.57
292.245	3122.48
297.106	5288.51
301.965	6885.61
306.82	7330.71
311.673	5425.54
316.522	3732.93
321.369	2916.93
326.212	1465.43
331.052	1159.94
335.89	1965.19
340.724	4414.17
345.556	7426.86
350.384	7011.43
355.21	5254.04
360.032	1986.26
364.852	408.983
369.669	16.1877
374.482	8.22315
379.293	215.854
384.101	1241.19
388.906	3030.88
393.708	3365.88
398.507	1678.68
403.303	1020.81
408.096	1304.39
412.886	3293.49
417.673	7280.1
422.457	6927.79
427.239	7292.45
432.017	5743.53
436.793	2772.99
441.566	2598.8
446.335	3169.92
451.102	908.338
455.866	134.975
460.627	324.913
465.385	202.658
470.141	273.767
474.893	841.373
479.643	2137.16
484.389	4449.12
489.133	3057.8
493.874	942.535
498.612	811.945
503.347	1445.31
508.08	2052.72
512.809	1814.32
517.536	915.48
522.26	246.648
526.981	35.1025
531.699	56.5832
536.414	169.699
541.127	423.674
545.836	823.563
550.543	561.703
555.247	261.158
559.948	389.864
564.647	518.584
569.342	602.088
574.035	1139.35
578.725	1712.36
583.412	2691.09
588.096	4434.55
592.778	3967.71
597.457	1802.2
602.133	790.679
606.806	594.437
611.476	954.599
616.144	1178.42
620.809	844.99
625.471	234.31
630.13	3.32446
634.787	39.512
639.441	132.664
644.092	359.515
648.74	237.084
653.386	76.707
658.029	128.803
662.669	71.8503
667.306	605.512
671.941	1637.12
676.572	3074.42
681.202	2063.33
685.828	926.655
690.452	556.998
695.073	799.857
699.691	1651.63
704.307	4043.64
708.919	9459.6
713.53	15266.2
718.137	11366.5
722.742	5160.44
727.344	2376.05
731.943	1406.35
736.54	848.369
741.134	592.755
745.725	543.82
750.314	604.933
754.9	905.771
759.483	1627.35
764.064	2798.66
768.642	3286.27
773.217	2380.82
777.79	1317.03
782.36	666.507
786.927	368.816
791.492	216.571
796.054	65.4722
800.613	5.45947
805.17	62.2163
809.724	199.947
814.275	254.743
818.824	43.523
823.37	156.906
827.914	69.2866
832.455	66.54
836.993	38.5588
841.529	98.1865
846.062	269.99
850.593	430.868
855.121	537.831
859.646	465.894
864.169	433.071
868.689	407.408
873.207	463.911
877.722	484.587
882.234	707.44
886.744	1122.53
891.251	1808.89
895.756	2987.44
900.258	3868.24
904.757	4375.39
909.254	4257.19
913.749	3230.52
918.24	1882.36
922.73	1272.03
927.216	1009.37
931.701	994.642
936.182	1119.57
940.661	1394.81
945.138	1942.58
949.612	2968.63
954.083	4572.98
958.552	7030.26
963.019	10343.6
967.483	10224.7
971.944	8566.23
976.403	10304.3
980.859	11424.7
985.313	9246.53
989.764	7746.7
994.213	8083.25
998.659	9747.5
1003.1	11191.6
1007.54	9333.91
1011.98	5458.38
1016.42	2987.72
1020.85	2007.08
1025.29	1991.07
1029.71	2066.76
1034.14	1353.73
1038.56	871.067
1042.99	594.922
1047.4	530.801
1051.82	569.496
1056.23	630.227
1060.65	600.43
1065.06	517.972
1069.46	381.717
1073.87	479.088
1078.27	807.254
1082.67	1338.5
1087.07	1167.79
1091.46	605.739
1095.85	371.602
1100.24	260.991
1104.63	164.925
1109.01	160.472
1113.39	140.112
1117.78	102.302
1122.15	32.6148
1126.53	44.9626
1130.9	33.1123
1135.27	34.3113
1139.64	38.9062
1144	21.8621
1148.37	36.0002
1152.73	25.4504
1157.09	32.5835
1161.44	47.6875
1165.79	31.3308
1170.14	64.7478
1174.49	6.40308
1178.84	3.26416
1183.18	25.3577
1187.53	12.0195
1191.86	57.4329
1196.2	16.4648
1200.54	81.4368
1204.87	9.84302
1209.2	36.4985
1213.53	48.7454
1217.85	48.2712
1222.17	61.031
1226.49	57.4958
1230.81	55.6917
1235.13	72.6055
1239.44	61.3748
1243.75	67.8897
1248.06	74.084
1252.37	52.0591
1256.67	83.8064
1260.97	89.9148
1265.27	77.6841
1269.57	93.1746
1273.86	178.736
1278.15	119.759
1282.44	87.9758
1286.73	60.3032
1291.02	100.982
1295.3	88.1536
1299.58	73.5901
1303.86	3.73926
1308.13	83.6877
1312.41	92.4995
1316.68	53.4395
1320.95	87.8218
1325.22	102.422
1329.48	45.1145
1333.74	82.2034
1338	60.1074
1342.26	123.092
1346.52	52.6372
1350.77	64.5325
1355.02	89.3738
1359.27	130.642
1363.52	72.8762
1367.76	109.76
1372	86.5259
1376.24	61.6577
1380.48	87.2856
1384.72	53.333
1388.95	98.1858
1393.18	80.3149
1397.41	79.6807
1401.63	24.6352
1405.86	45.6787
1410.08	98.6648
1414.3	54.8687
1418.52	71.8298
1422.73	66.9922
1426.95	65.9204
1431.16	50.2415
1435.37	5.10449
1439.57	19.9092
1443.78	64.801
1447.98	39.906
1452.18	92.7219
1456.38	64.4665
1460.57	69.9929
1464.76	94.531
1468.95	32.9131
1473.14	27.2327
1477.33	30.0786
1481.51	74.563
1485.7	35.1841
1489.88	100.006
1494.05	63.1426
1498.23	25.1436
1502.4	50.0098
1506.57	45.9751
1510.74	65.6338
1514.91	53.9477
1519.08	26.0303
1523.24	54.0088
1527.4	54.272
1531.56	46.8948
1535.71	31.4299
1539.87	0.756836
1544.02	31.7002
