Measurement: Raman, 514 nm, ccw, Raman Data Processed
Mineral: Axinite-(Fe)
Rruff sample: R060183
Ideal chemistry: Ca_4_Fe^2+^_2_Al_4_[B_2_Si_8_O_30_](OH)_2_
Locality: Skagit Bluffs, near Manning Park, British Columbia, Canada
Source: Lloyd Twaites
Description: Light-pink transparent axe-head-shaped single crystal
Measured chemistry: Ca_2.00_(Fe^2+^_0.58_Mn_0.23_Mg_0.19_)Al_2.00_B_1.00_Si_4.00_O_15_(OH)
Pin_id: L01391
Orientation: Laser parallel to -a* (-1 0 0). Fiducial mark perpendicular to laser is parallel to -b [0 -1 0]
Raman shift (cm-1)	intensity
52.671	0
57.626	138.218
62.579	99.635
67.529	46.5359
72.477	42.2131
77.423	328.076
82.367	903.51
87.308	1279.25
92.246	2398.38
97.182	2870.69
102.116	3518.28
107.047	5709.88
111.976	4501.67
116.903	3419.03
121.827	2562.51
126.749	2528.61
131.668	3323.87
136.585	4745.54
141.5	4088.55
146.412	3034.46
151.321	3216.81
156.229	3046.82
161.134	1639.58
166.036	2505.09
170.936	3997.31
175.834	2840.16
180.729	1245.57
185.622	857.446
190.512	1966.7
195.4	1896.24
200.286	2726.58
205.169	5004.24
210.049	6745.91
214.928	7121.59
219.803	4821.19
224.677	1876.99
229.548	643.883
234.416	368.032
239.282	360.809
244.146	1109.43
249.007	2943.97
253.866	5570.93
258.722	6564.53
263.576	7960.65
268.427	8500.98
273.276	7505.57
278.123	5425.34
282.967	3945.28
287.809	3709.32
292.648	4005.41
297.485	3747.47
302.319	3452.47
307.151	2822.34
311.98	2827.02
316.807	5112.45
321.631	4645.58
326.454	3858.35
331.273	3684.7
336.09	5183.56
340.905	7078.9
345.717	5980.69
350.527	4383.34
355.334	1586.99
360.139	99.1226
364.941	313.685
369.741	246.211
374.538	100.453
379.333	1509.93
384.126	3946.85
388.916	4177.56
393.703	2192.02
398.488	1235.82
403.271	1398.93
408.051	2548.09
412.828	5666.11
417.603	11063.1
422.376	13547.1
427.146	8881.97
431.914	4974.71
436.679	5185.26
441.442	9138.59
446.202	6723.65
450.96	2475.4
455.715	903.794
460.467	336.8
465.218	333.374
469.965	1115.48
474.711	3201.07
479.454	7217.12
484.194	7705.59
488.932	3140.43
493.667	961.621
498.4	222.116
503.13	30.0615
507.858	71.6797
512.583	59.5942
517.306	163.61
522.026	342.053
526.744	86.395
531.459	161.792
536.172	152.712
540.882	7.49268
545.59	57.4873
550.295	282.739
554.998	1191.82
559.698	2182.78
564.396	2572.57
569.091	3396.16
573.784	3457.53
578.474	2719.66
583.162	2867.51
587.847	3002.06
592.529	1653.29
597.209	1028.51
601.887	1036.71
606.562	1777.86
611.235	2753.6
615.905	3280.93
620.572	2585.91
625.237	1418.35
629.9	918.313
634.56	1332.95
639.217	2461.46
643.872	2704.06
648.524	1741.37
653.174	1167.99
657.821	944.647
662.466	1358.7
667.108	2561.86
671.748	5727.94
676.385	7787.45
681.02	5160.16
685.652	2680.36
690.281	2162.43
694.908	2649.45
699.533	4719.46
704.155	9768.7
708.774	20004.4
713.391	27548.5
718.005	18332.2
722.617	8369.24
727.226	3788.79
731.833	1975.83
736.437	1098.35
741.039	694.36
745.638	411.884
750.234	342.927
754.828	215.502
759.419	401.617
764.008	491.291
768.595	323.537
773.178	164.366
777.759	39.7319
782.338	14.6748
786.914	136.334
791.488	104.791
796.059	169.671
800.627	138.609
805.193	2.17041
809.756	171.027
814.317	32.6675
818.875	42.1577
823.431	10.2969
827.984	4.06006
832.534	10.1514
837.082	301.7
841.627	422.845
846.17	1030.51
850.71	1538.09
855.248	1856.6
859.783	2042.05
864.316	2229.48
868.846	2205.93
873.373	2374.45
877.898	2705.09
882.42	3239.88
886.94	4662.83
891.457	7281.9
895.971	12055.3
900.483	16683.9
904.993	16713.7
909.5	11944.3
914.004	7926.22
918.505	5221.35
923.004	3795.36
927.501	3042.36
931.995	2645.08
936.486	2895.91
940.975	3347.95
945.461	4652.8
949.945	6760.29
954.426	9400.35
958.904	14411.5
963.38	18541.3
967.853	16585.9
972.324	17759.4
976.792	22784.5
981.258	22933.2
985.72	18905.6
990.181	16763.1
994.639	16402.4
999.094	16045.8
1003.55	13037
1008	8699.72
1012.44	5460.46
1016.89	3392.4
1021.33	2490.72
1025.77	2041.86
1030.21	1783.76
1034.64	1426.3
1039.07	1218.23
1043.5	1069.73
1047.93	1083.46
1052.35	1303.52
1056.78	1381.62
1061.19	1164.03
1065.61	721.399
1070.02	453.554
1074.43	559.888
1078.84	820.09
1083.25	1065.03
1087.65	626.781
1092.05	399.268
1096.45	295.62
1100.85	187.692
1105.24	270.591
1109.63	242.892
1114.02	140.532
1118.4	173.987
1122.78	117.94
1127.16	89.6069
1131.54	5.34473
1135.92	75.8872
1140.29	6.1875
1144.66	60.4204
1149.02	66.1372
1153.39	0.443848
1157.75	56.3359
1162.11	2.62451
1166.46	35.3408
1170.82	18.1445
1175.17	9.82812
1179.52	17.3047
1183.86	14.0185
1188.21	23.6509
1192.55	10.1587
1196.89	34.5991
1201.22	100.543
1205.55	15.9224
1209.88	3.22559
1214.21	54.9351
1218.54	6.79394
1222.86	122.734
1227.18	98.4356
1231.5	29.5532
1235.81	81.4785
1240.12	59.7651
1244.43	113.067
1248.74	98.7739
1253.04	111.234
1257.34	211.248
1261.64	209.184
1265.94	184.514
1270.23	186.305
1274.52	192.549
1278.81	166.57
1283.1	223.934
1287.38	237.44
1291.66	193.227
1295.94	103.487
1300.21	128.766
1304.48	145.399
1308.75	132.59
1313.02	141.316
1317.29	200.424
1321.55	232.709
1325.81	93.8867
1330.06	72.9917
1334.32	202.663
1338.57	146.184
1342.82	157.665
1347.06	59.5312
1351.31	103.149
1355.55	47.0957
1359.79	104.822
1364.02	110.938
1368.26	160.876
1372.49	67.2759
1376.71	56.584
1380.94	153.702
1385.16	135.307
1389.38	74.042
1393.6	84.4551
1397.81	179.895
1402.02	41.2236
1406.23	67.4683
1410.44	79.6465
1414.64	78.2178
1418.85	2.9165
1423.04	76.0151
1427.24	90.4976
1431.43	110.471
1435.62	94.5942
1439.81	275.565
1444	280.771
1448.18	211.361
1452.36	313.95
1456.54	193.371
1460.71	251.496
1464.89	140.319
1469.06	255.554
1473.22	158.015
1477.39	84.4346
1481.55	100.222
1485.71	49.2964
1489.86	55.5078
1494.02	28.0605
1498.17	117.441
1502.32	71.2866
1506.46	116.75
1510.61	61.3804
1514.75	39.1768
1518.88	108.061
1523.02	137.11
1527.15	142.782
1531.28	100.74
1535.41	137.908
1539.53	118.101
1543.66	196.422
1547.78	184.143
1551.89	226.4
1556.01	270.962
1560.12	111.601
1564.23	30.187
1568.33	1.87256
