Measurement: Raman, 514 nm, ccw, Raman Data Processed
Mineral: Axinite-(Fe)
Rruff sample: R040074
Ideal chemistry: Ca_4_Fe^2+^_2_Al_4_[B_2_Si_8_O_30_](OH)_2_
Locality: Luning, Nevada, USA
Source: University of Arizona Mineral Museum
Description: Pale brown wedge-shaped crystal
Measured chemistry: (Ca_0.98_Mn_0.01_)_2_(Fe_0.41_Mg_0.39_Mn_0.20_)Al_1.95_B_1.20_Si_3.90_O_15_(OH)
Pin_id: L00178
Orientation: Laser parallel to (0 -1 -1). Fiducial mark perpendicular to laser is parallel to -a [-1 0 0]
Raman shift (cm-1)	intensity
91.398	0
95.582	206.064
99.764	962.42
103.943	2916.57
108.121	8120.29
112.297	8372.97
116.47	1927.15
120.642	515.001
124.811	30.328
128.979	22.317
133.144	407.467
137.307	1695.67
141.469	3753.45
145.628	4025.24
149.786	3679.34
153.941	2815.63
158.094	1823.81
162.245	1773.34
166.395	2543.02
170.542	4297.31
174.687	3123.31
178.83	1158.67
182.972	8.693
187.111	321.748
191.248	1903.94
195.383	2425.23
199.516	1762.39
203.647	3163.16
207.777	4164.4
211.904	4165.98
216.029	3397.8
220.152	1989.87
224.273	787.126
228.392	96.66
232.509	421.291
236.625	260.906
240.738	96.673
244.849	578.147
248.958	1470.24
253.065	2262.36
257.171	2378.25
261.274	3285.3
265.375	5278.31
269.475	6974.57
273.572	6943.08
277.667	5423.21
281.76	3544.62
285.852	3037.04
289.941	3400.3
294.029	4889.28
298.114	6801.1
302.198	7465.26
306.279	7178.2
310.359	5895.73
314.436	4991.29
318.512	5767.31
322.586	4563.53
326.657	2639.48
330.727	2083.96
334.795	2058.55
338.861	3063.4
342.924	5428.59
346.986	6114.22
351.046	6358.03
355.104	4914.06
359.16	1780.21
363.214	597.412
367.267	121.955
371.317	149.499
375.365	148.674
379.411	274.73
383.456	1157.73
387.498	3173.65
391.539	4399.5
395.577	2610.9
399.614	1510.96
403.649	1114.37
407.681	1319.84
411.712	3085.22
415.741	7730.51
419.768	6595.73
423.793	5391.08
427.816	6976.47
431.837	6611.86
435.857	3457.2
439.874	2052.46
443.889	2597.62
447.903	1592.66
451.914	250.56
455.924	187.756
459.932	312.331
463.938	294.831
467.941	103.293
471.943	179.859
475.944	781.848
479.942	2364.67
483.938	5132.7
487.932	3421.07
491.925	989.697
495.915	719.959
499.904	1217.12
503.891	2305.72
507.876	3444.11
511.859	2921.68
515.84	1699.14
519.819	706.534
523.796	143.75
527.771	150.547
531.745	306.908
535.716	632.941
539.686	1088.67
543.654	1534.1
547.62	1389.22
551.584	1204.03
555.546	1578.79
559.506	2433.75
563.465	1978.59
567.421	1993.11
571.376	2747.3
575.329	3311.18
579.279	2984.73
583.228	3237.95
587.175	4780.85
591.121	3953.4
595.064	2035.62
599.006	947.497
602.945	649.035
606.883	910.232
610.819	1041.09
614.753	938.429
618.685	993.104
622.615	654.469
626.544	247.97
630.471	72.389
634.395	33.978
638.318	399.836
642.239	901.864
646.158	1000.2
650.076	460.527
653.991	67.51
657.905	43.965
661.817	80.271
665.726	334.692
669.635	1278.73
673.541	2731.86
677.445	3144.17
681.348	1847.13
685.248	944.497
689.147	735.492
693.044	628.524
696.94	1061.29
700.833	2423.81
704.724	5216.08
708.614	11718.1
712.502	19939.9
716.388	17371.5
720.272	8722.77
724.155	4463.86
728.035	2364.72
731.914	1345.38
735.791	645.823
739.666	486.066
743.539	386.116
747.41	345.979
751.28	425.659
755.148	535.167
759.014	1074.51
762.878	2143.69
766.74	3182.72
770.601	2741.74
774.46	1381.35
778.316	601.713
782.172	282.788
786.025	62.121
789.876	28.628
793.726	148.154
797.574	208.613
801.42	170.269
805.264	97.27
809.107	540.417
812.947	608.213
816.786	287.808
820.623	75.171
824.459	118.066
828.292	51.387
832.124	54.941
835.954	61.175
839.782	137.491
843.608	543.928
847.433	820.411
851.255	937.028
855.076	933.832
858.895	1070.72
862.713	737.729
866.528	764.866
870.342	772.169
874.154	1019.7
877.965	807.517
881.773	975.506
885.58	1373.62
889.385	2111.87
893.188	3310.26
896.989	4688.84
900.789	5397.6
904.587	4956.5
908.383	4135.58
912.177	3144.83
915.97	2304.25
919.76	1853.84
923.55	1623.58
927.337	1873.46
931.122	2203.47
934.906	2293.59
938.688	1963.49
942.468	2191.99
946.247	2759.71
950.023	3892.81
953.798	4735.72
957.572	6285.14
961.343	8766.64
965.113	9988.41
968.881	8260.61
972.647	8539.45
976.411	10970.3
980.174	11648.5
983.935	8828.36
987.694	7600.72
991.452	7178.03
995.207	7042.05
998.961	7989.83
1002.71	9881.12
1006.46	9126.01
1010.21	6405.39
1013.96	3875.73
1017.71	2661.62
1021.45	1999.21
1025.19	2218.81
1028.93	2133.2
1032.67	1822.09
1036.41	1459.43
1040.14	1391.04
1043.87	1379.07
1047.61	1346.68
1051.34	1345.5
1055.06	1707.28
1058.79	1686.65
1062.52	1778.53
1066.24	1368.54
1069.96	1147.98
1073.68	1096.59
1077.4	1734.65
1081.11	2512.15
1084.83	3050.06
1088.54	2107.13
1092.25	1364.72
1095.96	971.398
1099.67	768.219
1103.37	785.233
1107.08	1182.37
1110.78	808.959
1114.48	585.938
1118.18	605.108
1121.88	841.099
1125.57	265.145
1129.27	24.75
1132.96	10.4
1136.65	4.35
1140.34	219.205
1144.02	434.236
1147.71	359.408
1151.39	64.327
1155.07	70.808
1158.76	75.7
1162.43	70.515
1166.11	174.874
1169.79	200.441
1173.46	356.276
1177.13	252.528
1180.8	109.311
1184.47	13.297
1188.14	124.823
1191.8	76.257
1195.46	293.602
1199.13	384.431
1202.79	530.338
1206.45	533.445
1210.1	236.916
1213.76	197.085
1217.41	397.666
1221.06	285.387
1224.71	272.301
1228.36	514.752
1232.01	600.98
1235.65	558.191
1239.3	239.268
1242.94	199.893
1246.58	170.938
1250.22	108.789
1253.85	272.357
1257.49	484.787
1261.12	478.082
1264.75	583.633
1268.38	207.926
1272.01	0
