Measurement: Raman, 514 nm, ccw, Raman Data Processed
Mineral: Axinite-(Fe)
Rruff sample: R050061
Ideal chemistry: Ca_4_Fe^2+^_2_Al_4_[B_2_Si_8_O_30_](OH)_2_
Locality: Jamestown, California, USA
Source: Rock Currier
Description: Brown colored axe-head-shaped single crystals
Measured chemistry: Ca_2.00_(Fe^2+^_0.73_Mg_0.20_Mn_0.07_)Al_2.00_BSi_4_O_15_(OH)
Pin_id: L00318
Orientation: Laser parallel to (0 1 1). Fiducial mark perpendicular to laser is parallel to a [1 0 0]
Raman shift (cm-1)	intensity
89.663	0
93.868	80.075
98.07	117.012
102.271	233.637
106.469	1664.91
110.665	3235.54
114.859	3006.88
119.05	2280.44
123.24	2154.21
127.427	1657.59
131.612	1851.62
135.794	3016.53
139.975	3923.94
144.153	2510.32
148.329	1888.4
152.503	2648.4
156.674	2921.41
160.843	1400.98
165.011	1199.79
169.175	2851.56
173.338	3028.68
177.499	1540.2
181.657	195.396
185.813	302.851
189.967	151.236
194.119	721.428
198.268	413.506
202.415	1154.11
206.561	3292.17
210.703	5002.64
214.844	5778.39
218.983	4884.75
223.119	2431.56
227.253	611.685
231.385	58.759
235.515	209.644
239.643	104.617
243.768	131.867
247.891	1011.44
252.012	3357.41
256.131	5158.3
260.248	5202.51
264.363	6669.51
268.475	8527.52
272.585	9265.88
276.693	8164.25
280.799	5782.4
284.903	4299.89
289.005	4416.85
293.104	5153.42
297.201	4929.51
301.296	4314.23
305.389	4169.53
309.48	3512.86
313.569	2904.34
317.655	4138.96
321.74	4209.75
325.822	3263.62
329.902	3198.99
333.98	3536.9
338.056	4726.07
342.129	6773.77
346.201	6632.46
350.27	5885.35
354.337	4467.32
358.402	1880.59
362.465	509.35
366.526	70.726
370.585	47.38
374.642	253.653
378.696	622.708
382.748	2161.17
386.799	4801.74
390.847	5189.9
394.893	3660.21
398.936	2064.07
402.978	1652.36
407.018	1810.87
411.055	2597.67
415.091	4865.52
419.124	9148.43
423.155	13291.3
427.184	11884.2
431.211	7407.04
435.236	4437.78
439.259	5332.44
443.28	10205
447.298	9207.54
451.315	3889.98
455.329	1520.35
459.341	754.66
463.352	323.906
467.36	367.135
471.366	1003.45
475.37	2023.99
479.372	4827.87
483.371	7940.19
487.369	6363.84
491.365	2414.88
495.358	656.052
499.35	56.221
503.339	59.745
507.326	65.957
511.311	450.047
515.295	598.081
519.276	246.225
523.255	91.58
527.232	108.792
531.207	95.146
535.179	248.121
539.15	72.023
543.119	127.257
547.086	253.161
551.05	95.067
555.013	253.618
558.973	1321.62
562.932	2127.98
566.888	2140.41
570.842	2854.74
574.795	3365.96
578.745	2636.08
582.693	2579.08
586.639	3202.97
590.583	3426.74
594.525	2040.39
598.465	899.922
602.403	713.334
606.339	1158.62
610.273	1902.79
614.205	2731.83
618.135	2889.61
622.063	2217.94
625.989	1107.42
629.912	670.663
633.834	927.033
637.754	1638.56
641.671	2694.2
645.587	2908.97
649.501	1934.65
653.412	1128.44
657.322	828.373
661.23	896.999
665.135	1334.82
669.039	2645.89
672.94	5608
676.84	8511.16
680.738	6992.95
684.633	3834.55
688.527	2404.88
692.418	2204.83
696.308	2814.32
700.195	4321.31
704.081	7868.46
707.964	15757.8
711.846	27208.6
715.726	27853.5
719.603	17058.2
723.479	8362.7
727.352	4385.06
731.224	2454.25
735.094	1477.27
738.961	923.121
742.827	641.812
746.691	417.345
750.552	397.72
754.412	271.941
758.27	344.011
762.125	461.943
765.979	472.711
769.831	418.346
773.681	245.842
777.529	62.2
781.375	27.351
785.219	78.884
789.06	121.375
792.901	157.674
796.739	81.509
800.575	140.186
804.409	40.327
808.241	182.62
812.071	290.819
815.899	189.045
819.726	2.306
823.55	21.69
827.372	4.119
831.193	31.803
835.011	82.333
838.828	247.664
842.642	472.189
846.455	847.717
850.266	1372.24
854.075	1706.88
857.881	1870.1
861.686	1937.91
865.489	2147.94
869.29	2314
873.089	2397.13
876.886	2621.34
880.682	3076.63
884.475	3665.95
888.266	4852.35
892.056	6965.89
895.843	9986.33
899.629	13854.9
903.413	17673.6
907.194	17562.3
910.974	12941.2
914.752	8250.14
918.528	5208.14
922.302	3833.26
926.074	3384.47
929.844	3265
933.613	3080.04
937.379	3065.55
941.144	3402.64
944.906	4221.99
948.667	5532.65
952.426	7263.03
956.183	9984.57
959.938	15325.1
963.691	19675.8
967.442	17586.7
971.191	16986.9
974.939	21564.4
978.684	25549.4
982.428	23033.5
986.169	18475.5
989.909	16997.7
993.647	17030.3
997.383	17675.7
1001.12	16609.5
1004.85	12793.8
1008.58	8829.12
1012.31	5794.94
1016.03	3933.74
1019.76	3036.23
1023.48	2695.79
1027.2	2377.29
1030.92	2053.96
1034.64	1700.57
1038.36	1653.8
1042.07	1644.15
1045.78	1613.96
1049.49	1798.43
1053.2	1870.09
1056.9	1822.77
1060.61	1538.18
1064.31	1100.13
1068.01	742.896
1071.71	685.242
1075.41	816.887
1079.1	1075.7
1082.79	1321.1
1086.48	906.552
1090.17	699.603
1093.86	457.698
1097.55	387.994
1101.23	401.102
1104.91	455.922
1108.59	377.202
1112.27	206.545
1115.95	199.791
1119.62	153.132
1123.3	94.846
1126.97	118.212
1130.63	55.447
1134.3	15.312
1137.97	10.507
1141.63	81.292
1145.29	36.951
1148.95	3.382
1152.61	30.665
1156.27	25.925
1159.92	17.41
1163.57	3.586
1167.22	55.142
1170.87	71.736
1174.52	40.947
1178.16	45.476
1181.81	52.981
1185.45	21.395
1189.09	1.019
1192.73	4.225
1196.36	4.757
1200	50.839
1203.63	11.684
1207.26	37.107
1210.89	60.305
1214.52	20.639
1218.14	37.409
1221.77	0.115
1225.39	50.753
1229.01	51.496
1232.62	22.402
1236.24	54.351
1239.86	11.104
1243.47	99.277
1247.08	113.538
1250.69	18.876
1254.3	22.555
1257.9	79.099
1261.5	103.425
1265.11	86.579
1268.71	77.323
1272.3	145.862
1275.9	96.954
1279.49	99.667
1283.09	103.831
1286.68	56.158
1290.27	69.098
1293.86	74.515
1297.44	82.786
1301.03	31.634
1304.61	39.568
1308.19	69.367
1311.77	83.493
1315.34	30.737
1318.92	45.811
1322.49	52.937
1326.06	50.048
1329.63	69.194
1333.2	74.391
1336.77	92.226
1340.33	100.124
1343.89	55.328
1347.46	91.673
1351.02	136.584
1354.57	91.795
1358.13	131.901
1361.68	88.667
1365.23	25.752
1368.79	99.527
1372.33	129.635
1375.88	137.331
1379.43	100.401
1382.97	148.665
1386.51	75.133
1390.05	38.157
1393.59	96.251
1397.13	73.35
1400.66	93.674
1404.19	52.257
1407.72	146.453
1411.25	126.263
1414.78	100.275
1418.31	93.272
1421.83	114.365
1425.36	138.263
1428.88	120.36
1432.39	61.47
1435.91	115.402
1439.43	100.812
1442.94	144.183
1446.45	141.447
1449.96	203.819
1453.47	138.671
1456.98	87.574
1460.48	92.989
1463.99	109.696
1467.49	54.649
1470.99	11.682
1474.49	41.903
1477.99	28.238
1481.48	47.588
1484.97	6.042
1488.46	55.64
1491.95	58.879
1495.44	96.477
1498.93	40.623
1502.41	115.337
1505.9	132.503
1509.38	0.75
1512.86	0.392
