Measurement: Raman, 514 nm, ccw, Raman Data Processed
Mineral: Axinite-(Fe)
Rruff sample: R050026
Ideal chemistry: Ca_4_Fe^2+^_2_Al_4_[B_2_Si_8_O_30_](OH)_2_
Locality: Pouyva mine, Polar Urals, Western Siberian Region, Russia
Source: Rock Currier
Description: Brown transparent flat crystal
Measured chemistry: Ca_2.00_(Fe^2+^_0.61_Mn_0.26_Mg_0.13_)Al_2.00_BSi_4_O_15_(OH)
Pin_id: L00219
Orientation: Laser parallel to (1 1 0). Fiducial mark perpendicular to laser is parallel to c [0 0 1]
Raman shift (cm-1)	intensity
88.26	0
92.466	3.766
96.67	299.573
100.871	720.193
105.07	1221.19
109.267	3480.5
113.461	2168.83
117.653	1168.08
121.843	587.237
126.031	287.005
130.217	837.683
134.4	2230.92
138.581	3618.84
142.76	2320.99
146.937	1182.63
151.112	935.44
155.284	1071.14
159.454	147.56
163.622	46.155
167.787	1480.05
171.951	2956.68
176.112	2214.31
180.271	636.005
184.428	406.191
188.583	166.643
192.735	1343.4
196.885	548.985
201.033	1551.19
205.179	4727
209.323	7647.34
213.464	9268.09
217.603	8939.48
221.741	5120.49
225.875	1758.98
230.008	407.558
234.139	32.145
238.267	36.455
242.393	23.684
246.517	889.426
250.639	4148.83
254.759	7715.39
258.876	7888.97
262.991	9395.41
267.104	10843.2
271.215	10311.9
275.324	8641.04
279.431	6100.54
283.535	4552.05
287.638	4523.67
291.738	4617.31
295.836	4211.92
299.932	3065.83
304.025	2636.13
308.117	2622.87
312.206	3354.13
316.293	7141.88
320.378	9451.09
324.461	7110.77
328.542	5613.86
332.621	5984.3
336.697	8005.13
340.772	10986.3
344.844	9330.51
348.914	5434.18
352.982	3348.74
357.048	1291.92
361.111	340.54
365.173	35.953
369.232	54.645
373.29	198.116
377.345	690.047
381.398	2271.2
385.449	5307.58
389.497	5682.18
393.544	2895.94
397.589	1661.81
401.631	1714.11
405.672	2078.72
409.71	3185.98
413.746	5830.36
417.78	11625.9
421.812	18321.6
425.842	16687.4
429.869	9833.4
433.895	5509.51
437.918	5725.72
441.94	10682
445.959	11168.4
449.976	4819.95
453.991	1670.54
458.004	576.222
462.015	117.989
466.024	157.897
470.031	689.155
474.035	2015.9
478.038	5575.21
482.038	10044
486.037	8363.43
490.033	3328.37
494.027	1165.74
498.019	481.267
502.009	124.836
505.997	24.598
509.983	64.006
513.967	83.282
517.949	145.926
521.929	326.245
525.906	246.725
529.882	4.492
533.855	313.923
537.827	437.659
541.796	204.353
545.764	83
549.729	278.595
553.692	872.131
557.653	2376.61
561.612	3304.03
565.569	3280.4
569.524	4366.7
573.477	5007.92
577.428	3665.06
581.377	2780.1
585.324	3042.05
589.269	2703.91
593.212	1475.65
597.152	836.293
601.091	742.927
605.028	1140.34
608.962	2035.63
612.895	3362.8
616.825	4174.84
620.754	3688.86
624.68	1992.68
628.605	1168.11
632.527	1277.39
636.447	2316.65
640.366	3544.8
644.282	3823.49
648.196	2665.88
652.109	1437.38
656.019	1049.9
659.927	1143.67
663.834	1720.99
667.738	3027.72
671.64	5793.68
675.54	9612.28
679.439	8263.43
683.335	4585.18
687.229	2753.55
691.121	2447.22
695.012	2959.68
698.9	4730.94
702.786	8218.99
706.67	15738.8
710.552	29278.5
714.433	33787.9
718.311	20807.1
722.187	10386.1
726.061	5421.96
729.934	3115.58
733.804	1841.01
737.672	1182.24
741.539	695.277
745.403	473.125
749.265	247.786
753.126	251.263
756.984	213.555
760.84	247.667
764.695	294.601
768.547	259.59
772.398	158.952
776.246	23.358
780.093	47.608
783.937	124.326
787.78	159.062
791.621	122.9
795.459	93.794
799.296	114.74
803.131	68.67
806.964	41.742
810.795	272.921
814.623	273.986
818.45	8.987
822.275	14.885
826.098	25.634
829.92	105.442
833.739	220.814
837.556	454.994
841.371	729.641
845.184	1237.3
848.996	1849.91
852.805	2545.49
856.613	2786.07
860.418	2831.68
864.222	3114.35
868.023	3112.04
871.823	3094.77
875.621	3231.54
879.417	3615.33
883.211	4407.19
887.003	5628.11
890.793	8067.08
894.581	12278.1
898.367	19039.2
902.152	23978.8
905.934	22191.6
909.714	15762.8
913.493	10224.1
917.27	6795.57
921.044	5018.12
924.817	4516.69
928.588	4227.65
932.357	4193.22
936.124	4336.62
939.889	4826.8
943.652	6243.44
947.414	8658.73
951.173	11248.3
954.931	14765.4
958.686	21381
962.44	27294.2
966.192	24327.7
969.942	22030.7
973.69	26142
977.436	30935.2
981.18	26659.5
984.922	22054.1
988.663	20129.4
992.401	19425.6
996.138	20011.3
999.873	18514.8
1003.61	14455
1007.34	9983.8
1011.07	6856.97
1014.79	4815.17
1018.52	3803.95
1022.24	3346.56
1025.96	3209.79
1029.68	2609.97
1033.4	2059.22
1037.12	1725.85
1040.83	1773.86
1044.54	1558.8
1048.25	1464.98
1051.96	1483.24
1055.67	1458.57
1059.37	1236.84
1063.08	954.75
1066.78	857.017
1070.48	790.91
1074.17	867.924
1077.87	1135.53
1081.56	1242.88
1085.26	988.785
1088.94	637.444
1092.63	509.635
1096.32	434.298
1100	506.137
1103.69	467.154
1107.37	400.095
1111.05	241.76
1114.72	202.579
1118.4	191.845
1122.07	166.04
1125.74	57.917
1129.41	43.615
1133.08	27.675
1136.75	30.451
1140.41	18.849
1144.07	1.871
1147.73	20.68
1151.39	32.661
1155.05	29.552
1158.7	66.804
1162.36	1.969
1166.01	11.933
1169.66	45.314
1173.3	39.387
1176.95	74.599
1180.59	10.865
1184.24	19.877
1187.88	10.951
1191.52	6.691
1195.15	13.463
1198.79	8.104
1202.42	12.009
1206.05	51.006
1209.68	56.378
1213.31	50.603
1216.93	0.47
1220.56	39.134
1224.18	20.802
1227.8	23.25
1231.42	0.317
1235.04	18.036
1238.65	14.416
1242.26	39.662
1245.88	96.565
1249.48	61.413
1253.09	78.999
1256.7	85.308
1260.3	74.848
1263.9	45.586
1267.51	119.814
1271.11	135.679
1274.7	86.157
1278.3	105.798
1281.89	111.958
1285.48	61.632
1289.07	97.791
1292.66	20.213
1296.25	28.959
1299.83	35.526
1303.41	51.586
1306.99	68.012
1310.57	51.006
1314.15	14.541
1317.73	39.295
1321.3	62.693
1324.87	24.428
1328.44	83.791
1332.01	73.289
1335.58	38.241
1339.14	99.161
1342.71	88.035
1346.27	166.563
1349.83	136.012
1353.39	67.725
1356.94	122.99
1360.5	87.348
1364.05	81.831
1367.6	76.281
1371.15	103.003
1374.7	154.143
1378.24	181.066
1381.79	152.28
1385.33	130.185
1388.87	73.977
1392.41	69.006
1395.95	93.652
1399.48	81.537
1403.02	97.182
1406.55	123.498
1410.08	130.794
1413.61	128.633
1417.13	119.048
1420.66	100.446
1424.18	60.393
1427.7	91.056
1431.22	48.533
1434.74	63.008
1438.26	64.744
1441.77	88.777
1445.28	90.729
1448.79	66.867
1452.3	72.455
1455.81	81.17
1459.32	33.41
1462.82	41.411
1466.32	32.367
1469.82	37.485
1473.32	33.203
1476.82	8.194
1480.32	57.071
1483.81	44.254
1487.3	85.679
1490.79	90.722
1494.28	81.953
1497.77	64.971
1501.25	100.602
1504.74	66.063
1508.22	2.151
1511.7	26.65
