Measurement: Raman, 514 nm, ccw, Raman Data Processed
Mineral: Axinite-(Fe)
Rruff sample: R060194
Ideal chemistry: Ca_4_Fe^2+^_2_Al_4_[B_2_Si_8_O_30_](OH)_2_
Locality: near Dalbandi, Baluchistan Province, Pakistan
Source: Herbert Obodda
Description: Brown transparent wedge-shaped single crystal
Measured chemistry: Ca_2.00_(Fe^2+^_0.66_Mg_0.30_Mn_0.04_)Al_2.00_BSi_4.00_O_15_(OH)
Pin_id: L01255
Orientation: Laser parallel to (-1 0 -1). Fiducial mark perpendicular to laser is parallel to -b [0 -1 0]
Raman shift (cm-1)	intensity
53.91	0
58.864	347.372
63.817	229.355
68.767	12.84
73.714	39.1362
78.659	112.412
83.602	1336.81
88.542	3133.84
93.48	6854.4
98.416	8350.7
103.349	11140
108.28	26358
113.208	16888
118.134	12214.3
123.058	10216
127.979	8399.07
132.898	6742.93
137.814	7544.31
142.728	9514.59
147.639	9533.3
152.549	12393.4
157.455	9597.59
162.359	8912.17
167.261	13431
172.161	19239.9
177.058	10522.8
181.952	4594.5
186.845	2709.73
191.734	3252.82
196.622	4340.24
201.507	5593.58
206.389	8644.9
211.269	12672.8
216.147	12503.2
221.022	9257.7
225.895	4391.85
230.765	2221.15
235.633	2224.32
240.498	4035.57
245.361	4818.75
250.222	5530.1
255.08	8150.79
259.936	10831
264.789	10465.3
269.64	16041.5
274.488	19980.2
279.334	17092.4
284.178	10410.9
289.019	8583.65
293.857	10022.5
298.693	11537.2
303.527	9930.85
308.358	8812.13
313.187	10738.9
318.013	17745.3
322.837	15999.7
327.659	8656.57
332.478	7341.97
337.294	9270.19
342.108	16088.1
346.92	17610.6
351.729	9452.73
356.535	3389.29
361.34	173.746
366.141	1000.95
370.94	427.277
375.737	363.187
380.531	641.14
385.323	3242.05
390.113	6953.18
394.9	6793.26
399.684	3860.27
404.466	2364.43
409.245	2262.35
414.022	4805.92
418.797	9645.05
423.569	11576.6
428.338	15881.6
433.105	15119.7
437.87	8246.02
442.632	6668.35
447.391	6627.59
452.149	2181.66
456.903	706.714
461.655	271.791
466.405	116.358
471.152	934.016
475.897	1228.96
480.639	2671.1
485.378	5533.36
490.116	2607.63
494.85	170.836
499.582	135.02
504.312	600.865
509.039	1444.53
513.764	929.759
518.486	328.178
523.206	506.528
527.923	697.629
532.638	502.342
537.35	49.5625
542.059	1038.48
546.766	2142.36
551.471	1794.46
556.173	2541.09
560.873	4657
565.57	4208.7
570.264	3276.04
574.957	3588.94
579.646	2811.35
584.333	2248.22
589.018	2968.47
593.7	1919.06
598.379	523.927
603.056	244.466
607.73	1147.5
612.402	2786.2
617.072	4693.01
621.739	5419.91
626.403	2662.84
631.065	1068.79
635.724	1466.17
640.381	2842.69
645.035	3769.3
649.687	2739.16
654.336	1225.16
658.983	928.052
663.627	1301.73
668.268	2745.26
672.907	5978.28
677.544	9052.07
682.178	6217.6
686.809	2944.12
691.438	2364.84
696.065	3493.99
700.688	6711.84
705.31	14898.4
709.929	31182.5
714.545	43915.4
719.158	29481.2
723.77	13150.9
728.378	5963.45
732.984	3068.93
737.588	1827.76
742.189	1305.3
746.787	908.363
751.383	776.052
755.976	1134.8
760.567	1686.62
765.155	2647.55
769.741	2637.63
774.324	1717.88
778.904	632.953
783.482	126.536
788.058	293.387
792.631	287.839
797.201	378.036
801.769	87.165
806.334	54.6992
810.897	691.217
815.457	873.08
820.014	282.036
824.569	70.5127
829.122	36.3838
833.671	172.919
838.219	103.369
842.763	502.332
847.306	1087.07
851.845	1789.62
856.382	1946.04
860.917	2241.36
865.448	2280.62
869.978	2431.89
874.505	2294.2
879.029	2563.97
883.55	2411.46
888.069	2452.75
892.586	3231.35
897.1	4832.86
901.611	6435.81
906.12	7516.31
910.626	5795.49
915.129	3625.32
919.63	2536.09
924.129	2429.15
928.625	3129.94
933.118	4026.09
937.609	3505.2
942.097	3966.81
946.582	5985.61
951.065	9169.76
955.546	14215.8
960.023	21619.3
964.499	29849.8
968.971	26331.6
973.441	21440.3
977.909	24403.5
982.374	24428.7
986.836	17991.1
991.295	14147.6
995.753	12506.3
1000.21	12085.1
1004.66	11205
1009.11	8364.11
1013.55	5137.73
1018	3359.44
1022.44	2236.43
1026.88	1883.2
1031.32	1994.44
1035.75	2388.65
1040.18	3268.46
1044.61	3716.53
1049.04	4110.83
1053.46	4999.57
1057.88	6036.32
1062.3	5642.13
1066.71	4212.35
1071.13	3216.13
1075.54	3450.53
1079.94	5649.59
1084.35	8051.65
1088.75	5992.01
1093.15	3173.49
1097.55	1834.57
1101.94	1596.49
1106.34	1685.58
1110.73	1421.02
1115.11	1213.41
1119.5	1926.91
1123.88	2484.15
1128.26	927.633
1132.63	161.158
1137.01	11.1602
1141.38	77.2207
1145.75	75.7852
1150.12	17.1074
1154.48	96.4512
1158.84	51.2441
1163.2	56.5332
1167.55	0.96875
1171.91	145.346
1176.26	152.008
1180.61	34.3574
1184.95	4.88672
1189.29	37.457
1193.63	86.9316
1197.97	34.1934
1202.31	103.268
1206.64	53.8652
1210.97	165.486
1215.29	39.1758
1219.62	46.6289
1223.94	247.022
1228.26	108.834
1232.57	248.894
1236.89	142.258
1241.2	232.902
1245.51	259.842
1249.81	182.957
1254.12	127.51
1258.42	234.234
1262.72	256.268
1267.01	381.277
1271.3	149.221
1275.59	148.356
1279.88	96.9062
1284.17	201.818
1288.45	268.422
1292.73	374.574
1297.01	217.859
1301.28	110.373
1305.55	314.617
1309.82	382.129
1314.09	175.461
1318.35	287.832
1322.61	336.803
1326.87	198.953
1331.13	7.52148
1335.38	328.58
1339.63	280.473
1343.88	409.098
1348.12	193.832
1352.37	321.647
1356.61	273.381
1360.85	233.248
1365.08	283.035
1369.31	311.529
1373.54	345.793
1377.77	332.738
1381.99	126.764
1386.22	280.631
1390.43	161.256
1394.65	85.1406
1398.87	84.6699
1403.08	58.4277
1407.29	42.7148
1411.49	101.83
1415.69	43.8223
1419.89	145.391
1424.09	163.369
1428.29	138.57
1432.48	136.783
1436.67	113.936
1440.86	371.488
1445.04	332.777
1449.23	324.596
1453.4	404.1
1457.58	112.369
1461.76	296.477
1465.93	221.723
1470.1	249.773
1474.26	140.582
1478.43	168.385
1482.59	130.227
1486.75	172.397
1490.9	88.1406
1495.06	110.205
1499.21	104.199
1503.35	60.2227
1507.5	81.2539
1511.64	0.818359
1515.78	39.6836
1519.92	75.8789
1524.05	406.01
1528.18	223.26
1532.31	229.029
1536.44	156.012
1540.56	138.334
1544.69	195.201
1548.8	298.977
1552.92	137.818
1557.03	295.918
1561.14	24.2812
1565.25	260.215
1569.36	8.64844
