Measurement: Raman, 514 nm, ccw, Raman Data Processed
Mineral: Axinite-(Fe)
Rruff sample: R060183
Ideal chemistry: Ca_4_Fe^2+^_2_Al_4_[B_2_Si_8_O_30_](OH)_2_
Locality: Skagit Bluffs, near Manning Park, British Columbia, Canada
Source: Lloyd Twaites
Description: Light-pink transparent axe-head-shaped single crystal
Measured chemistry: Ca_2.00_(Fe^2+^_0.58_Mn_0.23_Mg_0.19_)Al_2.00_B_1.00_Si_4.00_O_15_(OH)
Pin_id: L00943
Orientation: Laser parallel to c* (0 0 1). Fiducial mark perpendicular to laser is parallel to a [1 0 0]
Raman shift (cm-1)	intensity
52.671	0
57.626	153.515
62.579	245.984
67.529	52.1937
72.477	12.2274
77.423	14.0355
82.367	198.601
87.308	525.463
92.246	1542.72
97.182	2835.67
102.116	5529.49
107.047	10170.9
111.976	7267
116.903	3203.45
121.827	1641.87
126.749	1532.21
131.668	1382.77
136.585	1649.03
141.5	3777.44
146.412	9352.95
151.321	17631.6
156.229	9469.8
161.134	6723.67
166.036	9454.4
170.936	17310.9
175.834	13824.2
180.729	7827.17
185.622	5297.88
190.512	8195.83
195.4	9884.87
200.286	7877.63
205.169	10558.4
210.049	10707.5
214.928	7787.55
219.803	5582.25
224.677	2125.54
229.548	413.387
234.416	334.944
239.282	1403.5
244.146	3771.8
249.007	5064.94
253.866	5745.18
258.722	4772.95
263.576	4990.17
268.427	7389.06
273.276	9870.08
278.123	8324.45
282.967	7160.1
287.809	6136.01
292.648	5166.08
297.485	7349.25
302.319	14439.7
307.151	19291.7
311.98	9705.59
316.807	4329.19
321.631	2726.4
326.454	2426.12
331.273	2554.24
336.09	4044.67
340.905	9217.32
345.717	11466.1
350.527	12420.6
355.334	6213.96
360.139	1313.32
364.941	236.328
369.741	296.517
374.538	125.995
379.333	1783.26
384.126	7023.68
388.916	16960.1
393.703	15451
398.488	6603.12
403.271	2259.14
408.051	2230.61
412.828	5880.62
417.603	9170.85
422.376	6360.18
427.146	4976.6
431.914	3233.01
436.679	1177.36
441.442	95.5513
446.202	68.5322
450.96	150.785
455.715	326.612
460.467	746.994
465.218	1776.86
469.965	3567.14
474.711	6928.76
479.454	18619.7
484.194	37872.8
488.932	20528.1
493.667	7258.43
498.4	3900.56
503.13	3796.82
507.858	3009.86
512.583	1196.25
517.306	107.285
522.026	554.224
526.744	245.859
531.459	228.406
536.172	600.596
540.882	190.153
545.59	141.959
550.295	218.927
554.998	204.163
559.698	1006
564.396	1624.45
569.091	2668.31
573.784	3692.35
578.474	3734.21
583.162	4031.19
587.847	5108.25
592.529	3772.88
597.209	1995.74
601.887	1991.52
606.562	3793.19
611.235	8309.75
615.905	14182.2
620.572	16407.4
625.237	8354.53
629.9	2620.45
634.56	733.188
639.217	454.658
643.872	505.61
648.524	514.131
653.174	401.644
657.821	682.135
662.466	1280.01
667.108	2954.01
671.748	7007.04
676.385	12258.7
681.02	10211.7
685.652	6033.54
690.281	4362.23
694.908	5246.55
699.533	8377.83
704.155	16318.4
708.774	34798.1
713.391	56720
718.005	48104.1
722.617	24255.4
727.226	11221.1
731.833	5761.24
736.437	3421.75
741.039	2412.65
745.638	1994.97
750.234	2234.74
754.828	2974.02
759.419	4988.83
764.008	7752.22
768.595	7945.25
773.178	5151.95
777.759	2437.45
782.338	943.499
786.914	70.4814
791.488	208.301
796.059	503.461
800.627	492.449
805.193	52.8799
809.756	1620.97
814.317	2802.13
818.875	1662.58
823.431	404.121
827.984	22.2383
832.534	28.9331
837.082	35.8721
841.627	418.103
846.17	889.896
850.71	1007.87
855.248	586.359
859.783	204.117
864.316	144.617
868.846	161.901
873.373	239.004
877.898	589.969
882.42	1228.83
886.94	2469.64
891.457	4745.43
895.971	8126.31
900.483	10608.4
904.993	9749.94
909.5	8182.93
914.004	6138.52
918.505	4641.95
923.004	4607.33
927.501	5784.29
931.995	6940.35
936.486	7657.02
940.975	10394.7
945.461	16725.7
949.945	26438.2
954.426	34737.6
958.904	43405.6
963.38	51485.9
967.853	41143.9
972.324	28699.9
976.792	25560.7
981.258	24049.2
985.72	18683.3
990.181	15171.9
994.639	14290.1
999.094	16671.9
1003.55	20941.1
1008	19494.8
1012.44	12620
1016.89	7056.63
1021.33	4286.75
1025.77	3218.93
1030.21	2354.88
1034.64	1664.76
1039.07	1121.54
1043.5	1440.82
1047.93	1432.34
1052.35	2252.33
1056.78	3187.22
1061.19	3224.77
1065.61	2684.24
1070.02	2057.7
1074.43	2525.45
1078.84	4125.06
1083.25	5728.12
1087.65	4292.2
1092.05	2845.55
1096.45	2977.93
1100.85	4222.29
1105.24	5647.41
1109.63	5410.71
1114.02	3725.16
1118.4	2500.96
1122.78	1693.87
1127.16	1038.61
1131.54	754.946
1135.92	602.159
1140.29	300.996
1144.66	231.179
1149.02	54.6338
1153.39	6.04981
1157.75	9.53711
1162.11	117.677
1166.46	67.4536
1170.82	156.391
1175.17	101.655
1179.52	155.113
1183.86	92.2046
1188.21	85.7524
1192.55	34.0898
1196.89	0.162598
1201.22	54.1187
1205.55	39.2207
1209.88	58.6709
1214.21	5.46875
1218.54	68.4097
1222.86	20.1509
1227.18	88.2803
1231.5	142.769
1235.81	59.5171
1240.12	81.7759
1244.43	152.628
1248.74	143.09
1253.04	227.062
1257.34	209.138
1261.64	219.738
1265.94	329.262
1270.23	265.497
1274.52	343.74
1278.81	333.033
1283.1	389.516
1287.38	381.293
1291.66	409.919
1295.94	311.957
1300.21	340.378
1304.48	231.052
1308.75	267.689
1313.02	170.148
1317.29	185.465
1321.55	142.63
1325.81	176.752
1330.06	216.072
1334.32	259.582
1338.57	211.487
1342.82	203.744
1347.06	298.98
1351.31	188.663
1355.55	213.409
1359.79	305.12
1364.02	246.323
1368.26	270.881
1372.49	167.23
1376.71	259.328
1380.94	253.152
1385.16	151.465
1389.38	158.447
1393.6	89.5063
1397.81	263.499
1402.02	91.1904
1406.23	107.594
1410.44	125.539
1414.64	151.157
1418.85	111.501
1423.04	147.821
1427.24	165.289
1431.43	168.966
1435.62	118.602
1439.81	109.25
1444	86.7647
1448.18	70.8711
1452.36	155.814
1456.54	75.7876
1460.71	20.1567
1464.89	50.1196
1469.06	174.761
1473.22	38.6455
1477.39	78.1191
1481.55	79.4263
1485.71	46.6494
1489.86	87.8023
1494.02	38.3677
1498.17	147.237
1502.32	113.482
1506.46	70.8481
1510.61	91.311
1514.75	67.7861
1518.88	114.596
1523.02	8.07666
1527.15	43.4761
1531.28	52.3438
1535.41	178.225
1539.53	58.3052
1543.66	55.6245
1547.78	55.6773
1551.89	223.559
1556.01	229.966
1560.12	46.6289
1564.23	60.9883
1568.33	81.957
