Measurement: Raman, 514 nm, ccw, Raman Data Processed
Mineral: Axinite-(Fe)
Rruff sample: R040074
Ideal chemistry: Ca_4_Fe^2+^_2_Al_4_[B_2_Si_8_O_30_](OH)_2_
Locality: Luning, Nevada, USA
Source: University of Arizona Mineral Museum
Description: Pale brown wedge-shaped crystal
Measured chemistry: (Ca_0.98_Mn_0.01_)_2_(Fe_0.41_Mg_0.39_Mn_0.20_)Al_1.95_B_1.20_Si_3.90_O_15_(OH)
Pin_id: M00342
Orientation: Laser parallel to -a* (-1 0 0). Fiducial mark perpendicular to laser is parallel to b [0 1 0]
Raman shift (cm-1)	intensity
89.685	0
93.873	104.597
98.058	698.549
102.242	630.229
106.423	716.093
110.603	5100.47
114.78	1414.38
118.956	508.909
123.129	122.363
127.3	86.102
131.469	419.312
135.636	998.466
139.801	1953.01
143.964	2499.74
148.125	2500.58
152.284	2629.81
156.441	2340.26
160.596	1955.84
164.749	1294.33
168.9	2333.39
173.049	3776.62
177.195	3472.27
181.34	1777.51
185.483	256.694
189.624	420.729
193.762	152.493
197.899	175.588
202.034	1359.53
206.166	5093.56
210.297	9326.54
214.425	11089.5
218.552	9282.48
222.676	5545.23
226.799	2496.31
230.919	959.613
235.038	288.978
239.154	81.588
243.269	336.216
247.381	1677.72
251.492	4556.94
255.6	5849.6
259.707	5598.77
263.811	7127.41
267.914	9074.55
272.014	9159.96
276.113	7362.89
280.209	5054.48
284.304	3944.26
288.396	3059.52
292.487	2484.22
296.575	2208.68
300.662	2225.54
304.746	2940.22
308.829	3766.17
312.909	4400.51
316.988	7575.11
321.065	10090
325.139	7875.05
329.212	5550.2
333.283	5035.32
337.351	5980.67
341.418	9756.25
345.483	11722.2
349.546	8103.51
353.606	4579.35
357.665	1875.82
361.722	476.957
365.777	134.386
369.83	149.389
373.881	342.135
377.93	832.562
381.977	1940.97
386.023	4460.4
390.066	6037.16
394.107	4583.59
398.146	2822.09
402.184	2230.7
406.219	2244.06
410.252	2984.35
414.284	5408.62
418.313	10064.8
422.341	16480.8
426.367	18396.4
430.39	13231.7
434.412	7666.74
438.432	4961.49
442.45	5575.99
446.466	5110.26
450.48	2501.34
454.492	1293.29
458.502	1124.1
462.51	790.748
466.517	747.253
470.521	1421.81
474.523	2645.76
478.524	6131.27
482.523	13406.5
486.519	16392.5
490.514	8659.41
494.507	3697.19
498.498	1856.45
502.487	779.673
506.474	198.782
510.459	110.334
514.442	220.614
518.424	278.026
522.403	375.557
526.381	299.062
530.356	67.201
534.33	439.873
538.302	689.858
542.272	554.026
546.24	386.009
550.206	676.793
554.17	1287.38
558.132	3154.79
562.093	4482.09
566.051	4153.26
570.008	4884.24
573.963	5745.01
577.915	4685.55
581.866	3212.86
585.815	2679.96
589.763	2159.83
593.708	1352.47
597.651	973.885
601.593	1105.07
605.532	1724.03
609.47	2773.76
613.406	4670.25
617.34	7238.51
621.272	8137.64
625.202	4829.71
629.131	2199.59
633.057	1323.66
636.982	1534.67
640.905	2229.73
644.825	2682.37
648.744	2013.72
652.662	1349.52
656.577	1214.51
660.49	1424.48
664.402	2108.29
668.312	3740.02
672.219	7059.94
676.125	11306.6
680.03	9815.99
683.932	5761
687.832	3760.94
691.731	3224.13
695.628	3818.79
699.522	5545.07
703.415	9584.7
707.307	17404.2
711.196	31983.4
715.083	38732.2
718.969	25300.7
722.853	12758.7
726.735	6376.46
730.615	3507.83
734.493	2058.86
738.37	1386.54
742.244	807.88
746.117	652.885
749.988	543.559
753.857	645.905
757.724	866.929
761.59	920.633
765.453	978.022
769.315	765.099
773.175	481.871
777.033	222.329
780.889	16.6
784.744	121.315
788.596	215.354
792.447	298.024
796.296	234.633
800.143	343.241
803.989	289.156
807.832	98.61
811.674	299.008
815.514	343.829
819.352	214.427
823.189	91.92
827.023	168.613
830.856	205.792
834.687	441.681
838.516	603.325
842.343	1069.39
846.169	1619.41
849.992	2369.29
853.814	3048.09
857.634	3452.83
861.453	3760.8
865.269	3684.38
869.084	3657.23
872.897	3501.13
876.708	3487.13
880.517	3710.24
884.325	4403.38
888.13	5595.58
891.934	8117.79
895.737	12670.1
899.537	20462.5
903.336	24987.6
907.132	22817.5
910.928	16890
914.721	11772.5
918.512	8085.2
922.302	5807.96
926.09	5060.87
929.876	4971.76
933.66	4995.48
937.443	5298.74
941.224	6243.3
945.003	8199.48
948.78	11729.6
952.556	16069.2
956.33	19778.2
960.102	26588.2
963.872	33430.7
967.64	30625.1
971.407	25529.4
975.172	26221.8
978.935	29164.7
982.697	26408.9
986.456	24374.7
990.214	23410.8
993.971	21047.9
997.725	20195
1001.48	20643.9
1005.23	17156.3
1008.98	11982.8
1012.73	8000.23
1016.47	5437.8
1020.22	4054.7
1023.96	3518.67
1027.7	3295.76
1031.44	2691.08
1035.17	2382.38
1038.91	2116.43
1042.64	2372.58
1046.37	2626.23
1050.1	3101.2
1053.83	3803.93
1057.56	4556.97
1061.28	5160.49
1065.01	4410.01
1068.73	3077.7
1072.45	2390.1
1076.16	2484.89
1079.88	3180.95
1083.6	3633.57
1087.31	2835.76
1091.02	1817.28
1094.73	1215.15
1098.44	930.6
1102.14	844.151
1105.85	891.168
1109.55	728.147
1113.25	545.728
1116.95	409.285
1120.65	293.929
1124.34	279.089
1128.04	172.545
1131.73	124.78
1135.42	152.875
1139.11	126.3
1142.79	6.387
1146.48	29.126
1150.16	57.145
1153.84	45.766
1157.52	29.463
1161.2	35.227
1164.88	51.529
1168.56	112.364
1172.23	47.954
1175.9	204.097
1179.57	75.29
1183.24	33.193
1186.9	42.158
1190.57	17.772
1194.23	77.721
1197.89	0.351
1201.55	44.209
1205.21	48.914
1208.87	27.782
1212.52	19.902
1216.18	171.703
1219.83	130.983
1223.48	126.377
1227.13	65.321
1230.77	141.225
1234.42	77.425
1238.06	93.179
1241.7	98.62
1245.34	262.392
1248.98	233.372
1252.62	173.334
1256.25	189.358
1259.88	221.996
1263.51	176.143
1267.14	207.793
1270.77	201.592
1274.4	186.27
1278.02	212.218
1281.65	312.344
1285.27	273.914
1288.89	129.26
1292.51	193.654
1296.12	156.644
1299.74	16.066
1303.35	53.645
1306.96	130.136
1310.57	121.282
1314.18	183.201
1317.79	158.607
1321.39	229.734
1324.99	79.926
1328.59	17.146
1332.19	40.501
1335.79	10.997
1339.39	57.726
1342.98	172.402
1346.58	104.415
1350.17	163.454
1353.76	213.58
1357.35	165.402
1360.93	114.688
1364.52	66.883
1368.1	16.93
1371.68	13.426
1375.26	83.428
1378.84	133.291
1382.42	190.834
1385.99	187.695
1389.57	126.926
1393.14	278.672
1396.71	160.635
1400.28	156.048
1403.85	103.321
1407.41	186.502
1410.98	151.258
1414.54	295.101
1418.1	335.831
1421.66	317.562
1425.21	238.077
1428.77	204.427
1432.33	105.309
1435.88	95.42
1439.43	58.489
1442.98	31.997
1446.53	63.755
1450.07	114.16
1453.62	209.786
1457.16	413.229
1460.7	293.787
1464.24	343.253
1467.78	406.171
1471.32	260.871
1474.85	207.511
1478.38	94.404
1481.91	165.354
1485.44	206.094
1488.97	278.687
1492.5	184.77
1496.03	254.48
1499.55	233.106
1503.07	334.755
1506.59	259.909
1510.11	208.057
1513.63	259.754
1517.14	0
