Measurement: Raman, 514 nm, ccw, Raman Data Processed
Mineral: Axinite-(Fe)
Rruff sample: R050026
Ideal chemistry: Ca_4_Fe^2+^_2_Al_4_[B_2_Si_8_O_30_](OH)_2_
Locality: Pouyva mine, Polar Urals, Western Siberian Region, Russia
Source: Rock Currier
Description: Brown transparent flat crystal
Measured chemistry: Ca_2.00_(Fe^2+^_0.61_Mn_0.26_Mg_0.13_)Al_2.00_BSi_4_O_15_(OH)
Pin_id: L00250
Orientation: Laser parallel to -b* (0 -1 0). Fiducial mark perpendicular to laser is parallel to -c [0 0 -1]
Raman shift (cm-1)	intensity
95.465	0
99.644	296.882
103.82	1360.22
107.995	4466.43
112.168	10292.6
116.339	5042.64
120.508	951.448
124.675	127.732
128.84	235.188
133.003	256.154
137.164	510.49
141.323	1699.33
145.48	1920.53
149.635	2871.51
153.788	4108.75
157.939	2790.74
162.088	1966.95
166.235	3357.63
170.38	6474.83
174.523	8261.47
178.664	5619.82
182.803	2522.85
186.94	742.241
191.076	940.091
195.209	2082.21
199.34	2037.32
203.47	4353.5
207.597	8129.57
211.722	7374.76
215.846	4315.59
219.967	1658.72
224.087	37.238
228.204	596.814
232.32	650.617
236.434	204.436
240.545	1258.07
244.655	3182.9
248.763	3709.04
252.869	3274.33
256.973	3197.13
261.075	2442.4
265.175	2935.07
269.273	5511.07
273.369	9690.25
277.463	11671.2
281.556	9353.25
285.646	6525.69
289.734	5008.33
293.821	4290.03
297.905	4733.09
301.988	6624.65
306.069	10025.5
310.147	9830.55
314.224	5300.25
318.299	3079.81
322.372	2613.33
326.443	3089.55
330.512	3849.01
334.579	2493.86
338.645	1453.34
342.708	2468.58
346.769	4958.4
350.829	8284.55
354.887	8926.96
358.942	4567.52
362.996	1638
367.048	633.837
371.098	547.945
375.146	880.382
379.192	1063.57
383.236	2096.78
387.279	5279.48
391.319	8589.19
395.358	7119.15
399.394	3942.43
403.429	2303.18
407.462	1834.36
411.493	3415.56
415.522	9518.83
419.549	15222.2
423.575	9785.55
427.598	7409.01
431.619	6402.41
435.639	4064.7
439.657	2390.85
443.673	2501.83
447.687	2463.63
451.699	1215.23
455.709	781.634
459.717	364.84
463.724	67.153
467.728	154.898
471.731	287.464
475.732	989.049
479.731	3426.11
483.728	8132.39
487.723	9203.31
491.716	3637.78
495.708	953.903
499.697	322.871
503.685	486.381
507.671	613.784
511.655	479.092
515.637	275.239
519.617	109.792
523.596	302.657
527.572	239.216
531.547	38.665
535.52	431.962
539.491	401.058
543.46	1079.95
547.427	583.653
551.393	351.802
555.356	814.359
559.318	1798.24
563.278	2664.23
567.236	3440.99
571.192	5538.54
575.147	7116.86
579.099	5854.95
583.05	4881.81
586.999	5433.44
590.946	5977.84
594.891	3946.99
598.834	2045.91
602.776	1337.6
606.715	1237.05
610.653	1543.27
614.589	2239.26
618.523	3541.02
622.456	3843.33
626.386	1954.87
630.315	481.345
634.242	71.774
638.167	11.51
642.09	299.587
646.012	435.549
649.931	222.619
653.849	8.236
657.765	27.332
661.679	139.509
665.592	563.803
669.502	1410.82
673.411	3405.24
677.318	5902.52
681.223	5832.14
685.126	3337.37
689.028	1998.99
692.927	1691.61
696.825	2505.11
700.721	4215.46
704.616	7939.66
708.508	15247.7
712.399	27165.6
716.288	33023.4
720.175	22920.9
724.06	11578.3
727.944	5925.61
731.825	3207.73
735.705	1914.72
739.584	1132.59
743.46	757.356
747.334	526.019
751.207	398.588
755.078	413.077
758.947	673.493
762.815	1254.85
766.68	2130.14
770.544	2296.39
774.406	1583.61
778.267	966.839
782.125	486.463
785.982	84.285
789.837	78.443
793.69	305.643
797.542	321.754
801.391	300.032
805.239	156.023
809.085	437.566
812.93	1391.36
816.772	1308.51
820.613	545.991
824.452	86.538
828.29	18.792
832.125	89.996
835.959	8.342
839.791	191.643
843.621	472.646
847.45	871.025
851.277	1165.58
855.102	1238.35
858.925	1257.37
862.746	1171.71
866.566	1390.4
870.384	1584.48
874.2	1700
878.015	2103.62
881.828	2710.46
885.639	3462.41
889.448	4883.81
893.256	7121.67
897.061	10132
900.865	12902.6
904.668	13983.7
908.468	13345.2
912.267	11137
916.064	7849.28
919.86	5521.93
923.653	4608.02
927.445	4764.51
931.236	5347.31
935.024	4866.79
938.811	4134.56
942.596	3805.37
946.379	4566.56
950.161	5969.89
953.94	7833.89
957.719	8962.63
961.495	11339.2
965.27	13287.9
969.043	11667.5
972.814	10277.6
976.583	11778.2
980.351	14107.1
984.117	14150.8
987.882	13852.3
991.644	14894.8
995.405	14577.6
999.165	14840.9
1002.92	16044.7
1006.68	15448.9
1010.43	11637.2
1014.18	7519.34
1017.93	5194.49
1021.68	3875.95
1025.43	3358.65
1029.18	2901.08
1032.92	2562.52
1036.66	2310.98
1040.4	2537.89
1044.14	2816.62
1047.88	3029.9
1051.62	3771.38
1055.35	4670.39
1059.08	4825.58
1062.81	3826.43
1066.54	2691.13
1070.27	2055.69
1073.99	1797.7
1077.72	2146.21
1081.44	2799.16
1085.16	2859.54
1088.88	2045.14
1092.59	1643.77
1096.31	1483.81
1100.02	1781.41
1103.73	2361.62
1107.44	2797.32
1111.15	2340.13
1114.86	1742.13
1118.57	1195.58
1122.27	953.206
1125.97	787.457
1129.67	468.648
1133.37	320.585
1137.07	282.253
1140.76	177.667
1144.45	50.864
1148.15	3.043
1151.84	5.506
1155.53	7.601
1159.21	59.431
1162.9	11.706
1166.58	12.933
1170.26	58.254
1173.94	136.43
1177.62	124.518
1181.3	69.276
1184.97	21.758
1188.65	33.461
1192.32	0.66
1195.99	4.492
1199.66	12.093
1203.33	26.213
1206.99	0.594
1210.65	11.016
1214.32	39.965
1217.98	74.746
1221.64	50.955
1225.29	52.842
1228.95	27.787
1232.6	55.263
1236.26	34.804
1239.91	42.01
1243.56	71.55
1247.2	89.136
1250.85	139.816
1254.49	121.38
1258.13	120.704
1261.78	114.39
1265.41	83.401
1269.05	112.835
1272.69	115.86
1276.32	178.224
1279.95	185.998
1283.59	189.151
1287.21	203.005
1290.84	222.237
1294.47	112.36
1298.09	126.753
1301.72	132.517
1305.34	102.066
1308.96	60.546
1312.58	112.111
1316.19	125.047
1319.81	93.257
1323.42	91.917
1327.03	84.905
1330.64	98.281
1334.25	97.381
1337.86	118.515
1341.46	169.416
1345.07	153.956
1348.67	102.308
1352.27	100.131
1355.87	100.579
1359.46	154.216
1363.06	150.819
1366.65	120.258
1370.25	48.227
1373.84	76.768
1377.43	110.721
1381.02	126.468
1384.6	114.286
1388.18	153.873
1391.77	141.631
1395.35	105.187
1398.93	44.455
1402.51	92.884
1406.08	90.098
1409.66	94.825
1413.23	141.248
1416.8	107.982
1420.37	135.071
1423.94	113.48
1427.51	123.194
1431.08	117.95
1434.64	39.923
1438.2	32.605
1441.76	52.165
1445.32	36.045
1448.88	56.441
1452.43	41.141
1455.99	65.2
1459.54	149.136
1463.09	115.172
1466.64	87.371
1470.19	35.614
1473.74	69.179
1477.28	9.403
1480.83	60.731
1484.37	0.846
1487.91	22.368
1491.45	50.251
1494.98	39.167
1498.52	20.402
1502.05	90.337
1505.59	45.22
1509.12	84.149
1512.65	55.264
1516.17	88.325
1519.7	0
