Measurement: Raman, 514 nm, ccw, Raman Data Processed
Mineral: Axinite-(Fe)
Rruff sample: R050061
Ideal chemistry: Ca_4_Fe^2+^_2_Al_4_[B_2_Si_8_O_30_](OH)_2_
Locality: Jamestown, California, USA
Source: Rock Currier
Description: Brown colored axe-head-shaped single crystals
Measured chemistry: Ca_2.00_(Fe^2+^_0.73_Mg_0.20_Mn_0.07_)Al_2.00_BSi_4_O_15_(OH)
Pin_id: L00381
Orientation: Laser parallel to a* (1 0 0). Fiducial mark perpendicular to laser is parallel to b [0 1 0]
Raman shift (cm-1)	intensity
88.26	0
92.466	97.498
96.67	727.045
100.871	2024.29
105.07	4307.62
109.267	6361.28
113.461	2781.25
117.653	892.978
121.843	370.367
126.031	38.467
130.217	10.144
134.4	30.322
138.581	447.704
142.76	793.235
146.937	2771.74
151.112	4621.8
155.284	2538.78
159.454	1420.74
163.622	1875.63
167.787	4576.99
171.951	7412.35
176.112	4045.72
180.271	1326.23
184.428	619.747
188.583	1844.12
192.735	5224.35
196.885	3494.19
201.033	4796.64
205.179	8226.65
209.323	6935.18
213.464	4005.04
217.603	2625.24
221.741	1400.82
225.875	148.758
230.008	264.413
234.139	263.744
238.267	64.308
242.393	948.779
246.517	1499.14
250.639	1728.35
254.759	2318.13
258.876	1643.77
262.991	1894.82
267.104	3214.32
271.215	4890.91
275.324	4894.43
279.431	3053.15
283.535	2142.09
287.638	1831.2
291.738	2015.69
295.836	3022.12
299.932	4898.1
304.025	9224.94
308.117	10550.8
312.206	5406.59
316.293	3363.57
320.378	2926.92
324.461	1758.31
328.542	1472.16
332.621	1138.86
336.697	1629.03
340.772	4500.77
344.844	7316.98
348.914	6742.44
352.982	6518.03
357.048	2911.75
361.111	959.846
365.173	338.273
369.232	446.49
373.29	639.665
377.345	784.298
381.398	1331.73
385.449	3915.13
389.497	9107.8
393.544	7766.88
397.589	3797.85
401.631	2016.01
405.672	1363.26
409.71	1805.48
413.746	5557.68
417.78	11403.9
421.812	6380
425.842	4762.06
429.869	4226.03
433.895	2024.89
437.918	744.657
441.94	845.319
445.959	1050.88
449.976	265.324
453.991	69.351
458.004	1.708
462.015	124.634
466.024	501.429
470.031	1135.09
474.035	1571.57
478.038	3078.69
482.038	8740.06
486.037	12492.9
490.033	5154.22
494.027	2027.61
498.019	1644.73
502.009	2194.36
505.997	3038.21
509.983	2851.88
513.967	1615.97
517.949	501.948
521.929	25.196
525.906	48.743
529.882	80.018
533.855	172.298
537.827	127.281
541.796	31.957
545.764	46.259
549.729	55.176
553.692	84.35
557.653	5.924
561.612	386.183
565.569	724.165
569.524	1354.86
573.477	2040.27
577.428	1774.39
581.377	1608.22
585.324	2707.76
589.269	3943.01
593.212	2759.97
597.152	1299.62
601.091	741.993
605.028	747.067
608.962	1139.85
612.895	1835.85
616.825	2446.76
620.754	2564.57
624.68	1201.2
628.605	322.544
632.527	82.414
636.447	92.138
640.366	10.921
644.282	119.096
648.196	78.719
652.109	86.94
656.019	64.083
659.927	22.743
663.834	153.848
667.738	558.6
671.64	1476.32
675.54	3165.72
679.439	3084.94
683.335	1680.18
687.229	910.568
691.121	791.609
695.012	1106.63
698.9	1920.84
702.786	3567.53
706.67	7654.92
710.552	14916.4
714.433	19333.5
718.311	12627.8
722.187	6282.41
726.061	3357.9
729.934	1910.26
733.804	1305.47
737.672	981.563
741.539	807.537
745.403	577.402
749.265	708.168
753.126	1134.85
756.984	1868.44
760.84	3015.97
764.695	4512.42
768.547	4620.85
772.398	3274.33
776.246	1946.8
780.093	1077.25
783.937	544.676
787.78	209.149
791.621	34.217
795.459	11.562
799.296	16.043
803.131	47.907
806.964	110.833
810.795	564.102
814.623	792.699
818.45	333.537
822.275	33.765
826.098	101.847
829.92	105.564
833.739	44.308
837.556	9.816
841.371	202.062
845.184	414.197
848.996	590.556
852.805	509.169
856.613	325.079
860.418	270.294
864.222	297.027
868.023	287.368
871.823	377.146
875.621	513.342
879.417	804.906
883.211	1298.82
887.003	1775.09
890.793	2746.75
894.581	3930.74
898.367	5381.08
902.152	6600.86
905.934	7910.99
909.714	8321.41
913.493	6062.14
917.27	3698.23
921.044	2503.67
924.817	2187.43
928.588	2339.52
932.357	2366.97
936.124	2415.77
939.889	2894.99
943.652	4081.85
947.414	6270.86
951.173	8776.06
954.931	10991.1
958.686	14626.4
962.44	18602.9
966.192	15590.2
969.942	10738
973.69	9876.08
977.436	11024.1
981.18	9813.68
984.922	8488.3
988.663	8567.08
992.401	9236.94
996.138	10437.1
999.873	13248.9
1003.61	14061.1
1007.34	10574.2
1011.07	6406.11
1014.79	3762.46
1018.52	2723.69
1022.24	2840.02
1025.96	3074.72
1029.68	2422.61
1033.4	1373.35
1037.12	910.882
1040.83	743.527
1044.54	789.851
1048.25	892.162
1051.96	1066.67
1055.67	913.433
1059.37	804.289
1063.08	619.089
1066.78	521.746
1070.48	590.073
1074.17	940.633
1077.87	1538.45
1081.56	1873.01
1085.26	1348.61
1088.94	826.83
1092.63	673.241
1096.32	731.301
1100	1065.42
1103.69	1537.25
1107.37	1375.6
1111.05	849.751
1114.72	559.045
1118.4	356.586
1122.07	321.726
1125.74	253.995
1129.41	170.633
1133.08	799.229
1136.75	177.078
1140.41	95.232
1144.07	34.562
1147.73	15.707
1151.39	16.122
1155.05	16.033
1158.7	5.374
1162.36	31.864
1166.01	96.819
1169.66	75.592
1173.3	49.909
1176.95	38.439
1180.59	3.841
1184.24	1.225
1187.88	2.641
1191.52	4.983
1195.15	51.267
1198.79	33.801
1202.42	60.52
1206.05	7.735
1209.68	69.927
1213.31	103.727
1216.93	172.97
1220.56	79.104
1224.18	78.628
1227.8	13.285
1231.42	12.502
1235.04	45.854
1238.65	105.821
1242.26	131.553
1245.88	209.298
1249.48	167.78
1253.09	159.479
1256.7	146.28
1260.3	77.681
1263.9	2.71
1267.51	67.907
1271.11	123.817
1274.7	186.176
1278.3	160.064
1281.89	229.237
1285.48	130.285
1289.07	54.771
1292.66	104.598
1296.25	90.006
1299.83	32.106
1303.41	90.581
1306.99	132.97
1310.57	124.233
1314.15	103.542
1317.73	83.442
1321.3	78.102
1324.87	45.275
1328.44	12.649
1332.01	19.734
1335.58	64.157
1339.14	96.341
1342.71	76.515
1346.27	55.253
1349.83	130.83
1353.39	57.123
1356.94	113.332
1360.5	57.585
1364.05	8.753
1367.6	120.596
1371.15	104.562
1374.7	126.958
1378.24	229.245
1381.79	131.396
1385.33	185.031
1388.87	145.059
1392.41	180.788
1395.95	36.852
1399.48	54.747
1403.02	8.486
1406.55	157.181
1410.08	152.604
1413.61	108.328
1417.13	214.41
1420.66	209.045
1424.18	128.682
1427.7	121.075
1431.22	58.729
1434.74	101.421
1438.26	53.201
1441.77	52.603
1445.28	51.45
1448.79	113.1
1452.3	229.513
1455.81	172.175
1459.32	209.544
1462.82	274.858
1466.32	204.609
1469.82	50
1473.32	58.497
1476.82	38.931
1480.32	64.448
1483.81	18.93
1487.3	53.919
1490.79	85.656
1494.28	104.651
1497.77	168.119
1501.25	76.106
1504.74	134.778
1508.22	84.446
1511.7	0.25
