Measurement: Raman, 514 nm, ccw, Raman Data Processed
Mineral: Axinite-(Fe)
Rruff sample: R050061
Ideal chemistry: Ca_4_Fe^2+^_2_Al_4_[B_2_Si_8_O_30_](OH)_2_
Locality: Jamestown, California, USA
Source: Rock Currier
Description: Brown colored axe-head-shaped single crystals
Measured chemistry: Ca_2.00_(Fe^2+^_0.73_Mg_0.20_Mn_0.07_)Al_2.00_BSi_4_O_15_(OH)
Pin_id: L00318
Orientation: Laser parallel to (0 1 1). Fiducial mark perpendicular to laser is parallel to a [1 0 0]
Raman shift (cm-1)	intensity
91.065	0
95.269	91.42
99.471	48.381
103.67	1059.55
107.868	5099.74
112.063	4647.75
116.256	2302.93
120.447	2010.07
124.636	2221.03
128.822	1403.82
133.006	1365.01
137.188	2678.32
141.368	3446.15
145.545	3440.53
149.72	4962.78
153.893	4343.5
158.064	3353.36
162.233	4161.35
166.399	8752.11
170.563	11773.8
174.725	6806.31
178.885	2510.88
183.043	364.091
187.198	307.051
191.351	454.248
195.502	714.746
199.651	745.232
203.797	2422.38
207.942	4933.03
212.084	5505.01
216.224	3638.74
220.362	1540.04
224.497	236.691
228.631	256.712
232.762	376.605
236.891	66.446
241.018	1243.58
245.143	2432.05
249.265	2934.69
253.386	3281.34
257.504	3130.79
261.62	2915.23
265.734	4988.13
269.845	8531.95
273.955	11286.7
278.062	9931.68
282.167	6146.64
286.27	4321.09
290.371	4255.11
294.47	4998.57
298.567	5781.28
302.661	6013.64
306.753	5674.96
310.843	4473.49
314.931	5111.9
319.017	6040.2
323.101	4388.41
327.182	3346.49
331.261	3174.85
335.339	2424.31
339.414	3227.82
343.487	4873.94
347.557	5057.76
351.626	4993.49
355.693	3227.25
359.757	1079.15
363.819	137.591
367.879	9.586
371.937	319.649
375.993	454.586
380.047	336.668
384.099	1286.91
388.148	3729.04
392.196	5908.83
396.241	5365.86
400.284	3248.28
404.325	1969.56
408.364	1257.78
412.401	1856.95
416.435	4467.09
420.468	5090.19
424.498	5692.22
428.527	9344.1
432.553	8335.78
436.577	4897.25
440.599	2721.49
444.619	2561.5
448.637	1586.28
452.653	860.838
456.667	776.176
460.678	429.301
464.688	56.216
468.695	404.894
472.701	558.409
476.704	403.983
480.705	902.744
484.704	2079.91
488.701	1348.5
492.696	93.359
496.689	313.168
500.68	190.463
504.668	450.975
508.655	1228.22
512.639	1596.71
516.622	1241.7
520.602	518.781
524.581	84.535
528.557	91.483
532.531	79.839
536.503	22.13
540.473	335.942
544.441	862.431
548.407	919.79
552.371	819.256
556.333	1436.57
560.293	3367.57
564.251	2991.51
568.206	1615.33
572.16	1399.02
576.112	1399.59
580.061	1232.02
584.009	1615.32
587.954	2532.49
591.897	2310.52
595.839	1025.43
599.778	369.201
603.716	311.848
607.651	714.368
611.584	1141.76
615.515	1719.03
619.444	2667.18
623.372	2244.83
627.297	981.896
631.22	358.449
635.141	404.826
639.06	1055.35
642.977	1725.89
646.892	1807.34
650.805	1164.33
654.716	450.904
658.625	240.399
662.532	445.273
666.437	1090.62
670.34	2529.57
674.241	5406.66
678.139	7314.88
682.036	5002.05
685.931	2739.09
689.824	1969.94
693.715	2050.96
697.604	2837.06
701.491	5192.52
705.376	10094.9
709.259	20787.1
713.139	32139.2
717.018	27431.2
720.895	14643
724.77	7484.69
728.643	4063.26
732.514	2515.69
736.383	1539
740.25	1150.19
744.115	703.258
747.978	503.211
751.839	458.052
755.698	558.785
759.555	790.412
763.41	1155.94
767.263	1509.36
771.114	1226.69
774.964	763.929
778.811	254.084
782.656	96.175
786.499	78.881
790.341	193.566
794.18	222.259
798.017	221.176
801.853	140.217
805.686	3.957
809.518	465.542
813.347	765.847
817.175	430.437
821.001	110.986
824.824	67.564
828.646	98.454
832.466	22.828
836.284	15.559
840.1	36.136
843.914	262.114
847.726	498.405
851.536	725.74
855.344	892.076
859.15	1101.42
862.954	1335.78
866.756	1494.14
870.557	1474.54
874.355	1679
878.152	1790.52
881.946	1712.12
885.739	1747.83
889.53	2174.65
893.318	2993.59
897.105	3941.64
900.89	4835.8
904.673	5668.1
908.454	4876.48
912.234	3522.95
916.011	2331.55
919.786	1876.24
923.56	2047.03
927.331	2638.9
931.101	2955.86
934.868	2457.81
938.634	2041.55
942.398	1992.93
946.16	2367.57
949.92	3235.1
953.678	4369.81
957.435	6583.74
961.189	10112.9
964.941	11682.2
968.692	9911.69
972.441	9191.37
976.187	11693.7
979.932	12868.9
983.675	10408.7
987.416	8857.22
991.155	8678.21
994.893	8861.7
998.628	8923.5
1002.36	8055.04
1006.09	6507.55
1009.82	4819.52
1013.55	3382.69
1017.28	2486.97
1021	1955.31
1024.72	1764.72
1028.44	1763.22
1032.16	2020.89
1035.88	2643.82
1039.59	3550.64
1043.31	3736.86
1047.02	3901.75
1050.73	4994.06
1054.43	5769.6
1058.14	5547.01
1061.84	4221.16
1065.54	2915.7
1069.24	2147.93
1072.94	2399.67
1076.64	3261.68
1080.33	4828.04
1084.03	4825.77
1087.71	3066.4
1091.4	1809.37
1095.09	1195.45
1098.78	993.584
1102.46	840.728
1106.14	718.165
1109.82	668.094
1113.5	423.752
1117.17	306.178
1120.85	213.944
1124.52	160.882
1128.19	86.468
1131.86	7.453
1135.52	29.449
1139.19	16.48
1142.85	6.68
1146.51	2
1150.17	3.196
1153.83	27.883
1157.48	9.283
1161.14	1.505
1164.79	56.476
1168.44	3.769
1172.09	22.924
1175.73	44.754
1179.38	31.177
1183.02	71.983
1186.66	10.643
1190.3	1.787
1193.94	44.588
1197.58	17.544
1201.21	44.209
1204.84	9.072
1208.47	18.592
1212.1	5.002
1215.72	15.137
1219.35	12.429
1222.97	48.138
1226.59	7.692
1230.21	36.944
1233.83	79.731
1237.45	79.353
1241.06	97.822
1244.67	2.916
1248.28	16.237
1251.89	21.838
1255.5	35.473
1259.1	57.842
1262.7	35.004
1266.31	154.818
1269.9	106.895
1273.5	70.67
1277.1	74.876
1280.69	79.12
1284.29	19.285
1287.88	109.053
1291.46	69.104
1295.05	114.287
1298.64	155.407
1302.22	81.735
1305.8	34.102
1309.38	74.941
1312.96	39.823
1316.54	16.277
1320.11	62.776
1323.68	56.362
1327.25	39.363
1330.82	148.333
1334.39	122.666
1337.96	93.346
1341.52	123.562
1345.08	57.176
1348.64	37.545
1352.2	144.233
1355.76	161.492
1359.31	194.233
1362.87	171.233
1366.42	126.438
1369.97	104.324
1373.52	134.048
1377.06	182.135
1380.61	105.341
1384.15	84.68
1387.69	104.333
1391.23	128.297
1394.77	177.131
1398.3	131.132
1401.84	136.662
1405.37	188.422
1408.9	161.062
1412.43	88.587
1415.96	174.992
1419.48	165.464
1423.01	207.275
1426.53	170.699
1430.05	144.754
1433.57	173.127
1437.08	246.033
1440.6	222.032
1444.11	225.054
1447.62	202.846
1451.13	204.746
1454.64	177.112
1458.15	154.698
1461.65	59.763
1465.16	149.486
1468.66	113.874
1472.16	123.122
1475.65	126.752
1479.15	135.276
1482.64	132.662
1486.14	104.03
1489.63	54.778
1493.12	19.355
1496.61	32.421
1500.09	26.993
1503.58	10.647
1507.06	9.734
1510.54	64.382
1514.02	14.462
