Measurement: Raman, 514 nm, ccw, Raman Data Processed
Mineral: Axinite-(Fe)
Rruff sample: R050026
Ideal chemistry: Ca_4_Fe^2+^_2_Al_4_[B_2_Si_8_O_30_](OH)_2_
Locality: Pouyva mine, Polar Urals, Western Siberian Region, Russia
Source: Rock Currier
Description: Brown transparent flat crystal
Measured chemistry: Ca_2.00_(Fe^2+^_0.61_Mn_0.26_Mg_0.13_)Al_2.00_BSi_4_O_15_(OH)
Pin_id: L00137
Orientation: Laser parallel to (1 0 1). Fiducial mark perpendicular to laser is parallel to b* (0 1 0)
Raman shift (cm-1)	intensity
92.466	0
96.67	158.647
100.871	331.136
105.07	951.577
109.267	2289.4
113.461	972.605
117.653	232.171
121.843	156.553
126.031	221.62
130.217	41.86
134.4	180.385
138.581	759.548
142.76	773.616
146.937	1085.29
151.112	1144.68
155.284	471.201
159.454	266.39
163.622	469.803
167.787	1463.24
171.951	1521.79
176.112	712.265
180.271	173.41
184.428	68.388
188.583	144.814
192.735	11.512
196.885	58.951
201.033	174.655
205.179	705.963
209.323	1458.64
213.464	1424.38
217.603	1306.59
221.741	562.845
225.875	21.749
230.008	58.528
234.139	21.077
238.267	253.471
242.393	486.483
246.517	567.214
250.639	566.375
254.759	1311.35
258.876	960.927
262.991	921.197
267.104	1329.98
271.215	2228.56
275.324	2781.18
279.431	2334.96
283.535	1520.95
287.638	1548.79
291.738	1536.91
295.836	1402.31
299.932	1046.06
304.025	1017.87
308.117	1053.62
312.206	1136.89
316.293	2120.09
320.378	2913.14
324.461	2089.78
328.542	1681.82
332.621	1477.31
336.697	1938.32
340.772	3191.6
344.844	2682.57
348.914	1500.52
352.982	995.363
357.048	415.908
361.111	91.079
365.173	27.345
369.232	144.313
373.29	234.079
377.345	182.975
381.398	297.513
385.449	807.34
389.497	1110.32
393.544	792.396
397.589	482.697
401.631	375.53
405.672	336.679
409.71	370.98
413.746	842.744
417.78	1803.36
421.812	1925.84
425.842	1944.87
429.869	1719.4
433.895	1045.46
437.918	744.802
441.94	1143.82
445.959	1221.56
449.976	454.316
453.991	281.608
458.004	141.494
462.015	21.125
466.024	17.448
470.031	166.532
474.035	162.587
478.038	188.486
482.038	609.402
486.037	749.373
490.033	265.417
494.027	18.43
498.019	5.635
502.009	105.885
505.997	244.381
509.983	372.419
513.967	318.617
517.949	130.896
521.929	1.837
525.906	6.344
529.882	58.544
533.855	56.998
537.827	6.391
541.796	90.235
545.764	124.296
549.729	86.349
553.692	160.583
557.653	443.096
561.612	602.684
565.569	502.892
569.524	545.933
573.477	730.391
577.428	604.78
581.377	347.093
585.324	250.335
589.269	230.511
593.212	125.879
597.152	14.864
601.091	123.973
605.028	39.817
608.962	49.948
612.895	295.664
616.825	594.141
620.754	631.224
624.68	230.299
628.605	62.741
632.527	101.816
636.447	256.083
640.366	428.077
644.282	498.805
648.196	352.779
652.109	157.808
656.019	36.618
659.927	38.299
663.834	33.222
667.738	168.419
671.64	501.295
675.54	972.933
679.439	910.832
683.335	438.779
687.229	244.52
691.121	289.384
695.012	340.785
698.9	543.634
702.786	1036.07
706.67	2172.72
710.552	4650.45
714.433	5859.14
718.311	3564.77
722.187	1680.34
726.061	884.854
729.934	495.312
733.804	350.712
737.672	181.054
741.539	74.342
745.403	49.574
749.265	72.748
753.126	52.338
756.984	123.396
760.84	123.691
764.695	193.053
768.547	168.963
772.398	163.836
776.246	59.691
780.093	35.472
783.937	17.817
787.78	50.389
791.621	26.218
795.459	11.393
799.296	14.88
803.131	37.613
806.964	48.507
810.795	147.266
814.623	165.555
818.45	39.73
822.275	19.229
826.098	3.712
829.92	21.573
833.739	46.138
837.556	64.191
841.371	70.081
845.184	156.035
848.996	194.015
852.805	294.989
856.613	349.948
860.418	332.896
864.222	340.85
868.023	310.788
871.823	331.72
875.621	428.668
879.417	474.625
883.211	488.586
887.003	524.554
890.793	659.549
894.581	970.554
898.367	1265.47
902.152	1489.3
905.934	1248.04
909.714	888.928
913.493	701.981
917.27	594.078
921.044	637.206
924.817	786.339
928.588	887.367
932.357	784.229
936.124	713.362
939.889	802.08
943.652	1028.25
947.414	1512.91
951.173	1871.76
954.931	2277.23
958.686	3124.41
962.44	3903.87
966.192	3355.4
969.942	2933.98
973.69	3267.78
977.436	3628.96
981.18	2786.34
984.922	2191.06
988.663	2034.94
992.401	1866.85
996.138	1752.84
999.873	1600.88
1003.61	1308.9
1007.34	962.012
1011.07	676.23
1014.79	518.545
1018.52	380.825
1022.24	335.998
1025.96	299.811
1029.68	255.237
1033.4	291.775
1037.12	316.48
1040.83	424.607
1044.54	438.456
1048.25	480.144
1051.96	480.908
1055.67	485.678
1059.37	391.561
1063.08	311.727
1066.78	312.59
1070.48	381.607
1074.17	502.665
1077.87	596.989
1081.56	601.035
1085.26	432.662
1088.94	285.042
1092.63	276.75
1096.32	326.584
1100	277.722
1103.69	235.7
1107.37	168.822
1111.05	135.677
1114.72	78.976
1118.4	116.172
1122.07	155.476
1125.74	100.641
1129.41	87.789
1133.08	53.044
1136.75	1.507
1140.41	22.421
1144.07	4.288
1147.73	46.904
1151.39	34.571
1155.05	2.54
1158.7	3.776
1162.36	13.651
1166.01	15.552
1169.66	25.117
1173.3	8.61
1176.95	19.928
1180.59	47.609
1184.24	10.498
1187.88	17.262
1191.52	37.336
1195.15	10.047
1198.79	23.632
1202.42	21.418
1206.05	43.861
1209.68	40.253
1213.31	13.653
1216.93	47.365
1220.56	17.029
1224.18	29.093
1227.8	18.429
1231.42	39.173
1235.04	17.875
1238.65	10.957
1242.26	21.138
1245.88	60.609
1249.48	18.987
1253.09	2.644
1256.7	8.285
1260.3	32.996
1263.9	14.159
1267.51	58.111
1271.11	41.951
1274.7	31.731
1278.3	27.322
1281.89	62.754
1285.48	45.266
1289.07	46.788
1292.66	17.506
1296.25	25.595
1299.83	46.961
1303.41	33.69
1306.99	36.459
1310.57	6.652
1314.15	18.811
1317.73	15.276
1321.3	12.369
1324.87	5.175
1328.44	45.214
1332.01	15.311
1335.58	17.993
1339.14	42.782
1342.71	54.414
1346.27	49.935
1349.83	29.275
1353.39	11.264
1356.94	15.439
1360.5	14.487
1364.05	47.337
1367.6	7.962
1371.15	36.106
1374.7	69.763
1378.24	94.824
1381.79	29.718
1385.33	43.73
1388.87	37.234
1392.41	38.48
1395.95	27.839
1399.48	28.975
1403.02	59.105
1406.55	48.233
1410.08	59.177
1413.61	37.851
1417.13	59.189
1420.66	17.676
1424.18	10.073
1427.7	6.849
1431.22	4.082
1434.74	45.064
1438.26	36.279
1441.77	62.048
1445.28	68.494
1448.79	45.623
1452.3	52.925
1455.81	41.812
1459.32	52.997
1462.82	37.739
1466.32	15.656
1469.82	30.068
1473.32	10.445
1476.82	33.871
1480.32	19.873
1483.81	25.65
1487.3	50.731
1490.79	46.82
1494.28	14.226
1497.77	9.378
1501.25	5.384
1504.74	7.586
1508.22	22.717
1511.7	0.19
