Measurement: Raman, 514 nm, ccw, Raman Data Processed
Mineral: Axinite-(Fe)
Rruff sample: R060558
Ideal chemistry: Ca_4_Fe^2+^_2_Al_4_[B_2_Si_8_O_30_](OH)_2_
Locality: unknown
Source: Gemological Institute of America
Description: Brown flattened crystal
Measured chemistry: Ca_2.00_(Fe^2+^_0.60_Mg_0.35_Mn_0.05_)_Î£=1_Al_2.00_BSi_4.00_O_15_(OH) ; B not measured
Pin_id: M01160
Orientation: Laser parallel to b* (0 1 0). Fiducial mark perpendicular to laser is parallel to -c [0 0 -1]
Raman shift (cm-1)	intensity
86.541	0
91.531	1194.62
96.519	6289.23
101.503	14683.8
106.484	22819.9
111.462	16202.8
116.437	3973.49
121.409	869.105
126.377	208.646
131.343	196.75
136.305	234.794
141.264	1351.06
146.22	3215.61
151.173	6033.07
156.123	7596.89
161.069	8117.62
166.013	9688.33
170.953	12037.1
175.89	9934.59
180.825	4383.39
185.756	4363.14
190.683	8544.72
195.608	12612.6
200.53	13440.1
205.449	16952.6
210.364	14052
215.277	7635.45
220.186	3389.78
225.092	915.029
229.996	268.734
234.896	357.134
239.793	913.398
244.687	3345.82
249.578	5058.45
254.466	6120.5
259.351	8352.45
264.233	12641.1
269.112	17171.8
273.988	16495.3
278.86	10177
283.73	5658.7
288.597	5712.76
293.461	9169.1
298.321	15765.6
303.179	21911
308.034	22545.4
312.885	13738.6
317.734	5227.3
322.58	2311.7
327.422	1592.38
332.262	1913.53
337.099	2814.06
341.932	7096.88
346.763	14075.9
351.591	19164.5
356.416	15541.4
361.238	5667.45
366.056	1490.41
370.872	419.124
375.685	279.007
380.495	2260.64
385.302	8128.31
390.106	15967.8
394.908	14981.2
399.706	7074.14
404.501	5143.78
409.294	8889.88
414.083	20468.3
418.869	30824.9
423.653	19468.5
428.434	13022.3
433.211	9119.37
437.986	3980.93
442.758	2481.78
447.527	2007.97
452.293	175.048
457.057	506.683
461.817	485.812
466.575	99.1733
471.329	1126.25
476.081	5269.28
480.83	15180.7
485.576	25507.6
490.319	16783.2
495.059	4839.33
499.796	3248.59
504.531	3890.46
509.262	3794.62
513.991	2043.09
518.717	526.882
523.44	6.38794
528.161	180.907
532.878	586.514
537.593	965.49
542.304	747.784
547.013	487.342
551.719	106.169
556.423	227.269
561.123	800.784
565.821	1902.44
570.516	4005.09
575.208	5915.66
579.897	6379.13
584.583	8861.44
589.267	12359.6
593.948	10032.5
598.626	4608.73
603.301	2257.82
607.974	1853.61
612.644	2516.75
617.311	2714.73
621.975	2033.52
626.636	815.111
631.295	29.3611
635.951	135.145
640.604	118.92
645.254	58.7227
649.902	70.9685
654.547	109.913
659.189	156.207
663.828	832.873
668.465	2418.59
673.099	5544.78
677.73	7443.91
682.359	4939.8
686.984	2621.46
691.607	2423.61
696.228	3447.94
700.845	6863.72
705.46	15796.6
710.072	33091.4
714.682	45024.1
719.288	30980.6
723.893	13667.2
728.494	6537.71
733.093	3739.28
737.689	2404.55
742.282	1614.65
746.873	1557.16
751.461	1943.07
756.046	3215.22
760.628	5634.66
765.208	8651.44
769.786	8897.65
774.36	5926.23
778.932	2820.78
783.502	1318.32
788.068	530.835
792.632	17.8049
797.194	171.757
801.752	101.166
806.309	583.1
810.862	1929.73
815.413	2107.7
819.961	833.051
824.507	75.1606
829.05	275.32
833.59	187.119
838.128	139.834
842.663	767.34
847.195	1459.53
851.725	1642.44
856.252	1260.14
860.777	800.648
865.299	653.025
869.819	762.311
874.336	1008.54
878.85	1634.76
883.362	2687.97
887.871	4812.31
892.377	8430.94
896.881	13947
901.383	17875.5
905.882	20308.8
910.378	21376.9
914.872	16066.2
919.363	9158.44
923.852	5840.34
928.338	5236.96
932.821	5187.65
937.302	4763.61
941.781	5543.08
946.257	8113
950.73	12457.3
955.201	16244.1
959.669	20505.1
964.135	24399.8
968.598	21293.8
973.059	18088.6
977.517	21586.6
981.973	23337
986.426	20526.7
990.877	21139.9
995.325	23675.5
999.771	28222.4
1004.21	32997.6
1008.65	27359.4
1013.09	15021.8
1017.53	7943.91
1021.96	4955.74
1026.39	4663.36
1030.82	3948.98
1035.25	2277.23
1039.67	1150.52
1044.09	704.436
1048.51	623.632
1052.92	519.871
1057.34	430.992
1061.75	293.535
1066.16	175.09
1070.56	37.5325
1074.97	255.316
1079.37	763.446
1083.77	1182.66
1088.16	1041.1
1092.56	646.665
1096.95	955.445
1101.34	1759.92
1105.72	2543.78
1110.11	2482.64
1114.49	1704.51
1118.87	1014.98
1123.25	552.383
1127.62	369.937
1131.99	150.311
1136.36	106.319
1140.73	18.3069
1145.09	8.2146
1149.46	78.5747
1153.82	19.562
1158.17	90.104
1162.53	81.9822
1166.88	103.582
1171.23	76.2197
1175.58	73.5107
1179.93	51.5449
1184.27	20.2231
1188.61	26.4397
1192.95	38.3699
1197.29	67.291
1201.62	34.9065
1205.95	78.1248
1210.28	158.375
1214.61	53.7688
1218.93	120
1223.25	135.237
1227.57	113.314
1231.89	176.201
1236.2	176.92
1240.52	200.485
1244.83	174.979
1249.13	197.575
1253.44	295.309
1257.74	260.55
1262.05	238.124
1266.34	266.793
1270.64	344.938
1274.93	393.671
1279.23	380.979
1283.52	347.46
1287.8	377.222
1292.09	363.449
1296.37	227.247
1300.65	183.206
1304.93	152.175
1309.2	170.138
1313.48	96.8076
1317.75	164.044
1322.02	143.399
1326.28	151.986
1330.55	166.625
1334.81	149.583
1339.07	192.607
1343.33	191.709
1347.58	107.144
1351.83	165.786
1356.08	151.488
1360.33	231.738
1364.58	168.092
1368.82	201.276
1373.06	133.414
1377.3	194.34
1381.54	137.97
1385.77	108.344
1390.01	150.944
1394.24	141.475
1398.46	120.583
1402.69	155.617
1406.91	122.337
1411.14	171.611
1415.36	122.515
1419.57	147.607
1423.79	133.086
1428	174.448
1432.21	147.553
1436.42	58.3298
1440.62	76.1774
1444.83	93.8871
1449.03	19.3397
1453.23	1.46387
1457.42	47.9773
1461.62	16.8964
1465.81	70.4304
1470	29.9186
1474.19	43.6335
1478.38	74.8107
1482.56	9.49963
1486.74	78.3168
1490.92	18.4634
1495.1	55.6626
1499.27	24.8019
1503.45	35.7801
1507.62	25.5783
1511.79	4.59619
1515.95	45.0297
1520.12	4.59375
1524.28	48.2286
1528.44	13.1301
1532.6	51.657
1536.75	98.7119
1540.9	7.17481
1545.06	26.7903
1549.2	53.8103
1553.35	98.1008
1557.5	1.61719
1561.64	20.6321
