Measurement: Raman, 514 nm, ccw, Raman Data Processed
Mineral: Axinite-(Fe)
Rruff sample: R060194
Ideal chemistry: Ca_4_Fe^2+^_2_Al_4_[B_2_Si_8_O_30_](OH)_2_
Locality: near Dalbandi, Baluchistan Province, Pakistan
Source: Herbert Obodda
Description: Brown transparent wedge-shaped single crystal
Measured chemistry: Ca_2.00_(Fe^2+^_0.66_Mg_0.30_Mn_0.04_)Al_2.00_BSi_4.00_O_15_(OH)
Pin_id: L00543
Orientation: Laser parallel to (-1 0 -1). Fiducial mark perpendicular to laser is parallel to b [0 1 0]
Raman shift (cm-1)	intensity
53.91	0
58.864	141.624
63.817	168.372
68.767	7.73804
73.714	60.6663
78.659	56.0031
83.602	370.914
88.542	1027.49
93.48	2286.29
98.416	5527.82
103.349	13877.9
108.28	33258
113.208	25931.2
118.134	9302.19
123.058	5260.78
127.979	3854.99
132.898	4237.18
137.814	9066.05
142.728	13852.4
147.639	8793.65
152.549	7194.98
157.455	6806.65
162.359	6725.77
167.261	10685.5
172.161	15419.9
177.058	8915.77
181.952	2878.01
186.845	888.522
191.734	967.36
196.622	2185.69
201.507	5026.7
206.389	9331.61
211.269	9474.27
216.147	6507.01
221.022	2933.9
225.895	794.115
230.765	206.828
235.633	280.523
240.498	516.833
245.361	2100.32
250.222	4387.29
255.08	8820.49
259.936	10808.8
264.789	15152.6
269.64	26191
274.488	33344.3
279.334	25888.5
284.178	14542.2
289.019	11798.6
293.857	13983.7
298.693	17518.1
303.527	18663
308.358	17064.2
313.187	8427.84
318.013	4116.69
322.837	3189.56
327.659	5364.63
332.478	6593.67
337.294	4733.6
342.108	9631.29
346.92	16545.9
351.729	20156.6
356.535	13706.4
361.34	4113.56
366.141	855.193
370.94	201.617
375.737	255.432
380.531	674.069
385.323	3534.56
390.113	8300.72
394.9	5162.35
399.684	2038.6
404.466	2470.52
409.245	5191.45
414.022	14950.5
418.797	32033.1
423.569	19803.2
428.338	18099.5
433.105	12466.9
437.87	6852.38
442.632	11508.8
447.391	14729.2
452.149	4025.49
456.903	948.602
461.655	17.4985
466.405	364.701
471.152	226.409
475.897	2321.8
480.639	7825.77
485.378	15975.5
490.116	7334.64
494.85	1093.05
499.582	1.73242
504.312	122.842
509.039	1104.59
513.764	1837.01
518.486	865.93
523.206	55.9092
527.923	12.6665
532.638	890.783
537.35	1175.86
542.059	495.86
546.766	0.328125
551.471	407.674
556.173	38.6435
560.873	1066.8
565.57	1567.41
570.264	3001.72
574.957	4536.69
579.646	4336.29
584.333	6071.48
589.018	11496.2
593.7	9199.56
598.379	3418.39
603.056	1153.25
607.73	766.833
612.402	1155.94
617.072	1569.76
621.739	1183.08
626.403	170.88
631.065	142.549
635.724	422.502
640.381	1877.52
645.035	5551.13
649.687	2152.46
654.336	649.765
658.983	461.702
663.627	806.795
668.268	2226.5
672.907	6067.12
677.544	9731.32
682.178	6323.85
686.809	2864.1
691.438	2368.1
696.065	3362.16
700.688	7215.21
705.31	16591.7
709.929	37825.3
714.545	57851.3
719.158	38198.7
723.77	16735.5
728.378	7717.68
732.984	4110.28
737.588	2329.32
742.189	1427.82
746.787	932.503
751.383	607.697
755.976	771.45
760.567	1391.74
765.155	2634.73
769.741	2863.09
774.324	1791.88
778.904	830.822
783.482	295.045
788.058	49.0078
792.631	176.094
797.201	124.305
801.769	53.1733
806.334	570.192
810.897	1506.47
815.457	1816.28
820.014	447.078
824.569	111.11
829.122	316.616
833.671	317.071
838.219	3.68018
842.763	446.074
847.306	1387.63
851.845	2156.39
856.382	2051.37
860.917	1668.61
865.448	1340.13
869.978	1533.98
874.505	1904.19
879.029	2901.8
883.55	4007.9
888.069	6193.55
892.586	10249.8
897.1	15888.8
901.611	17105.6
906.12	13447.7
910.626	11907.5
915.129	8938.35
919.63	5834.99
924.129	4650.73
928.625	5765.77
933.118	6582.15
937.609	4720.64
942.097	4085.47
946.582	5214.2
951.065	7841.88
955.546	10362.4
960.023	13513.1
964.499	18056.2
968.971	17857.6
973.441	18837.4
977.909	28620.8
982.374	34195.1
986.836	27047.4
991.295	25142.7
995.753	26486.9
1000.21	26465
1004.66	26187.1
1009.11	20011.2
1013.55	11153.7
1018	5928.8
1022.44	3634.39
1026.88	2569.99
1031.32	2065.03
1035.75	1456.62
1040.18	1244.13
1044.61	1368.04
1049.04	1504.45
1053.46	1949.07
1057.88	2275.31
1062.3	2054.51
1066.71	1371.89
1071.13	720.689
1075.54	606.363
1079.94	964.718
1084.35	1533.45
1088.75	1228.18
1093.15	828.315
1097.55	839.129
1101.94	1368.47
1106.34	2045.1
1110.73	1965.94
1115.11	1188.05
1119.5	720.563
1123.88	450.388
1128.26	207.564
1132.63	102.186
1137.01	30.2632
1141.38	18.7227
1145.75	80.5376
1150.12	52.1814
1154.48	132.202
1158.84	125.695
1163.2	89.821
1167.55	76.9062
1171.91	78.6738
1176.26	125.272
1180.61	16.3357
1184.95	44.0085
1189.29	9.61694
1193.63	15.7339
1197.97	25.3286
1202.31	2.26831
1206.64	70.3965
1210.97	25.8164
1215.29	40.8262
1219.62	56.29
1223.94	100.36
1228.26	60.5676
1232.57	89.9409
1236.89	132.367
1241.2	218.066
1245.51	161.968
1249.81	180.135
1254.12	193.567
1258.42	218.306
1262.72	236.302
1267.01	368.065
1271.3	286.113
1275.59	365.031
1279.88	372.023
1284.17	328.895
1288.45	288.248
1292.73	306.154
1297.01	234.318
1301.28	192.614
1305.55	150.76
1309.82	197.213
1314.09	209.905
1318.35	216.968
1322.61	273.161
1326.87	204.992
1331.13	162.075
1335.38	192.175
1339.63	113.742
1343.88	113.16
1348.12	115.436
1352.37	195.032
1356.61	127.34
1360.85	200.584
1365.08	128.467
1369.31	228.852
1373.54	177.258
1377.77	158.983
1381.99	204.7
1386.22	192.007
1390.43	202.184
1394.65	94.2905
1398.87	129.272
1403.08	62.4211
1407.29	85.085
1411.49	115.627
1415.69	151.945
1419.89	62.97
1424.09	179.041
1428.29	115.008
1432.48	149.898
1436.67	163.67
1440.86	298.304
1445.04	333.922
1449.23	403.89
1453.4	357.655
1457.58	411.233
1461.76	368.391
1465.93	300.885
1470.1	302.738
1474.26	131.689
1478.43	112.574
1482.59	141.346
1486.75	127.914
1490.9	59.1196
1495.06	53.0303
1499.21	8.12305
1503.35	39.1626
1507.5	10.7424
1511.64	14.5259
1515.78	22.5479
1519.92	47.8865
1524.05	6.5459
1528.18	61.2566
1532.31	87.0674
1536.44	145.36
1540.56	99.5271
1544.69	63.9954
1548.8	88.7375
1552.92	108.734
1557.03	139.77
1561.14	131.557
1565.25	93.8235
1569.36	91.1626
