Measurement: Raman, 514 nm, ccw, Raman Data Processed
Mineral: Axinite-(Fe)
Rruff sample: R040074
Ideal chemistry: Ca_4_Fe^2+^_2_Al_4_[B_2_Si_8_O_30_](OH)_2_
Locality: Luning, Nevada, USA
Source: University of Arizona Mineral Museum
Description: Pale brown wedge-shaped crystal
Measured chemistry: (Ca_0.98_Mn_0.01_)_2_(Fe_0.41_Mg_0.39_Mn_0.20_)Al_1.95_B_1.20_Si_3.90_O_15_(OH)
Pin_id: L00178
Orientation: Laser parallel to (0 -1 -1). Fiducial mark perpendicular to laser is parallel to -a [-1 0 0]
Raman shift (cm-1)	intensity
90.003	0
94.188	190.906
98.37	1048.79
102.55	4091.58
106.729	12749
110.905	24631.2
115.079	4416.04
119.251	1262.42
123.422	326.829
127.59	84.942
131.756	50.406
135.92	858.3
140.082	2915.9
144.242	3381.97
148.4	2288.5
152.556	2658.79
156.71	3082.6
160.862	3210.76
165.012	3338.52
169.16	4978.36
173.306	6069.08
177.449	3701.41
181.591	1558.63
185.731	1001.41
189.869	2378.45
194.005	3956.28
198.139	3495.56
202.271	5636.01
206.4	7237.06
210.528	5228.54
214.654	3240.09
218.778	1686.73
222.9	437.587
227.019	56.954
231.137	445.401
235.253	314.665
239.367	497.997
243.479	1802.28
247.589	2760.22
251.697	4117.72
255.803	4522.33
259.906	5826.46
264.008	9152.05
268.108	12287.5
272.206	13032.7
276.302	9476.59
280.396	5859.62
284.488	4112.47
288.578	4175.12
292.666	5801.31
296.753	8117.01
300.837	10375.3
304.919	12244.2
308.999	9335.73
313.077	4875.53
317.154	2587.53
321.228	1901.54
325.3	2086.49
329.371	2664.8
333.439	2329.85
337.506	2334.28
341.57	4517.23
345.633	7231.49
349.693	11216.1
353.752	12408.7
357.809	6192.06
361.863	2461.09
365.916	1079.66
369.967	655.903
374.016	655.829
378.063	928.337
382.108	1772.8
386.151	4267.03
390.192	8170.06
394.231	5519.93
398.269	3076.33
402.304	2618.16
406.337	2930.11
410.369	6070.02
414.398	16793.9
418.426	17987.7
422.452	9291.39
426.475	8264.82
430.497	7228.02
434.517	3610.98
438.535	2289.71
442.551	3179.22
446.565	2598.51
450.577	754.578
454.588	224.448
458.596	27.802
462.602	47.566
466.607	63.153
470.61	579.4
474.61	1597.45
478.609	4617.29
482.606	12032.1
486.601	12492.6
490.594	4024.66
494.585	1295.19
498.575	656.81
502.562	583.606
506.548	512.647
510.531	194.28
514.513	67.437
518.493	207.905
522.47	83.648
526.446	87.336
530.421	294.68
534.393	880.709
538.363	791.461
542.331	510.929
546.298	274.111
550.263	217.137
554.225	322.773
558.186	628.399
562.145	946.357
566.103	1655.03
570.058	3308.4
574.011	4438.47
577.963	4073.24
581.912	4537.69
585.86	7141.85
589.806	7835.69
593.75	4199.22
597.692	1980.45
601.632	976.374
605.571	585.989
609.507	724.299
613.442	903.907
617.375	1103.61
621.306	716.691
625.235	169.292
629.162	88.585
633.087	166.696
637.011	13.182
640.932	371.251
644.852	327.735
648.77	223.337
652.686	69.094
656.6	24.972
660.513	120.962
664.423	543.402
668.332	1510.42
672.239	3606.21
676.144	5022.26
680.047	3396.46
683.948	1660.18
687.848	1127.2
691.746	1190.62
695.641	1716.81
699.535	3010.76
703.427	6261.89
707.318	13131.4
711.206	25900.8
715.093	28211.9
718.978	15962.7
722.861	7353.34
726.742	3793.74
730.621	2149.92
734.499	1471.91
738.374	849.706
742.248	543.318
746.12	376.753
749.99	378.02
753.859	538.126
757.725	975.08
761.59	1762.89
765.453	3207.56
769.314	2716.1
773.174	1709.57
777.031	881.145
780.887	301.006
784.741	66.561
788.593	94.3
792.443	112.945
796.291	269.364
800.138	119.125
803.983	211.101
807.826	1190.75
811.667	2021.41
815.507	1316.61
819.344	439.101
823.18	23.705
827.014	120.408
830.847	22.925
834.677	83.091
838.506	369.631
842.333	728.378
846.158	1265.29
849.981	1499.36
853.803	1369.66
857.623	1140.11
861.441	1083.82
865.257	1016.83
869.071	1006.16
872.884	1161.78
876.695	1604.76
880.504	2290.05
884.311	3079.64
888.117	4759.48
891.92	7559.54
895.722	11259.8
899.523	13260.4
903.321	12201.3
907.118	10822.4
910.913	8733.7
914.706	6195.26
918.497	4037.07
922.287	3509.12
926.075	3601.41
929.861	4163.96
933.645	3616.74
937.428	3059.9
941.208	3407.98
944.987	4285.4
948.765	6292.36
952.54	7818.1
956.314	7743.26
960.086	8808.97
963.856	9935.26
967.625	9212.08
971.392	9759.19
975.157	13115.9
978.92	15975.4
982.682	14116.9
986.441	12405.3
990.199	12543.6
993.956	12475.6
997.71	13291
1001.46	15859.1
1005.21	15918.6
1008.96	11355.2
1012.71	6712.44
1016.46	4195.9
1020.2	2975.43
1023.94	2243.03
1027.68	1876.81
1031.42	1390.55
1035.16	1022.42
1038.9	795.512
1042.63	790.936
1046.36	759.991
1050.09	853.274
1053.82	816.221
1057.55	702.264
1061.27	451.969
1065	455.337
1068.72	490.127
1072.44	418.222
1076.16	523.398
1079.87	533.269
1083.59	431.887
1087.3	437.709
1091.01	392.412
1094.72	555.043
1098.43	1030.83
1102.14	1518.92
1105.84	1822.82
1109.55	1586.42
1113.25	1309.88
1116.94	715.792
1120.64	839.438
1124.34	523.759
1128.03	414.867
1131.73	139.825
1135.42	65.763
1139.11	82.689
1142.8	102.405
1146.48	34.957
1150.16	94.523
1153.85	84.163
1157.53	35.405
1161.21	68.334
1164.88	102.435
1168.56	91.436
1172.23	104.453
1175.91	36.364
1179.58	105.901
1183.25	37.753
1186.91	28.734
1190.58	63.927
1194.24	24.211
1197.91	157.874
1201.57	56.967
1205.23	215.593
1208.88	367.891
1212.54	298.319
1216.19	352.565
1219.85	207.829
1223.5	324.82
1227.14	239.412
1230.79	216.416
1234.44	229.067
1238.08	304.484
1241.72	286.96
1245.37	270.044
1249	158.193
1252.64	148.372
1256.28	38.078
1259.91	86.913
1263.54	34.115
1267.17	153.521
1270.8	281.979
1274.43	195.835
1278.06	198.521
1281.68	109.289
1285.3	9.523
1288.92	0
