Measurement: Raman, 514 nm, ccw, Raman Data Processed
Mineral: Axinite-(Fe)
Rruff sample: R040074
Ideal chemistry: Ca_4_Fe^2+^_2_Al_4_[B_2_Si_8_O_30_](OH)_2_
Locality: Luning, Nevada, USA
Source: University of Arizona Mineral Museum
Description: Pale brown wedge-shaped crystal
Measured chemistry: (Ca_0.98_Mn_0.01_)_2_(Fe_0.41_Mg_0.39_Mn_0.20_)Al_1.95_B_1.20_Si_3.90_O_15_(OH)
Pin_id: L00239
Orientation: Laser parallel to b* (0 1 0). Fiducial mark perpendicular to laser is parallel to c [0 0 1]
Raman shift (cm-1)	intensity
92.793	0
96.976	420.892
101.157	962.187
105.336	3255.72
109.513	10759.4
113.688	2862.9
117.861	2212.83
122.032	1728.38
126.201	1226.43
130.367	736.035
134.532	345.677
138.695	1388.97
142.856	2603.31
147.014	3113.77
151.171	4299.39
155.325	4647.21
159.478	4247.04
163.629	3317.15
167.777	6645.2
171.924	7851.54
176.068	3700.03
180.211	1140.11
184.351	101.599
188.49	395.996
192.626	214.305
196.761	179.2
200.893	1232.63
205.024	3184.23
209.152	4886.74
213.279	5490.13
217.403	4384.54
221.526	2319.78
225.646	762.965
229.765	7.637
233.881	223.326
237.996	5.955
242.108	850.062
246.219	2719.31
250.328	4247.48
254.434	3326.2
258.539	2661.16
262.641	3377.49
266.742	4580.78
270.84	4827.38
274.937	3755.69
279.032	2274.91
283.125	1584.53
287.215	1773.8
291.304	3522.84
295.391	6591.71
299.476	9520.39
303.558	10265.3
307.639	9153.9
311.718	5776.86
315.795	3210.41
319.87	2614.77
323.943	1299.68
328.014	684.428
332.083	367.919
336.15	377.358
340.215	1647.58
344.279	4282.65
348.34	7159.66
352.399	10645.1
356.457	6107.94
360.512	1709.32
364.565	182.173
368.617	6.74
372.666	282.706
376.714	331.083
380.76	944.094
384.803	3882.36
388.845	8320.85
392.885	8057.47
396.923	4085.97
400.959	1963.02
404.993	1162.28
409.025	1221.69
413.055	2791.27
417.084	5491.02
421.11	4990.94
425.134	6421.11
429.157	7071.41
433.177	4991.78
437.196	2742.19
441.213	3772.6
445.227	4553.02
449.24	1733.44
453.251	573.863
457.26	494.283
461.267	15.3
465.272	65.041
469.276	675.044
473.277	925.97
477.276	1003.6
481.274	3264.66
485.27	5705.86
489.263	2187.72
493.255	300.445
497.245	69.375
501.233	255.864
505.219	967.986
509.203	1570.14
513.186	1433.18
517.166	887.403
521.145	182.042
525.121	133.239
529.096	161.219
533.069	278.73
537.04	37.631
541.009	462.957
544.976	953.441
548.941	852.604
552.905	2039.96
556.866	2134.59
560.826	3445.54
564.784	2796.41
568.74	3237.14
572.694	4627.71
576.646	4648.13
580.596	4588.38
584.544	6828.45
588.491	8778.35
592.435	5738.06
596.378	2867.58
600.319	1976.91
604.258	2096.04
608.195	3084.97
612.131	3633.7
616.064	3262.22
619.995	2838.92
623.925	1437.87
627.853	285.829
631.779	24.11
635.703	166.647
639.625	332.628
643.546	686.093
647.464	346.09
651.381	153.561
655.296	258.852
659.209	503.212
663.12	1047.77
667.029	2506.04
670.937	5737.56
674.842	10457.2
678.746	8731.18
682.648	4696.04
686.548	2593.47
690.447	2015.57
694.343	2371.21
698.238	3692.05
702.13	6342.56
706.021	12762.8
709.91	26202.6
713.798	35482.2
717.683	23651.5
721.567	11800.4
725.448	5749.03
729.328	3207.34
733.206	1855.34
737.083	1303.04
740.957	870.427
744.83	677.518
748.701	664.312
752.57	970.814
756.437	1207.03
760.302	2102.95
764.166	2918.6
768.027	3273.97
771.887	2369.05
775.745	1233.88
779.602	708.557
783.456	263.019
787.309	36.414
791.16	107.518
795.009	115.078
798.856	113.899
802.702	104.262
806.545	12.058
810.387	304.492
814.227	410.354
818.065	288.622
821.902	46.545
825.737	216.254
829.569	9.968
833.401	64.245
837.23	141.129
841.057	476.802
844.883	543.069
848.707	619.834
852.529	736.731
856.35	863.609
860.168	1310.7
863.985	1347.75
867.8	1294.75
871.613	1501.87
875.425	1609.07
879.234	1916.29
883.042	2473.55
886.848	3100.87
890.653	4268.26
894.455	6865.6
898.256	10423
902.055	13250.4
905.852	11547.9
909.648	8185.41
913.442	5422.91
917.233	3360.43
921.024	2507.96
924.812	2415.51
928.599	2343.09
932.384	2420.7
936.167	2008.09
939.948	2069.17
943.728	2247.93
947.506	3346.33
951.282	4427.35
955.056	6272.21
958.829	9216.1
962.6	13904.9
966.369	13723.8
970.136	12182.3
973.902	15336.1
977.666	20383.3
981.428	19669.7
985.188	15974.7
988.947	14201
992.704	13930
996.459	15330.6
1000.21	17734.9
1003.96	17559.7
1007.71	13154.1
1011.46	8309.74
1015.21	5230.91
1018.95	3922.84
1022.7	3060.63
1026.44	2808.65
1030.18	2270.66
1033.91	2082.4
1037.65	1852.4
1041.39	2145.24
1045.12	2272.67
1048.85	2695.6
1052.58	3218.11
1056.31	3765.99
1060.03	4019.93
1063.76	3414.72
1067.48	2158.41
1071.2	1942.24
1074.92	2117.59
1078.63	2842.21
1082.35	3647.16
1086.06	3042.52
1089.78	1726.1
1093.49	1459.99
1097.19	1314.08
1100.9	1568.07
1104.61	1672.34
1108.31	1317.32
1112.01	761.152
1115.71	584.969
1119.41	388.508
1123.11	672.236
1126.8	355.912
1130.5	379.85
1134.19	343.719
1137.88	267.227
1141.57	0.494
1145.25	236.076
1148.94	193.307
1152.62	193.881
1156.3	236.994
1159.98	178.979
1163.66	138.557
1167.34	126.729
1171.01	76.594
1174.68	76.529
1178.36	3.512
1182.02	223.631
1185.69	353.744
1189.36	364.094
1193.02	214.705
1196.69	104.443
1200.35	13.344
1204.01	128.102
1207.66	259.912
1211.32	312.09
1214.98	584.707
1218.63	567.846
1222.28	500.811
1225.93	222.193
1229.58	150.49
1233.22	542.191
1236.87	322.598
1240.51	475.717
1244.15	545.303
1247.79	597.758
1251.43	424.197
1255.07	315.68
1258.7	203.713
1262.33	288.902
1265.96	159.826
1269.59	436.354
1273.22	571.439
1276.85	729.527
1280.47	803.047
1284.1	394.715
1287.72	210.266
1291.34	235.029
1294.95	40.486
1298.57	162.158
1302.19	444.711
1305.8	430.061
1309.41	0
