Measurement: Raman, 514 nm, ccw, Raman Data Processed
Mineral: Axinite-(Fe)
Rruff sample: R040074
Ideal chemistry: Ca_4_Fe^2+^_2_Al_4_[B_2_Si_8_O_30_](OH)_2_
Locality: Luning, Nevada, USA
Source: University of Arizona Mineral Museum
Description: Pale brown wedge-shaped crystal
Measured chemistry: (Ca_0.98_Mn_0.01_)_2_(Fe_0.41_Mg_0.39_Mn_0.20_)Al_1.95_B_1.20_Si_3.90_O_15_(OH)
Pin_id: M00342
Orientation: Laser parallel to -a* (-1 0 0). Fiducial mark perpendicular to laser is parallel to b [0 1 0]
Raman shift (cm-1)	intensity
92.477	0
96.663	157.917
100.848	918.476
105.03	2480.69
109.21	9474.83
113.388	9024.52
117.564	6717.9
121.738	5023.91
125.91	3057.2
130.08	1576.5
134.248	772.78
138.413	1266.52
142.577	3144.24
146.739	3570.57
150.898	4020.77
155.056	3614.1
159.212	3039.89
163.365	2504.57
167.517	4398.28
171.666	7106.24
175.813	4465.86
179.959	1688.77
184.102	49.324
188.244	631.034
192.383	94.12
196.52	139.277
200.656	37.938
204.789	1816.5
208.92	4493.1
213.049	6799.78
217.176	6666.58
221.302	4273.5
225.425	1845.16
229.546	264.271
233.665	97.922
237.782	997.17
241.898	1713.08
246.011	1829.1
250.122	3015
254.231	4421.25
258.338	4516.45
262.443	4862
266.546	6811.35
270.647	8741.07
274.747	9149.84
278.844	7047.06
282.939	4522.47
287.032	3464.81
291.123	3454.48
295.212	4012.16
299.3	4708.28
303.385	4742.84
307.468	4368.34
311.549	4497.86
315.629	7106.16
319.706	10954.9
323.781	9094.06
327.855	5693.33
331.926	4512.55
335.995	5382.19
340.063	8984.07
344.128	12696.9
348.192	10495.9
352.253	6387.33
356.313	3022.05
360.37	929.949
364.426	45.185
368.479	249.588
372.531	1004.26
376.581	1272.3
380.629	1213.81
384.674	3074.19
388.718	5966.64
392.76	6786.35
396.8	4921.64
400.838	3731.2
404.874	2904.15
408.908	2487.18
412.94	3030.31
416.97	5983.51
420.999	8366.76
425.025	10389.8
429.049	10402.5
433.072	8294.87
437.092	4976.91
441.111	4338.63
445.127	5210.02
449.142	3251.13
453.155	1461.97
457.166	1207.58
461.175	650.975
465.181	468.163
469.186	883.255
473.19	1337.45
477.191	1895
481.19	4196.39
485.187	6177.98
489.183	4261.91
493.176	1362.92
497.168	356.811
501.157	124.358
505.145	206.493
509.131	295.052
513.115	362.816
517.097	280.319
521.077	33.401
525.055	358.259
529.031	544.594
533.006	225.077
536.978	58.26
540.949	401.904
544.917	988.845
548.884	903.67
552.849	856.295
556.812	1747.91
560.773	3319.45
564.732	2789.79
568.689	2449.92
572.644	2729.82
576.598	2579.49
580.55	1888.93
584.499	1806.13
588.447	2117.15
592.393	1559.15
596.337	556.2
600.279	451.985
604.219	767.943
608.158	1499.65
612.094	2389.09
616.029	3036.28
619.962	3843.21
623.892	2781.06
627.821	1150.63
631.749	387.476
635.674	582.019
639.597	1394.15
643.519	2186.34
647.438	1895.96
651.356	1131.92
655.272	591.619
659.186	468.605
663.098	765.667
667.009	1641.7
670.917	3576.67
674.824	6701.16
678.728	7627.67
682.631	4854.61
686.532	2740.32
690.432	1954.42
694.329	2076.27
698.224	2962.07
702.118	5359.57
706.01	10206.6
709.9	20223.2
713.788	30629.3
717.674	25655
721.558	13560.2
725.441	6725.02
729.322	3509.34
733.201	2013.23
737.078	1132.67
740.953	719.668
744.826	464.227
748.698	386.327
752.567	402.951
756.435	693.118
760.301	889.856
764.165	1353.58
768.028	1426.06
771.888	1038.52
775.747	496.572
779.604	228.19
783.459	93.295
787.312	117.9
791.164	244.691
795.013	366.993
798.861	411.595
802.707	195.482
806.551	7.247
810.394	253.667
814.234	435.458
818.073	316.529
821.91	78.341
825.745	47.622
829.578	177.352
833.41	226.747
837.24	719.371
841.068	650.908
844.894	1135.31
848.718	1673.06
852.54	2218.68
856.361	2194.08
860.18	2329.32
863.997	2504.44
867.812	2539.48
871.626	2574.52
875.438	2839.48
879.248	3024.33
883.056	2799.1
886.862	3263.79
890.667	4208.35
894.469	5852.86
898.27	9126.9
902.07	12239.7
905.867	12142.6
909.663	9426.84
913.457	6711
917.249	4765.07
921.039	3669.06
924.827	3162.94
928.614	3226.62
932.399	3398.07
936.182	3625.91
939.964	4011.75
943.744	4570.68
947.521	6230.97
951.298	8569.8
955.072	10846.3
958.845	14858.3
962.615	20151.1
966.384	21254.3
970.152	17977.6
973.917	17108
977.681	19922.4
981.443	19733.1
985.203	16605.6
988.962	14631.1
992.719	13126.6
996.474	12213.9
1000.23	12650.4
1003.98	11866.9
1007.73	9118.76
1011.48	6264.68
1015.22	4279.15
1018.97	3113.61
1022.71	2451.66
1026.45	2174.79
1030.19	2270.03
1033.93	2243.91
1037.66	2349.2
1041.4	2764.89
1045.13	2621.47
1048.86	2762.32
1052.59	3434.19
1056.32	4316.01
1060.04	4846.9
1063.77	4416.53
1067.49	3229.56
1071.21	2389.16
1074.93	2499.11
1078.64	3333.4
1082.36	4641.78
1086.07	4459.17
1089.78	2958.82
1093.49	1869.09
1097.2	1210.19
1100.91	1012.3
1104.61	844.764
1108.32	740.779
1112.02	714.066
1115.72	576.5
1119.41	299.414
1123.11	142.236
1126.8	134.2
1130.5	22.694
1134.19	3.315
1137.88	66.806
1141.56	85.622
1145.25	187.314
1148.93	29.674
1152.62	88.51
1156.3	83.503
1159.98	80.708
1163.65	125.532
1167.33	84.171
1171	3.313
1174.68	64.676
1178.35	75.094
1182.02	107.868
1185.68	16.742
1189.35	48.508
1193.01	46.015
1196.67	158.589
1200.33	151.22
1203.99	84.257
1207.65	69.021
1211.31	22.137
1214.96	36.842
1218.61	35.055
1222.26	126.149
1225.91	261.306
1229.56	368.169
1233.2	222.429
1236.85	156.77
1240.49	78.555
1244.13	79.976
1247.77	96.134
1251.4	195.957
1255.04	284.468
1258.67	282.802
1262.3	260.663
1265.93	188.385
1269.56	253.944
1273.19	137.341
1276.82	19.526
1280.44	201.367
1284.06	210.917
1287.68	249.485
1291.3	365.109
1294.92	220.596
1298.53	162.461
1302.14	101.116
1305.76	44.118
1309.37	134.743
1312.98	69.465
1316.58	300.597
1320.19	188.551
1323.79	285.758
1327.39	171.67
1330.99	232.569
1334.59	174.587
1338.19	129.747
1341.79	17.014
1345.38	41.127
1348.97	144.319
1352.56	246.896
1356.15	446.474
1359.74	197.856
1363.32	408.092
1366.91	397.312
1370.49	232.413
1374.07	90.676
1377.65	12.814
1381.23	176.031
1384.8	198.184
1388.38	265.674
1391.95	333.824
1395.52	569.96
1399.09	480.164
1402.66	321.452
1406.22	81.757
1409.79	110.922
1413.35	239.143
1416.91	103.066
1420.47	180.674
1424.03	324.78
1427.59	224.302
1431.14	440.049
1434.69	474.711
1438.24	342.891
1441.8	423.687
1445.34	274.992
1448.89	138.903
1452.43	40.606
1455.98	64.217
1459.52	184.65
1463.06	247.218
1466.6	234.679
1470.14	452.712
1473.67	548.513
1477.2	573.309
1480.74	410.588
1484.27	252.162
1487.8	180.994
1491.32	175.943
1494.85	224.721
1498.37	18.418
1501.9	74.17
1505.42	208.855
1508.94	303.291
1512.45	252.471
1515.97	152.994
