Measurement: Raman, 514 nm, ccw, Raman Data Processed
Mineral: Axinite-(Fe)
Rruff sample: R050026
Ideal chemistry: Ca_4_Fe^2+^_2_Al_4_[B_2_Si_8_O_30_](OH)_2_
Locality: Pouyva mine, Polar Urals, Western Siberian Region, Russia
Source: Rock Currier
Description: Brown transparent flat crystal
Measured chemistry: Ca_2.00_(Fe^2+^_0.61_Mn_0.26_Mg_0.13_)Al_2.00_BSi_4_O_15_(OH)
Pin_id: L00137
Orientation: Laser parallel to (1 0 1). Fiducial mark perpendicular to laser is parallel to b* (0 1 0)
Raman shift (cm-1)	intensity
100.871	0
105.07	1281.31
109.267	4250.56
113.461	1724.33
117.653	200.98
121.843	7.799
126.031	17.603
130.217	25.939
134.4	565.999
138.581	2003.38
142.76	1220.66
146.937	1289.73
151.112	1223.23
155.284	642.414
159.454	447.615
163.622	623.204
167.787	1823.84
171.951	2008.5
176.112	848.357
180.271	234.724
184.428	69.339
188.583	96.906
192.735	45.651
196.885	44.773
201.033	422.857
205.179	1224.63
209.323	2251.89
213.464	1997.93
217.603	1280.42
221.741	520.526
225.875	115.723
230.008	23.128
234.139	25.282
238.267	94.021
242.393	183.647
246.517	310.555
250.639	757.899
254.759	2007.59
258.876	1557.19
262.991	1349.64
267.104	1958.39
271.215	3434.89
275.324	4708.15
279.431	3701.2
283.535	2442.03
287.638	2319.69
291.738	2421.59
295.836	2331.82
299.932	1686.03
304.025	1404.85
308.117	1331.9
312.206	1557.04
316.293	3035.94
320.378	3937.94
324.461	2596.06
328.542	2076.28
332.621	1661.06
336.697	1999.77
340.772	3356.32
344.844	3217.11
348.914	1787.09
352.982	1067.6
357.048	501.65
361.111	166.541
365.173	95.319
369.232	119.568
373.29	125.928
377.345	83.487
381.398	255.357
385.449	706.347
389.497	874.757
393.544	468.874
397.589	254.991
401.631	331.133
405.672	352.593
409.71	490.795
413.746	1397.73
417.78	2636.9
421.812	2428.99
425.842	2448.99
429.869	2275.89
433.895	1610.38
437.918	1143.61
441.94	1711.73
445.959	1763.22
449.976	714.89
453.991	319.891
458.004	155.166
462.015	24.13
466.024	8.605
470.031	41.126
474.035	35.35
478.038	31.152
482.038	86.519
486.037	210.848
490.033	53.177
494.027	14.585
498.019	16.472
502.009	119.37
505.997	359.164
509.983	726.109
513.967	713.538
517.949	334.417
521.929	165.796
525.906	84.363
529.882	49.228
533.855	73.236
537.827	96.163
541.796	236.686
545.764	301.381
549.729	241.047
553.692	317.823
557.653	602.403
561.612	765.956
565.569	353.877
569.524	242.923
573.477	250.929
577.428	233.863
581.377	254.724
585.324	365.513
589.269	402.23
593.212	175.878
597.152	81.461
601.091	20.948
605.028	37.751
608.962	10.345
612.895	149.366
616.825	309.495
620.754	357.11
624.68	147.151
628.605	91.894
632.527	229.177
636.447	483.907
640.366	820.709
644.282	963.731
648.196	597.813
652.109	318.965
656.019	113.554
659.927	90.928
663.834	76.597
667.738	273.786
671.64	629.43
675.54	1175.39
679.439	1022.59
683.335	493.738
687.229	328.174
691.121	335.72
695.012	449.811
698.9	724.369
702.786	1369.89
706.67	2943.38
710.552	6142.83
714.433	8004.23
718.311	4824.6
722.187	2277.93
726.061	1293.21
729.934	803.457
733.804	533.656
737.672	292.814
741.539	229.932
745.403	103.011
749.265	171.053
753.126	112.864
756.984	143.117
760.84	119.202
764.695	169.938
768.547	244.687
772.398	189.553
776.246	74.419
780.093	28.055
783.937	5.755
787.78	14.729
791.621	0.868
795.459	23.181
799.296	18.746
803.131	48.536
806.964	85.545
810.795	176.643
814.623	139.745
818.45	24.835
822.275	27.121
826.098	30.247
829.92	10.483
833.739	24.162
837.556	88.785
841.371	96.41
845.184	124.043
848.996	220.682
852.805	298.329
856.613	389.993
860.418	389.663
864.222	393.347
868.023	373.039
871.823	456.734
875.621	563.443
879.417	519.16
883.211	539.881
887.003	507.606
890.793	622.35
894.581	764.12
898.367	997.912
902.152	1039.72
905.934	778.552
909.714	547.427
913.493	468.408
917.27	447.478
921.044	536.577
924.817	743.696
928.588	815.831
932.357	726.927
936.124	626.843
939.889	608.486
943.652	876.816
947.414	1242.95
951.173	1522.28
954.931	1904.49
958.686	2705.84
962.44	3390.24
966.192	3116.68
969.942	3058.14
973.69	3931.08
977.436	4341.45
981.18	3246.81
984.922	2339.89
988.663	2043.43
992.401	1987.44
996.138	1920.79
999.873	1755.63
1003.61	1252.15
1007.34	851.22
1011.07	646.278
1014.79	522.645
1018.52	471.422
1022.24	382.08
1025.96	296.305
1029.68	242.642
1033.4	223.035
1037.12	267.462
1040.83	268.825
1044.54	291.014
1048.25	327.846
1051.96	313.034
1055.67	323.142
1059.37	232.102
1063.08	233.378
1066.78	270.838
1070.48	343.296
1074.17	489.097
1077.87	665.942
1081.56	673.221
1085.26	489.378
1088.94	309.853
1092.63	262.122
1096.32	209.026
1100	171.986
1103.69	165.433
1107.37	88.072
1111.05	105.273
1114.72	97.824
1118.4	82.683
1122.07	54.436
1125.74	51.247
1129.41	25.918
1133.08	8.77
1136.75	12.36
1140.41	3.491
1144.07	0.789
1147.73	20.59
1151.39	43.463
1155.05	1.621
1158.7	6.396
1162.36	14.84
1166.01	2.086
1169.66	11.852
1173.3	21.842
1176.95	9.589
1180.59	14.053
1184.24	13.708
1187.88	9.357
1191.52	16.895
1195.15	6.958
1198.79	12.037
1202.42	35.172
1206.05	26.161
1209.68	26.877
1213.31	1.533
1216.93	18.113
1220.56	19.615
1224.18	1.088
1227.8	3.181
1231.42	19.288
1235.04	9.553
1238.65	42.94
1242.26	13.07
1245.88	22.185
1249.48	15.308
1253.09	4.326
1256.7	35.263
1260.3	12.146
1263.9	17.907
1267.51	36.507
1271.11	40.969
1274.7	41.296
1278.3	28.502
1281.89	21.279
1285.48	56.384
1289.07	28.685
1292.66	1.086
1296.25	3.213
1299.83	1.291
1303.41	35.834
1306.99	21.459
1310.57	28.752
1314.15	18.024
1317.73	27.359
1321.3	26.6
1324.87	32.748
1328.44	87.655
1332.01	18.747
1335.58	64.179
1339.14	45.354
1342.71	29.774
1346.27	30.733
1349.83	62.725
1353.39	49.377
1356.94	42.495
1360.5	77.035
1364.05	68.957
1367.6	65.43
1371.15	22.582
1374.7	58.224
1378.24	32.453
1381.79	65.792
1385.33	32.727
1388.87	21.997
1392.41	43.132
1395.95	31.393
1399.48	57.286
1403.02	58.75
1406.55	80.828
1410.08	68.518
1413.61	56.073
1417.13	54.46
1420.66	32.194
1424.18	52.264
1427.7	25.21
1431.22	29.642
1434.74	21.449
1438.26	44.215
1441.77	22.185
1445.28	20.393
1448.79	33.332
1452.3	28.337
1455.81	25.562
1459.32	19.855
1462.82	16.662
1466.32	12.942
1469.82	1.287
1473.32	48.372
1476.82	44.537
1480.32	40.4
1483.81	32.802
1487.3	22.43
1490.79	56.521
1494.28	63.848
1497.77	154.829
1501.25	30.129
1504.74	20.661
1508.22	17.948
1511.7	0
