Measurement: Raman, 514 nm, ccw, Raman Data Processed
Mineral: Axinite-(Fe)
Rruff sample: R060183
Ideal chemistry: Ca_4_Fe^2+^_2_Al_4_[B_2_Si_8_O_30_](OH)_2_
Locality: Skagit Bluffs, near Manning Park, British Columbia, Canada
Source: Lloyd Twaites
Description: Light-pink transparent axe-head-shaped single crystal
Measured chemistry: Ca_2.00_(Fe^2+^_0.58_Mn_0.23_Mg_0.19_)Al_2.00_B_1.00_Si_4.00_O_15_(OH)
Pin_id: L01506
Orientation: Laser parallel to (-1 -1 0). Fiducial mark perpendicular to laser is parallel to c [0 0 1]
Raman shift (cm-1)	intensity
52.671	0
57.626	268.122
62.579	307.479
67.529	148.261
72.477	228.712
77.423	648.166
82.367	1436.72
87.308	2955.53
92.246	6968.99
97.182	8753.8
102.116	10091.4
107.047	15509.1
111.976	12148.1
116.903	8407.12
121.827	7031.15
126.749	7548.15
131.668	7119.59
136.585	7218.93
141.5	11832.8
146.412	10930.2
151.321	10192.5
156.229	9339.43
161.134	7351.2
166.036	11007.6
170.936	17241.7
175.834	10585
180.729	4226.58
185.622	2439.14
190.512	4319.5
195.4	5676.42
200.286	6803.19
205.169	11469.7
210.049	15369.7
214.928	12980
219.803	7711.33
224.677	3026.79
229.548	904.791
234.416	854.759
239.282	2277
244.146	4121.15
249.007	4585.15
253.866	5236.46
258.722	4565.24
263.576	4258.7
268.427	7120.08
273.276	9837.62
278.123	7333.18
282.967	3871.71
287.809	3578.12
292.648	6538.26
297.485	10558
302.319	13336.2
307.151	12336.8
311.98	8860.65
316.807	10246.6
321.631	8703.43
326.454	4270.13
331.273	2548.54
336.09	4365.52
340.905	10468
345.717	12142.8
350.527	10760.8
355.334	6816.53
360.139	636.525
364.941	644.276
369.741	489.066
374.538	29.377
379.333	843.867
384.126	4847.12
388.916	9216.65
393.703	9538.45
398.488	5945.06
403.271	2800.28
408.051	1814.99
412.828	4861.13
417.603	8272.61
422.376	9332.35
427.146	13108.3
431.914	12113.3
436.679	5953.25
441.442	4364.11
446.202	3021.77
450.96	1024.13
455.715	900.099
460.467	455.592
465.218	420.521
469.965	1168.8
474.711	730.344
479.454	1742.07
484.194	3820.9
488.932	1670.33
493.667	8.21094
498.4	550.753
503.13	1896.7
507.858	2147.92
512.583	1393.86
517.306	46.665
522.026	577.148
526.744	674.207
531.459	545.949
536.172	337.042
540.882	2617.11
545.59	3909.45
550.295	3177.94
554.998	3295.91
559.698	4367.99
564.396	3674.51
569.091	3581.87
573.784	4187.93
578.474	3977.62
583.162	4912.89
587.847	6288.68
592.529	4010.95
597.209	1627.65
601.887	1234.72
606.562	2088.12
611.235	3066.81
615.905	3216.75
620.572	3077.89
625.237	1479.19
629.9	496.595
634.56	479.391
639.217	1110.06
643.872	1560.8
648.524	1146.92
653.174	759.305
657.821	1373.79
662.466	2216.84
667.108	3533.03
671.748	6011.54
676.385	9805.88
681.02	7954.66
685.652	4119.81
690.281	2513.82
694.908	2992.45
699.533	6063.98
704.155	13064.6
708.774	27906.7
713.391	42785.8
718.005	33890.9
722.617	16478.9
727.226	7573.94
731.833	3699.97
736.437	2235
741.039	1945.05
745.638	1076.11
750.234	1122.2
754.828	1770.35
759.419	3182.55
764.008	5249.83
768.595	5900.49
773.178	3971.08
777.759	2120.4
782.338	1023.96
786.914	462.747
791.488	4.74609
796.059	126.684
800.627	189.17
805.193	105.792
809.756	289.725
814.317	199.047
818.875	42.0957
823.431	273.636
827.984	301.458
832.534	199.893
837.082	12.9473
841.627	216.56
846.17	362.522
850.71	541.07
855.248	668.237
859.783	940.059
864.316	1314.57
868.846	1542.8
873.373	1476.8
877.898	1554.59
882.42	1887.22
886.94	2184.84
891.457	3269.13
895.971	5463.54
900.483	8187.06
904.993	8563.86
909.5	6341.4
914.004	4458.72
918.505	3028.39
923.004	2792.28
927.501	2719.7
931.995	2804.94
936.486	2973.88
940.975	3630.93
945.461	4959.92
949.945	7633.74
954.426	11565.4
958.904	18572
963.38	25757.3
967.853	23778.9
972.324	20556.4
976.792	22932.2
981.258	22682.5
985.72	18861.6
990.181	16161.3
994.639	15962.7
999.094	17191
1003.55	17268.3
1008	13628
1012.44	8706.49
1016.89	5445.01
1021.33	4078.79
1025.77	4094.04
1030.21	3798.31
1034.64	3384.66
1039.07	3653.19
1043.5	4282.43
1047.93	5128.69
1052.35	6571.34
1056.78	7890.54
1061.19	6760.01
1065.61	4255.08
1070.02	3228.15
1074.43	3888.63
1078.84	6259.72
1083.25	8047.36
1087.65	6354.06
1092.05	3422.9
1096.45	2308.59
1100.85	2095.12
1105.24	1819.17
1109.63	1432.64
1114.02	819.393
1118.4	766.387
1122.78	818.32
1127.16	378.087
1131.54	261.498
1135.92	124.594
1140.29	126.355
1144.66	47.8897
1149.02	39.7373
1153.39	70.4551
1157.75	45.4873
1162.11	84.21
1166.46	84.5703
1170.82	176.266
1175.17	139.862
1179.52	180.226
1183.86	32.5185
1188.21	64.2109
1192.55	21.7852
1196.89	8.53613
1201.22	23.7158
1205.55	90.5859
1209.88	5.0166
1214.21	44.2978
1218.54	79.2324
1222.86	113.101
1227.18	57.4971
1231.5	241.454
1235.81	217.682
1240.12	190.852
1244.43	199.917
1248.74	101.204
1253.04	65.8789
1257.34	2.27051
1261.64	389.459
1265.94	233.626
1270.23	244.523
1274.52	279.899
1278.81	377.269
1283.1	368.883
1287.38	229.348
1291.66	402.376
1295.94	335.553
1300.21	288.201
1304.48	360.6
1308.75	312
1313.02	193.899
1317.29	331.392
1321.55	352.238
1325.81	199.739
1330.06	354.125
1334.32	177.246
1338.57	328.534
1342.82	366.379
1347.06	520.973
1351.31	408.55
1355.55	383.167
1359.79	207.782
1364.02	446.809
1368.26	402.912
1372.49	326.35
1376.71	303.633
1380.94	257.678
1385.16	298.606
1389.38	339.207
1393.6	174.191
1397.81	188.921
1402.02	155.762
1406.23	254.375
1410.44	201.195
1414.64	211.611
1418.85	297.203
1423.04	420.828
1427.24	235.625
1431.43	138.1
1435.62	160.15
1439.81	374.791
1444	172.697
1448.18	284.592
1452.36	233.053
1456.54	172.611
1460.71	266.379
1464.89	167.258
1469.06	239.492
1473.22	160.869
1477.39	330.359
1481.55	118.35
1485.71	182.943
1489.86	261.572
1494.02	151.484
1498.17	112.291
1502.32	125.342
1506.46	84.8731
1510.61	105.691
1514.75	11.8691
1518.88	6.29492
1523.02	237.168
1527.15	187.141
1531.28	81.666
1535.41	358.893
1539.53	113.701
1543.66	273.254
1547.78	134.154
1551.89	348.443
1556.01	481.213
1560.12	269.56
1564.23	127.508
1568.33	189.897
