Measurement: Raman, 514 nm, ccw, Raman Data Processed
Mineral: Axinite-(Fe)
Rruff sample: R050026
Ideal chemistry: Ca_4_Fe^2+^_2_Al_4_[B_2_Si_8_O_30_](OH)_2_
Locality: Pouyva mine, Polar Urals, Western Siberian Region, Russia
Source: Rock Currier
Description: Brown transparent flat crystal
Measured chemistry: Ca_2.00_(Fe^2+^_0.61_Mn_0.26_Mg_0.13_)Al_2.00_BSi_4_O_15_(OH)
Pin_id: L00147
Orientation: Laser parallel to -a* (-1 0 0). Fiducial mark perpendicular to laser is parallel to -b [0 -1 0]
Raman shift (cm-1)	intensity
86.858	0
91.065	155.375
95.269	353.274
99.471	458.869
103.67	370.24
107.868	294.276
112.063	371.363
116.256	276.457
120.447	79.153
124.636	90.932
128.822	343.256
133.006	213.649
137.188	388.352
141.368	415.918
145.545	1338.79
149.72	1132.81
153.893	638.417
158.064	328.7
162.233	166.712
166.399	377.574
170.563	1234.68
174.725	1356.43
178.885	744.619
183.043	150.822
187.198	96.341
191.351	114.254
195.502	64.738
199.651	110.275
203.797	980.935
207.942	1765.17
212.084	2150.76
216.224	2684.03
220.362	2139.82
224.497	641.646
228.631	171.288
232.762	68.093
236.891	79.146
241.018	76.849
245.143	158.162
249.265	570.963
253.386	1648.61
257.504	1685.38
261.62	1795.41
265.734	2886.24
269.845	1627.68
273.955	1199.52
278.062	888.088
282.167	785.155
286.27	771.219
290.371	645.673
294.47	477.51
298.567	412.397
302.661	534.905
306.753	834.892
310.843	927.611
314.931	1739.44
319.017	2935.15
323.101	2331.21
327.182	1785.26
331.261	1653.71
335.339	2069.15
339.414	3109.53
343.487	3140.95
347.557	1824.87
351.626	1161.12
355.693	492.756
359.757	230.596
363.819	101.839
367.879	53.134
371.937	139.454
375.993	201.741
380.047	434.538
384.099	1051.86
388.148	1635.96
392.196	1223.34
396.241	722.114
400.284	566.371
404.325	417.542
408.364	543.66
412.401	1066.09
416.435	2149.68
420.468	3954.01
424.498	4721.04
428.527	3792.79
432.553	1898.28
436.577	1015.52
440.599	984.551
444.619	1158
448.637	695.985
452.653	274.457
456.667	231.777
460.678	178.485
464.688	154.128
468.695	316.084
472.701	469.113
476.704	1146.24
480.705	2764.45
484.704	3369.82
488.701	1522.41
492.696	677.207
496.689	409.061
500.68	227.871
504.668	74.623
508.655	14.684
512.639	35.637
516.622	22.848
520.602	73.365
524.581	80.795
528.557	3.194
532.531	84.33
536.503	67.252
540.473	90.567
544.441	156.027
548.407	205.433
552.371	268.802
556.333	531.191
560.293	1003.64
564.251	1045.14
568.206	1154.67
572.16	1410.19
576.112	1023.65
580.061	621.055
584.009	508.412
587.954	439.722
591.897	255.163
595.839	117.545
599.778	149.047
603.716	254.421
607.651	481.589
611.584	929.654
615.515	1643.68
619.444	2066.98
623.372	1296.57
627.297	552.763
631.22	335.357
635.141	340.833
639.06	551.8
642.977	745.36
646.892	569.909
650.805	299.972
654.716	205.998
658.625	391.433
662.532	376.365
666.437	603.478
670.34	1098.73
674.241	2127.51
678.139	2681.39
682.036	1659.86
685.931	888.394
689.824	642.795
693.715	755.639
697.604	1080.97
701.491	1838.66
705.376	3216.28
709.259	6063.82
713.139	8791.29
717.018	6817.69
720.895	3307.02
724.77	1567.27
728.643	829.451
732.514	550.56
736.383	318.598
740.25	209.567
744.115	147.466
747.978	61.296
751.839	81.053
755.698	86.73
759.555	110.345
763.41	174.892
767.263	105.376
771.114	90.798
774.964	46.156
778.811	29.434
782.656	8.465
786.499	53.707
790.341	63.336
794.18	91.368
798.017	53.906
801.853	25.906
805.686	24.254
809.518	72.199
813.347	124.605
817.175	100.972
821.001	42.309
824.824	45.642
828.646	66.006
832.466	60.484
836.284	92.112
840.1	192.845
843.914	274.608
847.726	424.363
851.536	556.109
855.344	615.857
859.15	772.597
862.954	863.335
866.756	892.074
870.557	827.838
874.355	805.642
878.152	851.456
881.946	964.28
885.739	1234.11
889.53	1649.96
893.318	2325.83
897.105	3491.75
900.89	5066.38
904.673	5595.27
908.454	4419.97
912.234	2951.77
916.011	1905.75
919.786	1329.83
923.56	1149.94
927.331	1211.46
931.101	1238.18
934.868	1310.8
938.634	1462.56
942.398	1834.69
946.16	2585.22
949.92	3636.29
953.678	4798.8
957.435	6846.15
961.189	8990.62
964.941	7854.45
968.692	5830.36
972.441	5573.53
976.187	6538.33
979.932	6268.42
983.675	5391.72
987.416	5093.67
991.155	4534.58
994.893	4193.14
998.628	4111.03
1002.36	3441.5
1006.09	2548.5
1009.82	1782.1
1013.55	1241.69
1017.28	872.298
1021	829.065
1024.72	826.668
1028.44	754.297
1032.16	580.627
1035.88	551.224
1039.59	622.885
1043.31	712.278
1047.02	884.919
1050.73	1142.56
1054.43	1300.56
1058.14	1118.17
1061.84	759.806
1065.54	543.656
1069.24	490.906
1072.94	553.284
1076.64	717.42
1080.33	795.917
1084.03	563.633
1087.71	310.333
1091.4	238.632
1095.09	241.645
1098.78	293.91
1102.46	301.67
1106.14	277.243
1109.82	212.293
1113.5	124.719
1117.17	69.962
1120.85	98.201
1124.52	57.047
1128.19	38.386
1131.86	19.426
1135.52	34.02
1139.19	22.587
1142.85	22.281
1146.51	1.349
1150.17	28.292
1153.83	6.45
1157.48	33.143
1161.14	26.13
1164.79	12.137
1168.44	8.24
1172.09	6.723
1175.73	13.838
1179.38	0.216
1183.02	27.408
1186.66	10.032
1190.3	10.87
1193.94	11.85
1197.58	5.641
1201.21	23.053
1204.84	4.757
1208.47	6.556
1212.1	22.514
1215.72	14.457
1219.35	55.398
1222.97	54.284
1226.59	18.992
1230.21	9.013
1233.83	0.588
1237.45	0.04
1241.06	8.725
1244.67	60.655
1248.28	43.01
1251.89	35.818
1255.5	44.888
1259.1	9.703
1262.7	68.658
1266.31	6.632
1269.9	46.013
1273.5	76.295
1277.1	70.441
1280.69	52.864
1284.29	73.316
1287.88	77.035
1291.46	10.399
1295.05	37.282
1298.64	3.522
1302.22	16.141
1305.8	55.673
1309.38	50.815
1312.96	32.218
1316.54	51.368
1320.11	22.307
1323.68	17.347
1327.25	46.099
1330.82	7.153
1334.39	26.023
1337.96	71.058
1341.52	59.024
1345.08	84.053
1348.64	55.993
1352.2	63.508
1355.76	72.215
1359.31	43.008
1362.87	35.039
1366.42	62.152
1369.97	42.753
1373.52	87.053
1377.06	93.06
1380.61	64.859
1384.15	41.362
1387.69	48.397
1391.23	68.696
1394.77	63.941
1398.3	55.952
1401.84	16.132
1405.37	51.144
1408.9	54.817
1412.43	62.161
1415.96	49.77
1419.48	63.802
1423.01	87.116
1426.53	42.07
1430.05	38.967
1433.57	45.219
1437.08	30.526
1440.6	20.742
1444.11	38.2
1447.62	29.073
1451.13	15.431
1454.64	70.994
1458.15	95.271
1461.65	61.011
1465.16	60.537
1468.66	55.505
1472.16	73.27
1475.65	21.446
1479.15	31.792
1482.64	40.487
1486.14	9.808
1489.63	1.333
1493.12	21.413
1496.61	40.27
1500.09	34.031
1503.58	50.829
1507.06	64.553
1510.54	46.806
