Measurement: Raman, 514 nm, ccw, Raman Data Processed
Mineral: Axinite-(Fe)
Rruff sample: R040074
Ideal chemistry: Ca_4_Fe^2+^_2_Al_4_[B_2_Si_8_O_30_](OH)_2_
Locality: Luning, Nevada, USA
Source: University of Arizona Mineral Museum
Description: Pale brown wedge-shaped crystal
Measured chemistry: (Ca_0.98_Mn_0.01_)_2_(Fe_0.41_Mg_0.39_Mn_0.20_)Al_1.95_B_1.20_Si_3.90_O_15_(OH)
Pin_id: L00197
Orientation: Laser parallel to c* (0 0 1). Fiducial mark perpendicular to laser is parallel to -a [-1 0 0]
Raman shift (cm-1)	intensity
91.398	0
95.582	265.471
99.764	1318.36
103.943	4662.27
108.121	11475.5
112.297	9198.02
116.47	3511.72
120.642	1125.16
124.811	396.469
128.979	15.435
133.144	108.947
137.307	72.919
141.469	932.854
145.628	3213.43
149.786	9015.1
153.941	13538
158.094	10932.3
162.245	8422.2
166.395	7885.34
170.542	11354.5
174.687	12246.2
178.83	7299.43
182.972	3594.02
187.111	3950.04
191.248	10457.4
195.383	14727
199.516	9348.8
203.647	9561.76
207.777	10745.8
211.904	9121.03
216.029	7167.26
220.152	5404.58
224.273	3392.97
228.392	1372.44
232.509	64.967
236.625	475.392
240.738	65.052
244.849	1351.48
248.958	3508.22
253.065	4754.98
257.171	4698.1
261.274	6116.14
265.375	9827.27
269.475	13209.9
273.572	11823.5
277.667	7747.56
281.76	4651.08
285.852	3625.76
289.941	4151.47
294.029	6514.82
298.114	10793
302.198	15555.2
306.279	19403.6
310.359	16512.4
314.436	8061.82
318.512	3611.86
322.586	1863.01
326.657	905.088
330.727	751.166
334.795	1307.94
338.861	3750.98
342.924	10015.1
346.986	14329.8
351.046	15124.9
355.104	13280.4
359.16	5786.31
363.214	1886.87
367.267	806.424
371.317	818.158
375.365	900.087
379.411	1077.4
383.456	3124.9
387.498	9864.75
391.539	19340.5
395.577	15358.2
399.614	8559.8
403.649	6293.51
407.681	4501.83
411.712	7399.48
415.741	18837.1
419.768	18064.7
423.793	8282.27
427.816	6529.91
431.837	6037.54
435.857	3425.12
439.874	1362.65
443.889	1040.1
447.903	817.468
451.914	24.719
455.924	226.411
459.932	191.525
463.938	202.745
467.941	1297.78
471.943	2492.61
475.944	3999.96
479.942	10330.8
483.938	28417.2
487.932	31495.9
491.925	12074.7
495.915	5087.13
499.904	4395.38
503.891	5747.94
507.876	6962.74
511.859	5175.35
515.84	2177.43
519.819	439.135
523.796	186.558
527.771	124.818
531.745	126.055
535.716	514.969
539.686	651.237
543.654	386.879
547.62	219.834
551.584	0.009
555.546	24.131
559.506	250.801
563.465	462.423
567.421	1153.37
571.376	2273.63
575.329	3443.2
579.279	3442.06
583.228	4250.21
587.175	7367.65
591.121	8014.36
595.064	4560.35
599.006	2165.61
602.945	1360.12
606.883	1713.9
610.819	3236.94
614.753	5650.1
618.685	7822.11
622.615	7118.39
626.544	3028.51
630.471	877.912
634.395	66.564
638.318	156.419
642.239	93.967
646.158	140.938
650.076	75.873
653.991	151.52
657.905	19.443
661.817	346.013
665.726	1220.6
669.635	2924.44
673.541	6212.41
677.445	8302.65
681.348	5685.89
685.248	3160.29
689.147	2317.55
693.044	2484.74
696.94	3463.68
700.833	6021.1
704.724	11685.4
708.614	23378.1
712.502	42891.2
716.388	45244.8
720.272	25536.9
724.155	12771.8
728.035	7016.23
731.914	4260.18
735.791	3063.67
739.666	1936.72
743.539	1609.34
747.41	1551.56
751.28	1963.39
755.148	2714.85
759.014	4395.95
762.878	7226.72
766.74	10467.2
770.601	9847.56
774.46	6118.12
778.316	3188.62
782.172	1538.85
786.025	838.847
789.876	280.518
793.726	99.454
797.574	321.015
801.42	251.667
805.264	84.041
809.107	1507.6
812.947	3318.02
816.786	2676.56
820.623	792.83
824.459	59.189
828.292	244.396
832.124	148.328
835.954	97.595
839.782	134.198
843.608	771.437
847.433	1368.95
851.255	1476.71
855.076	1164.86
858.895	513.387
862.713	162.439
866.528	42.405
870.342	233.278
874.154	774.921
877.965	1137.31
881.773	1590.4
885.58	2514.07
889.385	3918.37
893.188	6913.19
896.989	10968.5
900.789	14464.4
904.587	14690.8
908.383	13997.6
912.177	12114.9
915.97	8562.65
919.76	6003.94
923.55	4979.62
927.337	5348.81
931.122	5978.47
934.906	6328.59
938.688	7049.2
942.468	9130.34
946.247	13735.8
950.023	21210
953.798	26536.1
957.572	29185.2
961.343	35781.6
965.113	41459.2
968.881	33297.5
972.647	24486.3
976.411	24065.6
980.174	25572.1
983.935	20748.3
987.694	16658.7
991.452	15516.7
995.207	15878.2
998.961	19119.8
1002.71	25974.4
1006.46	28886.8
1010.21	21794.8
1013.96	12954.1
1017.71	7636.94
1021.45	5280.96
1025.19	4742.21
1028.93	4688.07
1032.67	3211.4
1036.41	2147.43
1040.14	1520.85
1043.87	1391.54
1047.61	1116.77
1051.34	1223.31
1055.06	1088.35
1058.79	1143.66
1062.52	1525.23
1066.24	1538.99
1069.96	1450.79
1073.68	1513.25
1077.4	2205.46
1081.11	3778.15
1084.83	4541.56
1088.54	3493.68
1092.25	2224.58
1095.96	2273.78
1099.67	2402.75
1103.37	3340.9
1107.08	4328.62
1110.78	3725.72
1114.48	2712.12
1118.18	2058.99
1121.88	1873.88
1125.57	1257.59
1129.27	740.585
1132.96	382.994
1136.65	204.839
1140.34	306.146
1144.02	386.448
1147.71	226.488
1151.39	185.563
1155.07	4.832
1158.76	83.408
1162.43	223.035
1166.11	143.643
1169.79	125.251
1173.46	52.535
1177.13	99.99
1180.8	137.364
1184.47	14.682
1188.14	142.047
1191.8	140.518
1195.46	16.969
1199.13	194.564
1202.79	452.467
1206.45	450.802
1210.1	589.715
1213.76	679.345
1217.41	499.995
1221.06	521.912
1224.71	564.853
1228.36	625.159
1232.01	844.973
1235.65	758.483
1239.3	647.944
1242.94	600.613
1246.58	413.981
1250.22	339.947
1253.85	279.822
1257.49	488.408
1261.12	503.676
1264.75	497.803
1268.38	496.898
1272.01	414.926
1275.64	240.812
1279.27	160.307
1282.89	48.904
1286.51	207.904
1290.13	22.906
1293.75	189.271
1297.37	396.648
1300.98	0
