Measurement: Raman, 514 nm, ccw, Raman Data Processed
Mineral: Axinite-(Fe)
Rruff sample: R060558
Ideal chemistry: Ca_4_Fe^2+^_2_Al_4_[B_2_Si_8_O_30_](OH)_2_
Locality: unknown
Source: Gemological Institute of America
Description: Brown flattened crystal
Measured chemistry: Ca_2.00_(Fe^2+^_0.60_Mg_0.35_Mn_0.05_)_Î£=1_Al_2.00_BSi_4.00_O_15_(OH) ; B not measured
Pin_id: M01972
Orientation: Laser parallel to (1 0 1). Fiducial mark perpendicular to laser is parallel to -b [0 -1 0]
Raman shift (cm-1)	intensity
91.531	0
96.519	302.173
101.503	1521.97
106.484	4600.5
111.462	3132.4
116.437	2532.1
121.409	1776.38
126.377	557.694
131.343	115.514
136.305	148.329
141.264	1267.15
146.22	2620.29
151.173	4128.01
156.123	3528.99
161.069	3409.86
166.013	6902.85
170.953	7472.13
175.89	2774.16
180.825	159.936
185.756	101.774
190.683	1731.17
195.608	2070.25
200.53	2994.42
205.449	4739.49
210.364	5774.42
215.277	4849.6
220.186	2756.27
225.092	830.632
229.996	105.531
234.896	96.5698
239.793	789.623
244.687	1323.38
249.578	2145.57
254.466	2302.93
259.351	2871.15
264.233	3977.39
269.112	4834.03
273.988	4035
278.86	2389.55
283.73	1324.65
288.597	2126.63
293.461	5009.48
298.321	7611.43
303.179	7839.41
308.034	5872.3
312.885	3693.31
317.734	3818.17
322.58	2311.66
327.422	1000.33
332.262	850.762
337.099	2545.07
341.932	6558.16
346.763	7704.99
351.591	5853.66
356.416	2726.07
361.238	460.208
366.056	172.089
370.872	353.867
375.685	423.443
380.495	965.68
385.302	3994.5
390.106	7233.45
394.908	5804.98
399.706	3233.32
404.501	1738
409.294	1674.03
414.083	3939.39
418.869	6166.06
423.653	6510.05
428.434	8748.52
433.211	6530.28
437.986	2944.3
442.758	2165.53
447.527	1278.96
452.293	334.556
457.057	127.317
461.817	54.2315
466.575	392.199
471.329	908.248
476.081	552.874
480.83	1741.78
485.576	3180.72
490.319	1136.66
495.059	240.048
499.796	685.037
504.531	1587.82
509.262	1829.05
513.991	943.074
518.717	88.5254
523.44	119.688
528.161	273.385
532.878	175.225
537.593	433.741
542.304	1627.53
547.013	2443.95
551.719	1695.63
556.423	2027.65
561.123	2854.39
565.821	2268.49
570.516	2416.92
575.208	3034.97
579.897	2981.63
584.583	3835.88
589.267	4718.7
593.948	3031.09
598.626	1267.68
603.301	1208.32
607.974	2141.79
612.644	2550.3
617.311	2625.32
621.975	2091.81
626.636	797.773
631.295	191.201
635.951	163.787
640.604	438.543
645.254	385.719
649.902	333.741
654.547	0.870117
659.189	81.1411
663.828	698.855
668.465	2125.09
673.099	4685.51
677.73	5657.3
682.359	3022.43
686.984	1426.4
691.607	1221
696.228	1994.15
700.845	4281.06
705.46	9905.21
710.072	20727.7
714.682	25095.5
719.288	14479.9
723.893	6329.61
728.494	2970.8
733.093	1570.44
737.689	946.551
742.282	692.131
746.873	585.24
751.461	779.845
756.046	1237.96
760.628	2360.6
765.208	3774.78
769.786	3522.79
774.36	2189.21
778.932	1065.13
783.502	420.669
788.068	30.5664
792.632	25.2969
797.194	131.772
801.752	172.265
806.309	73.4092
810.862	298.188
815.413	175.347
819.961	50.7168
824.507	171.359
829.05	160.213
833.59	71.4443
838.128	4.6875
842.663	233.633
847.195	487.498
851.725	570.309
856.252	559.08
860.777	671.833
865.299	723.59
869.819	739.367
874.336	725.188
878.85	903.123
883.362	992.245
887.871	1171.62
892.377	1933.15
896.881	3164
901.383	4642.07
905.882	5238.47
910.378	4353.6
914.872	2694.07
919.363	1526.99
923.852	1127.01
928.338	1163.88
932.821	1474.03
937.302	1244.7
941.781	1798.49
946.257	2917.71
950.73	4638.51
955.201	7267.93
959.669	11336.5
964.135	15328.7
968.598	12537.2
973.059	11236.7
977.517	13026.3
981.973	12234.3
986.426	9330.78
990.877	8070.76
995.325	8563.23
999.771	10213.2
1004.21	10703.6
1008.65	7811.23
1013.09	4382.27
1017.53	2366.25
1021.96	2131.92
1026.39	2153.7
1030.82	2330.72
1035.25	1854.83
1039.67	1907.44
1044.09	1943.27
1048.51	2127.82
1052.92	2528.99
1057.34	3045.78
1061.75	2830.33
1066.16	1938.12
1070.56	1401.25
1074.97	1884.27
1079.37	3140.17
1083.77	4153.59
1088.16	2917.31
1092.56	1731.12
1096.95	1196.04
1101.34	1120.83
1105.72	1047.23
1110.11	1005.86
1114.49	570.757
1118.87	394.991
1123.25	251.136
1127.62	108.266
1131.99	151.93
1136.36	26.6338
1140.73	20.2803
1145.09	97.7656
1149.46	24.9062
1153.82	56.7539
1158.17	25.6738
1162.53	74.4844
1166.88	84.3555
1171.23	89.6377
1175.58	6.22363
1179.93	45.5205
1184.27	12.0713
1188.61	12.2559
1192.95	32.9453
1197.29	7.10254
1201.62	33.8428
1205.95	1.08008
1210.28	1.5293
1214.61	73.0469
1218.93	120.294
1223.25	104.264
1227.57	78.5498
1231.89	74.3301
1236.2	192.659
1240.52	184.596
1244.83	158.159
1249.13	159.343
1253.44	226.402
1257.74	232.857
1262.05	238.968
1266.34	454.603
1270.64	317.172
1274.93	394.403
1279.23	324.759
1283.52	221.515
1287.8	239.283
1292.09	297.065
1296.37	385.627
1300.65	326.743
1304.93	222.511
1309.2	247.408
1313.48	380.323
1317.75	272.165
1322.02	277.677
1326.28	175.653
1330.55	207.05
1334.81	115.939
1339.07	189.68
1343.33	145.636
1347.58	104.882
1351.83	79.2188
1356.08	113.943
1360.33	300.38
1364.58	85.7822
1368.82	115.869
1373.06	215.572
1377.3	1.84277
1381.54	183.198
1385.77	91.7207
1390.01	276.611
1394.24	154.301
1398.46	138.57
1402.69	185.842
1406.91	119.246
1411.14	169.617
1415.36	1.69922
1419.57	305.457
1423.79	189.628
1428	74.792
1432.21	302.778
1436.42	427.435
1440.62	598.661
1444.83	620.662
1449.03	706.99
1453.23	904.452
1457.42	686.273
1461.62	656.078
1465.81	561.16
1470	291.34
1474.19	394.215
1478.38	249.356
1482.56	187.751
1486.74	251.315
1490.92	99.6338
1495.1	114.465
1499.27	31.5742
1503.45	15.0293
1507.62	7.0791
1511.79	122.205
1515.95	22.834
1520.12	55.835
1524.28	104.302
1528.44	124.311
1532.6	188.272
1536.75	257.709
1540.9	205.998
1545.06	290.165
1549.2	179.581
1553.35	255.01
1557.5	53.041
1561.64	105.648
