Measurement: Raman, 514 nm, ccw, Raman Data Processed
Mineral: Axinite-(Fe)
Rruff sample: R060194
Ideal chemistry: Ca_4_Fe^2+^_2_Al_4_[B_2_Si_8_O_30_](OH)_2_
Locality: near Dalbandi, Baluchistan Province, Pakistan
Source: Herbert Obodda
Description: Brown transparent wedge-shaped single crystal
Measured chemistry: Ca_2.00_(Fe^2+^_0.66_Mg_0.30_Mn_0.04_)Al_2.00_BSi_4.00_O_15_(OH)
Pin_id: L00599
Orientation: Laser parallel to (0 -1 -1). Fiducial mark perpendicular to laser is parallel to a [1 0 0]
Raman shift (cm-1)	intensity
53.91	0
58.864	311.795
63.817	126.413
68.767	69.4957
73.714	231.848
78.659	299.966
83.602	609.218
88.542	1243.04
93.48	2048.94
98.416	3419.57
103.349	6188.73
108.28	14835.2
113.208	14604.9
118.134	6320.52
123.058	2800.82
127.979	1785.33
132.898	1962.02
137.814	2639.6
142.728	4072.07
147.639	4575.58
152.549	5892.14
157.455	6123.94
162.359	7119.95
167.261	11455
172.161	16253.9
177.058	11778.4
181.952	4312.33
186.845	2371.94
191.734	4535.79
196.622	7620
201.507	8892.99
206.389	13521.5
211.269	20203.2
216.147	20250.8
221.022	13777
225.895	7168.63
230.765	3312.45
235.633	2265.71
240.498	2386.14
245.361	3300.55
250.222	5257
255.08	8169.02
259.936	10153.3
264.789	10641.5
269.64	15989.3
274.488	20995.5
279.334	18288.8
284.178	11424.3
289.019	9699.81
293.857	15001.2
298.693	20437.2
303.527	19822.8
308.358	17159.8
313.187	16726.1
318.013	23255.5
322.837	22333.5
327.659	9948.66
332.478	5279.76
337.294	7809.42
342.108	17004.8
346.92	23778.2
351.729	13834.7
356.535	6523.24
361.34	1975.53
366.141	49.9287
370.94	542.702
375.737	333.492
380.531	911.512
385.323	4038.64
390.113	7991.45
394.9	7409.39
399.684	4250.75
404.466	2291.65
409.245	2679.3
414.022	6113.29
418.797	12262.3
423.569	14622.3
428.338	20780.3
433.105	23240
437.87	13639.5
442.632	9075.6
447.391	8572.29
452.149	3605.46
456.903	772.026
461.655	17.0811
466.405	379.843
471.152	339.323
475.897	19.2539
480.639	976.442
485.378	2539.77
490.116	1931.04
494.85	219.19
499.582	37.5488
504.312	84.7393
509.039	209.798
513.764	42.082
518.486	235.321
523.206	234.652
527.923	20.3203
532.638	630.623
537.35	2001.75
542.059	4738.3
546.766	7552.27
551.471	6328.31
556.173	4804.11
560.873	5437.84
565.57	5283.06
570.264	4568.32
574.957	5175.07
579.646	4737.06
584.333	5254.27
589.018	7081.68
593.7	5837.27
598.379	2296.05
603.056	1044.18
607.73	1021.87
612.402	1530.32
617.072	2332.63
621.739	2540.65
626.403	1376.05
631.065	730.829
635.724	1179.89
640.381	2464.52
645.035	3669.83
649.687	2841.37
654.336	1285.78
658.983	573.015
663.627	524.262
668.268	1971.43
672.907	5346.12
677.544	9059.44
682.178	6562.7
686.809	2867.45
691.438	1896.9
696.065	2912.57
700.688	5757.01
705.31	14264.1
709.929	31590.2
714.545	48416.5
719.158	37144.4
723.77	17389
728.378	8315.43
732.984	4472.68
737.588	2883.77
742.189	2008.74
746.787	1604.34
751.383	1655.42
755.976	2392.91
760.567	4075.65
765.155	6780.38
769.741	7807.11
774.324	5515.88
778.904	3132.28
783.482	1539.91
788.058	727.442
792.631	243.698
797.201	253.052
801.769	116.29
806.334	262.054
810.897	781.632
815.457	753.419
820.014	192.383
824.569	306.639
829.122	401.353
833.671	303.947
838.219	252.27
842.763	34.6123
847.306	38.1143
851.845	77.8506
856.382	516.898
860.917	657.276
865.448	918.003
869.978	919.101
874.505	801.589
879.029	918.487
883.55	847.856
888.069	807.727
892.586	901.038
897.1	1375.86
901.611	2017.24
906.12	2542.13
910.626	2057.47
915.129	1295.3
919.63	974.729
924.129	970.727
928.625	1531.28
933.118	2131.33
937.609	2273.23
942.097	2737.11
946.582	4059.49
951.065	6719.44
955.546	11288.9
960.023	20426.3
964.499	31276.8
968.971	29198.8
973.441	22969.6
977.909	26024.9
982.374	27289.7
986.836	19255
991.295	12613.1
995.753	11155.9
1000.21	12311.5
1004.66	13365.8
1009.11	10923.1
1013.55	6332.59
1018	3479.16
1022.44	2382.25
1026.88	2690.81
1031.32	2978.57
1035.75	2818.8
1040.18	2879.68
1044.61	2763.37
1049.04	3561.73
1053.46	4406.12
1057.88	5461.13
1062.3	4950.24
1066.71	3484.86
1071.13	2708.39
1075.54	3401.5
1079.94	6801.22
1084.35	10713.2
1088.75	8749.26
1093.15	4720.16
1097.55	2545.51
1101.94	1583.32
1106.34	1106.59
1110.73	846.646
1115.11	709.95
1119.5	683.23
1123.88	670.621
1128.26	403.369
1132.63	72.7051
1137.01	71.1318
1141.38	25.4766
1145.75	59.1435
1150.12	70.3613
1154.48	54.2861
1158.84	41.7998
1163.2	83.4844
1167.55	43.709
1171.91	36.9629
1176.26	32.3174
1180.61	5.28125
1184.95	125.499
1189.29	106.893
1193.63	11.0215
1197.97	55.8398
1202.31	83.3857
1206.64	34.3965
1210.97	50.6758
1215.29	23.9268
1219.62	1.57519
1223.94	16.4785
1228.26	0.044922
1232.57	87.6846
1236.89	199.085
1241.2	163.836
1245.51	16.0576
1249.81	212.203
1254.12	151.907
1258.42	89.0713
1262.72	74.749
1267.01	180.506
1271.3	306.992
1275.59	243.472
1279.88	235.023
1284.17	209.068
1288.45	266.81
1292.73	284.228
1297.01	91.9189
1301.28	108.192
1305.55	201.208
1309.82	102.233
1314.09	188.579
1318.35	156.27
1322.61	128.632
1326.87	181.975
1331.13	301.34
1335.38	268.144
1339.63	182.353
1343.88	130.692
1348.12	157.708
1352.37	202.59
1356.61	263.102
1360.85	176.798
1365.08	183.626
1369.31	370.549
1373.54	203.738
1377.77	227.018
1381.99	208.199
1386.22	245.808
1390.43	168.597
1394.65	109.037
1398.87	191.06
1403.08	181.809
1407.29	200.983
1411.49	119.574
1415.69	251.332
1419.89	233.941
1424.09	170.219
1428.29	205.051
1432.48	156.125
1436.67	160.444
1440.86	190.282
1445.04	269.308
1449.23	293.631
1453.4	131.349
1457.58	314.685
1461.76	166.712
1465.93	316.681
1470.1	100.916
1474.26	200.175
1478.43	117.574
1482.59	87.6377
1486.75	116.235
1490.9	233.304
1495.06	18.5205
1499.21	79.0703
1503.35	129.86
1507.5	3.52344
1511.64	175.189
1515.78	70.9746
1519.92	88.3213
1524.05	62.3613
1528.18	170.165
1532.31	27.6562
1536.44	98.4326
1540.56	16.0801
1544.69	29.8271
1548.8	196.856
1552.92	235.402
1557.03	105.548
1561.14	9.24121
1565.25	165.744
1569.36	29.9082
