Measurement: Raman, 514 nm, ccw, Raman Data Processed
Mineral: Axinite-(Fe)
Rruff sample: R060183
Ideal chemistry: Ca_4_Fe^2+^_2_Al_4_[B_2_Si_8_O_30_](OH)_2_
Locality: Skagit Bluffs, near Manning Park, British Columbia, Canada
Source: Lloyd Twaites
Description: Light-pink transparent axe-head-shaped single crystal
Measured chemistry: Ca_2.00_(Fe^2+^_0.58_Mn_0.23_Mg_0.19_)Al_2.00_B_1.00_Si_4.00_O_15_(OH)
Pin_id: L01743
Orientation: Laser parallel to (0 1 1). Fiducial mark perpendicular to laser is parallel to -a [-1 0 0]
Raman shift (cm-1)	intensity
52.671	0
57.626	262.107
62.579	169.99
67.529	70.5101
72.477	70.5814
77.423	424.937
82.367	1297.28
87.308	2546.51
92.246	5899.2
97.182	10787.7
102.116	17074.7
107.047	29463.6
111.976	18720
116.903	7166.07
121.827	3204.58
126.749	2612.6
131.668	4197.66
136.585	8266.63
141.5	9650.06
146.412	9862.33
151.321	8992.49
156.229	6444.84
161.134	6474.13
166.036	10240.2
170.936	15042
175.834	8558.72
180.729	3651.2
185.622	3162.03
190.512	6078.82
195.4	8684.23
200.286	12325.5
205.169	19537
210.049	15341.4
214.928	8134.48
219.803	3479.64
224.677	622.149
229.548	404.023
234.416	13.6523
239.282	2042.02
244.146	4206.65
249.007	5187.85
253.866	6691.32
258.722	7211.8
263.576	9495.08
268.427	16222.9
273.276	21743.1
278.123	16505.5
282.967	10360
287.809	8777.58
292.648	10615.5
297.485	15027.4
302.319	21726.1
307.151	23674.5
311.98	13191.4
316.807	10450.1
321.631	7943.52
326.454	6701.98
331.273	5167.3
336.09	4832.08
340.905	10158.1
345.717	15338.5
350.527	18251.5
355.334	9027.35
360.139	2259.78
364.941	59.5566
369.741	37.2871
374.538	339.32
379.333	1813.16
384.126	6806.51
388.916	13761.3
393.703	8837.48
398.488	3771.83
403.271	2454.28
408.051	6430.74
412.828	17688.1
417.603	24965.4
422.376	16027.4
427.146	15850.1
431.914	10625.4
436.679	4734.28
441.442	4757.57
446.202	3730.19
450.96	450.068
455.715	583.694
460.467	989.502
465.218	636.04
469.965	578.982
474.711	3522.08
479.454	10693
484.194	18522.6
488.932	7819.35
493.667	2895.47
498.4	3412.88
503.13	5939.41
507.858	9019.67
512.583	6856.53
517.306	2791.75
522.026	994.518
526.744	698.229
531.459	1149.92
536.172	1676.23
540.882	2278.07
545.59	2477.42
550.295	2096.91
554.998	2396.49
559.698	3671.36
564.396	4721.1
569.091	7714.08
573.784	9448.2
578.474	8123.43
583.162	9395.71
587.847	12461
592.529	8272.22
597.209	3615.73
601.887	1802.57
606.562	1374.72
611.235	1879.32
615.905	2233.15
620.572	1763.27
625.237	410.617
629.9	250.581
634.56	80.7178
639.217	950.143
643.872	1224.65
648.524	634.307
653.174	118.13
657.821	176.317
662.466	240.978
667.108	1857.07
671.748	5112.08
676.385	8311.1
681.02	5524.11
685.652	3025.56
690.281	2395.39
694.908	3617.14
699.533	7246.33
704.155	16472.6
708.774	34402.2
713.391	49280.6
718.005	35331
722.617	16944.4
727.226	7952.65
731.833	4338.95
736.437	2718.09
741.039	1791.39
745.638	1569.56
750.234	1791.93
754.828	2597.58
759.419	4769.42
764.008	7755.58
768.595	8363.43
773.178	5313.59
777.759	2775.89
782.338	1278.66
786.914	508.034
791.488	57.2031
796.059	99.814
800.627	228.703
805.193	202.267
809.756	1577.64
814.317	1447.05
818.875	360.556
823.431	264.967
827.984	521.406
832.534	393.888
837.082	148.914
841.627	307.555
846.17	850.383
850.71	1441.63
855.248	1413.34
859.783	1374.56
864.316	1666.34
868.846	1825.72
873.373	1830
877.898	2426.43
882.42	3495.15
886.94	5536.05
891.457	9476.13
895.971	14944.2
900.483	17746.6
904.993	16964
909.5	14935.6
914.004	10697.2
918.505	7089.1
923.004	5743.32
927.501	6335.84
931.995	6058.57
936.486	4938.89
940.975	5085.51
945.461	7361.27
949.945	10586.7
954.426	14850.3
958.904	20131.2
963.38	25368.8
967.853	21910.1
972.324	20493.6
976.792	26073.3
981.258	27535.6
985.72	24089.4
990.181	23362.5
994.639	23427
999.094	25565.9
1003.55	28802.1
1008	23709
1012.44	13803
1016.89	7686.9
1021.33	5840.89
1025.77	5797.5
1030.21	4859.52
1034.64	3084.92
1039.07	2389.08
1043.5	2172.03
1047.93	2245.53
1052.35	2763.38
1056.78	3096.38
1061.19	2480.06
1065.61	1497.67
1070.02	1187.55
1074.43	1731.75
1078.84	2941.03
1083.25	4337.34
1087.65	3100.15
1092.05	2090.83
1096.45	1816.2
1100.85	2455.48
1105.24	2919.17
1109.63	2530.33
1114.02	1647.25
1118.4	1049.9
1122.78	655.158
1127.16	334.448
1131.54	223.565
1135.92	119.319
1140.29	60.3525
1144.66	55.8677
1149.02	93.7124
1153.39	66.6187
1157.75	113.095
1162.11	130.663
1166.46	178.901
1170.82	139.356
1175.17	14.9756
1179.52	14.2832
1183.86	172.965
1188.21	11.8169
1192.55	79.1611
1196.89	20.6445
1201.22	127.332
1205.55	80.6816
1209.88	103.19
1214.21	226.137
1218.54	113.726
1222.86	82.3848
1227.18	62.2266
1231.5	112.299
1235.81	179.093
1240.12	221.921
1244.43	300.009
1248.74	243.311
1253.04	293.621
1257.34	218.602
1261.64	337.764
1265.94	206.542
1270.23	272.362
1274.52	354.702
1278.81	421.63
1283.1	417.342
1287.38	371.911
1291.66	327.954
1295.94	251.534
1300.21	254.389
1304.48	177.41
1308.75	70.6987
1313.02	144.739
1317.29	178.08
1321.55	267.369
1325.81	149.302
1330.06	187.498
1334.32	184.25
1338.57	148.198
1342.82	165.55
1347.06	202.235
1351.31	272.082
1355.55	190.986
1359.79	190.673
1364.02	301.986
1368.26	147.5
1372.49	168.347
1376.71	241.94
1380.94	182.349
1385.16	296.563
1389.38	118.752
1393.6	163.483
1397.81	31.8227
1402.02	147.689
1406.23	120.733
1410.44	37.0205
1414.64	114.6
1418.85	180.922
1423.04	41.2017
1427.24	191.677
1431.43	102.359
1435.62	136.465
1439.81	150.051
1444	162.089
1448.18	137.363
1452.36	159.903
1456.54	272.036
1460.71	285.889
1464.89	324.812
1469.06	86.8115
1473.22	53.7485
1477.39	117.566
1481.55	270.753
1485.71	170.54
1489.86	69.4507
1494.02	81.438
1498.17	40.1855
1502.32	38.8897
1506.46	38.7632
1510.61	70.6162
1514.75	38.8023
1518.88	94.9898
1523.02	66.625
1527.15	148.1
1531.28	141.577
1535.41	162.6
1539.53	99.876
1543.66	58.2749
1547.78	120.444
1551.89	351.045
1556.01	276.298
1560.12	97.0298
1564.23	7.51025
1568.33	126.889
