Measurement: Raman, 514 nm, ccw, Raman Data Processed
Mineral: Axinite-(Fe)
Rruff sample: R040074
Ideal chemistry: Ca_4_Fe^2+^_2_Al_4_[B_2_Si_8_O_30_](OH)_2_
Locality: Luning, Nevada, USA
Source: University of Arizona Mineral Museum
Description: Pale brown wedge-shaped crystal
Measured chemistry: (Ca_0.98_Mn_0.01_)_2_(Fe_0.41_Mg_0.39_Mn_0.20_)Al_1.95_B_1.20_Si_3.90_O_15_(OH)
Pin_id: L00178
Orientation: Laser parallel to (0 -1 -1). Fiducial mark perpendicular to laser is parallel to -a [-1 0 0]
Raman shift (cm-1)	intensity
99.764	0
103.943	1810.51
108.121	8752.7
112.297	7355.18
116.47	1914.13
120.642	511.729
124.811	110.104
128.979	76.701
133.144	213.225
137.307	1555.53
141.469	3791.28
145.628	4189.31
149.786	4392.98
153.941	3156.55
158.094	2248.77
162.245	2088.59
166.395	3985.45
170.542	7325.56
174.687	5334.21
178.83	1826.26
182.972	188.91
187.111	385.363
191.248	3359.74
195.383	3945.18
199.516	2461.92
203.647	3821.62
207.777	6844.67
211.904	10179.4
216.029	9765.59
220.152	6325.14
224.273	3258.84
228.392	1134.08
232.509	172.426
236.625	468.076
240.738	788.918
244.849	1466.7
248.958	3225.07
253.065	4753.91
257.171	4433.07
261.274	5292.49
265.375	7823.43
269.475	10202.9
273.572	10284.4
277.667	8423.14
281.76	5066.27
285.852	4183.52
289.941	6194.03
294.029	9981.64
298.114	13567.2
302.198	13007
306.279	10245.9
310.359	8099.09
314.436	9851.03
318.512	14433
322.586	11595.9
326.657	5239.58
330.727	3074.04
334.795	3982.08
338.861	8000.58
342.924	13752.1
346.986	12093.3
351.046	7804.36
355.104	4911.05
359.16	1582.1
363.214	247.631
367.267	153.455
371.317	399.225
375.365	263.451
379.411	391.727
383.456	2406.8
387.498	5601.77
391.539	5976.59
395.577	3741.23
399.614	2254.94
403.649	1456.87
407.681	1528.43
411.712	2859.77
415.741	6970.88
419.768	7311.73
423.793	8612.34
427.816	13652.8
431.837	15073.5
435.857	8944.39
439.874	5505.33
443.889	6316.24
447.903	3977.05
451.914	1357.71
455.924	268.225
459.932	38.52
463.938	71.842
467.941	3.307
471.943	354.275
475.944	371.453
479.942	1218.33
483.938	2435.1
487.932	1301.73
491.925	1.672
495.915	206.08
499.904	27.613
503.891	179.67
507.876	160.768
511.859	78.439
515.84	61.613
519.819	119.34
523.796	181.852
527.771	65.766
531.745	621.615
535.716	1347.96
539.686	3311.92
543.654	5076.27
547.62	4850.17
551.584	4043.65
555.546	4596.69
559.506	6549.3
563.465	4821.5
567.421	3813.31
571.376	4184.73
575.329	4535.75
579.279	3906.38
583.228	4676.63
587.175	6526.5
591.121	5455.98
595.064	2865.08
599.006	1533.79
602.945	1132.11
606.883	1860.04
610.819	2237.59
614.753	2154.75
618.685	1965.92
622.615	2003.26
626.544	1153
630.471	843.479
634.395	650.428
638.318	1583.03
642.239	2686.22
646.158	2882.18
650.076	1877.46
653.991	615.176
657.905	560.002
661.817	452.756
665.726	1496.47
669.635	3268.28
673.541	5974.27
677.445	7083.66
681.348	4365.89
685.248	2547.58
689.147	1620.88
693.044	1724.43
696.94	2388.17
700.833	5091.81
704.724	10585.3
708.614	21678.8
712.502	38072.2
716.388	33135.5
720.272	16988.7
724.155	9041.91
728.035	5145.07
731.914	3068.2
735.791	1831.33
739.666	1324.44
743.539	1377.56
747.41	1170.7
751.28	1133.86
755.148	1327.06
759.014	2550.3
762.878	4163.6
766.74	5886.96
770.601	4830.39
774.46	2843.94
778.316	1447.88
782.172	582.312
786.025	607.074
789.876	81.916
793.726	293.289
797.574	99.098
801.42	4.703
805.264	298.217
809.107	622.342
812.947	507.377
816.786	123.104
820.623	340.814
824.459	15.08
828.292	10.727
832.124	63.24
835.954	157.035
839.782	380.742
843.608	5.438
847.433	191.984
851.255	398.977
855.076	616.428
858.895	784.25
862.713	512.387
866.528	620.771
870.342	869.6
874.154	1008.86
877.965	678.6
881.773	198.672
885.58	589.041
889.385	839.756
893.188	1660.8
896.989	1852.17
900.789	2553.89
904.587	2425.93
908.383	1548.28
912.177	1030.96
915.97	1263.95
919.76	1457.24
923.55	1230.83
927.337	1434.71
931.122	1348.88
934.906	2233.31
938.688	2378.01
942.468	2860.36
946.247	3420.91
950.023	5049.93
953.798	6599.42
957.572	10964.7
961.343	17131
965.113	19457.6
968.881	15924.5
972.647	15402.6
976.411	19223.7
980.174	18966.4
983.935	13370.2
987.694	9841.92
991.452	7947.44
995.207	7474.1
998.961	8315.96
1002.71	10033.5
1006.46	8613.99
1010.21	6530.88
1013.96	4412.48
1017.71	3028.91
1021.45	2233.98
1025.19	2520.83
1028.93	2589.55
1032.67	2793.76
1036.41	2608.39
1040.14	2479.05
1043.87	2454.47
1047.61	2524.07
1051.34	3289.54
1055.06	3865.84
1058.79	4331.99
1062.52	4528.15
1066.24	3462.99
1069.96	2757.8
1073.68	3041.83
1077.4	4595.57
1081.11	7128.84
1084.83	7782.21
1088.54	5754.83
1092.25	3527.83
1095.96	2081.29
1099.67	1514.68
1103.37	947.238
1107.08	1519.69
1110.78	1162.26
1114.48	1105.67
1118.18	1010.31
1121.88	933.531
1125.57	684.398
1129.27	47.277
1132.96	131.258
1136.65	155.016
1140.34	798.766
1144.02	732.832
1147.71	646.602
1151.39	450.496
1155.07	245.305
1158.76	89.211
1162.43	244.121
1166.11	419.504
1169.79	435.496
1173.46	772.238
1177.13	459.875
1180.8	98.543
1184.47	21.66
1188.14	189.48
1191.8	82.137
1195.46	506.383
1199.13	771.746
1202.79	1159.16
1206.45	836.129
1210.1	497.055
1213.76	429.629
1217.41	560.426
1221.06	681.059
1224.71	872.484
1228.36	1065.69
1232.01	867.113
1235.65	733.746
1239.3	131.043
1242.94	6.207
1246.58	192.293
1250.22	272.555
1253.85	440.738
1257.49	923.824
1261.12	1067.34
1264.75	0
