Measurement: Raman, 514 nm, ccw, Raman Data Processed
Mineral: Axinite-(Fe)
Rruff sample: R050061
Ideal chemistry: Ca_4_Fe^2+^_2_Al_4_[B_2_Si_8_O_30_](OH)_2_
Locality: Jamestown, California, USA
Source: Rock Currier
Description: Brown colored axe-head-shaped single crystals
Measured chemistry: Ca_2.00_(Fe^2+^_0.73_Mg_0.20_Mn_0.07_)Al_2.00_BSi_4_O_15_(OH)
Pin_id: L00381
Orientation: Laser parallel to a* (1 0 0). Fiducial mark perpendicular to laser is parallel to b [0 1 0]
Raman shift (cm-1)	intensity
89.663	0
93.868	171.029
98.07	940.079
102.271	1557.5
106.469	4588.34
110.665	5795.97
114.859	2687.61
119.05	1538.57
123.24	1391.4
127.427	669.639
131.612	375.728
135.794	1921.17
139.975	3346.61
144.153	1913.9
148.329	1644.26
152.503	1650.18
156.674	714.142
160.843	442.929
165.011	1089.28
169.175	2789.59
173.338	2415.46
177.499	845.271
181.657	15.488
185.813	298.257
189.967	62.547
194.119	624.186
198.268	501.658
202.415	1577.29
206.561	3239.82
210.703	3556.02
214.844	3279.89
218.983	2876.4
223.119	1086.28
227.253	117.133
231.385	147.212
235.515	89.438
239.643	436.655
243.768	724.382
247.891	634.523
252.012	1705.43
256.131	3278.93
260.248	2600.49
264.363	3271.51
268.475	5210.18
272.585	7456.8
276.693	7522.09
280.799	5172.83
284.903	3517.47
289.005	3660.37
293.104	3852.48
297.201	3654.22
301.296	3133.52
305.389	3366.18
309.48	3104.87
313.569	3239.28
317.655	6091.54
321.74	6145.37
325.822	3942.56
329.902	3522.54
333.98	3396.8
338.056	4584.96
342.129	7451.67
346.201	6783.53
350.27	4484.05
354.337	3079
358.402	1204.36
362.465	259.606
366.526	93.138
370.585	143.963
374.642	252.16
378.696	404.157
382.748	1044.87
386.799	2829.96
390.847	3139.39
394.893	1907.31
398.936	713.303
402.978	823.227
407.018	830.27
411.055	1482.78
415.091	4039.13
419.124	6693.39
423.155	6456.34
427.184	6209.9
431.211	4550.08
435.236	2509.87
439.259	2264.29
443.28	4742.88
447.298	4331.39
451.315	1484.59
455.329	574.717
459.341	227.571
463.352	5.132
467.36	157.401
471.366	381.771
475.37	378.078
479.372	908.166
483.371	2427.4
487.369	2231.78
491.365	554.292
495.358	69.896
499.35	95.227
503.339	332.895
507.326	708.698
511.311	1047.65
515.295	936.557
519.276	347.762
523.255	65.214
527.232	101.496
531.207	27.237
535.179	26.576
539.15	35.844
543.119	70.353
547.086	122.439
551.05	165.218
555.013	61.721
558.973	556.007
562.932	923.376
566.888	928.63
570.842	1578.76
574.795	1937.75
578.745	1282.6
582.693	878.321
586.639	1267.9
590.583	1475.35
594.525	824.677
598.465	276.874
602.403	14.942
606.339	33.85
610.273	332.609
614.205	844.253
618.135	1031.36
622.063	738.208
625.989	198.306
629.912	130.447
633.834	314.628
637.754	744.956
641.671	1364.24
645.587	1600.49
649.501	1013.13
653.412	507.313
657.322	200.385
661.23	102.21
665.135	258.172
669.039	654.607
672.94	1577.05
676.84	2452.18
680.738	1756.41
684.633	908.978
688.527	565.879
692.418	607.004
696.308	869.136
700.195	1434.86
704.081	3033.84
707.964	6540.68
711.846	11960.6
715.726	11891.5
719.603	6656.45
723.479	3240.26
727.352	1784.96
731.224	1091.53
735.094	646.992
738.961	365.336
742.827	239.113
746.691	188.692
750.552	210.708
754.412	258.621
758.27	338.196
762.125	523.223
765.979	793.694
769.831	750.225
773.681	422.67
777.529	200.058
781.375	9.404
785.219	80.815
789.06	56.051
792.901	56.747
796.739	73.061
800.575	85.921
804.409	33.219
808.241	163.242
812.071	402.528
815.899	242.091
819.726	14.436
823.55	70.301
827.372	62.302
831.193	3.4
835.011	75.923
838.828	196.532
842.642	274.35
846.455	538.199
850.266	993.094
854.075	985.134
857.881	1027.44
861.686	949.083
865.489	988.972
869.29	1026.95
873.089	1241
876.886	1430.09
880.682	1713.23
884.475	1877.42
888.266	2200.67
892.056	3010.97
895.843	4161.29
899.629	5083.68
903.413	5483.17
907.194	5362.74
910.974	4403.37
914.752	3103.1
918.528	2150.94
922.302	1798.85
926.074	1801.82
929.844	1843.88
933.613	1669.17
937.379	1697.65
941.144	1929.5
944.906	2619.59
948.667	3531.73
952.426	4587.12
956.183	5769.23
959.938	8580.13
963.691	10239.1
967.442	8768.3
971.191	8057.42
974.939	9600.6
978.684	10690
982.428	9154.84
986.169	7711.59
989.909	7851.56
993.647	7391.66
997.383	6962.27
1001.12	6560.65
1004.85	5366.27
1008.58	3648.94
1012.31	2379.76
1016.03	1770.96
1019.76	1351.78
1023.48	1233.26
1027.2	1119.76
1030.92	830.314
1034.64	623.126
1038.36	606.077
1042.07	688.918
1045.78	712.852
1049.49	794.129
1053.2	850.661
1056.9	814.907
1060.61	785.611
1064.31	651.048
1068.01	489.407
1071.71	511.674
1075.41	587.418
1079.1	840.474
1082.79	882.494
1086.48	656.226
1090.17	458.585
1093.86	397.093
1097.55	409.825
1101.23	476.316
1104.91	547.026
1108.59	393.63
1112.27	293.684
1115.95	241.316
1119.62	186.545
1123.3	170.061
1126.97	125.384
1130.63	33.523
1134.3	44.444
1137.97	21.062
1141.63	3.266
1145.29	49.564
1148.95	26.844
1152.61	6.607
1156.27	14.902
1159.92	39.328
1163.57	71.591
1167.22	10.593
1170.87	19.075
1174.52	42.677
1178.16	7.516
1181.81	26.833
1185.45	8.892
1189.09	11.885
1192.73	20.762
1196.36	45.96
1200	22.154
1203.63	47.426
1207.26	40.651
1210.89	21.907
1214.52	15.237
1218.14	16.957
1221.77	33.122
1225.39	1.22
1229.01	52.748
1232.62	85.079
1236.24	53.279
1239.86	64.518
1243.47	29.027
1247.08	1.642
1250.69	29.121
1254.3	13.765
1257.9	73.265
1261.5	22.16
1265.11	70.571
1268.71	108.263
1272.3	120.843
1275.9	90.215
1279.49	20.253
1283.09	53.228
1286.68	39.9
1290.27	44.173
1293.86	69.411
1297.44	90.433
1301.03	49.722
1304.61	3.013
1308.19	4.229
1311.77	34.34
1315.34	2.433
1318.92	38.046
1322.49	43.279
1326.06	69.503
1329.63	62.89
1333.2	112.845
1336.77	45.395
1340.33	85.135
1343.89	39.127
1347.46	2.557
1351.02	35.052
1354.57	68.042
1358.13	95.146
1361.68	150.393
1365.23	125.923
1368.79	16.991
1372.33	119.815
1375.88	167.962
1379.43	78.355
1382.97	81.353
1386.51	38.985
1390.05	65.981
1393.59	75.038
1397.13	94.965
1400.66	97.64
1404.19	76.098
1407.72	71.655
1411.25	128.997
1414.78	44.288
1418.31	74.17
1421.83	24.39
1425.36	45.718
1428.88	49.513
1432.39	99.555
1435.91	51.219
1439.43	131.956
1442.94	99.668
1446.45	67.572
1449.96	47.83
1453.47	27.386
1456.98	68.31
1460.48	26.264
1463.99	0.82
1467.49	62.581
1470.99	103.226
1474.49	60.771
1477.99	43.854
1481.48	79.428
1484.97	141.345
1488.46	55.799
1491.95	93.372
1495.44	85.833
1498.93	28.642
1502.41	39.544
1505.9	2.024
1509.38	23.342
1512.86	0
