Measurement: Raman, 514 nm, ccw, Raman Data Processed
Mineral: Axinite-(Fe)
Rruff sample: R060558
Ideal chemistry: Ca_4_Fe^2+^_2_Al_4_[B_2_Si_8_O_30_](OH)_2_
Locality: unknown
Source: Gemological Institute of America
Description: Brown flattened crystal
Measured chemistry: Ca_2.00_(Fe^2+^_0.60_Mg_0.35_Mn_0.05_)_Î£=1_Al_2.00_BSi_4.00_O_15_(OH) ; B not measured
Pin_id: M01160
Orientation: Laser parallel to b* (0 1 0). Fiducial mark perpendicular to laser is parallel to -c [0 0 -1]
Raman shift (cm-1)	intensity
97.765	0
102.749	1564.32
107.729	8399.98
112.706	6190.38
117.68	3845.42
122.651	1779.82
127.619	64.3579
132.584	378.505
137.545	3079.56
142.503	5123.94
147.459	3498.97
152.411	2939.84
157.36	1995.57
162.305	2607.26
167.248	4316.86
172.188	4762.04
177.124	1985.25
182.058	124.391
186.988	626.89
191.915	172.671
196.839	755.264
201.76	2688.39
206.678	6294.66
211.593	9401.32
216.504	8775.81
221.413	4988.38
226.319	2015.93
231.221	904.592
236.121	1234.16
241.017	1476.94
245.91	1259.96
250.8	3329.97
255.688	6525.59
260.572	7453.15
265.453	11376.9
270.331	17255.2
275.206	18755.5
280.078	13048.9
284.947	9200.08
289.813	9527.43
294.676	10697.3
299.536	9567.57
304.393	6744.07
309.247	7149.68
314.098	12521.3
318.946	18930.1
323.791	12545.3
328.633	6963.7
333.472	6779.31
338.307	10417
343.14	17633.4
347.97	12587.2
352.797	4712.1
357.622	1594.59
362.443	562.61
367.261	145.936
372.076	148.649
376.888	517.698
381.697	1369.04
386.504	3441.82
391.307	3379.32
396.107	1721.33
400.905	1662.21
405.7	1885.88
410.491	2687.33
415.28	5322.57
420.066	7989.64
424.848	10100.6
429.628	10952.5
434.405	8600.31
439.18	6543.22
443.951	9739.3
448.719	6542.52
453.485	1920.87
458.247	676.648
463.007	78.3711
467.763	138.542
472.517	195.656
477.268	134.864
482.016	257.324
486.762	860.222
491.504	88.6118
496.244	146.659
500.98	86.0229
505.714	406.475
510.445	1437.93
515.173	1710.91
519.898	911.685
524.621	216.251
529.34	37.0366
534.057	182.692
538.771	601.059
543.482	1203.22
548.19	1410.17
552.896	1131.02
557.598	1888.87
562.298	2792.54
566.995	1767.97
571.689	1575.17
576.38	1593.12
581.069	1126.83
585.755	1279.29
590.438	1394.47
595.118	468.384
599.795	23.0403
604.47	19.4827
609.142	281.684
613.811	1019.74
618.477	1619.44
623.14	1259.43
627.801	522.992
632.459	806.243
637.114	1867.61
641.767	3660.35
646.416	3793.44
651.063	2154.56
655.708	800.401
660.349	484.991
664.988	812.711
669.624	1723.36
674.257	3553.39
678.887	3764.93
683.515	2056.13
688.14	1094.49
692.763	1199.47
697.382	2181.44
701.999	4645.23
706.613	11269.7
711.225	22641.8
715.834	25251.5
720.44	13122.9
725.043	5770.99
729.644	2848.74
734.242	1585.18
738.837	976.007
743.43	587.156
748.02	435.583
752.607	537.01
757.192	834.189
761.774	1156.62
766.353	1341.86
770.93	1171.89
775.504	557.119
780.075	188.979
784.644	8.99927
789.21	132.635
793.773	212.727
798.334	175.339
802.892	83.6313
807.447	173.253
812	522.074
816.55	436.813
821.098	43.4841
825.643	21.2463
830.185	47.708
834.725	85.1216
839.262	304.929
843.796	612.748
848.328	1157.6
852.857	1566.48
857.384	1697.43
861.908	1706.45
866.429	1638.56
870.948	1718.77
875.464	1780.21
879.978	1975.31
884.489	1883.82
888.998	1791.54
893.504	2126.49
898.007	2731.7
902.508	3217.13
907.006	2988.83
911.502	2057.88
915.995	1325.22
920.485	1144.51
924.973	1276.72
929.459	1725.18
933.942	1975.36
938.422	2124.89
942.9	2771.13
947.375	4103.61
951.848	6560.52
956.318	9540.86
960.786	14688.8
965.251	17548.3
969.714	14693.1
974.174	15683.5
978.631	19330.3
983.086	15703.6
987.539	9599.29
991.989	7066.44
996.437	6374.21
1000.88	6361.26
1005.32	5193.05
1009.76	3275.72
1014.2	1803.11
1018.64	1003
1023.07	723.152
1027.5	598.254
1031.93	416.659
1036.35	223.599
1040.78	219.072
1045.19	332.195
1049.61	552.765
1054.03	908.205
1058.44	1128.69
1062.85	1048.19
1067.26	752.244
1071.66	724.685
1076.07	1280.17
1080.47	2590.58
1084.87	3177.34
1089.26	1987.32
1093.65	921.833
1098.05	531.151
1102.43	381.603
1106.82	362.525
1111.2	261.917
1115.59	172.824
1119.96	85.2146
1124.34	76.9739
1128.71	11.7487
1133.09	32.2861
1137.45	35.1043
1141.82	2.64746
1146.18	31.1125
1150.55	12.8673
1154.91	38.8837
1159.26	32.5352
1163.62	30.3751
1167.97	12.2697
1172.32	64.1608
1176.67	2.88928
1181.01	4.8606
1185.36	24.5076
1189.69	44.7046
1194.03	16.9757
1198.37	53.4148
1202.7	49.651
1207.03	72.5691
1211.36	4.02161
1215.69	35.9338
1220.01	6.71533
1224.33	69.5811
1228.65	35.0309
1232.97	64.9114
1237.28	93.3084
1241.6	80.2412
1245.9	127.778
1250.21	72.0284
1254.52	102.812
1258.82	147.073
1263.12	139.138
1267.42	87.6814
1271.71	115.475
1276.01	126.626
1280.3	90.9049
1284.59	120.07
1288.87	87.0372
1293.16	74.4265
1297.44	48.0608
1301.72	74.9208
1306	28.0027
1310.27	39.6862
1314.55	63.9648
1318.82	66.4225
1323.08	147.49
1327.35	57.2546
1331.61	99.1886
1335.87	84.4673
1340.13	119.979
1344.39	84.7212
1348.64	89.8495
1352.9	121.296
1357.15	85.5237
1361.39	105.909
1365.64	93.2194
1369.88	119.513
1374.12	65.3688
1378.36	122.222
1382.6	107.986
1386.83	98.9407
1391.07	78.0617
1395.29	31.5492
1399.52	26.1405
1403.75	56.7748
1407.97	75.1788
1412.19	65.3683
1416.41	111.377
1420.62	171.796
1424.84	81.1858
1429.05	122.953
1433.26	104.691
1437.47	88.152
1441.67	93.4421
1445.88	29.2436
1450.08	97.3002
1454.28	23.4121
1458.47	54.2441
1462.67	20.5187
1466.86	55.9665
1471.05	28.1837
1475.24	44.3711
1479.42	64.769
1483.61	49.2882
1487.79	20.3517
1491.96	30.1819
1496.14	19.1184
1500.32	29.2521
1504.49	18.4217
1508.66	10.8103
1512.83	32.9224
1516.99	102.216
1521.16	82.8994
1525.32	24.5139
1529.48	16.2752
1533.63	58.5638
1537.79	57.4207
1541.94	11.584
1546.09	62.4531
1550.24	49.0234
1554.39	61.0043
1558.53	4.35229
1562.67	0.192383
