Measurement: Raman, 514 nm, ccw, Raman Data Processed
Mineral: Axinite-(Fe)
Rruff sample: R060194
Ideal chemistry: Ca_4_Fe^2+^_2_Al_4_[B_2_Si_8_O_30_](OH)_2_
Locality: near Dalbandi, Baluchistan Province, Pakistan
Source: Herbert Obodda
Description: Brown transparent wedge-shaped single crystal
Measured chemistry: Ca_2.00_(Fe^2+^_0.66_Mg_0.30_Mn_0.04_)Al_2.00_BSi_4.00_O_15_(OH)
Pin_id: L01072
Orientation: Laser parallel to -c* (0 0 -1). Fiducial mark perpendicular to laser is parallel to a [1 0 0]
Raman shift (cm-1)	intensity
53.91	0
58.864	251.421
63.817	241.85
68.767	12.0865
73.714	89.5273
78.659	45.3455
83.602	303.424
88.542	1309.18
93.48	3480.6
98.416	6841.23
103.349	12032
108.28	19008.5
113.208	16454.6
118.134	8671.36
123.058	5680.18
127.979	3725.4
132.898	3376.23
137.814	5415.38
142.728	8590.02
147.639	8275.95
152.549	11255.2
157.455	8740.31
162.359	6354.74
167.261	8821.66
172.161	13661
177.058	10148.6
181.952	3807.34
186.845	2834.17
191.734	5789.3
196.622	10031
201.507	9257.48
206.389	14997.7
211.269	15641.1
216.147	12317.2
221.022	8823.72
225.895	3279.89
230.765	648.07
235.633	253.456
240.498	1964.66
245.361	2930.78
250.222	4117.25
255.08	7128.49
259.936	8875.67
264.789	10703.1
269.64	17234.6
274.488	21143.1
279.334	15873.6
284.178	9124.02
289.019	7601.24
293.857	8996.15
298.693	11318.6
303.527	14076.6
308.358	16580.9
313.187	13626.4
318.013	15125.6
322.837	14903.8
327.659	8095.05
332.478	6942.94
337.294	8645.3
342.108	16555
346.92	22002
351.729	16054.1
356.535	9951.65
361.34	2046.68
366.141	353.028
370.94	699.519
375.737	38.7266
380.531	1056.07
385.323	5705.14
390.113	12887
394.9	10792.9
399.684	4446.78
404.466	2862.04
409.245	3883.8
414.022	10522.9
418.797	23694.8
423.569	18988.8
428.338	18476.8
433.105	12332.6
437.87	6049.19
442.632	7768.4
447.391	9867.14
452.149	2666.31
456.903	14.8076
461.655	232.821
466.405	214.474
471.152	1603.54
475.897	3197.53
480.639	8807.38
485.378	17705
490.116	10912.3
494.85	2760.33
499.582	1929.73
504.312	3194.38
509.039	4356.15
513.764	3665.39
518.486	1307.44
523.206	136.449
527.923	424.567
532.638	255.351
537.35	173.476
542.059	221.601
546.766	191.704
551.471	192.374
556.173	269.925
560.873	1490.57
565.57	2852.88
570.264	4925.34
574.957	6777.91
579.646	5169.52
584.333	4878.12
589.018	7139.66
593.7	6329.09
598.379	2471.24
603.056	1203.5
607.73	1743.04
612.402	3283.68
617.072	5274.06
621.739	5108.15
626.403	2120.92
631.065	580.325
635.724	631.11
640.381	1811.28
645.035	2747.12
649.687	1951.39
654.336	550.846
658.983	176.433
663.627	651.354
668.268	2047.97
672.907	4749.85
677.544	7751.58
682.178	5266.54
686.809	2294.93
691.438	1591.04
696.065	2510.06
700.688	5475.26
705.31	13143
709.929	29068.5
714.545	44636.8
719.158	31568.8
723.77	14043.7
728.378	6540.36
732.984	3284.92
737.588	1785.38
742.189	1319.48
746.787	943.292
751.383	1068.56
755.976	1838.87
760.567	3497.26
765.155	6011.79
769.741	6363.9
774.324	4189.12
778.904	1912.35
783.482	898.929
788.058	289.903
792.631	206.707
797.201	257.413
801.769	373.185
806.334	84.3272
810.897	895.576
815.457	1321.79
820.014	533.555
824.569	207.351
829.122	188.799
833.671	259.922
838.219	51.0732
842.763	552.673
847.306	1299.41
851.845	2375.33
856.382	2241.48
860.917	2225.93
865.448	2086.71
869.978	2178.87
874.505	2351.54
879.029	2854.76
883.55	3572.57
888.069	4756.12
892.586	7648.58
897.1	12424.9
901.611	17027.3
906.12	20534.8
910.626	21396.8
915.129	16151.3
919.63	9164.86
924.129	5805.45
928.625	5284.17
933.118	5591.14
937.609	5264.24
942.097	6307.05
946.582	9438.23
951.065	14881.8
955.546	21091.7
960.023	29439
964.499	39534.9
968.971	35793.2
973.441	27519.1
977.909	31149.9
982.374	33807.2
986.836	27432.8
991.295	25850.9
995.753	26120.3
1000.21	27022
1004.66	28669.2
1009.11	23292.4
1013.55	13479.6
1018	7316.91
1022.44	4756.48
1026.88	4709.34
1031.32	4512.74
1035.75	2766.69
1040.18	1690.6
1044.61	1638.89
1049.04	1800.41
1053.46	2270.87
1057.88	2836.72
1062.3	2946.4
1066.71	2122.68
1071.13	1402.92
1075.54	1523.46
1079.94	2578.38
1084.35	3977.18
1088.75	3164.32
1093.15	1567.88
1097.55	1297.77
1101.94	1661.96
1106.34	2418.37
1110.73	2221.19
1115.11	1472.58
1119.5	842.537
1123.88	572.243
1128.26	504.722
1132.63	145.641
1137.01	177.026
1141.38	9.50098
1145.75	82.9424
1150.12	40.832
1154.48	71.5772
1158.84	182.766
1163.2	204.708
1167.55	110.346
1171.91	158.695
1176.26	232.328
1180.61	43.1895
1184.95	36.9424
1189.29	17.4922
1193.63	112.492
1197.97	10.8496
1202.31	137.511
1206.64	246.766
1210.97	93.7178
1215.29	164.284
1219.62	125.607
1223.94	69.9121
1228.26	15.168
1232.57	148.889
1236.89	179.243
1241.2	229.438
1245.51	328.468
1249.81	217.247
1254.12	309.995
1258.42	220.83
1262.72	237.445
1267.01	414.363
1271.3	390.592
1275.59	392.142
1279.88	416.641
1284.17	314.935
1288.45	250.635
1292.73	463.886
1297.01	468.019
1301.28	269.059
1305.55	228.149
1309.82	224.673
1314.09	205.196
1318.35	283.437
1322.61	282.124
1326.87	232.688
1331.13	256.747
1335.38	375.82
1339.63	312.019
1343.88	216.812
1348.12	418.516
1352.37	274.146
1356.61	521.951
1360.85	409.099
1365.08	314.688
1369.31	399.107
1373.54	368.738
1377.77	304.44
1381.99	148.924
1386.22	263.333
1390.43	193.74
1394.65	57.2119
1398.87	203.426
1403.08	46.9658
1407.29	118.13
1411.49	301.785
1415.69	393.595
1419.89	148.473
1424.09	206.667
1428.29	284.819
1432.48	117.392
1436.67	306.444
1440.86	128.737
1445.04	274.19
1449.23	83.4434
1453.4	6.97266
1457.58	180.886
1461.76	999.02
1465.93	64.5644
1470.1	117.353
1474.26	171.108
1478.43	91.0098
1482.59	2.33789
1486.75	79.9971
1490.9	5.22559
1495.06	219.004
1499.21	251.533
1503.35	242.157
1507.5	82.6397
1511.64	154.672
1515.78	179.227
1519.92	241.522
1524.05	134.707
1528.18	93.582
1532.31	167.77
1536.44	139.789
1540.56	57.7148
1544.69	135.541
1548.8	53.082
1552.92	1.62988
1557.03	138.704
1561.14	38.0557
1565.25	12.4502
1569.36	194.116
