Measurement: Raman, 514 nm, ccw, Raman Data Processed
Mineral: Axinite-(Fe)
Rruff sample: R040074
Ideal chemistry: Ca_4_Fe^2+^_2_Al_4_[B_2_Si_8_O_30_](OH)_2_
Locality: Luning, Nevada, USA
Source: University of Arizona Mineral Museum
Description: Pale brown wedge-shaped crystal
Measured chemistry: (Ca_0.98_Mn_0.01_)_2_(Fe_0.41_Mg_0.39_Mn_0.20_)Al_1.95_B_1.20_Si_3.90_O_15_(OH)
Pin_id: L00239
Orientation: Laser parallel to b* (0 1 0). Fiducial mark perpendicular to laser is parallel to c [0 0 1]
Raman shift (cm-1)	intensity
81.628	0
85.817	17.88
90.003	97.282
94.188	1029.88
98.37	2612.05
102.55	7653.19
106.729	20720
110.905	19590
115.079	6275.58
119.251	2713.13
123.422	1622.98
127.59	1125.45
131.756	1217.96
135.92	3339.06
140.082	7238.27
144.242	8235.36
148.4	7129.45
152.556	7170.05
156.71	5949.62
160.862	5817.31
165.012	6542.44
169.16	9998.78
173.306	9785.98
177.449	5735.14
181.591	2316.72
185.731	1360.93
189.869	2878.17
194.005	4242.41
198.139	3032.22
202.271	4634.12
206.4	6287.99
210.528	5373.77
214.654	3702.17
218.778	1893.42
222.9	508.593
227.019	71.033
231.137	428.816
235.253	15.549
239.367	1528.53
243.479	3172.96
247.589	4343.34
251.697	5779.34
255.803	6053.14
259.906	7746.6
264.008	12605.5
268.108	18728.9
272.206	20326
276.302	16296.4
280.396	10859.5
284.488	8015.07
288.578	7402.79
292.666	8692.43
296.753	11041.1
300.837	13114.2
304.919	12862.5
308.999	8868.11
313.077	3745.15
317.154	1943.42
321.228	1842.55
325.3	3092.11
329.371	4552.6
333.439	3273.98
337.506	2146.27
341.57	3859.13
345.633	6663.62
349.693	11106.5
353.752	11924.4
357.809	5073.02
361.863	1302.07
365.916	353.358
369.967	270.236
374.016	397.99
378.063	516.04
382.108	1234.33
386.151	4192.82
390.192	8370.46
394.231	5971.61
398.269	2832.14
402.304	2190.87
406.337	2459.62
410.369	6028.43
414.398	17687.8
418.426	18377.9
422.452	8618.38
426.475	8279.24
430.497	9280.38
434.517	5851.75
438.535	2723.28
442.551	2564.93
446.565	2116.64
450.577	458.385
454.588	10.116
458.596	388.618
462.602	579.046
466.607	251.811
470.61	484.189
474.61	1302.81
478.609	4162.69
482.606	12499.9
486.601	14157.8
490.594	4355.98
494.585	834.082
498.575	84.663
502.562	33.921
506.548	90.392
510.531	105.819
514.513	26.782
518.493	255.905
522.47	114.497
526.446	34.733
530.421	362.49
534.393	1049.69
538.363	956.44
542.331	532.726
546.298	368.538
550.263	333.865
554.225	1118.86
558.186	2263.55
562.145	2867.76
566.103	3571.46
570.058	6744.65
574.011	8927.32
577.963	7279.46
581.912	5801.05
585.86	7272.08
589.806	7882.55
593.75	4492.44
597.692	2081.75
601.632	1150.48
605.571	848.622
609.507	1336.17
613.442	2292.25
617.375	3828.88
621.306	3641.88
625.235	1643.05
629.162	515.004
633.087	240.285
637.011	400.452
640.932	1100.04
644.852	1280.52
648.77	1038.15
652.686	669.059
656.6	397.473
660.513	474.536
664.423	1305.02
668.332	2965.38
672.239	6306.1
676.144	8262.56
680.047	5686.2
683.948	3144.85
687.848	2281.03
691.746	2336.38
695.641	3361.29
699.535	5645.8
703.427	11059.9
707.318	23082.6
711.206	43146
715.093	45268.9
718.978	26211.5
722.861	12313.7
726.742	7165.58
730.621	3747.12
734.499	2538.35
738.374	1359.28
742.248	869.908
746.12	930.261
749.99	740.347
753.859	830.176
757.725	1139.76
761.59	1879.12
765.453	2868.26
769.314	2787.2
773.174	1416.38
777.031	556.322
780.887	7.137
784.741	117.876
788.593	95.896
792.443	329.76
796.291	373.547
800.138	339.07
803.983	324.374
807.826	1537.66
811.667	3126.59
815.507	2189.25
819.344	912.977
823.18	76.838
827.014	20.865
830.847	105.354
834.677	20.527
838.506	166.446
842.333	312.741
846.158	959.096
849.981	1445.65
853.803	1462.49
857.623	1149.58
861.441	1106.93
865.257	1014.44
869.071	964.514
872.884	1380.41
876.695	2158.88
880.504	2907.75
884.311	3557
888.117	5686.66
891.92	9456.65
895.722	14426.9
899.523	17367.5
903.321	15088.3
907.118	12749.4
910.913	10570.8
914.706	7712.44
918.497	5744.35
922.287	5516.54
926.075	6559
929.861	8091.71
933.645	6952.05
937.428	5657.01
941.208	5500.92
944.987	6693.83
948.765	9428.69
952.54	11617.3
956.314	11418.5
960.086	12873.6
963.856	14459
967.625	13014.7
971.392	12820.7
975.157	15657
978.92	19660.6
982.682	17810.8
986.441	15377.1
990.199	15154.6
993.956	14103.6
997.71	14091.8
1001.46	15814.4
1005.21	15391.3
1008.96	11618.1
1012.71	7069.35
1016.46	4634.58
1020.2	3100.22
1023.94	2114.62
1027.68	1431.03
1031.42	1207.89
1035.16	1139.7
1038.9	1615.5
1042.63	1963.79
1046.36	1415.38
1050.09	1197.51
1053.82	1122.79
1057.55	1549.73
1061.27	1576.78
1065	1654.32
1068.72	1190.93
1072.44	1287.33
1076.16	1674.03
1079.87	2230.22
1083.59	2744.69
1087.3	2187.82
1091.01	1590.76
1094.72	1564.65
1098.43	2219.47
1102.14	2923.38
1105.84	3526.83
1109.55	3010.96
1113.25	2343.49
1116.94	1614.98
1120.64	1515.72
1124.34	976.461
1128.03	596.131
1131.73	114.174
1135.42	59.311
1139.11	24.898
1142.8	170.938
1146.48	487.004
1150.16	293.15
1153.85	19.092
1157.53	144.617
1161.21	49.98
1164.88	184.414
1168.56	58.506
1172.23	17.785
1175.91	284.531
1179.58	171.828
1183.25	69.891
1186.91	28.869
1190.58	78.799
1194.24	209.828
1197.91	432.266
1201.57	416.455
1205.23	642.389
1208.88	577.129
1212.54	570.432
1216.19	374.74
1219.85	341.555
1223.5	376.689
1227.14	551.252
1230.79	450.996
1234.44	577.857
1238.08	805.832
1241.72	669.223
1245.37	342.475
1249	227.811
1252.64	0.264
1256.28	99.801
1259.91	303.951
1263.54	260.518
1267.17	490.209
1270.8	479.121
1274.43	0
