Measurement: Raman, 514 nm, ccw, Raman Data Processed
Mineral: Axinite-(Fe)
Rruff sample: R060194
Ideal chemistry: Ca_4_Fe^2+^_2_Al_4_[B_2_Si_8_O_30_](OH)_2_
Locality: near Dalbandi, Baluchistan Province, Pakistan
Source: Herbert Obodda
Description: Brown transparent wedge-shaped single crystal
Measured chemistry: Ca_2.00_(Fe^2+^_0.66_Mg_0.30_Mn_0.04_)Al_2.00_BSi_4.00_O_15_(OH)
Pin_id: L00543
Orientation: Laser parallel to (-1 0 -1). Fiducial mark perpendicular to laser is parallel to b [0 1 0]
Raman shift (cm-1)	intensity
53.91	0
58.864	130.079
63.817	153.52
68.767	22.7168
73.714	78.6885
78.659	69.6547
83.602	456.504
88.542	1277.48
93.48	2779.3
98.416	3280.11
103.349	4920.64
108.28	9734.41
113.208	4921.23
118.134	2869.26
123.058	2573.94
127.979	1717.1
132.898	986.372
137.814	1477.54
142.728	2691.65
147.639	3349.83
152.549	5628.03
157.455	7376.43
162.359	7302.07
167.261	13315.9
172.161	18260.9
177.058	7389.21
181.952	2157.89
186.845	1237.33
191.734	3271.26
196.622	4987.99
201.507	5978.9
206.389	10852.2
211.269	15263.6
216.147	12339.8
221.022	6968.95
225.895	3186.68
230.765	1468.91
235.633	1076.35
240.498	2000.51
245.361	4301.84
250.222	6205.97
255.08	6481.22
259.936	5929.32
264.789	8122.35
269.64	12095.9
274.488	12592.9
279.334	8312.29
284.178	4413.99
289.019	5316.97
293.857	11178.1
298.693	18324.3
303.527	20412.5
308.358	17466.7
313.187	10295.1
318.013	10827.3
322.837	6869.48
327.659	2322.55
332.478	1617.1
337.294	2953.64
342.108	8077.85
346.92	12808.3
351.729	13741.7
356.535	8030.85
361.34	2088.88
366.141	16.9868
370.94	366.66
375.737	320.451
380.531	863.032
385.323	5043.33
390.113	11334.8
394.9	11742.9
399.684	5328.8
404.466	2310.57
409.245	1694.22
414.022	3455.71
418.797	7691.01
423.569	10369.1
428.338	18891.9
433.105	17079.5
437.87	7047.75
442.632	5038.63
447.391	3985.1
452.149	653.125
456.903	59.3726
461.655	290.506
466.405	32.2275
471.152	661.398
475.897	58.9341
480.639	936.718
485.378	3494.81
490.116	1094.26
494.85	345.381
499.582	222.877
504.312	325.03
509.039	1290.78
513.764	1881.26
518.486	1119.22
523.206	224.466
527.923	186.672
532.638	62.7959
537.35	1204.69
542.059	3688.59
546.766	5848.67
551.471	3656.53
556.173	2940.47
560.873	4881.7
565.57	3900.13
570.264	3878.26
574.957	4932.48
579.646	4918.57
584.333	7270.52
589.018	11492.3
593.7	7276.89
598.379	2833.04
603.056	1664.26
607.73	2491.01
612.402	3243.97
617.072	3050.19
621.739	2255.9
626.403	719.488
631.065	144.933
635.724	107.218
640.381	640.843
645.035	1225.35
649.687	562.754
654.336	1.375
658.983	8.08984
663.627	643.545
668.268	3005.46
672.907	8297.31
677.544	12263
682.178	6924.92
686.809	2992.45
691.438	2257.46
696.065	3431.6
700.688	7130.29
705.31	16680.3
709.929	37339
714.545	52484.7
719.158	30971.5
723.77	13562.1
728.378	6628.52
732.984	3733.69
737.588	2351.7
742.189	1716.31
746.787	1349.94
751.383	1639.62
755.976	2398.11
760.567	4199.47
765.155	6658.65
769.741	7007.52
774.324	4428.78
778.904	2231.69
783.482	1185.45
788.058	670.143
792.631	310.588
797.201	189.147
801.769	167.393
806.334	324.123
810.897	609.325
815.457	501.619
820.014	10.1577
824.569	142.694
829.122	160.061
833.671	283.863
838.219	277.416
842.763	101.43
847.306	82.3394
851.845	199.877
856.382	439.44
860.917	702.049
865.448	875.721
869.978	924.472
874.505	880.318
879.029	1022.28
883.55	1100.39
888.069	1416.67
892.586	2481.14
897.1	4255.82
901.611	6066.81
906.12	6984.12
910.626	4883.02
915.129	2536.27
919.63	1661.82
924.129	1274.63
928.625	1514.66
933.118	1690.16
937.609	1786.99
942.097	2066.1
946.582	2736.48
951.065	4454.17
955.546	7905.98
960.023	15351.5
964.499	23812.2
968.971	20617.6
973.441	17683.1
977.909	23052.2
982.374	24178.7
986.836	17841.7
991.295	14455.6
995.753	14785.1
1000.21	16985.2
1004.66	17467.8
1009.11	12796.3
1013.55	7434.51
1018	4284.23
1022.44	3110.55
1026.88	3168.95
1031.32	3528.78
1035.75	3449.88
1040.18	3846.41
1044.61	3751.88
1049.04	4101.38
1053.46	5615.88
1057.88	6196.04
1062.3	5213.23
1066.71	3280.66
1071.13	2394.49
1075.54	2977.97
1079.94	5803.09
1084.35	8839.84
1088.75	6471.52
1093.15	3514.59
1097.55	2362.72
1101.94	1806.53
1106.34	1776.09
1110.73	1324.4
1115.11	924.441
1119.5	561.129
1123.88	298.597
1128.26	216.945
1132.63	131.004
1137.01	32.8806
1141.38	18.1352
1145.75	27.1797
1150.12	58.3162
1154.48	40.405
1158.84	54.0178
1163.2	92.9512
1167.55	39.3149
1171.91	5.41772
1176.26	0.505859
1180.61	44.6636
1184.95	23.0627
1189.29	17.947
1193.63	38.1746
1197.97	26.0552
1202.31	89.9895
1206.64	13.3965
1210.97	19.9204
1215.29	5.49487
1219.62	4.72144
1223.94	24.6785
1228.26	51.0469
1232.57	11.2383
1236.89	134.86
1241.2	121.714
1245.51	172.389
1249.81	155.675
1254.12	137.512
1258.42	146.929
1262.72	154.919
1267.01	171.508
1271.3	238.124
1275.59	250.152
1279.88	193.302
1284.17	239.053
1288.45	198.45
1292.73	177.641
1297.01	181.03
1301.28	65.5964
1305.55	113.62
1309.82	202.103
1314.09	242.235
1318.35	188.661
1322.61	266.471
1326.87	148.848
1331.13	128.665
1335.38	148.032
1339.63	94.0688
1343.88	87.7625
1348.12	134.257
1352.37	102.094
1356.61	155.542
1360.85	146.954
1365.08	173.452
1369.31	181.003
1373.54	147.043
1377.77	269.041
1381.99	194.974
1386.22	157.799
1390.43	137.221
1394.65	104.847
1398.87	52.2585
1403.08	204.661
1407.29	137.716
1411.49	146.501
1415.69	103.885
1419.89	117.3
1424.09	198.573
1428.29	273.913
1432.48	242.456
1436.67	223.268
1440.86	359.574
1445.04	394.457
1449.23	401.725
1453.4	443.034
1457.58	453.97
1461.76	347.531
1465.93	277.401
1470.1	156.907
1474.26	125.499
1478.43	147.814
1482.59	79.9739
1486.75	113.378
1490.9	94.5823
1495.06	25.0144
1499.21	30.3472
1503.35	11.5095
1507.5	31.97
1511.64	103.711
1515.78	24.6953
1519.92	49.9697
1524.05	14.3611
1528.18	90.8628
1532.31	89.6294
1536.44	163.7
1540.56	169.382
1544.69	140.718
1548.8	57.9573
1552.92	81.8303
1557.03	63.3875
1561.14	2.12671
1565.25	37.1572
1569.36	100.5
