Measurement: Raman, 514 nm, ccw, Raman Data Processed
Mineral: Axinite-(Fe)
Rruff sample: R060558
Ideal chemistry: Ca_4_Fe^2+^_2_Al_4_[B_2_Si_8_O_30_](OH)_2_
Locality: unknown
Source: Gemological Institute of America
Description: Brown flattened crystal
Measured chemistry: Ca_2.00_(Fe^2+^_0.60_Mg_0.35_Mn_0.05_)_Î£=1_Al_2.00_BSi_4.00_O_15_(OH) ; B not measured
Pin_id: M01972
Orientation: Laser parallel to (1 0 1). Fiducial mark perpendicular to laser is parallel to -b [0 -1 0]
Raman shift (cm-1)	intensity
130.102	0
135.065	7.19092
140.025	1281.92
144.981	3978.3
149.935	8021.05
154.886	7294.91
159.833	4453.04
164.777	5490.54
169.718	8907.79
174.656	7282.48
179.591	2384.42
184.523	999.596
189.452	1379.56
194.377	2555.28
199.3	1827.35
204.219	2812.81
209.136	3715.59
214.049	3761.65
218.959	2718.06
223.866	1066.34
228.77	352.953
233.671	635.604
238.569	102.806
243.464	1155.29
248.356	1981.82
253.244	2713.24
258.13	2483.72
263.013	2915.89
267.892	3871.95
272.769	3635.22
277.643	2449.87
282.513	2006.3
287.381	2015.89
292.245	2275.69
297.106	4056.89
301.965	6021.72
306.82	6748.99
311.673	4754.24
316.522	2922.9
321.369	2362.19
326.212	1456.91
331.052	1745.74
335.89	2930.93
340.724	6528.67
345.556	9733.83
350.384	7548.31
355.21	3651.01
360.032	832.905
364.852	128.859
369.669	588.807
374.482	1113.54
379.293	1258.15
384.101	3786.12
388.906	8468.78
393.708	9917.84
398.507	5671.1
403.303	3114.92
408.096	2141.03
412.886	3497.47
417.673	6371.18
422.457	6377.14
427.239	6169.54
432.017	5006.33
436.793	2300.35
441.566	1008.54
446.335	888.844
451.102	763.225
455.866	920.668
460.627	1105.15
465.385	1533.65
470.141	2458.14
474.893	3820.68
479.643	8430.3
484.389	15471
489.133	12144.7
493.874	3982.37
498.612	2332.04
503.347	2602.53
508.08	2859.94
512.809	1627.47
517.536	177.751
522.26	419.881
526.981	532.479
531.699	326.243
536.414	81.8594
541.127	265.217
545.836	443.843
550.543	512.502
555.247	875.695
559.948	2037.42
564.647	2012.62
569.342	1584.29
574.035	2084.39
578.725	2273.9
583.412	2292.8
588.096	2551.09
592.778	2041.73
597.457	1248.71
602.133	1277.02
606.806	2490.65
611.476	4931.58
616.144	8352.79
620.809	9633.28
625.471	5455.04
630.13	1660.04
634.787	350.283
639.441	295.692
644.092	443.227
648.74	424.237
653.386	164.691
658.029	456.136
662.669	982.761
667.306	2479.8
671.941	5363.75
676.572	7917.61
681.202	5948.23
685.828	3109.8
690.452	2306.69
695.073	2830.22
699.691	5215.55
704.307	11368
708.919	23871.6
713.53	34519.5
718.137	25419.6
722.742	11245.9
727.344	4922.48
731.943	2337.34
736.54	1301.5
741.134	766.971
745.725	573.778
750.314	718.94
754.9	1178.48
759.483	2185.43
764.064	3362.81
768.642	3738.65
773.217	2476.75
777.79	976.322
782.36	289.231
786.927	184.911
791.492	361.223
796.054	384.252
800.613	431.253
805.17	149.564
809.724	475.839
814.275	1207.61
818.824	715.693
823.37	229.716
827.914	12.7065
832.455	51.6738
836.993	128.645
841.529	458.695
846.062	1006.86
850.593	1272.18
855.121	1354.69
859.646	1257.43
864.169	1296.42
868.689	1172.7
873.207	1042.31
877.722	1157.28
882.234	1325.65
886.744	1676.46
891.251	2828.85
895.756	4655.95
900.258	6747.87
904.757	7412.6
909.254	6216.3
913.749	4126.09
918.24	2458.82
922.73	2154.22
927.216	2558.86
931.701	3394.25
936.182	3729.16
940.661	4453.27
945.138	7153.43
949.612	12334.4
954.083	17759.5
958.552	23520.8
963.019	30592.3
967.483	27581.7
971.944	19051.5
976.403	16807.5
980.859	16025.6
985.313	12882.8
989.764	10260.1
994.213	9905.4
998.659	11440.8
1003.1	13297.3
1007.54	11440.9
1011.98	7061.53
1016.42	3861.1
1020.85	2517.95
1025.29	2325.88
1029.71	2144.91
1034.14	1698.79
1038.56	1509.49
1042.99	1743.82
1047.4	2050.28
1051.82	2786.06
1056.23	3874.32
1060.65	4481.22
1065.06	3732.57
1069.46	2462.78
1073.87	2256.96
1078.27	3319.44
1082.67	4547.46
1087.07	3916.15
1091.46	2116.88
1095.85	1557.89
1100.24	1811.06
1104.63	2666.5
1109.01	2655.17
1113.39	1934.01
1117.78	1321.5
1122.15	785.856
1126.53	523.019
1130.9	413.472
1135.27	169.352
1139.64	217.898
1144	5.88135
1148.37	8.69678
1152.73	106.826
1157.09	114.946
1161.44	115.701
1165.79	74.584
1170.14	126.514
1174.49	71.8667
1178.84	10.9062
1183.18	14.4878
1187.53	44.9185
1191.86	39.2461
1196.2	30.7959
1200.54	6.57519
1204.87	92.8125
1209.2	70.0801
1213.53	13.1455
1217.85	63.2046
1222.17	93.4824
1226.49	88.7637
1230.81	188.999
1235.13	262.505
1239.44	245.306
1243.75	261.543
1248.06	324.442
1252.37	265.785
1256.67	330.344
1260.97	205.879
1265.27	310.647
1269.57	386.87
1273.86	412.369
1278.15	458.968
1282.44	429.98
1286.73	361.036
1291.02	338.875
1295.3	335.793
1299.58	378.271
1303.86	274.333
1308.13	394.66
1312.41	350.952
1316.68	299.104
1320.95	453.967
1325.22	251.492
1329.48	196.961
1333.74	169.801
1338	191.569
1342.26	87.5811
1346.52	200.648
1350.77	230.315
1355.02	39.5395
1359.27	131.329
1363.52	204.968
1367.76	174.072
1372	222.814
1376.24	238.342
1380.48	261.261
1384.72	170.578
1388.95	211.477
1393.18	174.544
1397.41	238.345
1401.63	139.574
1405.86	272.778
1410.08	113.707
1414.3	223.814
1418.52	175.484
1422.73	182.252
1426.95	141.577
1431.16	318.536
1435.37	234.339
1439.57	289.668
1443.78	620.255
1447.98	514.632
1452.18	731.201
1456.38	685.602
1460.57	550.244
1464.76	507.607
1468.95	379.034
1473.14	319.655
1477.33	173.041
1481.51	228.764
1485.7	12.2476
1489.88	127.014
1494.05	31.7285
1498.23	5.37793
1502.4	5.18555
1506.57	10.4048
1510.74	97.3716
1514.91	82.8311
1519.08	50.2412
1523.24	194.375
1527.4	89.7427
1531.56	149.408
1535.71	139.412
1539.87	66.9043
1544.02	104.841
1548.17	0.774902
