Measurement: Raman, 514 nm, ccw, Raman Data Processed
Mineral: Axinite-(Fe)
Rruff sample: R060183
Ideal chemistry: Ca_4_Fe^2+^_2_Al_4_[B_2_Si_8_O_30_](OH)_2_
Locality: Skagit Bluffs, near Manning Park, British Columbia, Canada
Source: Lloyd Twaites
Description: Light-pink transparent axe-head-shaped single crystal
Measured chemistry: Ca_2.00_(Fe^2+^_0.58_Mn_0.23_Mg_0.19_)Al_2.00_B_1.00_Si_4.00_O_15_(OH)
Pin_id: L01506
Orientation: Laser parallel to (-1 -1 0). Fiducial mark perpendicular to laser is parallel to c [0 0 1]
Raman shift (cm-1)	intensity
52.671	0
57.626	271.688
62.579	281.483
67.529	86.4575
72.477	14.3362
77.423	324.829
82.367	1391.11
87.308	2698.24
92.246	5681.2
97.182	7407.9
102.116	8161.33
107.047	11888.6
111.976	8953.51
116.903	6728.97
121.827	5698.23
126.749	6302.41
131.668	5751.09
136.585	5036.81
141.5	7163.06
146.412	12878
151.321	16230.1
156.229	9617.14
161.134	7077.37
166.036	10435.7
170.936	16745.1
175.834	12255.2
180.729	6412.96
185.622	4297.94
190.512	6183.51
195.4	6222.85
200.286	6624
205.169	9434.97
210.049	10326.4
214.928	8868.66
219.803	6771.99
224.677	2710.19
229.548	963.408
234.416	1008.1
239.282	2386.81
244.146	3872.11
249.007	3953.53
253.866	4746.44
258.722	4423.94
263.576	4672.17
268.427	6043.8
273.276	6843.85
278.123	5628.12
282.967	4605.58
287.809	3474.16
292.648	3289.73
297.485	4859.17
302.319	8840.36
307.151	10405.1
311.98	5224.41
316.807	4407.98
321.631	4884.73
326.454	3454.52
331.273	3082.2
336.09	5252.64
340.905	10716.7
345.717	11007.4
350.527	9473.43
355.334	3820.29
360.139	396.106
364.941	600.602
369.741	365.336
374.538	302.09
379.333	1724.35
384.126	6133.87
388.916	12330.5
393.703	9941.16
398.488	4602.9
403.271	1509.15
408.051	1997.59
412.828	5311.5
417.603	8801.57
422.376	8777.87
427.146	7850.31
431.914	4566.75
436.679	1307.1
441.442	863.249
446.202	646.084
450.96	429.498
455.715	813.39
460.467	710.655
465.218	1103.19
469.965	2578.9
474.711	5194.69
479.454	13858.5
484.194	23622.1
488.932	11043.5
493.667	3749.9
498.4	2596.44
503.13	3231
507.858	2336.73
512.583	841.863
517.306	261.999
522.026	744.754
526.744	660.909
531.459	278.51
536.172	68.7705
540.882	48.8662
545.59	171.632
550.295	307.754
554.998	1164.14
559.698	2159.28
564.396	2568.8
569.091	3515.57
573.784	4211.54
578.474	3414.64
583.162	3017.82
587.847	3362.03
592.529	2154.2
597.209	1156.29
601.887	1428.24
606.562	3533.02
611.235	7224.57
615.905	11977.9
620.572	13091.8
625.237	5949.02
629.9	1947.75
634.56	864.617
639.217	955.952
643.872	1262.75
648.524	1319.17
653.174	1639.83
657.821	2919.21
662.466	5746.93
667.108	8099.31
671.748	9641.74
676.385	12262.5
681.02	9099.6
685.652	5041.44
690.281	3858.56
694.908	4806.64
699.533	8386.43
704.155	16878.5
708.774	33389.3
713.391	47532.7
718.005	34571.8
722.617	16159.5
727.226	7381.01
731.833	3858.23
736.437	2179.21
741.039	1477.99
745.638	1341.6
750.234	1376.06
754.828	1982.41
759.419	3118.71
764.008	5019.98
768.595	4877.28
773.178	2899.17
777.759	1265.72
782.338	516.417
786.914	36.0801
791.488	448.961
796.059	666.256
800.627	473.515
805.193	20.1719
809.756	1142.86
814.317	1648.7
818.875	699.113
823.431	96.1289
827.984	68.7891
832.534	60.3603
837.082	108.291
841.627	702.833
846.17	1136.35
850.71	1425.9
855.248	1294.54
859.783	1581.32
864.316	1711.29
868.846	1780.51
873.373	1708.02
877.898	1799.89
882.42	2173.18
886.94	3241.98
891.457	5528.48
895.971	8976.82
900.483	12213.2
904.993	11582.7
909.5	9025.34
914.004	6237.38
918.505	4929.82
923.004	4584.63
927.501	5313.9
931.995	5644.52
936.486	6251.99
940.975	8291.1
945.461	13554.2
949.945	21034.9
954.426	26677.2
958.904	34731.6
963.38	41614.7
967.853	32854.6
972.324	24603.2
976.792	23591
981.258	21572.4
985.72	17849.3
990.181	16179.7
994.639	16054.6
999.094	17858.9
1003.55	19438.6
1008	15686.7
1012.44	9633.74
1016.89	5867.7
1021.33	4558.76
1025.77	4199.98
1030.21	3522.53
1034.64	2675.56
1039.07	2795.29
1043.5	3460.86
1047.93	4520.16
1052.35	6025.6
1056.78	7339.31
1061.19	6630.38
1065.61	4482.53
1070.02	3430.21
1074.43	3492.52
1078.84	5295.42
1083.25	5809.58
1087.65	3689.94
1092.05	2552.28
1096.45	2606.01
1100.85	3549.65
1105.24	4213.32
1109.63	3624.04
1114.02	2567.39
1118.4	2042.55
1122.78	1652.88
1127.16	1111.71
1131.54	622.314
1135.92	233.414
1140.29	70.0615
1144.66	135.431
1149.02	27.1904
1153.39	133.862
1157.75	93.2178
1162.11	130.253
1166.46	48.3477
1170.82	257.575
1175.17	143.915
1179.52	108.237
1183.86	92.4502
1188.21	77.8838
1192.55	14.4863
1196.89	883.381
1201.22	20.5908
1205.55	64.2529
1209.88	35.2178
1214.21	142.644
1218.54	183.273
1222.86	155.69
1227.18	94.54
1231.5	286.306
1235.81	225.364
1240.12	146.459
1244.43	328.08
1248.74	339.913
1253.04	310.687
1257.34	340.639
1261.64	300.978
1265.94	577.097
1270.23	474.706
1274.52	567.441
1278.81	395.733
1283.1	493.228
1287.38	408.29
1291.66	544.681
1295.94	428.003
1300.21	571.407
1304.48	392.535
1308.75	345.777
1313.02	359.111
1317.29	485.713
1321.55	509.131
1325.81	401.465
1330.06	491.139
1334.32	505.852
1338.57	299.342
1342.82	366.066
1347.06	489.113
1351.31	349.035
1355.55	405.752
1359.79	333.988
1364.02	377.555
1368.26	286.594
1372.49	237.234
1376.71	324.81
1380.94	367.516
1385.16	331.062
1389.38	233.445
1393.6	207.127
1397.81	201.613
1402.02	58.9531
1406.23	177.742
1410.44	288.531
1414.64	262.523
1418.85	155.697
1423.04	321.211
1427.24	140.234
1431.43	191.273
1435.62	199.889
1439.81	224.748
1444	398.353
1448.18	489.486
1452.36	527.367
1456.54	415.703
1460.71	201.697
1464.89	326.795
1469.06	214.67
1473.22	305.035
1477.39	39.7617
1481.55	116.357
1485.71	183.065
1489.86	10.9082
1494.02	186.609
1498.17	91.9648
1502.32	33.1445
1506.46	26.4414
1510.61	225.766
1514.75	24.5312
1518.88	229.279
1523.02	192.873
1527.15	165.041
1531.28	185.244
1535.41	231.699
1539.53	236.572
1543.66	195.615
1547.78	144.977
1551.89	334.203
1556.01	304.801
1560.12	151.352
1564.23	93.582
1568.33	3.57812
