Measurement: Raman, 514 nm, ccw, Raman Data Processed
Mineral: Axinite-(Fe)
Rruff sample: R050026
Ideal chemistry: Ca_4_Fe^2+^_2_Al_4_[B_2_Si_8_O_30_](OH)_2_
Locality: Pouyva mine, Polar Urals, Western Siberian Region, Russia
Source: Rock Currier
Description: Brown transparent flat crystal
Measured chemistry: Ca_2.00_(Fe^2+^_0.61_Mn_0.26_Mg_0.13_)Al_2.00_BSi_4_O_15_(OH)
Pin_id: L00053
Orientation: Laser parallel to (0 1 1). Fiducial mark perpendicular to laser is parallel to a [1 0 0]
Raman shift (cm-1)	intensity
91.284	0
95.465	128.263
99.644	486.425
103.82	823.013
107.995	1946.42
112.168	3896.81
116.339	1695.13
120.508	374.417
124.675	73.216
128.84	73.947
133.003	50.738
137.164	499.036
141.323	1516.63
145.48	1137.86
149.635	1248.46
153.788	1100.28
157.939	468.969
162.088	423.67
166.235	793.981
170.38	1786.52
174.523	2530.8
178.664	1205.86
182.803	229.976
186.94	97.869
191.076	175.282
195.209	1047.88
199.34	742.334
203.47	1282.92
207.597	2893.47
211.722	2992.76
215.846	2010.63
219.967	1121.07
224.087	370.618
228.204	6.506
232.32	205.286
236.434	135.399
240.545	11.889
244.655	356.625
248.763	589.926
252.869	731.391
256.973	1189.16
261.075	881.183
265.175	988.238
269.273	1678.59
273.369	2782.12
277.463	3590.27
281.556	2829.49
285.646	1725.98
289.734	1462.61
293.821	1671.98
297.905	2104.49
301.988	2446.64
306.069	3620.41
310.147	4044.03
314.224	2506.64
318.299	2381.51
322.372	2648.81
326.443	1834.98
330.512	1574.51
334.579	1029.26
338.645	966.92
342.708	2057.59
346.769	3009.72
350.829	2657.16
354.887	2632.73
358.942	1275.75
362.996	504.946
367.048	188.296
371.098	105.657
375.146	205.085
379.192	249.45
383.236	420.613
387.279	1208.11
391.319	2310
395.358	1748.89
399.394	779.702
403.429	445.831
407.462	389.754
411.493	694.437
415.522	2110.39
419.549	4284.26
423.575	2861.88
427.598	2788.23
431.619	2777.3
435.639	1792.11
439.657	890.662
443.673	1049.98
447.687	1173.13
451.699	350.164
455.709	55.844
459.717	10.676
463.724	28.635
467.728	105.251
471.731	23.317
475.732	203.41
479.731	713.743
483.728	1812.84
487.723	2229.84
491.716	851.772
495.708	391.809
499.697	374.656
503.685	666.168
507.671	1149.32
511.655	1554.9
515.637	1313.7
519.617	607.539
523.596	232.373
527.572	111.912
531.547	128.473
535.52	213.466
539.491	260.596
543.46	477.417
547.427	687.632
551.393	483.812
555.356	447.302
559.318	551.321
563.278	764.679
567.236	828.062
571.192	1021.37
575.147	1331.58
579.099	1155.68
583.05	1127.69
586.999	1495.61
590.946	1726.43
594.891	1105.16
598.834	499.807
602.776	275.366
606.715	182.841
610.653	163.232
614.589	261.972
618.523	360.145
622.456	305.666
626.386	79.382
630.315	86.482
634.242	34.511
638.167	142.513
642.09	273.369
646.012	355.742
649.931	165.79
653.849	9.631
657.765	42.057
661.679	7.087
665.592	4.397
669.502	138.848
673.411	604.624
677.318	1344.79
681.223	1236.37
685.126	597.19
689.028	319.941
692.927	347.789
696.825	507.135
700.721	747.459
704.616	1508.74
708.508	3126.97
712.399	6348.15
716.288	8642.27
720.175	5772.34
724.06	2786.35
727.944	1429.3
731.825	826.194
735.705	548.033
739.584	389.821
743.46	276.559
747.334	234.564
751.207	209.895
755.078	306.499
758.947	452.061
762.815	796.522
766.68	1181.84
770.544	1254.31
774.406	1023.78
778.267	637.396
782.125	363.146
785.982	128.113
789.837	83.731
793.69	1.293
797.542	13.623
801.391	0.582
805.239	30.919
809.085	104.081
812.93	234.948
816.772	257.74
820.613	74.824
824.452	63.012
828.29	59.882
832.125	43.96
835.959	17.233
839.791	22.398
843.621	57.032
847.45	143.692
851.277	186.39
855.102	250.12
858.925	331.902
862.746	378.731
866.566	336.596
870.384	368.534
874.2	357.554
878.015	392.638
881.828	533.767
885.639	682.969
889.448	870.225
893.256	1242.57
897.061	1727.01
900.865	2234.54
904.668	2346.14
908.468	2367.8
912.267	2002.54
916.064	1361.34
919.86	954.24
923.653	849.208
927.445	1000.25
931.236	1099.36
935.024	981.539
938.811	809.809
942.596	797.248
946.379	1074.54
950.161	1504.79
953.94	2054.78
957.719	2636.28
961.495	3750.22
965.27	4598.25
969.043	4096.53
972.814	3631
976.583	4203.2
980.351	5045.81
984.117	4362.81
987.882	3579.99
991.644	3567.56
995.405	3639.75
999.165	3969.88
1002.92	4606.37
1006.68	4414.34
1010.43	3123.86
1014.18	1948.42
1017.93	1357.4
1021.68	1104.17
1025.43	1174.37
1029.18	1233.26
1032.92	940.739
1036.66	621.795
1040.4	611.197
1044.14	609.541
1047.88	652.029
1051.62	801.664
1055.35	883.36
1059.08	824.76
1062.81	667.248
1066.54	439.445
1070.27	392.346
1073.99	509.525
1077.72	716.86
1081.44	975.135
1085.16	1074.07
1088.88	799.115
1092.59	561.384
1096.31	405.715
1100.02	448.621
1103.73	462.9
1107.44	483.294
1111.15	374.904
1114.86	220.415
1118.57	142.24
1122.27	107.323
1125.97	158.028
1129.67	103.009
1133.37	76.284
1137.07	47.336
1140.76	45.897
1144.45	19.177
1148.15	32.527
1151.84	5.366
1155.53	17.046
1159.21	30.157
1162.9	45.204
1166.58	64.362
1170.26	44.918
1173.94	3.47
1177.62	9.331
1181.3	15.232
1184.97	46.993
1188.65	22.85
1192.32	10.97
1195.99	32.204
1199.66	0.849
1203.33	3.779
1206.99	23.251
1210.65	43.926
1214.32	26.314
1217.98	55.886
1221.64	30.244
1225.29	9.666
1228.95	39.217
1232.6	39.239
1236.26	24.806
1239.91	39.524
1243.56	79.084
1247.2	90.629
1250.85	48.907
1254.49	34.126
1258.13	49.284
1261.78	22.417
1265.41	10.219
1269.05	46.392
1272.69	69.027
1276.32	112.445
1279.95	124.733
1283.59	80.192
1287.21	45.348
1290.84	38.119
1294.47	12.581
1298.09	25.092
1301.72	38.857
1305.34	92.442
1308.96	28.49
1312.58	72.443
1316.19	40.389
1319.81	41.148
1323.42	60.218
1327.03	32.569
1330.64	25.826
1334.25	4.674
1337.86	49.173
1341.46	77.992
1345.07	60.387
1348.67	59.429
1352.27	92.284
1355.87	46.567
1359.46	20.292
1363.06	25.279
1366.65	42.733
1370.25	74.946
1373.84	39.402
1377.43	80.328
1381.02	83.528
1384.6	56.008
1388.18	108.941
1391.77	59.148
1395.35	58.983
1398.93	41.609
1402.51	22.244
1406.08	72.543
1409.66	89.884
1413.23	57.567
1416.8	123.264
1420.37	130.939
1423.94	58.782
1427.51	123.719
1431.08	42.274
1434.64	27.68
1438.2	36.967
1441.76	31.17
1445.32	27.264
1448.88	119.154
1452.43	83.701
1455.99	105.018
1459.54	117.087
1463.09	68.855
1466.64	106.42
1470.19	29.499
1473.74	63.21
1477.28	27.197
1480.83	41.355
1484.37	56.777
1487.91	59.67
1491.45	102.779
1494.98	43.081
1498.52	63.601
1502.05	72.529
1505.59	62.35
1509.12	83.314
1512.65	5.381
1516.17	0
