Measurement: Raman, 514 nm, ccw, Raman Data Processed
Mineral: Axinite-(Fe)
Rruff sample: R060194
Ideal chemistry: Ca_4_Fe^2+^_2_Al_4_[B_2_Si_8_O_30_](OH)_2_
Locality: near Dalbandi, Baluchistan Province, Pakistan
Source: Herbert Obodda
Description: Brown transparent wedge-shaped single crystal
Measured chemistry: Ca_2.00_(Fe^2+^_0.66_Mg_0.30_Mn_0.04_)Al_2.00_BSi_4.00_O_15_(OH)
Pin_id: L00599
Orientation: Laser parallel to (0 -1 -1). Fiducial mark perpendicular to laser is parallel to a [1 0 0]
Raman shift (cm-1)	intensity
53.91	0
58.864	231.795
63.817	86.2095
68.767	32.9585
73.714	249.566
78.659	221.843
83.602	484.643
88.542	1096.59
93.48	3457.09
98.416	7075.98
103.349	12313.4
108.28	24935.6
113.208	18653.4
118.134	7479.5
123.058	3264.97
127.979	2434.7
132.898	3263.1
137.814	6049.72
142.728	9063.94
147.639	7891.78
152.549	8523.06
157.455	7047.01
162.359	7609.66
167.261	11134.9
172.161	15117.6
177.058	10176.7
181.952	3680.87
186.845	2049.02
191.734	4511.65
196.622	7482.16
201.507	9761.66
206.389	15066.7
211.269	16698
216.147	12874.1
221.022	7018.8
225.895	2987.5
230.765	904.195
235.633	402.592
240.498	1291.52
245.361	2538.06
250.222	4582.75
255.08	7030.02
259.936	9815.58
264.789	11518.1
269.64	18486.4
274.488	22835.1
279.334	18257.1
284.178	11331.3
289.019	9763.62
293.857	12742.9
298.693	17446.1
303.527	20042.9
308.358	20701.4
313.187	16748.5
318.013	15856.6
322.837	12926.5
327.659	7201.66
332.478	5530.66
337.294	6351.85
342.108	12101
346.92	17314.4
351.729	15921.1
356.535	10489.1
361.34	3074.62
366.141	317.088
370.94	383.892
375.737	200.504
380.531	899.56
385.323	4397.84
390.113	9779.87
394.9	8608.03
399.684	4051.1
404.466	2230.31
409.245	3962.51
414.022	10703.7
418.797	20069.4
423.569	17594.6
428.338	19139.2
433.105	17432.2
437.87	8955.29
442.632	6947.57
447.391	6768.9
452.149	1911.18
456.903	275.675
461.655	784.471
466.405	832.481
471.152	312.536
475.897	1349.22
480.639	5536.36
485.378	11188
490.116	6730.03
494.85	2043.54
499.582	2084.36
504.312	4075.93
509.039	6234.5
513.764	6137.26
518.486	3216.69
523.206	1079.38
527.923	252.642
532.638	662.852
537.35	1492.47
542.059	2797.64
546.766	3859.08
551.471	3286.54
556.173	2565.04
560.873	3983.78
565.57	4277.75
570.264	4913.14
574.957	6491.77
579.646	6212.6
584.333	7060.6
589.018	10024.7
593.7	8382.93
598.379	3571.98
603.056	1276.94
607.73	780.896
612.402	1138.33
617.072	1773.78
621.739	1464.66
626.403	391.022
631.065	356.937
635.724	123.384
640.381	1352
645.035	2356.04
649.687	1437.49
654.336	282.794
658.983	288.872
663.627	137.383
668.268	1659.04
672.907	5041.61
677.544	8111.65
682.178	6095.06
686.809	2427.51
691.438	1794.29
696.065	2836.5
700.688	6167.94
705.31	15211.7
709.929	33449.6
714.545	48714.7
719.158	35446.9
723.77	16294.4
728.378	7760.03
732.984	3995.95
737.588	2594.25
742.189	1680.85
746.787	1381.49
751.383	1435.11
755.976	2387.28
760.567	4426.86
765.155	7278.87
769.741	7897.52
774.324	5420.98
778.904	2825.5
783.482	1464.84
788.058	511.897
792.631	181.653
797.201	20.1914
801.769	64.5859
806.334	287.286
810.897	940.369
815.457	1214.47
820.014	294.592
824.569	360.513
829.122	521.232
833.671	476.74
838.219	145.507
842.763	177.639
847.306	755.915
851.845	1179.47
856.382	1365.35
860.917	1291.73
865.448	1456.23
869.978	1507.31
874.505	1606.88
879.029	1911.01
883.55	2413.74
888.069	3301.92
892.586	5456.7
897.1	8539.27
901.611	10294.7
906.12	11157.6
910.626	11480.8
915.129	8547.06
919.63	5087.39
924.129	3817.67
928.625	4081.84
933.118	4756.1
937.609	3931.45
942.097	4045.51
946.582	5261.12
951.065	8231.91
955.546	12564.8
960.023	19223
964.499	27104.7
968.971	25102.5
973.441	21774.2
977.909	26803
982.374	29612.9
986.836	23415.1
991.295	20653.5
995.753	21483.2
1000.21	23728
1004.66	25736.1
1009.11	20687.2
1013.55	11796.5
1018	6464.16
1022.44	4599.47
1026.88	5199.06
1031.32	5100.57
1035.75	3492.24
1040.18	2829.49
1044.61	2833.17
1049.04	2892.72
1053.46	3723.59
1057.88	4442.16
1062.3	3838.37
1066.71	2619.03
1071.13	1806.37
1075.54	2224.79
1079.94	4452.25
1084.35	6936.49
1088.75	5604.11
1093.15	3084.61
1097.55	1952.24
1101.94	1951.49
1106.34	2150.38
1110.73	1754.94
1115.11	1004.9
1119.5	970.143
1123.88	713.203
1128.26	385.916
1132.63	50.3916
1137.01	115.303
1141.38	37.8555
1145.75	65.9629
1150.12	41.4268
1154.48	84.2783
1158.84	144.006
1163.2	136.328
1167.55	16.9629
1171.91	40.2315
1176.26	100.113
1180.61	142.442
1184.95	38.8242
1189.29	46.8213
1193.63	98.9004
1197.97	139.119
1202.31	52.582
1206.64	35.4912
1210.97	26.4629
1215.29	95.3769
1219.62	129.188
1223.94	78.0791
1228.26	65.6103
1232.57	0.070313
1236.89	76.3184
1241.2	152.507
1245.51	107.8
1249.81	131.143
1254.12	224.345
1258.42	198.821
1262.72	220.28
1267.01	179.215
1271.3	208.474
1275.59	285.059
1279.88	391.598
1284.17	365.098
1288.45	342.03
1292.73	348.39
1297.01	172.666
1301.28	174.275
1305.55	205.777
1309.82	86.9853
1314.09	39.0361
1318.35	128.228
1322.61	205.23
1326.87	190.808
1331.13	266.143
1335.38	188.439
1339.63	180.992
1343.88	301.63
1348.12	224.787
1352.37	286.995
1356.61	326.83
1360.85	315.19
1365.08	218.947
1369.31	211.243
1373.54	228.503
1377.77	27.5088
1381.99	166.058
1386.22	260.251
1390.43	179.82
1394.65	193.817
1398.87	1.78223
1403.08	168.502
1407.29	298.386
1411.49	67.9522
1415.69	203.505
1419.89	215.092
1424.09	114.269
1428.29	281.409
1432.48	294.675
1436.67	115.143
1440.86	214.561
1445.04	245.748
1449.23	3.27539
1453.4	206.74
1457.58	170.694
1461.76	130.176
1465.93	69.8496
1470.1	148.266
1474.26	191.72
1478.43	111.903
1482.59	110.993
1486.75	58.7022
1490.9	93.2451
1495.06	116.829
1499.21	79.7344
1503.35	88.8018
1507.5	148.267
1511.64	73.7744
1515.78	63.2812
1519.92	116.01
1524.05	29.4023
1528.18	138.677
1532.31	177.65
1536.44	129.956
1540.56	209.18
1544.69	145.676
1548.8	242.44
1552.92	293.409
1557.03	268.287
1561.14	282.201
1565.25	4.65137
1569.36	15.2285
