Measurement: Raman, 514 nm, ccw, Raman Data Processed
Mineral: Axinite-(Fe)
Rruff sample: R060558
Ideal chemistry: Ca_4_Fe^2+^_2_Al_4_[B_2_Si_8_O_30_](OH)_2_
Locality: unknown
Source: Gemological Institute of America
Description: Brown flattened crystal
Measured chemistry: Ca_2.00_(Fe^2+^_0.60_Mg_0.35_Mn_0.05_)_Î£=1_Al_2.00_BSi_4.00_O_15_(OH) ; B not measured
Pin_id: M01035
Orientation: Laser parallel to c* (0 0 1). Fiducial mark perpendicular to laser is parallel to a [1 0 0]
Raman shift (cm-1)	intensity
126.533	0
131.467	216.731
136.399	1450.85
141.328	3250.86
146.254	2310.25
151.178	1881.41
156.098	1969.85
161.017	2464.95
165.932	3431.56
170.845	4297.95
175.755	2808.27
180.662	1100.55
185.567	504.872
190.469	978.42
195.368	1652.52
200.264	2367.5
205.158	3171.4
210.049	2761.87
214.937	1685.01
219.823	659.484
224.706	38.8262
229.586	309.149
234.464	246.734
239.339	363.407
244.211	1277.28
249.081	1891.09
253.947	2688.62
258.812	3887.57
263.673	6114.49
268.532	8778.24
273.388	9057.18
278.241	6551.8
283.092	4319.16
287.94	3708.93
292.785	4491.4
297.628	5898.85
302.468	6674.46
307.305	5662.71
312.14	3091.87
316.972	1517.15
321.801	1309.51
326.628	1793.02
331.451	1880.01
336.273	1534.63
341.091	2442.82
345.907	4499.49
350.72	5909.67
355.531	4584.37
360.339	1754.68
365.144	465.001
369.947	76.4712
374.746	211.757
379.544	497.068
384.338	1907.55
389.13	3546.69
393.919	3042.58
398.706	1533.54
403.49	1281.64
408.271	2548.49
413.05	6654.06
417.826	9824.47
422.599	6284.1
427.37	4719.8
432.138	3776.49
436.903	2097.11
441.666	1636.63
446.426	1531.03
451.183	521.31
455.938	9.4624
460.69	142.82
465.44	63.3042
470.187	289.486
474.931	1114.2
479.672	3733.85
484.411	6134.43
489.148	3641.91
493.881	901.73
498.612	184.98
503.341	43.9175
508.066	5.03467
512.789	43.8857
517.51	62.2251
522.228	155.747
526.943	6.16016
531.656	229.919
536.365	447.755
541.073	236.342
545.778	49.6685
550.48	69.6103
555.179	372.197
559.876	776.517
564.57	1335.42
569.262	2372.3
573.951	3184.73
578.637	2990.84
583.321	2996.64
588.002	3777.11
592.68	2994.26
597.356	1364.9
602.03	687.925
606.7	468.926
611.368	723.234
616.034	978.009
620.697	1053.19
625.357	390.238
630.014	117.999
634.67	125.296
639.322	310.161
643.972	482.544
648.619	272.451
653.264	40.1289
657.906	29.0762
662.545	232.31
667.182	860.829
671.816	2048.41
676.448	3002.62
681.077	2093.49
685.703	948.282
690.327	716.093
694.948	1222.21
699.567	2704.29
704.183	6523.61
708.797	13711.4
713.407	18803.9
718.016	12727.2
722.621	5679.18
727.225	2567.89
731.825	1201.33
736.423	560.518
741.019	349.221
745.611	220.225
750.202	140.704
754.789	389.509
759.374	832.037
763.957	1219.92
768.537	1199.63
773.114	771.736
777.689	239.145
782.261	45.5464
786.831	28.5894
791.398	152.974
795.963	170.144
800.524	32.0747
805.084	319.769
809.641	825.691
814.195	1074.63
818.747	486.608
823.296	24.6406
827.842	13.7441
832.386	55.7915
836.928	143.902
841.467	249.106
846.003	543.445
850.537	603.934
855.068	602.586
859.597	316.419
864.123	430.448
868.646	344.687
873.167	459.149
877.686	775.847
882.202	1195.79
886.715	1984.02
891.226	3540.65
895.734	5564.63
900.24	6572.95
904.743	6498.61
909.244	6392.81
913.742	4757.53
918.238	2965.72
922.731	2166.57
927.221	2507.86
931.709	2644.59
936.195	2063.74
940.678	1728.21
945.158	2231.14
949.636	3370.55
954.111	4503.52
958.584	4860
963.054	5840
967.522	5550.51
971.987	5523.05
976.45	7570.66
980.91	8827.78
985.368	7700.4
989.823	7623.53
994.275	7891.21
998.725	8050.38
1003.17	8560.01
1007.62	6884.13
1012.06	3972.71
1016.5	2034.72
1020.94	1156.28
1025.37	739.037
1029.81	609.838
1034.23	325.411
1038.66	439.827
1043.09	418.967
1047.51	389.675
1051.93	393.557
1056.35	427.65
1060.76	373.315
1065.17	356.603
1069.58	231.352
1073.99	222.402
1078.4	406.633
1082.8	861.499
1087.2	1059.52
1091.6	503.459
1095.99	845.235
1100.38	975.211
1104.77	1401.11
1109.16	1199.38
1113.55	906.317
1117.93	525.499
1122.31	268.92
1126.68	251.851
1131.06	71.1494
1135.43	121.429
1139.8	90.8018
1144.17	42.8862
1148.54	16.0376
1152.9	4.90625
1157.26	8.92285
1161.62	39.582
1165.97	38.1128
1170.32	84.6152
1174.67	12.8433
1179.02	7.00293
1183.37	9.62305
1187.71	94.188
1192.05	7.67822
1196.39	11.1934
1200.72	29.6572
1205.05	96.6226
1209.38	120.207
1213.71	73.584
1218.04	10.0464
1222.36	80.3276
1226.68	35.7002
1231	113.657
1235.31	75.3955
1239.63	89.6851
1243.94	48.561
1248.25	109.152
1252.55	56.2231
1256.86	73.6685
1261.15	116.735
1265.45	210.441
1269.75	87.2119
1274.04	215.148
1278.33	155.599
1282.62	267.094
1286.91	97.5537
1291.19	196.738
1295.47	192.64
1299.75	209.476
1304.03	180.038
1308.3	162.871
1312.57	154.137
1316.84	173.94
1321.11	135.431
1325.37	82.6489
1329.63	203.644
1333.89	163.179
1338.15	142.148
1342.4	211.69
1346.65	215.727
1350.9	130.201
1355.15	43.1587
1359.4	153.708
1363.64	131.566
1367.88	178.602
1372.12	55.3335
1376.35	157.327
1380.58	127.42
1384.81	70.4277
1389.04	125.641
1393.26	79.2227
1397.49	103.832
1401.71	118.891
1405.92	64.0073
1410.14	120.799
1414.35	116.744
1418.56	124.158
1422.77	48.5625
1426.98	169.788
1431.18	176.872
1435.38	324.51
1439.58	289.523
1443.78	204.514
1447.97	205.707
1452.16	182.049
1456.35	211.439
1460.54	231.302
1464.72	98.1108
1468.9	102.409
1473.08	86.9497
1477.26	55.7153
1481.43	84.5249
1485.6	38.9053
1489.77	33.8223
1493.94	38.1074
1498.1	64.1675
1502.27	8.47119
1506.43	151.994
1510.58	82.7173
1514.74	42.6284
1518.89	107.737
1523.04	116.592
1527.19	110.896
1531.34	102.733
1535.48	87.1401
1539.62	98.9956
1543.76	143.348
1547.89	51.3345
1552.03	122.223
1556.16	180.633
1560.29	46.2808
