Measurement: Raman, 514 nm, ccw, Raman Data Processed
Mineral: Axinite-(Fe)
Rruff sample: R060194
Ideal chemistry: Ca_4_Fe^2+^_2_Al_4_[B_2_Si_8_O_30_](OH)_2_
Locality: near Dalbandi, Baluchistan Province, Pakistan
Source: Herbert Obodda
Description: Brown transparent wedge-shaped single crystal
Measured chemistry: Ca_2.00_(Fe^2+^_0.66_Mg_0.30_Mn_0.04_)Al_2.00_BSi_4.00_O_15_(OH)
Pin_id: L00952
Orientation: Laser parallel to (1 1 0). Fiducial mark perpendicular to laser is parallel to -c [0 0 -1]
Raman shift (cm-1)	intensity
53.91	0
58.864	265.682
63.817	3.04126
68.767	94.0715
73.714	814.235
78.659	1770.02
83.602	2898.22
88.542	4050.27
93.48	5968.78
98.416	5914.94
103.349	5736.74
108.28	9300.54
113.208	6552.68
118.134	5706.93
123.058	4565.29
127.979	4001.76
132.898	3784.91
137.814	3876.11
142.728	5524.36
147.639	8578.46
152.549	13753
157.455	8838.86
162.359	5955.37
167.261	7849.43
172.161	12180.9
177.058	9399.47
181.952	4404.09
186.845	2304.48
191.734	2504.44
196.622	3029.73
201.507	3319.97
206.389	5170.35
211.269	7615.07
216.147	8595.88
221.022	7357.62
225.895	3637.17
230.765	1221.62
235.633	419.388
240.498	707.282
245.361	1405.74
250.222	3123.01
255.08	5240.38
259.936	5729.02
264.789	5466.17
269.64	6163.67
274.488	5234.45
279.334	3810.34
284.178	3220.3
289.019	2574.2
293.857	2044.91
298.693	2888.31
303.527	4793.29
308.358	6640.72
313.187	5980.47
318.013	7230.41
322.837	6265.41
327.659	3915.36
332.478	3941.13
337.294	6620.6
342.108	12139.6
346.92	12566.2
351.729	6499.28
356.535	2042.03
361.34	17.4551
366.141	779.403
370.94	313.461
375.737	94.7861
380.531	1332.92
385.323	4906.65
390.113	9078.97
394.9	7610.92
399.684	3817.92
404.466	1840.29
409.245	1623.45
414.022	3328.54
418.797	9628.58
423.569	10517
428.338	11435.6
433.105	6867.33
437.87	2673.15
442.632	1348.93
447.391	1011.59
452.149	637.049
456.903	867.212
461.655	1203
466.405	2023.34
471.152	3683.15
475.897	5957.34
480.639	12888.9
485.378	21670.6
490.116	12234.5
494.85	4337.59
499.582	2596.62
504.312	2200.5
509.039	1513.41
513.764	369.807
518.486	365.272
523.206	539.018
527.923	474.31
532.638	152.856
537.35	94.8066
542.059	67.1689
546.766	188.24
551.471	266.29
556.173	1107.99
560.873	2204.88
565.57	2158.87
570.264	2098.04
574.957	2546.23
579.646	2174.44
584.333	1921.63
589.018	2174.77
593.7	1529.83
598.379	1240.78
603.056	1753.59
607.73	3908.23
612.402	8250.69
617.072	13523.9
621.739	14321
626.403	7286.72
631.065	2937.23
635.724	1693.48
640.381	1929.44
645.035	2483.09
649.687	2040.99
654.336	1725.11
658.983	1473.78
663.627	1927.71
668.268	3769.61
672.907	7367.14
677.544	9954.71
682.178	6653.69
686.809	3655.37
691.438	2871.22
696.065	4091.84
700.688	7523.59
705.31	16128.3
709.929	31422.9
714.545	40510.4
719.158	25846
723.77	11054.6
728.378	5037.18
732.984	2618.88
737.588	1394.7
742.189	926.662
746.787	750.808
751.383	929.18
755.976	1382.82
760.567	2321.78
765.155	3499.11
769.741	3108.85
774.324	1758.06
778.904	775.783
783.482	67.0303
788.058	260.874
792.631	479.749
797.201	207.798
801.769	536.92
806.334	182.21
810.897	672.86
815.457	1221.24
820.014	1170.44
824.569	847.474
829.122	233.227
833.671	246.31
838.219	566.609
842.763	959.177
847.306	1764.06
851.845	2349.32
856.382	2668.99
860.917	2868.13
865.448	2598.78
869.978	2236
874.505	1938.82
879.029	1945.29
883.55	2029.58
888.069	2734.98
892.586	4130.57
897.1	6619.39
901.611	9719.44
906.12	11489.8
910.626	9532.42
915.129	6137.19
919.63	3737.24
924.129	2921.84
928.625	3418.16
933.118	4138.07
937.609	4709.33
942.097	6813.85
946.582	11619.8
951.065	18712.9
955.546	26360.8
960.023	36838.3
964.499	46553.6
968.971	38022.5
973.441	25829.1
977.909	23911.2
982.374	22002.9
986.836	17923.2
991.295	15708.1
995.753	14686.5
1000.21	15279.6
1004.66	15477.2
1009.11	11642.3
1013.55	6776.16
1018	4177.36
1022.44	2887.22
1026.88	2588.61
1031.32	2034.82
1035.75	1468.96
1040.18	1379.82
1044.61	1551.14
1049.04	2477.24
1053.46	3727.91
1057.88	5049.24
1062.3	4857.52
1066.71	3681.36
1071.13	2671.59
1075.54	2985.63
1079.94	4399.68
1084.35	5281.8
1088.75	3698.39
1093.15	1977.7
1097.55	1623.21
1101.94	2245.54
1106.34	3098.36
1110.73	2901.47
1115.11	2211.36
1119.5	1607.93
1123.88	1404.02
1128.26	774.981
1132.63	450.098
1137.01	160.606
1141.38	48.04
1145.75	102.681
1150.12	54.0879
1154.48	109.22
1158.84	71.1533
1163.2	168.767
1167.55	74.3232
1171.91	59.1914
1176.26	15.9531
1180.61	48.6016
1184.95	68.1035
1189.29	69.5586
1193.63	7.90723
1197.97	71.9971
1202.31	87.7744
1206.64	106.731
1210.97	53.6338
1215.29	233.587
1219.62	18.7334
1223.94	54.5947
1228.26	297.445
1232.57	354.252
1236.89	455.611
1241.2	269.853
1245.51	502.412
1249.81	277.639
1254.12	389.131
1258.42	427.125
1262.72	410.618
1267.01	564.997
1271.3	592.124
1275.59	536.556
1279.88	478.97
1284.17	383.038
1288.45	347.534
1292.73	337.235
1297.01	574.284
1301.28	469.796
1305.55	702.291
1309.82	593.491
1314.09	428.914
1318.35	427.946
1322.61	360.978
1326.87	364.197
1331.13	330.509
1335.38	493.22
1339.63	510.218
1343.88	569.737
1348.12	416.179
1352.37	309.374
1356.61	339.037
1360.85	538.421
1365.08	556.92
1369.31	618.606
1373.54	394.907
1377.77	588.101
1381.99	326.171
1386.22	401.647
1390.43	402.934
1394.65	351.847
1398.87	470.426
1403.08	462.194
1407.29	376.306
1411.49	301.848
1415.69	196.768
1419.89	152.474
1424.09	128.469
1428.29	359.373
1432.48	240.284
1436.67	115.489
1440.86	256.796
1445.04	9.04004
1449.23	273.929
1453.4	26.8711
1457.58	24.1465
1461.76	76.4766
1465.93	335.964
1470.1	88.709
1474.26	29.9697
1478.43	143.213
1482.59	6.78613
1486.75	32.7783
1490.9	302.654
1495.06	197.743
1499.21	202.457
1503.35	82.9492
1507.5	222.648
1511.64	342.945
1515.78	254.087
1519.92	62.6621
1524.05	204.009
1528.18	219.52
1532.31	250.91
1536.44	188.898
1540.56	228.594
1544.69	135.743
1548.8	79.082
1552.92	364.807
1557.03	256.967
1561.14	11.7852
1565.25	109.718
1569.36	1.14746
