Measurement: Raman, 514 nm, ccw, Raman Data Processed
Mineral: Axinite-(Fe)
Rruff sample: R060558
Ideal chemistry: Ca_4_Fe^2+^_2_Al_4_[B_2_Si_8_O_30_](OH)_2_
Locality: unknown
Source: Gemological Institute of America
Description: Brown flattened crystal
Measured chemistry: Ca_2.00_(Fe^2+^_0.60_Mg_0.35_Mn_0.05_)_Î£=1_Al_2.00_BSi_4.00_O_15_(OH) ; B not measured
Pin_id: M00962
Orientation: Laser parallel to a* (1 0 0). Fiducial mark perpendicular to laser is parallel to b [0 1 0]
Raman shift (cm-1)	intensity
99.011	0
103.994	2629.32
108.974	5423.75
113.95	2389.54
118.923	2026.04
123.894	1186.98
128.86	201.846
133.824	363.829
138.785	375.097
143.743	912.985
148.697	2132.06
153.648	3909.82
158.596	4812.48
163.541	5750.48
168.483	9890.26
173.422	8150.05
178.358	2446.22
183.29	310.837
188.22	672.418
193.146	3246.76
198.07	3595.09
202.99	5145.43
207.907	8230.82
212.821	9950.54
217.732	7578.81
222.64	4143.4
227.545	1588.68
232.446	549.294
237.345	793.056
242.241	1918.52
247.133	3343.67
252.023	4516.74
256.909	4821.66
261.792	5601.55
266.673	8122.13
271.55	9494.54
276.424	7708.41
281.296	4389.69
286.164	3462.93
291.029	5760.75
295.891	10725.7
300.751	14219.5
305.607	13350.2
310.46	9705.43
315.31	7475.84
320.157	7159.63
325.001	3668.7
329.843	1528.08
334.681	2121.53
339.516	5206.02
344.348	10666.6
349.177	10720.2
354.004	8984.66
358.827	3957.58
363.647	560.727
368.465	209.884
373.279	107.314
378.091	150.652
382.899	1989.69
387.705	6169.91
392.507	8801.6
397.307	6288.38
402.104	2828.54
406.898	1687.12
411.689	2229.23
416.477	5550.97
421.262	7974.3
426.044	11003.7
430.823	14578.7
435.599	9346.2
440.373	4260.08
445.143	3791.32
449.911	1910.86
454.675	250.663
459.437	116.438
464.196	155.551
468.952	341.235
473.705	775.972
478.456	530.823
483.203	1742.76
487.948	2100.76
492.689	167.56
497.428	390.527
502.164	11.7622
506.897	620.005
511.627	969.17
516.355	851.047
521.079	418.197
525.801	70.0518
530.52	131.722
535.236	543.333
539.949	1913.23
544.659	3736.97
549.367	3870.86
554.071	2524.43
558.773	2960.97
563.472	3568.3
568.169	2879.09
572.862	3552.82
577.553	4038.27
582.241	4534.4
586.926	6829.21
591.608	7453.69
596.287	3715.81
600.964	1536.4
605.638	1577.48
610.309	2491.98
614.977	2708.77
619.643	2134.25
624.306	1084.4
628.966	195.22
633.623	73.5322
638.278	213.862
642.929	688.275
647.578	648.536
652.225	138.668
656.868	60.9023
661.509	209.236
666.147	1430.29
670.782	3970.89
675.415	7818.5
680.045	7374.39
684.672	3496.95
689.296	1738.82
693.918	1954.8
698.537	3562.12
703.153	8110.81
707.766	18783
712.377	33807.9
716.985	32842.4
721.591	16337.5
726.194	7313.23
730.794	3824.61
735.391	2227.62
739.986	1541.43
744.578	1122.61
749.167	1175.96
753.754	1572.02
758.338	2703.75
762.919	4357.19
767.497	5802.32
772.073	4772.86
776.647	2717.12
781.217	1308.61
785.785	596.14
790.351	306.485
794.913	252.332
799.473	61.8887
804.031	201.026
808.586	227.777
813.138	499.081
817.687	174.263
822.234	62.7188
826.778	178.737
831.32	251.778
835.859	185.207
840.395	165.528
844.929	20.833
849.46	180.973
853.989	203.102
858.515	274.24
863.038	395.408
867.559	545.622
872.077	618.906
876.593	826.319
881.106	899.861
885.617	1179.53
890.124	1583.3
894.63	2666.3
899.133	4399.57
903.633	6327.99
908.13	6332.25
912.625	4053.07
917.118	2258.31
921.608	1492.01
926.095	1252.03
930.58	1410.29
935.062	1409.73
939.542	1558.84
944.019	2089.23
948.494	3177.83
952.966	5399.73
957.435	9494.47
961.902	16289.6
966.367	19395.4
970.829	15314.8
975.288	16314.1
979.745	19831.9
984.2	16823.8
988.652	12453.3
993.101	11091.5
997.548	12116.3
1001.99	13787.6
1006.43	12556.5
1010.87	8160.15
1015.31	4482.48
1019.75	2688.8
1024.18	2157.36
1028.61	2619.39
1033.03	2545.16
1037.46	2313.94
1041.88	2412.32
1046.3	2259.77
1050.72	2708.76
1055.13	3405.5
1059.54	3476.4
1063.95	2843.76
1068.36	1793.12
1072.77	1651.65
1077.17	2806.62
1081.57	5250.2
1085.97	5844.74
1090.36	3440.1
1094.75	1928.09
1099.14	1479.56
1103.53	1208.85
1107.92	1105.12
1112.3	793.589
1116.68	453.57
1121.06	326.493
1125.43	235.157
1129.81	186.568
1134.18	2.25977
1138.55	56.3516
1142.91	46.3428
1147.28	26.8691
1151.64	46.0772
1155.99	18.7402
1160.35	125.311
1164.71	153.31
1169.06	77.458
1173.41	74.626
1177.75	60.3438
1182.1	174.536
1186.44	85.709
1190.78	10.6455
1195.12	4.64062
1199.45	82.0977
1203.79	34.4092
1208.12	96.2422
1212.44	80.2314
1216.77	80.54
1221.09	58.0703
1225.41	85.3477
1229.73	92.3603
1234.05	122.186
1238.36	156.622
1242.67	8.48633
1246.98	23.8027
1251.29	33.3672
1255.59	98.5488
1259.89	71.0254
1264.19	95.1953
1268.49	165.407
1272.79	182.167
1277.08	112.631
1281.37	159.306
1285.66	53.209
1289.94	150.22
1294.23	173.351
1298.51	24.0654
1302.79	199.738
1307.07	48.8652
1311.34	139.555
1315.61	30.9727
1319.88	110.153
1324.15	108.972
1328.41	227.951
1332.68	224.609
1336.94	54.9434
1341.2	243.596
1345.45	161.234
1349.71	261.123
1353.96	286.132
1358.21	83.9502
1362.45	70.3457
1366.7	225.79
1370.94	226.361
1375.18	269.245
1379.42	235.889
1383.66	196.63
1387.89	144.727
1392.12	137.998
1396.35	226.516
1400.58	22.6689
1404.8	107.38
1409.03	53.7803
1413.24	90.5967
1417.46	254.624
1421.68	227.069
1425.89	225.106
1430.1	259.699
1434.31	237.978
1438.52	281.64
1442.72	313.289
1446.93	298.272
1451.13	282.331
1455.33	186.986
1459.52	289.356
1463.71	201.372
1467.91	187.233
1472.1	191.32
1476.28	133.265
1480.47	190.007
1484.65	54.8027
1488.83	71.1074
1493.01	168.647
1497.18	66.5752
1501.36	171.392
1505.53	200.217
1509.7	82.8691
1513.87	44.3047
1518.03	107.758
1522.2	185.037
1526.36	146.722
1530.52	175.584
1534.67	44.7441
1538.83	94.5732
1542.98	141.44
1547.13	194.893
1551.28	88.0869
1555.42	175.769
1559.57	120.642
1563.71	0
