Measurement: Raman, 514 nm, ccw, Raman Data Processed
Mineral: Axinite-(Fe)
Rruff sample: R040074
Ideal chemistry: Ca_4_Fe^2+^_2_Al_4_[B_2_Si_8_O_30_](OH)_2_
Locality: Luning, Nevada, USA
Source: University of Arizona Mineral Museum
Description: Pale brown wedge-shaped crystal
Measured chemistry: (Ca_0.98_Mn_0.01_)_2_(Fe_0.41_Mg_0.39_Mn_0.20_)Al_1.95_B_1.20_Si_3.90_O_15_(OH)
Pin_id: L00197
Orientation: Laser parallel to c* (0 0 1). Fiducial mark perpendicular to laser is parallel to -a [-1 0 0]
Raman shift (cm-1)	intensity
91.398	0
95.582	138.724
99.764	813.393
103.943	2897.66
108.121	6636.48
112.297	5434.29
116.47	2721.5
120.642	1261
124.811	512.301
128.979	4.384
133.144	17.701
137.307	717.454
141.469	2038.91
145.628	3227.73
149.786	4763.48
153.941	5227.01
158.094	3588.79
162.245	2776.89
166.395	3326.06
170.542	5203.47
174.687	4582.16
178.83	2138.95
182.972	803.159
187.111	1097.81
191.248	3839.79
195.383	4755.3
199.516	3093.9
203.647	4223.52
207.777	5393.73
211.904	5314.38
216.029	4367.84
220.152	2956.1
224.273	1331.21
228.392	23.563
232.509	555.896
236.625	244.923
240.738	396.222
244.849	664.962
248.958	1216.98
253.065	1976.66
257.171	2247.04
261.274	3233.59
265.375	5529.74
269.475	8087.56
273.572	7936.35
277.667	5565.55
281.76	3364.92
285.852	2428.51
289.941	2455.23
294.029	3335.66
298.114	5228.78
302.198	6922.94
306.279	8176.68
310.359	7214.88
314.436	5432.89
318.512	6570.94
322.586	6368.99
326.657	3865.72
330.727	2742.25
334.795	2686.71
338.861	4433.51
342.924	9886.76
346.986	10020.3
351.046	8923.88
355.104	6747.54
359.16	2971.63
363.214	726.243
367.267	187.49
371.317	476.014
375.365	597.567
379.411	693.233
383.456	1751.61
387.498	4933.84
391.539	8254.51
395.577	5717.13
399.614	3203.05
403.649	2496.02
407.681	1951.09
411.712	4000.99
415.741	10392.7
419.768	9664.28
423.793	6375.69
427.816	6506.86
431.837	5207.78
435.857	2625.42
439.874	1601.75
443.889	2455.77
447.903	1984.82
451.914	457.19
455.924	25.802
459.932	181.555
463.938	19.637
467.941	616.508
471.943	1328.58
475.944	1739.75
479.942	4453.49
483.938	11522
487.932	11277.9
491.925	3954.89
495.915	1616.87
499.904	1679.6
503.891	2430.31
507.876	2868.05
511.859	2267.65
515.84	948.492
519.819	194.166
523.796	64.574
527.771	158.501
531.745	81.951
535.716	151.22
539.686	267.8
543.654	92.865
547.62	7.638
551.584	0.823
555.546	228.959
559.506	586.478
563.465	974.957
567.421	1696.98
571.376	3131.54
575.329	3987.65
579.279	3104.28
583.228	2807.46
587.175	3963.16
591.121	3867.39
595.064	2061.15
599.006	852.438
602.945	392.253
606.883	487.587
610.819	1354.45
614.753	2489.25
618.685	3420.25
622.615	2913.49
626.544	1044.57
630.471	261.301
634.395	132.643
638.318	80.95
642.239	357.001
646.158	554.905
650.076	178.221
653.991	61.122
657.905	33.339
661.817	122.383
665.726	424.422
669.635	1295.36
673.541	3040.52
677.445	3909.28
681.348	2508.09
685.248	1366.51
689.147	897.488
693.044	978.349
696.94	1486.88
700.833	2715.51
704.724	5591.91
708.614	11480.6
712.502	21100.2
716.388	20907.1
720.272	11594.1
724.155	5710.74
728.035	2967.04
731.914	1763
735.791	1043.61
739.666	640.893
743.539	584.853
747.41	483.495
751.28	583.342
755.148	997.862
759.014	1700.25
762.878	2878.71
766.74	3802.89
770.601	3634.85
774.46	2387.92
778.316	1072.18
782.172	374.296
786.025	189.229
789.876	55.586
793.726	223.515
797.574	182.825
801.42	204.497
805.264	60.71
809.107	582.048
812.947	1358.99
816.786	1000.39
820.623	264.349
824.459	3.551
828.292	81.583
832.124	11.249
835.954	95.949
839.782	170.498
843.608	537.598
847.433	960.012
851.255	1101.51
855.076	1211.2
858.895	948.051
862.713	728.133
866.528	761.704
870.342	897.5
874.154	1034.49
877.965	1297.73
881.773	1505.13
885.58	2154.63
889.385	3104.26
893.188	5213.97
896.989	7893.78
900.789	10133.7
904.587	10833.7
908.383	9683.77
912.177	7964.01
915.97	5574.35
919.76	3874.82
923.55	3145.41
927.337	3176.11
931.122	3486.9
934.906	3637.79
938.688	3758.33
942.468	4612.06
946.247	6609.86
950.023	10047.7
953.798	12415.4
957.572	14209.4
961.343	18091.5
965.113	20654.2
968.881	16817.3
972.647	13280.5
976.411	14161.9
980.174	15738.1
983.935	14599.2
987.694	13231.6
991.452	11715.4
995.207	10914.1
998.961	11451.3
1002.71	13992
1006.46	14033.5
1010.21	10112.2
1013.96	6311.92
1017.71	4317.31
1021.45	2667.99
1025.19	2550.55
1028.93	2478.71
1032.67	1649.2
1036.41	1401.93
1040.14	1132.64
1043.87	1141.95
1047.61	1151.13
1051.34	1180.53
1055.06	1361.64
1058.79	1511.69
1062.52	1811.1
1066.24	1600.77
1069.96	1170.38
1073.68	1079.47
1077.4	1347.85
1081.11	2135.35
1084.83	2702.12
1088.54	1898.26
1092.25	1234.08
1095.96	1009.84
1099.67	1057.66
1103.37	1513.63
1107.08	1820.16
1110.78	1485.51
1114.48	1150.42
1118.18	834.728
1121.88	724.08
1125.57	481.836
1129.27	234.837
1132.96	67.114
1136.65	87.692
1140.34	53.028
1144.02	208.432
1147.71	113.788
1151.39	38.498
1155.07	27.301
1158.76	53.398
1162.43	129.507
1166.11	35.466
1169.79	18.712
1173.46	182.999
1177.13	127.448
1180.8	62.126
1184.47	37.187
1188.14	132.756
1191.8	168.101
1195.46	165.562
1199.13	203.047
1202.79	401.528
1206.45	351.241
1210.1	381.671
1213.76	427.596
1217.41	386.827
1221.06	327.052
1224.71	171.027
1228.36	279.512
1232.01	290.209
1235.65	256.689
1239.3	234.165
1242.94	247.102
1246.58	140.979
1250.22	27.69
1253.85	147.808
1257.49	233.838
1261.12	279.888
1264.75	237.309
1268.38	131.775
1272.01	210.79
1275.64	35.26
1279.27	0
