Measurement: Raman, 514 nm, ccw, Raman Data Processed
Mineral: Axinite-(Fe)
Rruff sample: R050026
Ideal chemistry: Ca_4_Fe^2+^_2_Al_4_[B_2_Si_8_O_30_](OH)_2_
Locality: Pouyva mine, Polar Urals, Western Siberian Region, Russia
Source: Rock Currier
Description: Brown transparent flat crystal
Measured chemistry: Ca_2.00_(Fe^2+^_0.61_Mn_0.26_Mg_0.13_)Al_2.00_BSi_4_O_15_(OH)
Pin_id: L00147
Orientation: Laser parallel to -a* (-1 0 0). Fiducial mark perpendicular to laser is parallel to -b [0 -1 0]
Raman shift (cm-1)	intensity
86.858	0
91.065	217.809
95.269	582.392
99.471	729.251
103.67	1132.96
107.868	2302.32
112.063	1703.73
116.256	775.696
120.447	545.388
124.636	738.397
128.822	806.039
133.006	132.829
137.188	557.5
141.368	578.076
145.545	762.873
149.72	1237.43
153.893	852.979
158.064	785.678
162.233	730.873
166.399	1698.5
170.563	3025.66
174.725	1439.93
178.885	379.735
183.043	142.186
187.198	201.159
191.351	217.517
195.502	166.603
199.651	214.76
203.797	1069.8
207.942	2282.66
212.084	2267.38
216.224	1623.5
220.362	885.234
224.497	87.693
228.631	166.686
232.762	105.974
236.891	214.831
241.018	513.794
245.143	739.876
249.265	772.527
253.386	1238.12
257.504	1046.54
261.62	757.423
265.734	1177.23
269.845	1820.46
273.955	2669.86
278.062	2486.3
282.167	1382.39
286.27	1083.27
290.371	1256.09
294.47	1646.85
298.567	1703.66
302.661	1615.6
306.753	1703.45
310.843	1536.03
314.931	2511.4
319.017	3761.53
323.101	2523.99
327.182	1653.43
331.261	1413.4
335.339	1632.78
339.414	2994.56
343.487	3805.07
347.557	2391.91
351.626	1594.74
355.693	742.447
359.757	231.922
363.819	74.117
367.879	106.644
371.937	277.088
375.993	275.697
380.047	348.918
384.099	854.41
388.148	1682.79
392.196	2027.21
396.241	1545.24
400.284	1050.98
404.325	594.629
408.364	467.335
412.401	756.985
416.435	1705.56
420.468	1830.88
424.498	2265.91
428.527	3028.65
432.553	2306.08
436.577	1093.22
440.599	954.087
444.619	1030.78
448.637	551.039
452.653	353.145
456.667	374.024
460.678	187.687
464.688	131.143
468.695	278.423
472.701	247.776
476.704	244.169
480.705	546.223
484.704	669.273
488.701	353.426
492.696	16.364
496.689	74.403
500.68	20.262
504.668	30.983
508.655	145.562
512.639	233.631
516.622	116.038
520.602	15.555
524.581	108.262
528.557	73.821
532.531	9.32
536.503	60.042
540.473	256.846
544.441	559.764
548.407	631.606
552.371	450.635
556.333	615.128
560.293	948.824
564.251	736.475
568.206	509.041
572.16	465.52
576.112	426.913
580.061	321.22
584.009	554.445
587.954	785.589
591.897	402.655
595.839	137.647
599.778	120.593
603.716	226.442
607.651	325.224
611.584	363.94
615.515	486.593
619.444	636.85
623.372	427.047
627.297	174.323
631.22	73.436
635.141	99.337
639.06	406.244
642.977	612.118
646.892	429.474
650.805	212.572
654.716	281.122
658.625	82.454
662.532	31.92
666.437	261.151
670.34	567.026
674.241	1377.96
678.139	1897.4
682.036	1140.38
685.931	553.78
689.824	326.624
693.715	406.403
697.604	703.567
701.491	1361.82
705.376	2610.01
709.259	5206.14
713.139	8288.19
717.018	6817.17
720.895	3492.07
724.77	1709.9
728.643	843.652
732.514	565.334
736.383	371.945
740.25	324.487
744.115	245.961
747.978	80.371
751.839	71.715
755.698	207.985
759.555	301.204
763.41	510.364
767.263	553.463
771.114	394.506
774.964	251.495
778.811	153.443
782.656	47.344
786.499	3.826
790.341	54.73
794.18	89.346
798.017	69.394
801.853	9.895
805.686	14.326
809.518	58.577
813.347	40.103
817.175	44.279
821.001	17.461
824.824	2.412
828.646	6.473
832.466	38.6
836.284	6.78
840.1	140.25
843.914	186.399
847.726	199.551
851.536	251.689
855.344	249.808
859.15	369.91
862.954	463.015
866.756	567.112
870.557	483.202
874.355	501.283
878.152	554.365
881.946	508.474
885.739	596.626
889.53	728.817
893.318	933.02
897.105	1226.27
900.89	1688.56
904.673	1774.86
908.454	1320.2
912.234	977.559
916.011	636.954
919.786	618.404
923.56	637.881
927.331	773.386
931.101	804.926
934.868	729.431
938.634	763.865
942.398	874.415
946.16	1183.37
949.92	1680.78
953.678	2361.12
957.435	3544.7
961.189	4946.59
964.941	4401.56
968.692	3487.56
972.441	3669.21
976.187	4508.87
979.932	4383.73
983.675	3165.7
987.416	2635.73
991.155	2412.24
994.893	2487.86
998.628	2654.54
1002.36	2376.29
1006.09	1807.12
1009.82	1249.24
1013.55	819.442
1017.28	634.815
1021	552.986
1024.72	550.236
1028.44	622.165
1032.16	572.445
1035.88	638.145
1039.59	810.962
1043.31	911.386
1047.02	1151.03
1050.73	1659.16
1054.43	1848.98
1058.14	1466.72
1061.84	896.457
1065.54	655.18
1069.24	654.869
1072.94	893.534
1076.64	1380.19
1080.33	1712.65
1084.03	1350.11
1087.71	821.307
1091.4	477.586
1095.09	353.408
1098.78	349.432
1102.46	356.776
1106.14	344.039
1109.82	148.415
1113.5	98.968
1117.17	60.332
1120.85	217.839
1124.52	82.356
1128.19	75.994
1131.86	93.747
1135.52	62.889
1139.19	47.407
1142.85	57.156
1146.51	11.885
1150.17	6.859
1153.83	44.188
1157.48	24.587
1161.14	37.902
1164.79	37.381
1168.44	16.775
1172.09	14.751
1175.73	56.122
1179.38	27.986
1183.02	22.563
1186.66	36.85
1190.3	42.253
1193.94	43.727
1197.58	66.796
1201.21	9.596
1204.84	4.154
1208.47	10.925
1212.1	57.099
1215.72	19.51
1219.35	71.976
1222.97	71.272
1226.59	25.783
1230.21	33.805
1233.83	15.584
1237.45	30.477
1241.06	60.48
1244.67	74.391
1248.28	97.155
1251.89	94.859
1255.5	58.423
1259.1	59.875
1262.7	1.365
1266.31	70.741
1269.9	53.841
1273.5	61.844
1277.1	97.91
1280.69	150.047
1284.29	154.572
1287.88	91.954
1291.46	76.173
1295.05	1.723
1298.64	0.234
1302.22	28.811
1305.8	128.253
1309.38	116.472
1312.96	113.849
1316.54	93.5
1320.11	57.463
1323.68	36.255
1327.25	30.66
1330.82	3.105
1334.39	15.704
1337.96	52.262
1341.52	103.296
1345.08	98.764
1348.64	140.834
1352.2	131.399
1355.76	71.97
1359.31	77.297
1362.87	63.855
1366.42	5.457
1369.97	10.291
1373.52	47.277
1377.06	79.801
1380.61	145.784
1384.15	126.873
1387.69	186.626
1391.23	119.24
1394.77	81.463
1398.3	74.856
1401.84	36.902
1405.37	31.344
1408.9	75.437
1412.43	111.098
1415.96	131.294
1419.48	142.85
1423.01	97.976
1426.53	113.728
1430.05	75.947
1433.57	95.306
1437.08	65.512
1440.6	98.432
1444.11	47.018
1447.62	122.037
1451.13	110.973
1454.64	96.807
1458.15	129.286
1461.65	159.646
1465.16	206.563
1468.66	151.605
1472.16	149.932
1475.65	83.492
1479.15	30.551
1482.64	98.887
1486.14	41.635
1489.63	102.084
1493.12	94.622
1496.61	99.837
1500.09	136.49
1503.58	172.354
1507.06	167.354
1510.54	0
