Measurement: Raman, 514 nm, ccw, Raman Data Processed
Mineral: Axinite-(Fe)
Rruff sample: R060194
Ideal chemistry: Ca_4_Fe^2+^_2_Al_4_[B_2_Si_8_O_30_](OH)_2_
Locality: near Dalbandi, Baluchistan Province, Pakistan
Source: Herbert Obodda
Description: Brown transparent wedge-shaped single crystal
Measured chemistry: Ca_2.00_(Fe^2+^_0.66_Mg_0.30_Mn_0.04_)Al_2.00_BSi_4.00_O_15_(OH)
Pin_id: L00975
Orientation: Laser parallel to a* (1 0 0). Fiducial mark perpendicular to laser is parallel to b [0 1 0]
Raman shift (cm-1)	intensity
53.91	0
58.864	144.978
63.817	247.773
68.767	111.939
73.714	11.2356
78.659	25.5865
83.602	125.263
88.542	703.278
93.48	2059.57
98.416	3232.45
103.349	3589.29
108.28	7472.83
113.208	10881.2
118.134	5472.77
123.058	3810.98
127.979	3115.31
132.898	1681.61
137.814	1044.4
142.728	2189.29
147.639	3038.26
152.549	4835.4
157.455	7190.98
162.359	7306
167.261	9440.41
172.161	20147.1
177.058	14817
181.952	4933.92
186.845	1671.8
191.734	1795.51
196.622	5646.87
201.507	5377.07
206.389	8174.32
211.269	14086.7
216.147	15924.8
221.022	10914
225.895	5692.7
230.765	2576.99
235.633	1255.68
240.498	1649.36
245.361	3091.37
250.222	5167.4
255.08	6647.34
259.936	7188.92
264.789	7129.95
269.64	10861.3
274.488	14883.7
279.334	13325.2
284.178	7993.58
289.019	5017.93
293.857	8144.12
298.693	15331
303.527	20404.6
308.358	17716.8
313.187	12164.4
318.013	11384.4
322.837	13684
327.659	6355.51
332.478	2798.1
337.294	2934.73
342.108	6795.28
346.92	14241.7
351.729	13099.5
356.535	10008.3
361.34	3533.02
366.141	372.916
370.94	380.159
375.737	100.913
380.531	177.855
385.323	2410.36
390.113	9717.07
394.9	12266.2
399.684	8628.71
404.466	3900.38
409.245	2130.17
414.022	2759.01
418.797	7030.85
423.569	9366.65
428.338	14888.3
433.105	21714.8
437.87	13497.2
442.632	5918.2
447.391	5297.91
452.149	2287.22
456.903	658.075
461.655	172.425
466.405	94.9141
471.152	790.286
475.897	758.716
480.639	282.426
485.378	1729.36
490.116	1869.48
494.85	109.246
499.582	575.197
504.312	371.144
509.039	84.2695
513.764	294.854
518.486	395.595
523.206	99.6816
527.923	277.575
532.638	26.439
537.35	745.811
542.059	2660.83
546.766	5981.54
551.471	5776.21
556.173	3637.42
560.873	4503.06
565.57	5293.73
570.264	3802.54
574.957	4277.51
579.646	4408.37
584.333	4954.77
589.018	7949.66
593.7	8434.02
598.379	4022.82
603.056	1785.07
607.73	1964.44
612.402	2864.52
617.072	3080.02
621.739	2961.91
626.403	1761.19
631.065	636.857
635.724	388.353
640.381	738.838
645.035	1699.25
649.687	1442.16
654.336	395.019
658.983	9.80127
663.627	339.508
668.268	1751.59
672.907	5170.68
677.544	10998.9
682.178	10076.2
686.809	4517.65
691.438	2366.14
696.065	2571.98
700.688	4759.29
705.31	11013.2
709.929	26223.2
714.545	48807.9
719.158	43968.2
723.77	20779.8
728.378	9261.03
732.984	4814.09
737.588	2775.93
742.189	1772.58
746.787	1333.07
751.383	1306.4
755.976	1751.6
760.567	3110.67
765.155	5222.64
769.741	6735.53
774.324	5202.82
778.904	2788.05
783.482	1174.08
788.058	462.91
792.631	100.45
797.201	16.8066
801.769	121.871
806.334	1584.28
810.897	1045.78
815.457	1200.45
820.014	495.215
824.569	86.9253
829.122	261.907
833.671	205.656
838.219	19.3081
842.763	145.343
847.306	125.049
851.845	43.7334
856.382	51.2871
860.917	199.523
865.448	409.015
869.978	750.78
874.505	722.838
879.029	957.22
883.55	1041.97
888.069	1013.12
892.586	1563.64
897.1	2601.68
901.611	4263.17
906.12	6363.09
910.626	5924.56
915.129	3369.53
919.63	1666.03
924.129	1216.12
928.625	1154.67
933.118	1372.72
937.609	1504.56
942.097	1679.52
946.582	2328.93
951.065	3732.82
955.546	6365.13
960.023	11927.5
964.499	21561
968.971	24110.7
973.441	18780.6
977.909	20172.3
982.374	24424.7
986.836	19742.3
991.295	14363.4
995.753	13149.9
1000.21	14409
1004.66	15306.7
1009.11	12727.2
1013.55	8138.24
1018	4694.59
1022.44	2849.64
1026.88	2491.28
1031.32	2815.11
1035.75	3210.2
1040.18	3586.35
1044.61	4133.92
1049.04	4190.17
1053.46	5427.13
1057.88	6455.63
1062.3	6422.12
1066.71	4441.65
1071.13	2861.95
1075.54	2925.47
1079.94	4705.67
1084.35	9465.67
1088.75	9055.16
1093.15	5208.05
1097.55	2901.58
1101.94	2103.81
1106.34	1606.21
1110.73	1289.16
1115.11	866.544
1119.5	572.503
1123.88	382.493
1128.26	247.079
1132.63	136.499
1137.01	2.53003
1141.38	12.5918
1145.75	28.4123
1150.12	16.96
1154.48	19.7273
1158.84	70.49
1163.2	18.5322
1167.55	7.26392
1171.91	8.19678
1176.26	36.251
1180.61	80.0195
1184.95	85.5632
1189.29	14.7927
1193.63	32.9898
1197.97	1.02612
1202.31	17.0842
1206.64	50.968
1210.97	19.1811
1215.29	40.5593
1219.62	9.84521
1223.94	18.7671
1228.26	63.7607
1232.57	33.0195
1236.89	81.5708
1241.2	101.532
1245.51	120.49
1249.81	92.9622
1254.12	33.3987
1258.42	73.2058
1262.72	187.475
1267.01	104.488
1271.3	193.033
1275.59	205.112
1279.88	220.965
1284.17	171.52
1288.45	126.844
1292.73	177.425
1297.01	110.135
1301.28	93.1633
1305.55	94.9182
1309.82	86.5137
1314.09	78.6409
1318.35	208.484
1322.61	176.364
1326.87	92.9622
1331.13	189.194
1335.38	135.397
1339.63	129.636
1343.88	182.374
1348.12	183.248
1352.37	154.69
1356.61	144.887
1360.85	233.367
1365.08	268.575
1369.31	201.817
1373.54	232.247
1377.77	227.62
1381.99	206.876
1386.22	251.248
1390.43	144.193
1394.65	213.542
1398.87	124.543
1403.08	108.691
1407.29	83.1145
1411.49	145.631
1415.69	156.399
1419.89	218.523
1424.09	180.305
1428.29	205.927
1432.48	159.539
1436.67	88.5273
1440.86	166.345
1445.04	192.406
1449.23	138.57
1453.4	102.091
1457.58	144.532
1461.76	135.966
1465.93	160.772
1470.1	82.8838
1474.26	66.9294
1478.43	84.688
1482.59	14.2732
1486.75	66.4255
1490.9	40.1179
1495.06	92.9609
1499.21	47.0723
1503.35	34.5266
1507.5	8.9956
1511.64	11.436
1515.78	59.9834
1519.92	90.5938
1524.05	97.2727
1528.18	116.161
1532.31	49.6414
1536.44	73.8176
1540.56	1.95898
1544.69	48.3269
1548.8	9.42944
1552.92	91.5852
1557.03	179.016
1561.14	94.5154
1565.25	9.08081
1569.36	52.8428
