Measurement: Raman, 514 nm, ccw, Raman Data Processed
Mineral: Axinite-(Fe)
Rruff sample: R060183
Ideal chemistry: Ca_4_Fe^2+^_2_Al_4_[B_2_Si_8_O_30_](OH)_2_
Locality: Skagit Bluffs, near Manning Park, British Columbia, Canada
Source: Lloyd Twaites
Description: Light-pink transparent axe-head-shaped single crystal
Measured chemistry: Ca_2.00_(Fe^2+^_0.58_Mn_0.23_Mg_0.19_)Al_2.00_B_1.00_Si_4.00_O_15_(OH)
Pin_id: L00798
Orientation: Laser parallel to -b* (0 -1 0). Fiducial mark perpendicular to laser is parallel to -c [0 0 -1]
Raman shift (cm-1)	intensity
52.671	0
57.626	146.023
62.579	278.847
67.529	24.0194
72.477	95.6127
77.423	36.529
82.367	394.726
87.308	1531.23
92.246	3925.65
97.182	5478.04
102.116	6674.19
107.047	8120.54
111.976	5064.89
116.903	3902.41
121.827	3731.45
126.749	3622.68
131.668	2571.41
136.585	2306.44
141.5	2836.75
146.412	4479.85
151.321	6775.28
156.229	9258.46
161.134	7770.51
166.036	12069.5
170.936	17246.2
175.834	9396.85
180.729	3461.2
185.622	1456.21
190.512	2318.1
195.4	3717.46
200.286	5665.32
205.169	11318.2
210.049	15023
214.928	11098.6
219.803	5741.59
224.677	2276.38
229.548	827.312
234.416	718.258
239.282	2547.84
244.146	5303.18
249.007	6338
253.866	5602.84
258.722	4150.8
263.576	4711.26
268.427	7539.53
273.276	9058.98
278.123	6427.51
282.967	3665.09
287.809	4503.68
292.648	9184.14
297.485	15446.4
302.319	19965.4
307.151	18979.1
311.98	10429.4
316.807	8164.44
321.631	5327.19
326.454	2171.86
331.273	1316.86
336.09	2390.09
340.905	6662.5
345.717	11023
350.527	14840.8
355.334	8558.38
360.139	2076.49
364.941	218.321
369.741	540.396
374.538	419.871
379.333	1205.39
384.126	6190.23
388.916	11893
393.703	12118.6
398.488	6533.03
403.271	2830.18
408.051	1763.06
412.828	3528.61
417.603	6573.83
422.376	10219.6
427.146	14863
431.914	11946
436.679	5729.35
441.442	4931.14
446.202	3751.29
450.96	1099.75
455.715	365.455
460.467	66.3511
465.218	436.144
469.965	1170.96
474.711	510.826
479.454	1652.69
484.194	3896.51
488.932	1202.69
493.667	323.328
498.4	23.5205
503.13	991.207
507.858	2360.94
512.583	2621.57
517.306	1118.28
522.026	4.1333
526.744	344.937
531.459	281.826
536.172	773.394
540.882	2786.87
545.59	4074.1
550.295	3207.68
554.998	3490.8
559.698	5102.44
564.396	4321.15
569.091	4727.41
573.784	5401.8
578.474	6099.22
583.162	8967.62
587.847	12302
592.529	7916.21
597.209	3649.34
601.887	2873.78
606.562	3957.39
611.235	4615.94
615.905	3787.25
620.572	2526.28
625.237	1042.01
629.9	170.392
634.56	47.6216
639.217	399.692
643.872	687.69
648.524	253.864
653.174	26.1831
657.821	19.6025
662.466	1064.68
667.108	3305.65
671.748	8507.99
676.385	13565.1
681.02	9635.69
685.652	4852.67
690.281	3573.98
694.908	4545.82
699.533	8177.19
704.155	17933.2
708.774	37500.6
713.391	52902.4
718.005	37490.7
722.617	17287.3
727.226	8504.24
731.833	4583.59
736.437	2981.3
741.039	2115.41
745.638	1734.04
750.234	1859.07
754.828	2263.5
759.419	3984.33
764.008	6047.58
768.595	6301.9
773.178	4370.5
777.759	2221.81
782.338	1167.13
786.914	511.877
791.488	268.345
796.059	67.2861
800.627	127.12
805.193	146.227
809.756	412.62
814.317	185.415
818.875	19.2388
823.431	288.426
827.984	300.344
832.534	296.224
837.082	207.894
841.627	86.4209
846.17	157.141
850.71	224.107
855.248	466.628
859.783	645.654
864.316	1050.57
868.846	1309.4
873.373	1338.18
877.898	1716.95
882.42	1866.77
886.94	2518.72
891.457	4098.81
895.971	6975.07
900.483	10275.5
904.993	10531.5
909.5	7194.12
914.004	4177.42
918.505	2826.04
923.004	2036.03
927.501	2186.53
931.995	2063.89
936.486	2078.79
940.975	2304.5
945.461	3380.34
949.945	5040.29
954.426	8952.5
958.904	16176.6
963.38	23487.8
967.853	20838.7
972.324	19936.6
976.792	25411.1
981.258	26250.8
985.72	20784.4
990.181	18137.9
994.639	19147.1
999.094	21245
1003.55	20697.7
1008	15855.7
1012.44	9361.6
1016.89	5704.85
1021.33	3999.57
1025.77	3600.89
1030.21	3344.81
1034.64	3136.08
1039.07	3324.47
1043.5	3673.88
1047.93	4566.17
1052.35	6197.49
1056.78	7911.85
1061.19	5769.88
1065.61	3543.51
1070.02	2707.73
1074.43	3267.91
1078.84	5590.55
1083.25	7321.08
1087.65	5403.57
1092.05	3086.62
1096.45	2139.09
1100.85	1992.94
1105.24	1978.67
1109.63	1448.98
1114.02	923.573
1118.4	611.628
1122.78	422.017
1127.16	238.974
1131.54	83.3218
1135.92	104.014
1140.29	31.2612
1144.66	41.4448
1149.02	76.0625
1153.39	36.395
1157.75	3.24268
1162.11	110.796
1166.46	85.0127
1170.82	63.1719
1175.17	36.6055
1179.52	99.9551
1183.86	66.9302
1188.21	24.8457
1192.55	53.6792
1196.89	15.9502
1201.22	39.8227
1205.55	181.873
1209.88	87.5606
1214.21	111.984
1218.54	21.2661
1222.86	82.6201
1227.18	58.563
1231.5	9.59229
1235.81	1.26318
1240.12	84.1797
1244.43	178.022
1248.74	46.1899
1253.04	131.591
1257.34	164.972
1261.64	106.09
1265.94	179.834
1270.23	198.636
1274.52	232.688
1278.81	143.398
1283.1	216.675
1287.38	241.46
1291.66	188.234
1295.94	163.306
1300.21	59.0645
1304.48	48.7734
1308.75	22.7217
1313.02	22.3145
1317.29	63.1377
1321.55	194.886
1325.81	86.6016
1330.06	143.293
1334.32	111.884
1338.57	100.849
1342.82	181.388
1347.06	156.957
1351.31	172.62
1355.55	229.267
1359.79	275.587
1364.02	181.821
1368.26	256.981
1372.49	213.288
1376.71	257.185
1380.94	38.6294
1385.16	195.68
1389.38	182.945
1393.6	81.354
1397.81	113.214
1402.02	100.685
1406.23	185.627
1410.44	112.689
1414.64	166.502
1418.85	105.319
1423.04	324.955
1427.24	131.975
1431.43	141.049
1435.62	108.311
1439.81	136.125
1444	113.834
1448.18	118.143
1452.36	144.36
1456.54	89.8657
1460.71	96.7412
1464.89	18.3335
1469.06	27.1597
1473.22	111.019
1477.39	75.9561
1481.55	150.314
1485.71	97.8657
1489.86	108.334
1494.02	40.0464
1498.17	7.59277
1502.32	66.0435
1506.46	124.737
1510.61	33.2148
1514.75	116.259
1518.88	102.664
1523.02	89.3594
1527.15	97.2656
1531.28	169.462
1535.41	90.5063
1539.53	153.052
1543.66	9.86816
1547.78	106.239
1551.89	199.373
1556.01	270.909
1560.12	163.796
1564.23	124.44
1568.33	176.011
