Measurement: Raman, 514 nm, ccw, Raman Data Processed
Mineral: Axinite-(Fe)
Rruff sample: R050061
Ideal chemistry: Ca_4_Fe^2+^_2_Al_4_[B_2_Si_8_O_30_](OH)_2_
Locality: Jamestown, California, USA
Source: Rock Currier
Description: Brown colored axe-head-shaped single crystals
Measured chemistry: Ca_2.00_(Fe^2+^_0.73_Mg_0.20_Mn_0.07_)Al_2.00_BSi_4_O_15_(OH)
Pin_id: L00531
Orientation: Laser parallel to (1 1 0). Fiducial mark perpendicular to laser is parallel to -c [0 0 -1]
Raman shift (cm-1)	intensity
91.065	0
95.269	449.451
99.471	1747.24
103.67	4293.64
107.868	9986.82
112.063	7314.11
116.256	1749.14
120.447	292.02
124.636	69.865
128.822	122.646
133.006	538.76
137.188	1872.15
141.368	1949.84
145.545	2200.87
149.72	4846.17
153.893	4497.09
158.064	2154.56
162.233	1483.36
166.399	3095.01
170.563	5907.52
174.725	5211.6
178.885	1986.53
183.043	160.694
187.198	377.929
191.351	3317.95
195.502	4101.35
199.651	5205.93
203.797	9641.47
207.942	11507.8
212.084	8804.68
216.224	6521.67
220.362	3998.8
224.497	884.894
228.631	375.606
232.762	694.665
236.891	226.236
241.018	965.753
245.143	1883.28
249.265	2928.35
253.386	4668.88
257.504	5432.4
261.62	6142.04
265.734	9005.74
269.845	12050.7
273.955	12816.1
278.062	10111.3
282.167	7086.26
286.27	5750.87
290.371	5313.95
294.47	6264.61
298.567	7677.25
302.661	9839.02
306.753	11279.2
310.843	7848.85
314.931	6138.18
319.017	7167.2
323.101	5595.97
327.182	4631.7
331.261	4102.29
335.339	3612.89
339.414	5323.7
343.487	8894.83
347.557	11446.4
351.626	12141
355.693	7579.66
359.757	3031.38
363.819	1155.61
367.879	662.988
371.937	444.568
375.993	793.439
380.047	1997.14
384.099	5362.41
388.148	10875.5
392.196	11786.3
396.241	6523.02
400.284	2807.93
404.325	2292.02
408.364	3378.44
412.401	9180.6
416.435	22798.5
420.468	24206.2
424.498	20973.5
428.527	19500.5
432.553	11797
436.577	6223.08
440.599	6728.71
444.619	9503.89
448.637	5988.62
452.653	2777.9
456.667	1795.75
460.678	1261.4
464.688	842.167
468.695	1144.73
472.701	1789.87
476.704	3819.85
480.705	9682.06
484.704	17054.7
488.701	10477.8
492.696	3441.31
496.689	1437.91
500.68	878.608
504.668	544.516
508.655	189.02
512.639	229.929
516.622	434.831
520.602	451.797
524.581	371.076
528.557	132.943
532.531	365.963
536.503	556.234
540.473	450.656
544.441	301.626
548.407	282.116
552.371	432.379
556.333	1331.63
560.293	3338.03
564.251	4564.39
568.206	6573.37
572.16	9701.98
576.112	9330.2
580.061	6358.05
584.009	5455.53
587.954	7112.65
591.897	6679.39
595.839	3664.78
599.778	2220.81
603.716	1886.49
607.651	2581.83
611.584	4117.82
615.515	6132.49
619.444	7696.82
623.372	5790.83
627.297	2439.52
631.22	1038.06
635.141	794.154
639.06	1272.51
642.977	1872.76
646.892	1753.71
650.805	1058.78
654.716	628.273
658.625	659.006
662.532	1006.72
666.437	1933.83
670.34	3974.4
674.241	7747.82
678.139	9466.58
682.036	5960.12
685.931	3211.31
689.824	2247.22
693.715	2528.09
697.604	3640.55
701.491	6734.89
705.376	13099.6
709.259	26243.8
713.139	39091.3
717.018	31788.7
720.895	16446
724.77	8263.2
728.643	4320.3
732.514	2505.31
736.383	1483.25
740.25	841.145
744.115	656.99
747.978	492.805
751.839	576.601
755.698	813.39
759.555	1423.18
763.41	2436.99
767.263	2868.83
771.114	2168.7
774.964	1158.62
778.811	404.599
782.656	118.65
786.499	36.321
790.341	260.963
794.18	393.954
798.017	425.571
801.853	282.847
805.686	12.376
809.518	690.854
813.347	1059.84
817.175	673.442
821.001	131.302
824.824	114.318
828.646	97.535
832.466	27.248
836.284	91.04
840.1	239.618
843.914	698.795
847.726	1275.3
851.536	1845.13
855.344	2012.33
859.15	2274.95
862.954	2720.99
866.756	2919.43
870.557	2826.36
874.355	3129.78
878.152	3670.77
881.946	3932.35
885.739	5324.51
889.53	7897.22
893.318	12280.5
897.105	18284.3
900.89	24868.7
904.673	31663.6
908.454	31738.9
912.234	24394.8
916.011	15251.1
919.786	9837.93
923.56	7065.18
927.331	6282.95
931.101	5921.33
934.868	5380.3
938.634	5235.47
942.398	6165.48
946.16	8103.28
949.92	11495.8
953.678	14420.9
957.435	19216.9
961.189	26839.8
964.941	28903.3
968.692	23277.5
972.441	21062.4
976.187	25819.2
979.932	28841.6
983.675	26371.8
987.416	27888.2
991.155	29986
994.893	28514.5
998.628	27703.7
1002.36	25904.5
1006.09	20646.6
1009.82	13831.4
1013.55	8894.44
1017.28	6105.33
1021	4737.72
1024.72	4393.78
1028.44	4042.44
1032.16	3289.18
1035.88	2915.04
1039.59	2921.61
1043.31	3149.26
1047.02	3706.08
1050.73	4721.64
1054.43	5723.6
1058.14	5883.06
1061.84	4894.62
1065.54	3342.98
1069.24	2254.23
1072.94	2085.43
1076.64	2374.88
1080.33	3076.34
1084.03	2735.38
1087.71	1917.87
1091.4	1418.49
1095.09	1471.44
1098.78	1867.02
1102.46	2464.48
1106.14	2708.74
1109.82	2157.31
1113.5	1509.99
1117.17	1019.76
1120.85	716.343
1124.52	502.188
1128.19	255.687
1131.86	234.603
1135.52	127.619
1139.19	92.245
1142.85	144.013
1146.51	20.905
1150.17	58.686
1153.83	81.968
1157.48	60.305
1161.14	82.632
1164.79	87.753
1168.44	21.964
1172.09	37.642
1175.73	26.572
1179.38	100.873
1183.02	155.865
1186.66	136.63
1190.3	105.721
1193.94	9.646
1197.58	1.916
1201.21	38.804
1204.84	46.45
1208.47	46.87
1212.1	28.99
1215.72	59.36
1219.35	13.6
1222.97	32.434
1226.59	93.341
1230.21	142.199
1233.83	191.69
1237.45	120.483
1241.06	78.963
1244.67	69.833
1248.28	44.682
1251.89	114.186
1255.5	150.23
1259.1	156.697
1262.7	202.775
1266.31	165.803
1269.9	180.247
1273.5	139.994
1277.1	142.285
1280.69	145.188
1284.29	155.243
1287.88	244.474
1291.46	249.985
1295.05	316.778
1298.64	199.611
1302.22	117.424
1305.8	103.096
1309.38	61.182
1312.96	93.301
1316.54	219.788
1320.11	172.918
1323.68	245.847
1327.25	211.306
1330.82	208.323
1334.39	188.229
1337.96	33.115
1341.52	38.347
1345.08	115.408
1348.64	52.461
1352.2	163.4
1355.76	192.563
1359.31	273.604
1362.87	336.837
1366.42	217.89
1369.97	116.256
1373.52	134.895
1377.06	193.887
1380.61	163.147
1384.15	159.377
1387.69	191.727
1391.23	176.572
1394.77	239.358
1398.3	166.801
1401.84	197.684
1405.37	221.603
1408.9	145.077
1412.43	154.019
1415.96	100.123
1419.48	99.604
1423.01	139.554
1426.53	180.411
1430.05	206.578
1433.57	128.043
1437.08	212.761
1440.6	166.022
1444.11	141.187
1447.62	105.749
1451.13	46.744
1454.64	73.587
1458.15	33.346
1461.65	41.974
1465.16	136.192
1468.66	148.521
1472.16	262.728
1475.65	202.106
1479.15	167.806
1482.64	133.75
1486.14	206.933
1489.63	32.034
1493.12	44.043
1496.61	8.155
1500.09	41.174
1503.58	95.277
1507.06	134.58
1510.54	124.93
1514.02	135.773
