Measurement: Raman, 514 nm, ccw, Raman Data Processed
Mineral: Axinite-(Fe)
Rruff sample: R060183
Ideal chemistry: Ca_4_Fe^2+^_2_Al_4_[B_2_Si_8_O_30_](OH)_2_
Locality: Skagit Bluffs, near Manning Park, British Columbia, Canada
Source: Lloyd Twaites
Description: Light-pink transparent axe-head-shaped single crystal
Measured chemistry: Ca_2.00_(Fe^2+^_0.58_Mn_0.23_Mg_0.19_)Al_2.00_B_1.00_Si_4.00_O_15_(OH)
Pin_id: L01391
Orientation: Laser parallel to -a* (-1 0 0). Fiducial mark perpendicular to laser is parallel to -b [0 -1 0]
Raman shift (cm-1)	intensity
52.671	0
57.626	149.583
62.579	73.1469
67.529	31.5239
72.477	70.9065
77.423	271.196
82.367	1086.49
87.308	2098.64
92.246	4530.07
97.182	5533.14
102.116	6647.98
107.047	10266.9
111.976	8389.93
116.903	5964.16
121.827	5295.02
126.749	4907.93
131.668	3968.07
136.585	4232.04
141.5	4335.73
146.412	4630.27
151.321	5038.14
156.229	4890.72
161.134	3820.11
166.036	5991.28
170.936	8044.18
175.834	3995.73
180.729	1567.85
185.622	853.91
190.512	1506.42
195.4	2041.67
200.286	2663.15
205.169	4493.84
210.049	5868.32
214.928	4713.55
219.803	2854.5
224.677	953.384
229.548	302.372
234.416	618.443
239.282	1533.37
244.146	2505.01
249.007	2920.21
253.866	3456.93
258.722	3900.6
263.576	4534.43
268.427	6746.84
273.276	8237.54
278.123	6313.44
282.967	3815.53
287.809	3313.72
292.648	3912.93
297.485	4430.09
302.319	4448.16
307.151	4115.08
311.98	3767.79
316.807	5994.23
321.631	5449.34
326.454	3432.07
331.273	2922.35
336.09	3762.13
340.905	6282.36
345.717	6292.03
350.527	4723.87
355.334	1729.2
360.139	131.255
364.941	487.424
369.741	227.014
374.538	9.93799
379.333	480.089
384.126	2740.74
388.916	4915.26
393.703	4882.56
398.488	2984.65
403.271	1670.9
408.051	1618.23
412.828	3355.6
417.603	5786.97
422.376	6798.29
427.146	7401.53
431.914	6024.65
436.679	3305.59
441.442	3574.33
446.202	2954.82
450.96	1370.01
455.715	1003.88
460.467	503.39
465.218	433.492
469.965	971.155
474.711	1007.34
479.454	2253.02
484.194	3156.16
488.932	1044.72
493.667	19.7529
498.4	123.262
503.13	561.936
507.858	1079.74
512.583	1159.97
517.306	465.69
522.026	230.744
526.744	325.32
531.459	176.497
536.172	20.2124
540.882	364.146
545.59	812.537
550.295	903.269
554.998	1541.31
559.698	2441.45
564.396	1759.54
569.091	1748.55
573.784	1917.43
578.474	1501.18
583.162	1692.76
587.847	2138.16
592.529	1164.34
597.209	442.293
601.887	606.986
606.562	1031.4
611.235	1688.53
615.905	2192.33
620.572	2059.81
625.237	978.93
629.9	276.117
634.56	500.153
639.217	1096.23
643.872	1457.3
648.524	965.268
653.174	450.097
657.821	307.281
662.466	693.87
667.108	1604.02
671.748	3804.87
676.385	5854.28
681.02	3899.7
685.652	1964.81
690.281	1508.48
694.908	1838.35
699.533	3662.23
704.155	7832.21
708.774	16730.7
713.391	24685.6
718.005	17544
722.617	8017.9
727.226	3688.26
731.833	1810.11
736.437	1084.44
741.039	579.265
745.638	387.586
750.234	336.412
754.828	435.751
759.419	686.609
764.008	1090
768.595	1096.66
773.178	691.332
777.759	335.878
782.338	22.0825
786.914	112.666
791.488	133.478
796.059	181.583
800.627	145.64
805.193	9.07422
809.756	224.198
814.317	254.255
818.875	73.3203
823.431	30.1167
827.984	54.5166
832.534	57.2358
837.082	120.589
841.627	272.717
846.17	599.643
850.71	980.389
855.248	1136.97
859.783	1281.42
864.316	1447.74
868.846	1675.01
873.373	1688.23
877.898	1892.41
882.42	1976.64
886.94	2300.93
891.457	3445.25
895.971	5332.59
900.483	7756.03
904.993	8054.69
909.5	5852.52
914.004	3904.63
918.505	2616.64
923.004	2284.1
927.501	2206.69
931.995	2029.49
936.486	1694.33
940.975	1875.85
945.461	2644.43
949.945	4092.58
954.426	5996.8
958.904	9437.02
963.38	12422.2
967.853	10952.3
972.324	10757.7
976.792	13738.8
981.258	13884.5
985.72	11332.7
990.181	10123.4
994.639	9589.56
999.094	10125.8
1003.55	8261.3
1008	5906.05
1012.44	3697.63
1016.89	2332.39
1021.33	1842.09
1025.77	1499.73
1030.21	1457.96
1034.64	1563.19
1039.07	1800.93
1043.5	2191.7
1047.93	2375.14
1052.35	3318.64
1056.78	3999.85
1061.19	3227.43
1065.61	2030.49
1070.02	1492.52
1074.43	1644.03
1078.84	2770.3
1083.25	3496.4
1087.65	2329.67
1092.05	1384.14
1096.45	831.427
1100.85	659.839
1105.24	567.036
1109.63	466.601
1114.02	305.915
1118.4	146.673
1122.78	202.943
1127.16	153.658
1131.54	8.80078
1135.92	37.4282
1140.29	37.812
1144.66	84.0981
1149.02	101.622
1153.39	23.272
1157.75	19.915
1162.11	48.9673
1166.46	16.2378
1170.82	4.91309
1175.17	23.9614
1179.52	160.267
1183.86	28.6094
1188.21	95.8804
1192.55	23.0386
1196.89	46.8091
1201.22	43.2754
1205.55	26.5635
1209.88	49.8496
1214.21	36.6645
1218.54	101.466
1222.86	22.3213
1227.18	55.8447
1231.5	49.9185
1235.81	32.0669
1240.12	41.5962
1244.43	51.4258
1248.74	178.683
1253.04	130.507
1257.34	71.98
1261.64	111.633
1265.94	210.094
1270.23	182.148
1274.52	165.579
1278.81	205.649
1283.1	165.631
1287.38	202.058
1291.66	151.101
1295.94	162.059
1300.21	46.5908
1304.48	156.786
1308.75	127.239
1313.02	108.977
1317.29	125.465
1321.55	162.663
1325.81	54.8462
1330.06	74.9238
1334.32	142.933
1338.57	135.924
1342.82	142.33
1347.06	95.4824
1351.31	92.6587
1355.55	121.127
1359.79	139.017
1364.02	110.988
1368.26	105.207
1372.49	122.675
1376.71	125.528
1380.94	156.335
1385.16	160.763
1389.38	140
1393.6	78.71
1397.81	89.8955
1402.02	140.884
1406.23	130.366
1410.44	121.189
1414.64	65.2817
1418.85	96.4541
1423.04	93.5532
1427.24	97.4136
1431.43	189.072
1435.62	148.761
1439.81	217.388
1444	282.23
1448.18	198.38
1452.36	313.666
1456.54	236.532
1460.71	154.938
1464.89	107.807
1469.06	179.435
1473.22	175.001
1477.39	140.85
1481.55	144.011
1485.71	4.62891
1489.86	136.037
1494.02	124.891
1498.17	6.0332
1502.32	26.5713
1506.46	117.042
1510.61	109.872
1514.75	120.93
1518.88	14.3257
1523.02	40.5425
1527.15	77.7353
1531.28	55.8838
1535.41	106.061
1539.53	138.657
1543.66	85.8848
1547.78	107.108
1551.89	127.683
1556.01	272.457
1560.12	67.4741
1564.23	44.7422
1568.33	27.0503
