Measurement: Raman, 514 nm, ccw, Raman Data Processed
Mineral: Axinite-(Fe)
Rruff sample: R060183
Ideal chemistry: Ca_4_Fe^2+^_2_Al_4_[B_2_Si_8_O_30_](OH)_2_
Locality: Skagit Bluffs, near Manning Park, British Columbia, Canada
Source: Lloyd Twaites
Description: Light-pink transparent axe-head-shaped single crystal
Measured chemistry: Ca_2.00_(Fe^2+^_0.58_Mn_0.23_Mg_0.19_)Al_2.00_B_1.00_Si_4.00_O_15_(OH)
Pin_id: L01002
Orientation: Laser parallel to (-1 0 -1). Fiducial mark perpendicular to laser is parallel to b [0 1 0]
Raman shift (cm-1)	intensity
52.671	0
57.626	1186.52
62.579	231.085
67.529	1.92163
72.477	30.7409
77.423	47.1566
82.367	202.762
87.308	974.931
92.246	2899.46
97.182	3986.78
102.116	3113.64
107.047	3316.73
111.976	2617.2
116.903	2514.4
121.827	2579.82
126.749	3573.91
131.668	3242.54
136.585	3019.1
141.5	3745.84
146.412	6646.76
151.321	10256.5
156.229	6283.58
161.134	4564.85
166.036	5874.31
170.936	10339.9
175.834	8740.44
180.729	4549.89
185.622	1702.11
190.512	1023.95
195.4	1572.29
200.286	2354.19
205.169	4926.27
210.049	7615.48
214.928	8376.37
219.803	7194.92
224.677	2906.72
229.548	951.749
234.416	793.79
239.282	1558.31
244.146	3209.41
249.007	4572.43
253.866	5709.17
258.722	6105.46
263.576	6353.16
268.427	5987.08
273.276	5310.07
278.123	3965.03
282.967	3532.94
287.809	2774.72
292.648	2018.3
297.485	2780.58
302.319	5370.5
307.151	7828.97
311.98	5549.89
316.807	6523.2
321.631	6578.81
326.454	5329.63
331.273	5232.58
336.09	6534.59
340.905	10536.6
345.717	11232.5
350.527	8797.82
355.334	3419.73
360.139	419.277
364.941	420.668
369.741	328.679
374.538	209.778
379.333	1718.23
384.126	4931.48
388.916	9169.16
393.703	8594.43
398.488	3834.38
403.271	1777.12
408.051	1755.71
412.828	3911.58
417.603	8785.66
422.376	13592.9
427.146	12605.1
431.914	7236.44
436.679	3318.68
441.442	2084.8
446.202	1847.74
450.96	1604.44
455.715	1963.84
460.467	1366.87
465.218	1334.49
469.965	2610.64
474.711	5506.25
479.454	14064.3
484.194	25542.7
488.932	13391.4
493.667	4853.34
498.4	2311.49
503.13	1096.93
507.858	309.232
512.583	189.834
517.306	516.262
522.026	588.445
526.744	296.975
531.459	142.862
536.172	451.493
540.882	411.856
545.59	422.848
550.295	801.434
554.998	2049.63
559.698	3812.39
564.396	3457.67
569.091	3632.44
573.784	4303.66
578.474	3539.3
583.162	2743.32
587.847	2503.69
592.529	1864.37
597.209	1254.35
601.887	1767.59
606.562	3460.06
611.235	7720.75
615.905	14538.6
620.572	16985.7
625.237	8359.87
629.9	3055.2
634.56	1575.65
639.217	1680.2
643.872	2009.09
648.524	1864.15
653.174	1539.73
657.821	1531.66
662.466	2426.42
667.108	4676.09
671.748	9292.96
676.385	15168.7
681.02	12364.4
685.652	7161.6
690.281	5193.28
694.908	5868.95
699.533	9008.61
704.155	16936.3
708.774	33645
713.391	53322.7
718.005	45523.5
722.617	22990.8
727.226	10185.3
731.833	5140.36
736.437	2975.57
741.039	1975.95
745.638	1654.52
750.234	1766.32
754.828	2558.37
759.419	3209.71
764.008	3361.38
768.595	2923.43
773.178	1607.89
777.759	619.817
782.338	22.2095
786.914	310.944
791.488	487.547
796.059	617.89
800.627	536.754
805.193	254.417
809.756	547.733
814.317	1368.86
818.875	804.868
823.431	265.854
827.984	124.846
832.534	191.33
837.082	448.008
841.627	829.283
846.17	1438.76
850.71	1855.48
855.248	2240.51
859.783	2568.89
864.316	2788.67
868.846	3027.9
873.373	3100.63
877.898	3516
882.42	4132.86
886.94	5340.64
891.457	7632.38
895.971	11293.1
900.483	14684.1
904.993	14406.4
909.5	10704.1
914.004	7721.1
918.505	5797.93
923.004	5051.39
927.501	5249.81
931.995	5675.38
936.486	6410.21
940.975	8583.11
945.461	13528
949.945	20791.5
954.426	28033.8
958.904	35975.8
963.38	43355.8
967.853	35279.4
972.324	26789.8
976.792	26987
981.258	27395.9
985.72	23883.6
990.181	21355
994.639	18729.1
999.094	17392.9
1003.55	16238.3
1008	13139.5
1012.44	8847.46
1016.89	5713.7
1021.33	3567.51
1025.77	2579.2
1030.21	2043.17
1034.64	1939.43
1039.07	2203.6
1043.5	2772.85
1047.93	3922.53
1052.35	5811.02
1056.78	7588.32
1061.19	7103.14
1065.61	4925.22
1070.02	3385.28
1074.43	3485.87
1078.84	4607.81
1083.25	5639.02
1087.65	3911.4
1092.05	2312.57
1096.45	1779.37
1100.85	2127.18
1105.24	2593.38
1109.63	2382.17
1114.02	1794.7
1118.4	1285.89
1122.78	1017.57
1127.16	648.197
1131.54	330.34
1135.92	255.65
1140.29	16.8896
1144.66	3.1665
1149.02	116.103
1153.39	164.205
1157.75	72.9971
1162.11	196.76
1166.46	117.9
1170.82	110.074
1175.17	137.38
1179.52	78.0493
1183.86	17.459
1188.21	82.4441
1192.55	57.3447
1196.89	32.6677
1201.22	35.6992
1205.55	70.3298
1209.88	82.7666
1214.21	55.1753
1218.54	67.4228
1222.86	144.888
1227.18	155.609
1231.5	180.294
1235.81	135.7
1240.12	183.478
1244.43	222.824
1248.74	254.728
1253.04	303.03
1257.34	227.947
1261.64	359.659
1265.94	390.096
1270.23	370.608
1274.52	389.871
1278.81	421.634
1283.1	393.77
1287.38	466.084
1291.66	403.101
1295.94	373.545
1300.21	270.379
1304.48	330.253
1308.75	240.649
1313.02	193.737
1317.29	253.668
1321.55	216.819
1325.81	158.065
1330.06	225.989
1334.32	244.7
1338.57	165.676
1342.82	209.013
1347.06	212.276
1351.31	240.842
1355.55	231.354
1359.79	306.561
1364.02	227.401
1368.26	201.323
1372.49	226.859
1376.71	204.315
1380.94	160.082
1385.16	229.957
1389.38	216.89
1393.6	237.318
1397.81	158.965
1402.02	168.459
1406.23	104.509
1410.44	117.972
1414.64	204.939
1418.85	166.454
1423.04	193.597
1427.24	167.888
1431.43	156.935
1435.62	123.114
1439.81	149.899
1444	124.035
1448.18	8.67822
1452.36	60.7602
1456.54	77.9304
1460.71	73.1211
1464.89	77.3425
1469.06	87.8726
1473.22	43.7991
1477.39	44.5605
1481.55	25.4058
1485.71	70.0413
1489.86	137.677
1494.02	55.7637
1498.17	40.616
1502.32	3.34619
1506.46	105.99
1510.61	57.7124
1514.75	86.1875
1518.88	73.4436
1523.02	80.2532
1527.15	49.9941
1531.28	45.4744
1535.41	121.274
1539.53	59.0457
1543.66	84.3247
1547.78	45.4331
1551.89	94.814
1556.01	111.536
1560.12	128.465
1564.23	28.498
1568.33	118.097
