Measurement: Raman, 514 nm, ccw, Raman Data Processed
Mineral: Axinite-(Fe)
Rruff sample: R050026
Ideal chemistry: Ca_4_Fe^2+^_2_Al_4_[B_2_Si_8_O_30_](OH)_2_
Locality: Pouyva mine, Polar Urals, Western Siberian Region, Russia
Source: Rock Currier
Description: Brown transparent flat crystal
Measured chemistry: Ca_2.00_(Fe^2+^_0.61_Mn_0.26_Mg_0.13_)Al_2.00_BSi_4_O_15_(OH)
Pin_id: L00053
Orientation: Laser parallel to (0 1 1). Fiducial mark perpendicular to laser is parallel to a [1 0 0]
Raman shift (cm-1)	intensity
91.284	0
95.465	113.295
99.644	307.84
103.82	438.005
107.995	2146.8
112.168	5218.17
116.339	2379.42
120.508	685.056
124.675	164.552
128.84	46.214
133.003	12.021
137.164	226.593
141.323	1419.03
145.48	1270.22
149.635	1039.54
153.788	1697.88
157.939	945.095
162.088	757.134
166.235	1117.92
170.38	3173.27
174.523	4441.69
178.664	1937.39
182.803	287.514
186.94	239.002
191.076	69.728
195.209	1416.62
199.34	1070.81
203.47	1497.07
207.597	3502.67
211.722	6308.11
215.846	5795.52
219.967	3687.83
224.087	1806.49
228.204	524.437
232.32	162.176
236.434	80.745
240.545	219.917
244.655	284.68
248.763	715.215
252.869	1436.53
256.973	2855.44
261.075	2140.54
265.175	1834.47
269.273	2753.53
273.369	4825.43
277.463	6759.06
281.556	5441.09
285.646	2928.74
289.734	2706.09
293.821	3799.21
297.905	5036.52
301.988	4601.11
306.069	4342.97
310.147	4294.34
314.224	4352.56
318.299	7467.39
322.372	9318.79
326.443	5204.03
330.512	2807.16
334.579	1906.28
338.645	2540.08
342.708	6115.45
346.769	7612.12
350.829	3846.82
354.887	2353.66
358.942	1100.83
362.996	358.679
367.048	60.93
371.098	49.042
375.146	44.188
379.192	126.337
383.236	488.262
387.279	1810
391.319	3187.57
395.358	2542.9
399.394	1209.71
403.429	744.153
407.462	585.623
411.493	897.861
415.522	2027.97
419.549	4181.91
423.575	3905.65
427.598	4927.18
431.619	6441.47
435.639	4990.54
439.657	2585.38
443.673	2651.99
447.687	2982.39
451.699	1092.57
455.709	425.527
459.717	166.279
463.724	18.222
467.728	72.226
471.731	92.824
475.732	58.966
479.731	208.445
483.728	509.724
487.723	793.825
491.716	278.791
495.708	72.617
499.697	82.919
503.685	99.166
507.671	14.937
511.655	74.867
515.637	143.131
519.617	12.383
523.596	45.414
527.572	53.227
531.547	119.387
535.52	287.098
539.491	572.25
543.46	1357.37
547.427	2210.52
551.393	1791.51
555.356	1373.33
559.318	1774.01
563.278	2192.53
567.236	1437.91
571.192	1218.14
575.147	1207.21
579.099	1053.15
583.05	1160.93
586.999	1440.58
590.946	1715.08
594.891	1011.45
598.834	471.678
602.776	336.779
606.715	270.752
610.653	248.599
614.589	479.322
618.523	784.209
622.456	884.249
626.386	435.521
630.315	198.543
634.242	261.059
638.167	599.105
642.09	1072.58
646.012	1308.61
649.931	841.666
653.849	468.309
657.765	275.771
661.679	173.954
665.592	204.423
669.502	482.975
673.411	1324.94
677.318	2829.6
681.223	2679.44
685.126	1389.59
689.028	778.561
692.927	762.573
696.825	1024.2
700.721	1519.8
704.616	2745.35
708.508	5659.85
712.399	11802.3
716.288	15317.5
720.175	11033.2
724.06	5400.54
727.944	2928.89
731.825	1770.21
735.705	1276.52
739.584	938.808
743.46	838.086
747.334	451.355
751.207	510.618
755.078	582.878
758.947	818.138
762.815	1163.4
766.68	1555.67
770.544	1769.95
774.406	1391.25
778.267	934.649
782.125	553.248
785.982	226.082
789.837	81.022
793.69	82.178
797.542	48.271
801.391	4.65
805.239	27.672
809.085	48.266
812.93	194.403
816.772	188.864
820.613	60.535
824.452	5.827
828.29	146.362
832.125	120.28
835.959	50.481
839.791	0.823
843.621	46.689
847.45	59.178
851.277	5.7
855.102	80.278
858.925	287.918
862.746	382.622
866.566	410.398
870.384	497.255
874.2	392.207
878.015	379.277
881.828	469.449
885.639	496.738
889.448	483.113
893.256	476.579
897.061	585.147
900.865	800.836
904.668	925.629
908.468	836.52
912.267	574.52
916.064	406.646
919.86	341.884
923.653	504.223
927.445	729.684
931.236	892.309
935.024	923.09
938.811	819.991
942.596	917.988
946.379	1372.47
950.161	2076.27
953.94	3002.01
957.719	4454.12
961.495	6988.64
965.27	8937.27
969.043	7665.99
972.814	6754.81
976.583	7813.33
980.351	8846.25
984.117	7127.08
987.882	4797.52
991.644	3720.11
995.405	3366.45
999.165	3610.52
1002.92	3834.53
1006.68	3375.41
1010.43	2386.42
1014.18	1574.61
1017.93	1183.06
1021.68	895.576
1025.43	876.555
1029.18	863.302
1032.92	791.206
1036.66	650.551
1040.4	741.069
1044.14	913.374
1047.88	1216.73
1051.62	1620.21
1055.35	2157.49
1059.08	2047.74
1062.81	1542.63
1066.54	1033.96
1070.27	1058.88
1073.99	1151.66
1077.72	1849.33
1081.44	2827.5
1085.16	3262.2
1088.88	2223
1092.59	1410.78
1096.31	939.342
1100.02	744.097
1103.73	635.963
1107.44	397.271
1111.15	340.301
1114.86	409.562
1118.57	113.12
1122.27	108.396
1125.97	100.143
1129.67	194.413
1133.37	143.181
1137.07	92.987
1140.76	11.03
1144.45	45.555
1148.15	14.421
1151.84	94.005
1155.53	101.987
1159.21	102.146
1162.9	93.185
1166.58	22.903
1170.26	50.764
1173.94	72.468
1177.62	13.76
1181.3	61.313
1184.97	73.053
1188.65	127.976
1192.32	37.028
1195.99	16.814
1199.66	23.585
1203.33	9.742
1206.99	13.052
1210.65	82.663
1214.32	97.398
1217.98	155.952
1221.64	91.566
1225.29	61.173
1228.95	43.146
1232.6	9.871
1236.26	45.785
1239.91	52.425
1243.56	99.833
1247.2	95.346
1250.85	129.656
1254.49	52.934
1258.13	11.176
1261.78	41.28
1265.41	24.358
1269.05	82.015
1272.69	129.711
1276.32	146.971
1279.95	153.085
1283.59	143.763
1287.21	21.411
1290.84	46.472
1294.47	28.5
1298.09	70.771
1301.72	59.691
1305.34	72.432
1308.96	12.942
1312.58	132.159
1316.19	88.896
1319.81	76.01
1323.42	26.21
1327.03	23.297
1330.64	76.332
1334.25	74.159
1337.86	102.182
1341.46	124.282
1345.07	160.396
1348.67	122.74
1352.27	114.824
1355.87	75.114
1359.46	74.803
1363.06	46.852
1366.65	138.9
1370.25	90.416
1373.84	76.906
1377.43	136.866
1381.02	186.571
1384.6	166.223
1388.18	151.105
1391.77	140.244
1395.35	54.92
1398.93	46.016
1402.51	68.198
1406.08	96.546
1409.66	98.034
1413.23	131.533
1416.8	161.744
1420.37	237.95
1423.94	150.414
1427.51	147.17
1431.08	84.772
1434.64	85.851
1438.2	13.95
1441.76	55.786
1445.32	69.325
1448.88	128.502
1452.43	145.294
1455.99	172.633
1459.54	190.364
1463.09	152.153
1466.64	108.783
1470.19	58.687
1473.74	36.635
1477.28	23.106
1480.83	1.978
1484.37	55.569
1487.91	104.294
1491.45	70.126
1494.98	110.547
1498.52	194.237
1502.05	169.411
1505.59	142.833
1509.12	83.256
1512.65	89.275
1516.17	0.837
1519.7	0
