Measurement: Raman, 514 nm, ccw, Raman Data Processed
Mineral: Axinite-(Fe)
Rruff sample: R060558
Ideal chemistry: Ca_4_Fe^2+^_2_Al_4_[B_2_Si_8_O_30_](OH)_2_
Locality: unknown
Source: Gemological Institute of America
Description: Brown flattened crystal
Measured chemistry: Ca_2.00_(Fe^2+^_0.60_Mg_0.35_Mn_0.05_)_Î£=1_Al_2.00_BSi_4.00_O_15_(OH) ; B not measured
Pin_id: M00869
Orientation: Laser parallel to (0 1 1). Fiducial mark perpendicular to laser is parallel to a [1 0 0]
Raman shift (cm-1)	intensity
129	0
133.933	76.1287
138.864	723.735
143.791	1473.93
148.716	879.821
153.638	903.325
158.558	1085.92
163.475	659.31
168.389	867.381
173.3	1441.12
178.209	677.675
183.115	95.4238
188.018	7.63184
192.918	112.771
197.816	338.541
202.711	602.498
207.604	1219.48
212.494	1594.68
217.381	1480.98
222.265	880.136
227.147	276.977
232.026	53.6543
236.902	123.448
241.775	9.85327
246.646	215.177
251.514	722.019
256.38	1625.43
261.243	2003.91
266.103	2756.69
270.96	3966.88
275.815	4050.96
280.667	2754
285.516	1562.38
290.363	1612.56
295.207	2289.88
300.048	3002.21
304.887	3156.38
309.723	2840.43
314.556	1662.51
319.387	931.68
324.215	587.963
329.04	557.805
333.862	719.834
338.682	936.46
343.5	1891.39
348.314	3013.59
353.126	3807.03
357.935	2656.68
362.742	866.346
367.546	267.829
372.347	73.041
377.145	85.22
381.941	288.334
386.735	847.661
391.525	1561.65
396.313	1069.52
401.098	497.483
405.881	612.998
410.661	1057.79
415.438	2234.17
420.213	4166.48
424.985	4047.89
429.754	3844.34
434.521	2222.81
439.285	1943.29
444.046	3436.78
448.805	3570.28
453.561	1039.81
458.315	306.355
463.065	106.927
467.813	140.519
472.559	360.129
477.302	929.809
482.042	2069.71
486.78	3330.67
491.515	1535.67
496.247	316.688
500.977	57.7261
505.704	11.2478
510.428	33.5608
515.15	9.76392
519.869	64.1008
524.586	43.4973
529.3	36.0642
534.011	144.249
538.719	156.541
543.425	67.8098
548.129	34.0747
552.83	44.5815
557.528	42.7165
562.223	374.185
566.916	322.733
571.607	456.238
576.294	696.696
580.979	872.103
585.662	1529.46
590.341	2492.76
595.019	1821
599.693	760.183
604.365	346.303
609.035	498.357
613.701	703.345
618.366	690.263
623.027	356.105
627.686	130.868
632.342	58.5498
636.996	171.148
641.647	471.66
646.296	513.279
650.942	273.759
655.585	117.978
660.226	79.3237
664.864	251.333
669.499	754.827
674.132	1618.73
678.763	2277.57
683.39	1299.37
688.015	625.073
692.638	510.458
697.258	774.915
701.875	1512.81
706.49	3657.8
711.102	7478.25
715.712	10311.3
720.319	6269.23
724.923	2737.04
729.525	1269.74
734.124	706.335
738.721	388.816
743.315	262.19
747.907	176.459
752.496	120.627
757.082	211.696
761.666	299.671
766.247	444.553
770.826	528.345
775.402	289.051
779.975	122.674
784.546	68.2449
789.115	20.8355
793.681	35.706
798.244	1.56103
802.804	9.41406
807.363	75.844
811.918	149.114
816.471	100.331
821.022	5.48633
825.569	93.5244
830.115	114.035
834.657	27.1043
839.198	6.354
843.735	76.6475
848.27	308.163
852.803	365.184
857.333	459.44
861.86	440.705
866.385	400.986
870.907	355.291
875.427	479.619
879.944	643.994
884.459	931.533
888.971	1340.98
893.481	2305.63
897.988	3630.34
902.492	4388.1
906.994	4498.92
911.493	3361.8
915.99	2085.77
920.485	1311.8
924.976	980.104
929.466	917.582
933.952	877.476
938.436	750.026
942.918	876.579
947.397	1113.23
951.874	1586.99
956.348	2194.68
960.819	3176.1
965.288	4333.92
969.755	4462.52
974.219	5279.59
978.68	7329.36
983.139	8019.3
987.595	6332.42
992.049	5814.98
996.501	5946.12
1000.95	6565.79
1005.4	6217.62
1009.84	4377.42
1014.28	2532.81
1018.72	1393.07
1023.16	946.114
1027.59	790.102
1032.02	671.009
1036.45	487.679
1040.88	338.064
1045.3	379.469
1049.72	332.014
1054.14	339.991
1058.56	402.684
1062.97	417.979
1067.38	284.898
1071.79	109.049
1076.19	140.735
1080.6	148.529
1085	160.291
1089.4	162.049
1093.79	107.542
1098.19	147.567
1102.58	100.381
1106.97	49.7336
1111.35	51.3738
1115.74	94.3599
1120.12	92.6194
1124.5	14.3677
1128.87	0.966797
1133.25	46.5523
1137.62	9.62109
1141.99	1.77344
1146.35	14.8379
1150.72	23.1616
1155.08	27.7541
1159.44	14.3201
1163.79	64.615
1168.15	23.2927
1172.5	13.2483
1176.85	54.0991
1181.19	14.2007
1185.54	47.1787
1189.88	2.88379
1194.22	9.47192
1198.55	20.2866
1202.89	9.25977
1207.22	29.0456
1211.55	39.2847
1215.88	30.0928
1220.2	13.2217
1224.52	41.6758
1228.84	54.6152
1233.16	28.1626
1237.47	40.529
1241.78	18.7251
1246.09	40.7944
1250.4	81.6885
1254.7	95.1733
1259.01	99.3506
1263.31	55.8188
1267.6	31.5481
1271.9	26.8401
1276.19	28.2852
1280.48	57.8523
1284.77	50.7918
1289.05	32.4099
1293.33	73.3235
1297.61	64.6284
1301.89	64.1023
1306.16	83.6868
1310.44	59.4475
1314.71	52.7932
1318.97	8.99414
1323.24	26.6621
1327.5	80.6487
1331.76	114.806
1336.02	51.043
1340.28	39.9368
1344.53	88.875
1348.78	48.6528
1353.03	45.7358
1357.27	40.2375
1361.52	41.9019
1365.76	84.1746
1370	85.855
1374.23	69.6411
1378.47	59.9092
1382.7	17.7136
1386.93	32.9243
1391.15	6.22436
1395.38	56.9214
1399.6	38.3765
1403.82	86.7163
1408.03	94.3301
1412.25	39.9692
1416.46	9.27539
1420.67	66.9255
1424.88	74.1445
1429.08	71.4634
1433.28	91.3025
1437.48	80.3218
1441.68	61.1155
1445.87	44.72
1450.07	51.9216
1454.26	54.7954
1458.44	28.9705
1462.63	42.762
1466.81	24.0974
1470.99	52.667
1475.17	10.072
1479.34	49.7871
1483.52	38.2275
1487.69	42.5664
1491.86	36.8765
1496.02	73.4211
1500.19	50.9316
1504.35	54.5144
1508.51	58.9417
1512.66	57.3884
1516.82	70.3276
1520.97	65.2092
1525.12	74.989
1529.26	97.3511
1533.41	54.9707
1537.55	114.466
1541.69	97.6587
1545.83	58.3157
1549.96	38.645
1554.09	69.7002
1558.22	41.7991
1562.35	23.0933
