Measurement: Raman, 514 nm, ccw, Raman Data Processed
Mineral: Axinite-(Fe)
Rruff sample: R050026
Ideal chemistry: Ca_4_Fe^2+^_2_Al_4_[B_2_Si_8_O_30_](OH)_2_
Locality: Pouyva mine, Polar Urals, Western Siberian Region, Russia
Source: Rock Currier
Description: Brown transparent flat crystal
Measured chemistry: Ca_2.00_(Fe^2+^_0.61_Mn_0.26_Mg_0.13_)Al_2.00_BSi_4_O_15_(OH)
Pin_id: L00053
Orientation: Laser parallel to (0 1 1). Fiducial mark perpendicular to laser is parallel to a [1 0 0]
Raman shift (cm-1)	intensity
94.071	0
98.251	293.555
102.428	1703.4
106.604	3308.19
110.777	7782.76
114.949	4947.4
119.119	1363.16
123.286	317.604
127.452	7.772
131.615	44.969
135.777	1.305
139.937	852.897
144.094	865.628
148.25	554.7
152.403	476.704
156.555	526.906
160.705	822.907
164.853	973.029
168.998	1772.49
173.142	3604.57
177.284	3254.61
181.424	1551.41
185.562	587.245
189.698	482.419
193.831	1453.41
197.963	1496.41
202.093	2017.74
206.221	5511.65
210.347	5985.72
214.472	3163.74
218.594	1179.49
222.714	295.002
226.832	69.891
230.948	239.776
235.063	228.439
239.175	55.92
243.286	842.208
247.394	1564.57
251.501	1544.37
255.605	1936.12
259.708	1675.13
263.808	1497.83
267.907	2399.59
272.004	4367.2
276.099	6020.61
280.192	4879.57
284.283	2894.35
288.372	2117.4
292.459	1813.67
296.544	2366.49
300.627	3664.71
304.709	6240.05
308.788	8571.11
312.865	4767.61
316.941	2017.78
321.015	1091.07
325.086	907.507
329.156	1407.25
333.224	1282.32
337.29	756.417
341.354	1286.68
345.416	2865.35
349.476	4949.36
353.534	7151.81
357.591	4151.86
361.645	1650.36
365.698	727.695
369.748	407.82
373.797	249.345
377.844	396.344
381.889	748.217
385.932	1748.72
389.973	4324.27
394.012	4310.33
398.049	2138.56
402.084	1086
406.118	868.596
410.15	1367.8
414.179	4050.01
418.207	10962.2
422.233	7531.38
426.257	4806.24
430.279	4015.99
434.299	2395.95
438.318	1022.85
442.334	1100.47
446.349	1897.87
450.361	982.046
454.372	229.038
458.381	0.09
462.388	24.283
466.394	54.731
470.397	86.998
474.398	467.457
478.398	1557.73
482.396	4436.18
486.391	7355.25
490.385	3291.35
494.377	1008.78
498.368	500.489
502.356	397.664
506.342	446.48
510.327	388.78
514.31	258.594
518.291	58.422
522.27	18.793
526.247	2.197
530.222	156.286
534.196	420.024
538.167	508.571
542.137	308.022
546.105	207.885
550.071	176.851
554.035	127.385
557.998	138.688
561.958	289.542
565.917	647.42
569.874	1390.17
573.829	2300.78
577.782	2121.25
581.733	1816.58
585.683	2736.77
589.63	3917.47
593.576	3357.75
597.52	1516.54
601.462	785.207
605.402	526.745
609.341	405.16
613.277	411.268
617.212	436.029
621.145	408.113
625.076	206.865
629.006	24.156
632.933	109.865
636.859	65.142
640.783	7.624
644.705	165.508
648.625	90.922
652.543	69.42
656.46	125.217
660.375	47.656
664.288	85.448
668.199	287.814
672.108	800.933
676.016	1879.21
679.921	2416.08
683.825	1613.2
687.727	824.673
691.628	568.026
695.526	759.324
699.423	1380.03
703.318	2645.6
707.211	4856.94
711.102	9058.39
714.992	13986.1
718.879	11304.7
722.765	6144.37
726.649	3104.93
730.532	1684.38
734.412	1014.75
738.291	669.032
742.168	557.229
746.043	437.346
749.916	299.388
753.788	342.359
757.658	572.262
761.526	1020.1
765.392	1675.88
769.257	1982.61
773.119	1626.31
776.98	961.008
780.839	655.771
784.697	427.881
788.552	160.016
792.406	8.054
796.258	16.459
800.108	23.528
803.957	50.988
807.804	261.527
811.649	474.048
815.492	530.417
819.333	202.698
823.173	11.155
827.011	87.211
830.847	80.827
834.681	88.632
838.514	12.505
842.345	108.725
846.174	295.039
850.001	482.446
853.827	537.953
857.651	417.565
861.473	324.312
865.293	361.218
869.112	477.281
872.928	565.494
876.744	601.876
880.557	830.417
884.369	1269.12
888.178	1905.01
891.987	3104.06
895.793	4459.24
899.598	5729.61
903.401	6067.14
907.202	5942.83
911.001	5685.67
914.799	4488.65
918.595	2915.82
922.389	1907.18
926.182	1672.7
929.972	1728.38
933.761	1735.21
937.549	1524.22
941.334	1438.62
945.118	1643.13
948.9	2229.87
952.681	3012.7
956.459	3639.29
960.236	4541
964.012	5929.07
967.785	5576.55
971.557	4586.31
975.327	5031.8
979.095	6805.72
982.862	7234.6
986.627	6724.22
990.39	7116.73
994.152	7198.02
997.912	7098
1001.67	8242.28
1005.43	9348.98
1009.18	7686.42
1012.93	4932.99
1016.68	2921.17
1020.43	1978.58
1024.18	1641.85
1027.93	1677.14
1031.67	1391.78
1035.42	992.939
1039.16	729.725
1042.9	527.852
1046.63	496.87
1050.37	540.084
1054.11	656.516
1057.84	607.818
1061.57	603.35
1065.3	390.685
1069.03	297.099
1072.75	257.174
1076.47	248.427
1080.2	350.102
1083.92	441.935
1087.64	337.403
1091.36	277.99
1095.07	284.366
1098.79	323.81
1102.5	558.077
1106.21	728.711
1109.92	679.944
1113.62	482.219
1117.33	353.642
1121.04	212.787
1124.74	149.143
1128.44	109.09
1132.14	104.3
1135.83	91.529
1139.53	84.181
1143.22	55.402
1146.92	1.932
1150.61	32.323
1154.3	25.811
1157.98	37.707
1161.67	14.185
1165.35	1.861
1169.04	24.782
1172.72	23.727
1176.4	19.333
1180.07	42.958
1183.75	45.156
1187.42	20.822
1191.1	10.567
1194.77	4.814
1198.44	30.967
1202.1	62.806
1205.77	14.319
1209.43	4.91
1213.1	27.664
1216.76	19.241
1220.42	6.637
1224.07	70.574
1227.73	19.02
1231.38	42.275
1235.04	45.302
1238.69	29.074
1242.34	19.707
1245.99	71.403
1249.63	57.822
1253.28	93.104
1256.92	66.247
1260.56	55.235
1264.2	67.016
1267.84	76.824
1271.48	25.282
1275.11	81.398
1278.74	90.395
1282.38	60.087
1286.01	109.6
1289.63	75.425
1293.26	77.388
1296.89	73.063
1300.51	23.667
1304.13	39.308
1307.75	20.899
1311.37	45.126
1314.99	17.627
1318.6	35.607
1322.22	73.662
1325.83	38.704
1329.44	64.943
1333.05	24.017
1336.66	27.382
1340.26	36.762
1343.87	46.347
1347.47	75.328
1351.07	102.131
1354.67	89.831
1358.27	50.143
1361.86	73.517
1365.46	23.913
1369.05	47.617
1372.64	31.912
1376.23	44.976
1379.82	67.903
1383.41	64.812
1386.99	82.907
1390.57	75.24
1394.16	82.399
1397.74	75.618
1401.32	59.682
1404.89	52.416
1408.47	41.438
1412.04	43.592
1415.61	62.257
1419.18	77.288
1422.75	107.2
1426.32	79.65
1429.89	92.554
1433.45	56.587
1437.01	23.22
1440.58	67.744
1444.13	54.895
1447.69	37.631
1451.25	57.063
1454.81	57.715
1458.36	47.342
1461.91	52.837
1465.46	52.064
1469.01	82.714
1472.56	74.327
1476.1	78.188
1479.64	69.848
1483.19	41.695
1486.73	30.556
1490.27	11.943
1493.81	20.69
1497.34	19.948
1500.88	4.136
1504.41	38.059
1507.94	30.49
1511.47	22.707
1515	44.638
1518.53	41.64
