Measurement: Raman, 514 nm, ccw, Raman Data Processed
Mineral: Axinite-(Fe)
Rruff sample: R050061
Ideal chemistry: Ca_4_Fe^2+^_2_Al_4_[B_2_Si_8_O_30_](OH)_2_
Locality: Jamestown, California, USA
Source: Rock Currier
Description: Brown colored axe-head-shaped single crystals
Measured chemistry: Ca_2.00_(Fe^2+^_0.73_Mg_0.20_Mn_0.07_)Al_2.00_BSi_4_O_15_(OH)
Pin_id: L00399
Orientation: Laser parallel to c* (0 0 1). Fiducial mark perpendicular to laser is parallel to a [1 0 0]
Raman shift (cm-1)	intensity
91.065	0
95.269	62.082
99.471	791.022
103.67	976.335
107.868	2353.07
112.063	3186.71
116.256	2193.47
120.447	1733.09
124.636	1182.11
128.822	299.085
133.006	151.474
137.188	1205.14
141.368	1677.55
145.545	1497.34
149.72	2781.62
153.893	2419.45
158.064	640.458
162.233	151.541
166.399	1079.96
170.563	3091.34
174.725	2923.51
178.885	950.839
183.043	226.469
187.198	438.896
191.351	356.074
195.502	964.984
199.651	718.446
203.797	2549.03
207.942	5173.7
212.084	6545.03
216.224	7146.33
220.362	6287.55
224.497	2625.59
228.631	587.007
232.762	0.964
236.891	285.05
241.018	794.33
245.143	413.938
249.265	854.372
253.386	3567.91
257.504	4930.65
261.62	3846.03
265.734	4953.94
269.845	6366.16
273.955	7047.22
278.062	5996.81
282.167	4213.86
286.27	3864.11
290.371	3977.98
294.47	3780.86
298.567	3062.65
302.661	2356.71
306.753	2595.18
310.843	3536.75
314.931	7530.59
319.017	13204.7
323.101	10408.4
327.182	6109.48
331.261	5425.73
335.339	6874.3
339.414	11149.1
343.487	15444.1
347.557	10175
351.626	4054.06
355.693	1549.23
359.757	474.08
363.819	136.814
367.879	275.946
371.937	583.59
375.993	818.837
380.047	1281.69
384.099	2958.43
388.148	4975.13
392.196	3940.91
396.241	2305.99
400.284	1935.08
404.325	1694.33
408.364	1343.26
412.401	2102.15
416.435	4385.35
420.468	7211.49
424.498	9877.43
428.527	9533.1
432.553	6308.51
436.577	3435.68
440.599	3646.85
444.619	6190.03
448.637	4094.57
452.653	1379.88
456.667	516.013
460.678	252.018
464.688	456.883
468.695	1151.65
472.701	1260.37
476.704	1134.13
480.705	2504.12
484.704	4736.44
488.701	3108.24
492.696	1113.56
496.689	733.117
500.68	837.64
504.668	930.064
508.655	885.581
512.639	887.215
516.622	641.666
520.602	208.156
524.581	210.423
528.557	319.773
532.531	229.569
536.503	49.578
540.473	0.602
544.441	5.835
548.407	46.351
552.371	168.287
556.333	514.051
560.293	1396.77
564.251	1595.33
568.206	1694.72
572.16	2467.95
576.112	2359
580.061	1374.87
584.009	884.564
587.954	929.079
591.897	624.417
595.839	213.58
599.778	14.532
603.716	79.173
607.651	637.578
611.584	1683.81
615.515	2868.87
619.444	3278.51
623.372	2340.22
627.297	1058.77
631.22	588.682
635.141	706.364
639.06	1429.88
642.977	2298.85
646.892	2360.76
650.805	1450.73
654.716	716.926
658.625	522.776
662.532	494.366
666.437	828.696
670.34	1452.77
674.241	3006.97
678.139	3865.84
682.036	2618.4
685.931	1454.98
689.824	946.459
693.715	958.852
697.604	1398.37
701.491	2673.31
705.376	5380.92
709.259	10955.7
713.139	17327.5
717.018	15030
720.895	8002.25
724.77	4178.37
728.643	2286.34
732.514	1320.16
736.383	814.835
740.25	515.375
744.115	439.781
747.978	355.058
751.839	366.882
755.698	575.17
759.555	917.548
763.41	1367.19
767.263	1586.89
771.114	1249.5
774.964	714.016
778.811	366.441
782.656	158.783
786.499	36.998
790.341	105.159
794.18	179.091
798.017	232.916
801.853	179.78
805.686	97.57
809.518	251.116
813.347	207.738
817.175	214.325
821.001	385.886
824.824	73.575
828.646	23.251
832.466	13.889
836.284	123.209
840.1	260.186
843.914	572.925
847.726	1028.21
851.536	1423.82
855.344	1469.7
859.15	1452.73
862.954	1520.87
866.756	1654.12
870.557	1612.44
874.355	1789.84
878.152	1769.34
881.946	1678.98
885.739	1813.8
889.53	2219.74
893.318	3059.8
897.105	4297.02
900.89	5888.38
904.673	7365.88
908.454	6915.54
912.234	5346.4
916.011	3627.41
919.786	2669.54
923.56	2130.82
927.331	2053.25
931.101	2158.84
934.868	2449.59
938.634	3167.69
942.398	4037.48
946.16	5754.71
949.92	8048.76
953.678	10564.6
957.435	14972.2
961.189	21822.3
964.941	23304.6
968.692	17647.2
972.441	14710
976.187	16748.4
979.932	17305.4
983.675	13387.2
987.416	10791
991.155	9655.04
994.893	8579.55
998.628	8194.69
1002.36	7391.34
1006.09	5920.08
1009.82	4143.56
1013.55	2817.52
1017.28	1903.67
1021	1527.44
1024.72	1537.71
1028.44	1491.96
1032.16	1149.77
1035.88	936.986
1039.59	826.908
1043.31	878.241
1047.02	928.24
1050.73	1219.02
1054.43	1431.8
1058.14	1417.76
1061.84	1212.89
1065.54	916.646
1069.24	753.028
1072.94	926.997
1076.64	1374.06
1080.33	2197.31
1084.03	2183.03
1087.71	1412.86
1091.4	810.644
1095.09	553.515
1098.78	451.241
1102.46	463.193
1106.14	488.399
1109.82	450.876
1113.5	346.349
1117.17	211.812
1120.85	143.842
1124.52	112.987
1128.19	23.3
1131.86	45.995
1135.52	16.751
1139.19	8.685
1142.85	68.799
1146.51	0.165
1150.17	12.844
1153.83	54.968
1157.48	54.869
1161.14	34.796
1164.79	15.36
1168.44	18.296
1172.09	29.814
1175.73	18.774
1179.38	78.733
1183.02	33.247
1186.66	35.287
1190.3	41.061
1193.94	0.328
1197.58	11.488
1201.21	51.138
1204.84	26.747
1208.47	25.516
1212.1	34.263
1215.72	11.043
1219.35	5.401
1222.97	16.645
1226.59	44.681
1230.21	63.51
1233.83	54.191
1237.45	14.699
1241.06	56.898
1244.67	37.053
1248.28	61.051
1251.89	41.728
1255.5	79.427
1259.1	66.773
1262.7	75.865
1266.31	90.711
1269.9	68.319
1273.5	74.64
1277.1	69.693
1280.69	73.513
1284.29	28.992
1287.88	145
1291.46	86.318
1295.05	72.905
1298.64	70.835
1302.22	37.68
1305.8	38.684
1309.38	54.693
1312.96	46.146
1316.54	52.553
1320.11	74.056
1323.68	88.92
1327.25	78.614
1330.82	74.64
1334.39	78.938
1337.96	5.593
1341.52	57.865
1345.08	39.311
1348.64	92.572
1352.2	153.653
1355.76	89.236
1359.31	131.128
1362.87	140.557
1366.42	119.361
1369.97	112.621
1373.52	97.529
1377.06	56.274
1380.61	109.036
1384.15	87.92
1387.69	71.513
1391.23	89.36
1394.77	88.642
1398.3	125.689
1401.84	114.573
1405.37	92.085
1408.9	122.696
1412.43	114.568
1415.96	100.662
1419.48	60.613
1423.01	107.927
1426.53	133.209
1430.05	48.736
1433.57	91.632
1437.08	88.146
1440.6	38.713
1444.11	5.732
1447.62	35.481
1451.13	19.874
1454.64	32.378
1458.15	56.403
1461.65	1.204
1465.16	55.341
1468.66	81.342
1472.16	90.484
1475.65	78.975
1479.15	49.526
1482.64	47.252
1486.14	27.287
1489.63	67.638
1493.12	22.087
1496.61	9.144
1500.09	1.454
1503.58	2.44
1507.06	53.91
1510.54	26.632
1514.02	23.974
