Measurement: Raman, 514 nm, ccw, Raman Data Processed
Mineral: Axinite-(Fe)
Rruff sample: R060183
Ideal chemistry: Ca_4_Fe^2+^_2_Al_4_[B_2_Si_8_O_30_](OH)_2_
Locality: Skagit Bluffs, near Manning Park, British Columbia, Canada
Source: Lloyd Twaites
Description: Light-pink transparent axe-head-shaped single crystal
Measured chemistry: Ca_2.00_(Fe^2+^_0.58_Mn_0.23_Mg_0.19_)Al_2.00_B_1.00_Si_4.00_O_15_(OH)
Pin_id: L00798
Orientation: Laser parallel to -b* (0 -1 0). Fiducial mark perpendicular to laser is parallel to -c [0 0 -1]
Raman shift (cm-1)	intensity
52.671	0
57.626	163.227
62.579	312.231
67.529	3.86243
72.477	74.1202
77.423	192.914
82.367	631.701
87.308	1781.87
92.246	4430.66
97.182	8729.65
102.116	15150.5
107.047	27245.8
111.976	21643.1
116.903	7881.97
121.827	3439.24
126.749	2613.5
131.668	3087.98
136.585	5579.6
141.5	7689.9
146.412	7389.88
151.321	7875.98
156.229	6362.61
161.134	6125.8
166.036	9182.49
170.936	14144.6
175.834	10377
180.729	4826.55
185.622	2678.14
190.512	3915.07
195.4	5660.61
200.286	8309.17
205.169	14561.8
210.049	12434.5
214.928	6273.27
219.803	2031.17
224.677	148.448
229.548	412.924
234.416	183.346
239.282	2415.43
244.146	5074.88
249.007	5746.53
253.866	6510.12
258.722	6934.48
263.576	8623.46
268.427	15476.9
273.276	21960.6
278.123	18749.6
282.967	12160.7
287.809	9001.73
292.648	9117.14
297.485	11809.6
302.319	17203
307.151	18993.2
311.98	10165
316.807	4976.74
321.631	4204.91
326.454	5492.29
331.273	4889.21
336.09	3164.22
340.905	5935.14
345.717	11303.9
350.527	16677.8
355.334	10989.5
360.139	3251.27
364.941	335.796
369.741	160.237
374.538	37.481
379.333	1286.99
384.126	5226.51
388.916	11555.1
393.703	8824.83
398.488	3996.34
403.271	2552.52
408.051	5602.31
412.828	16072.6
417.603	26044.5
422.376	15964.7
427.146	13151.3
431.914	9052.15
436.679	4259.26
441.442	4016.52
446.202	3514.87
450.96	887.231
455.715	168.498
460.467	543.005
465.218	515.023
469.965	461.97
474.711	3066.22
479.454	9676.11
484.194	17447.6
488.932	8311.31
493.667	1883.17
498.4	909.051
503.13	1190.11
507.858	1457.35
512.583	1226.99
517.306	244.956
522.026	168.222
526.744	73.001
531.459	703.809
536.172	1083.31
540.882	792.476
545.59	552.26
550.295	499.758
554.998	1291.67
559.698	2832.98
564.396	4304.07
569.091	7637.56
573.784	9918.38
578.474	8258.51
583.162	8450.9
587.847	11047.5
592.529	8214.32
597.209	3767.81
601.887	1910.29
606.562	1456.55
611.235	2345.05
615.905	3297.99
620.572	3103.21
625.237	1126.7
629.9	99.6103
634.56	111.439
639.217	311.67
643.872	656.534
648.524	327.586
653.174	78.5762
657.821	20.0181
662.466	521.376
667.108	1890.68
671.748	5175.63
676.385	8468.65
681.02	6432.76
685.652	3530.98
690.281	2908.88
694.908	3931.33
699.533	7452.19
704.155	16024.8
708.774	33706.3
713.391	50137.9
718.005	37133.7
722.617	17680.5
727.226	8188.43
731.833	4221.54
736.437	2521.93
741.039	1583.75
745.638	1219.13
750.234	1110.21
754.828	1455.66
759.419	2610.44
764.008	4457.6
768.595	4640.53
773.178	3050.33
777.759	1392.78
782.338	594.083
786.914	101.232
791.488	72.8525
796.059	385.108
800.627	195.864
805.193	439.024
809.756	1892.19
814.317	2209.4
818.875	798.713
823.431	15.8384
827.984	292.812
832.534	289.541
837.082	15.3457
841.627	481.169
846.17	961.351
850.71	1439.94
855.248	1407.97
859.783	1258.5
864.316	1387.57
868.846	1442.22
873.373	1823.49
877.898	2288.4
882.42	3447.05
886.94	5677.44
891.457	9804.74
895.971	16008
900.483	19648.5
904.993	18707.5
909.5	16400.1
914.004	11851
918.505	7719.09
923.004	6188.24
927.501	6672.7
931.995	6647.66
936.486	5011.74
940.975	4664.26
945.461	6335.67
949.945	9398.32
954.426	11607.3
958.904	14747.2
963.38	18178
967.853	17184.9
972.324	16254.9
976.792	21107.7
981.258	23498.9
985.72	21555.5
990.181	22328.4
994.639	22010.7
999.094	23065.4
1003.55	24663.4
1008	19991.7
1012.44	11624.5
1016.89	6426.35
1021.33	4252.6
1025.77	3375.63
1030.21	2685.77
1034.64	2069.52
1039.07	1984.29
1043.5	2297.93
1047.93	2336.88
1052.35	2778.27
1056.78	3271.06
1061.19	2822.21
1065.61	1791.56
1070.02	1126.74
1074.43	1248.61
1078.84	1982.43
1083.25	2560.71
1087.65	2093.73
1092.05	1409.22
1096.45	1653.86
1100.85	2644.26
1105.24	3598.09
1109.63	3022.3
1114.02	1942.64
1118.4	1239.87
1122.78	735.987
1127.16	400.33
1131.54	257.366
1135.92	105.335
1140.29	27.064
1144.66	1.92969
1149.02	55.21
1153.39	126.177
1157.75	137.159
1162.11	95.0474
1166.46	196.129
1170.82	57.9307
1175.17	167.075
1179.52	122.046
1183.86	11.2593
1188.21	0.786621
1192.55	49.7935
1196.89	68.6689
1201.22	130.424
1205.55	53.042
1209.88	88.231
1214.21	86.9917
1218.54	44.0615
1222.86	119.669
1227.18	98.8501
1231.5	183.704
1235.81	89.3369
1240.12	170.136
1244.43	229.541
1248.74	229.926
1253.04	184.351
1257.34	215.3
1261.64	235.81
1265.94	321.418
1270.23	320.248
1274.52	329.149
1278.81	374.748
1283.1	347.797
1287.38	333.224
1291.66	264.713
1295.94	216.35
1300.21	306.497
1304.48	167.043
1308.75	88.7837
1313.02	78.0308
1317.29	159.769
1321.55	218.716
1325.81	232.204
1330.06	112.376
1334.32	228.319
1338.57	197.204
1342.82	178.993
1347.06	190.377
1351.31	231.299
1355.55	261.094
1359.79	219.842
1364.02	158.155
1368.26	286.461
1372.49	146.981
1376.71	335.101
1380.94	269.842
1385.16	159.214
1389.38	68.5259
1393.6	91.7446
1397.81	116.84
1402.02	103.9
1406.23	46.6279
1410.44	100.975
1414.64	173.461
1418.85	149.479
1423.04	69.4409
1427.24	161.783
1431.43	120.481
1435.62	170.397
1439.81	129.272
1444	116.594
1448.18	86.8286
1452.36	48.6455
1456.54	74.1387
1460.71	47.7651
1464.89	102.55
1469.06	11.1123
1473.22	69.8862
1477.39	77.8115
1481.55	97.6348
1485.71	4.23535
1489.86	67.9331
1494.02	196.524
1498.17	78.5029
1502.32	50.623
1506.46	64.6577
1510.61	137.506
1514.75	12.2886
1518.88	20.0825
1523.02	50.9898
1527.15	103.115
1531.28	86.3164
1535.41	182.4
1539.53	100.126
1543.66	91.7524
1547.78	61.1704
1551.89	125.714
1556.01	141.036
1560.12	92.3618
1564.23	59.7666
1568.33	9.36816
