Measurement: Raman, 514 nm, ccw, Raman Data Processed
Mineral: Axinite-(Fe)
Rruff sample: R060183
Ideal chemistry: Ca_4_Fe^2+^_2_Al_4_[B_2_Si_8_O_30_](OH)_2_
Locality: Skagit Bluffs, near Manning Park, British Columbia, Canada
Source: Lloyd Twaites
Description: Light-pink transparent axe-head-shaped single crystal
Measured chemistry: Ca_2.00_(Fe^2+^_0.58_Mn_0.23_Mg_0.19_)Al_2.00_B_1.00_Si_4.00_O_15_(OH)
Pin_id: L01391
Orientation: Laser parallel to -a* (-1 0 0). Fiducial mark perpendicular to laser is parallel to -b [0 -1 0]
Raman shift (cm-1)	intensity
52.671	0
57.626	165.361
62.579	121.774
67.529	76.2592
72.477	43.2164
77.423	416.76
82.367	1096.99
87.308	1836.41
92.246	3591.25
97.182	4820.26
102.116	6379.67
107.047	10457.3
111.976	8228.21
116.903	6652.59
121.827	5442.83
126.749	4765.32
131.668	4750.77
136.585	5863.88
141.5	5418.19
146.412	4146.9
151.321	4102.54
156.229	4146.52
161.134	3087.86
166.036	3972.23
170.936	4716.46
175.834	3343.11
180.729	1661.67
185.622	1337.51
190.512	2074.52
195.4	2217.59
200.286	3032.45
205.169	4656.48
210.049	6102.66
214.928	6068.98
219.803	4168.3
224.677	1679.18
229.548	686.995
234.416	736.531
239.282	1001.48
244.146	1570.62
249.007	2899.54
253.866	5512.52
258.722	6153.09
263.576	7298.52
268.427	9073.72
273.276	9282.74
278.123	7137.47
282.967	4893.91
287.809	4671.99
292.648	4903.6
297.485	4392.69
302.319	3729.18
307.151	3478.02
311.98	3647.13
316.807	5848.44
321.631	5045.89
326.454	3844.41
331.273	4020.92
336.09	5710.36
340.905	8286.66
345.717	6518.82
350.527	4489.32
355.334	1887.36
360.139	115.144
364.941	442.01
369.741	414.503
374.538	76.3594
379.333	1008.13
384.126	3240.44
388.916	4400.14
393.703	3096.46
398.488	2050.92
403.271	1675.65
408.051	2553.89
412.828	5205.21
417.603	8622.2
422.376	10789.5
427.146	7698.99
431.914	4745.67
436.679	4549.47
441.442	8132.34
446.202	6143.23
450.96	2477.09
455.715	952.874
460.467	299.527
465.218	293.904
469.965	779.263
474.711	1841.28
479.454	4672
484.194	5270.37
488.932	2340.33
493.667	535.841
498.4	246.847
503.13	419.4
507.858	1081.71
512.583	1159.79
517.306	519.55
522.026	91.7861
526.744	264.586
531.459	209.48
536.172	35.8481
540.882	105.89
545.59	48.1797
550.295	205.451
554.998	830.949
559.698	1578.44
564.396	1843.85
569.091	2216.16
573.784	2304.31
578.474	1840.28
583.162	2172.03
587.847	2531.54
592.529	1462.77
597.209	726.697
601.887	807.285
606.562	1326.51
611.235	2165.29
615.905	2267.92
620.572	1706
625.237	954.511
629.9	466.536
634.56	1068.05
639.217	1878.44
643.872	2384.35
648.524	1552.26
653.174	868.934
657.821	622.553
662.466	941.274
667.108	1981.04
671.748	4323.74
676.385	6123.4
681.02	4298.34
685.652	2199.86
690.281	1556.92
694.908	2096.53
699.533	3666.91
704.155	8336.38
708.774	17310.2
713.391	24379.3
718.005	17563.8
722.617	8230.69
727.226	3637.87
731.833	1821.41
736.437	1139.3
741.039	591.557
745.638	315.182
750.234	233.169
754.828	268.483
759.419	398.175
764.008	524.277
768.595	511.802
773.178	391.765
777.759	14.1567
782.338	56.3584
786.914	91.4302
791.488	153.191
796.059	200.245
800.627	112.611
805.193	45.8184
809.756	71.1641
814.317	233.46
818.875	16.0195
823.431	30.3779
827.984	1.92871
832.534	112.663
837.082	164.062
841.627	512.195
846.17	1019.97
850.71	1427.76
855.248	1640.24
859.783	1753.87
864.316	1775.74
868.846	2004.79
873.373	2256.79
877.898	2510.8
882.42	2844.85
886.94	3922.62
891.457	5757.77
895.971	9049.93
900.483	12522.3
904.993	12476.8
909.5	9196.42
914.004	5995.15
918.505	4093.72
923.004	3075.67
927.501	2521.91
931.995	2409.63
936.486	2534.8
940.975	2800.19
945.461	3829.97
949.945	5707.28
954.426	7886.76
958.904	12050.5
963.38	15540.9
967.853	15097.5
972.324	15186.5
976.792	19833.4
981.258	20206
985.72	16153.1
990.181	13888.8
994.639	13559.1
999.094	13248
1003.55	11318.4
1008	7584
1012.44	4785.56
1016.89	2855.68
1021.33	2138.31
1025.77	1830.76
1030.21	1594.65
1034.64	1325.27
1039.07	1331.13
1043.5	1324.99
1047.93	1358.82
1052.35	1759.24
1056.78	1817.87
1061.19	1432.8
1065.61	1032.41
1070.02	715.038
1074.43	728.233
1078.84	1387.39
1083.25	1557.28
1087.65	1090.08
1092.05	593.14
1096.45	508.341
1100.85	481.82
1105.24	403.381
1109.63	458.835
1114.02	285.599
1118.4	364.421
1122.78	379.928
1127.16	182.454
1131.54	153.125
1135.92	21.7412
1140.29	80.0361
1144.66	72.4014
1149.02	26.5107
1153.39	44.2461
1157.75	240.062
1162.11	120.674
1166.46	84.7393
1170.82	27.918
1175.17	51.6367
1179.52	0.297852
1183.86	65.7031
1188.21	68.3389
1192.55	69.5957
1196.89	16.9043
1201.22	82.5791
1205.55	68.2822
1209.88	76.1201
1214.21	9.11621
1218.54	18.4609
1222.86	2.82422
1227.18	74.0986
1231.5	0.321289
1235.81	131.21
1240.12	156.606
1244.43	42.1377
1248.74	171.909
1253.04	118.298
1257.34	181.4
1261.64	177.366
1265.94	269.528
1270.23	183.331
1274.52	240.445
1278.81	144.883
1283.1	205.654
1287.38	264.258
1291.66	192.589
1295.94	230.82
1300.21	234.069
1304.48	249.954
1308.75	189.747
1313.02	233.685
1317.29	289.319
1321.55	206.159
1325.81	262.983
1330.06	172.241
1334.32	123.32
1338.57	203.63
1342.82	143.212
1347.06	204.543
1351.31	155.105
1355.55	48.4873
1359.79	202.857
1364.02	194.393
1368.26	174.036
1372.49	198.36
1376.71	153.571
1380.94	91.1494
1385.16	100.147
1389.38	236.489
1393.6	91.8691
1397.81	186.011
1402.02	155.921
1406.23	101.881
1410.44	138.227
1414.64	199.083
1418.85	124.163
1423.04	109.773
1427.24	113.564
1431.43	265.227
1435.62	196.307
1439.81	272.61
1444	270.297
1448.18	234.484
1452.36	213.275
1456.54	325.453
1460.71	127.582
1464.89	225.365
1469.06	6.94043
1473.22	178.773
1477.39	157.348
1481.55	11.5723
1485.71	25.46
1489.86	191.742
1494.02	150.294
1498.17	124.998
1502.32	201.119
1506.46	116.016
1510.61	0.942383
1514.75	64.8887
1518.88	144.008
1523.02	73.2773
1527.15	55.6055
1531.28	118.166
1535.41	49.4707
1539.53	185.989
1543.66	15.5518
1547.78	85.9648
1551.89	346.238
1556.01	264.912
1560.12	164.639
1564.23	36.9131
1568.33	177.015
