Measurement: Raman, 514 nm, ccw, Raman Data Processed
Mineral: Axinite-(Fe)
Rruff sample: R050026
Ideal chemistry: Ca_4_Fe^2+^_2_Al_4_[B_2_Si_8_O_30_](OH)_2_
Locality: Pouyva mine, Polar Urals, Western Siberian Region, Russia
Source: Rock Currier
Description: Brown transparent flat crystal
Measured chemistry: Ca_2.00_(Fe^2+^_0.61_Mn_0.26_Mg_0.13_)Al_2.00_BSi_4_O_15_(OH)
Pin_id: L00219
Orientation: Laser parallel to (1 1 0). Fiducial mark perpendicular to laser is parallel to c [0 0 1]
Raman shift (cm-1)	intensity
88.26	0
92.466	424.034
96.67	749.493
100.871	1422.46
105.07	4590.5
109.267	10452.6
113.461	2918.18
117.653	716.395
121.843	214.708
126.031	38.381
130.217	116.107
134.4	460.322
138.581	1961.47
142.76	2417.74
146.937	3482.57
151.112	4388.48
155.284	4067.57
159.454	3590.53
163.622	5942.65
167.787	13526.6
171.951	13381.5
176.112	5866.37
180.271	1421.32
184.428	124.423
188.583	1187.24
192.735	3678.2
196.885	2664.36
201.033	4291.28
205.179	9548.89
209.323	14887.2
213.464	12907.1
217.603	7402.27
221.741	3489.04
225.875	997.344
230.008	129.529
234.139	93.522
238.267	882.14
242.393	2592.14
246.517	4516.91
250.639	5392.59
254.759	5712.86
258.876	4195.54
262.991	4542.25
267.104	7590.91
271.215	12110.9
275.324	13471.4
279.431	9252.08
283.535	5063.98
287.638	4766.9
291.738	7990.72
295.836	11938.3
299.932	13622.7
304.025	14431.5
308.117	12387.6
312.206	10054.3
316.293	14391.3
320.378	14868.7
324.461	7976.36
328.542	4024.24
332.621	2808.57
336.697	4084.06
340.772	9575.2
344.844	12130
348.914	9845
352.982	8075.42
357.048	3526.62
361.111	894.604
365.173	30.252
369.232	234.193
373.29	168.808
377.345	88.913
381.398	1550.38
385.449	5480.69
389.497	8896.82
393.544	8872.45
397.589	5736.65
401.631	3257.47
405.672	2179.11
409.71	2165.58
413.746	4660.87
417.78	7614
421.812	8667.14
425.842	13810.2
429.869	18253.3
433.895	13256.2
437.918	6468.97
441.94	5351.65
445.959	4624.19
449.976	1942.58
453.991	884.786
458.004	424.962
462.015	69.024
466.024	356.784
470.031	922.308
474.035	546.601
478.038	508.655
482.038	1618.46
486.037	2156.03
490.033	564.45
494.027	262.434
498.019	445.022
502.009	218.127
505.997	28.101
509.983	148.664
513.967	157.886
517.949	56.228
521.929	168.869
525.906	258.241
529.882	286.204
533.855	632.733
537.827	1831.64
541.796	4184.81
545.764	6016.75
549.729	4718.45
553.692	3939.91
557.653	5561.15
561.612	6042.17
565.569	4012.98
569.524	3195.58
573.477	3448.96
577.428	3164.14
581.377	3760.11
585.324	6113.86
589.269	6863.41
593.212	3982.74
597.152	2024.86
601.091	1506.78
605.028	1753.49
608.962	2258.99
612.895	2339.29
616.825	2539.38
620.754	2390.5
624.68	1346.78
628.605	592.28
632.527	458.586
636.447	1090.7
640.366	1917.63
644.282	2176.36
648.196	1548.45
652.109	724.184
656.019	364.749
659.927	377.137
663.834	995.948
667.738	2472.97
671.64	5765.94
675.54	10501
679.439	9385.16
683.335	5237.75
687.229	3126.62
691.121	2722.28
695.012	3443.18
698.9	5450.04
702.786	10196.8
706.67	20573.5
710.552	40370.1
714.433	48736.6
718.311	31433
722.187	16009.4
726.061	8715.72
729.934	5371.97
733.804	3510.17
737.672	2501.32
741.539	1795.42
745.403	1504.48
749.265	1401.51
753.126	1722.52
756.984	2372.49
760.84	3590.45
764.695	5296.4
768.547	5492.33
772.398	3978.27
776.246	2390.22
780.093	1328.22
783.937	731.234
787.78	370.269
791.621	179.33
795.459	180.421
799.296	92.44
803.131	68.312
806.964	232.359
810.795	630.415
814.623	460.572
818.45	56.284
822.275	123.025
826.098	217.981
829.92	255.796
833.739	149.287
837.556	149.2
841.371	103.634
845.184	103.047
848.996	29.55
852.805	206.931
856.613	396.534
860.418	713.232
864.222	901.033
868.023	900.961
871.823	1340.04
875.621	1490.3
879.417	1704.76
883.211	1503.39
887.003	1261.18
890.793	1668.13
894.581	2479.24
898.367	3826.52
902.152	4628.15
905.934	4039.56
909.714	2471.31
913.493	1653.3
917.27	1462.51
921.044	1425.9
924.817	1846.5
928.588	2072.32
932.357	2107.34
936.124	1951.56
939.889	2387.02
943.652	3007.02
947.414	4355.47
951.173	6218.49
954.931	10673.2
958.686	16612.6
962.44	22412.2
966.192	19322.1
969.942	16322
973.69	19047.9
977.436	22453.7
981.18	18410.9
984.922	13667.2
988.663	11310.6
992.401	11136.9
996.138	12280.4
999.873	12968.6
1003.61	11553.6
1007.34	8396.47
1011.07	5599.66
1014.79	3713.82
1018.52	2929.33
1022.24	2659.4
1025.96	2637.23
1029.68	2593.78
1033.4	2788.36
1037.12	3312.49
1040.83	3899.89
1044.54	4315.69
1048.25	5855.39
1051.96	7381.62
1055.67	7608.06
1059.37	6261.92
1063.08	4273.55
1066.78	3274.79
1070.48	3471.59
1074.17	5053.4
1077.87	8203.51
1081.56	9783.19
1085.26	6937.17
1088.94	4155.47
1092.63	2713.1
1096.32	1998.91
1100	1704.03
1103.69	1464.71
1107.37	1051.89
1111.05	651.119
1114.72	524.282
1118.4	449.002
1122.07	406.179
1125.74	327.24
1129.41	163.03
1133.08	82.106
1136.75	58.318
1140.41	41.501
1144.07	28.702
1147.73	96.526
1151.39	85.462
1155.05	10.875
1158.7	48.255
1162.36	31
1166.01	43.253
1169.66	57.651
1173.3	65.579
1176.95	13.29
1180.59	57.984
1184.24	92.607
1187.88	51.425
1191.52	68.935
1195.15	4.672
1198.79	20.963
1202.42	36.654
1206.05	30.327
1209.68	71.553
1213.31	103.124
1216.93	61.443
1220.56	62.865
1224.18	4.139
1227.8	6.021
1231.42	23.443
1235.04	55.607
1238.65	116.655
1242.26	106.319
1245.88	195.956
1249.48	115.441
1253.09	92.807
1256.7	88.919
1260.3	62.06
1263.9	78.415
1267.51	131.919
1271.11	174.778
1274.7	204.148
1278.3	166.248
1281.89	31.626
1285.48	40.553
1289.07	26.081
1292.66	36.777
1296.25	39.104
1299.83	84.896
1303.41	92.295
1306.99	79.876
1310.57	29.489
1314.15	60.859
1317.73	47.563
1321.3	58.734
1324.87	18.694
1328.44	94.664
1332.01	128.773
1335.58	195.781
1339.14	316.971
1342.71	325.918
1346.27	230.323
1349.83	231.153
1353.39	227.088
1356.94	230.674
1360.5	134.267
1364.05	198.625
1367.6	325.522
1371.15	316.112
1374.7	382.114
1378.24	429.726
1381.79	278.625
1385.33	255.918
1388.87	203.209
1392.41	157.034
1395.95	175.443
1399.48	205.17
1403.02	236.086
1406.55	283.246
1410.08	349.437
1413.61	344.114
1417.13	327.73
1420.66	324.352
1424.18	163.343
1427.7	139.681
1431.22	118.001
1434.74	167.616
1438.26	126.88
1441.77	203.013
1445.28	290.648
1448.79	297.729
1452.3	292.368
1455.81	286.695
1459.32	213.741
1462.82	145.198
1466.32	93.424
1469.82	48.094
1473.32	23.564
1476.82	114.695
1480.32	173.665
1483.81	187.4
1487.3	238.164
1490.79	261.473
1494.28	261.18
1497.77	250.968
1501.25	207.276
1504.74	103.165
1508.22	0.521
