Measurement: Raman, 514 nm, ccw, Raman Data Processed
Mineral: Axinite-(Fe)
Rruff sample: R050026
Ideal chemistry: Ca_4_Fe^2+^_2_Al_4_[B_2_Si_8_O_30_](OH)_2_
Locality: Pouyva mine, Polar Urals, Western Siberian Region, Russia
Source: Rock Currier
Description: Brown transparent flat crystal
Measured chemistry: Ca_2.00_(Fe^2+^_0.61_Mn_0.26_Mg_0.13_)Al_2.00_BSi_4_O_15_(OH)
Pin_id: L00535
Orientation: Laser parallel to -c* (0 0 -1). Fiducial mark perpendicular to laser is parallel to a [1 0 0]
Raman shift (cm-1)	intensity
91.065	0
95.269	10.451
99.471	202.528
103.67	652.244
107.868	3096.76
112.063	36745.7
116.256	1621.79
120.447	589.66
124.636	501.371
128.822	407.176
133.006	681.446
137.188	1793.09
141.368	1664.48
145.545	1027.01
149.72	727.025
153.893	511.253
158.064	222.623
162.233	300.215
166.399	791.787
170.563	1152.87
174.725	793.208
178.885	498.215
183.043	66.889
187.198	87.48
191.351	29.078
195.502	1.531
199.651	149.505
203.797	716.055
207.942	1471.55
212.084	1668.85
216.224	1302.13
220.362	837.281
224.497	230.948
228.631	34.521
232.762	10.903
236.891	106.92
241.018	82.254
245.143	137.27
249.265	576.834
253.386	1850.28
257.504	1950.18
261.62	1649.61
265.734	2225.87
269.845	3010.07
273.955	3745.91
278.062	3381.24
282.167	2242.98
286.27	2000.9
290.371	2040.11
294.47	2000.64
298.567	1636.63
302.661	1219.09
306.753	998.504
310.843	970.167
314.931	1581.21
319.017	2389.81
323.101	1924.98
327.182	1655.01
331.261	1600.69
335.339	1738.21
339.414	2699.65
343.487	3096.52
347.557	2105.15
351.626	1242.49
355.693	638.969
359.757	245.308
363.819	96.541
367.879	14.636
371.937	5.868
375.993	53.175
380.047	252.149
384.099	714.069
388.148	1046.75
392.196	668.074
396.241	304.586
400.284	348.401
404.325	413.371
408.364	600.694
412.401	1311.1
416.435	2651.77
420.468	2844.43
424.498	2689.98
428.527	1933.39
432.553	1259.67
436.577	1038.8
440.599	1905.81
444.619	3036.93
448.637	1482.88
452.653	551.595
456.667	193.145
460.678	41.6
464.688	38.097
468.695	40.073
472.701	35.226
476.704	168.553
480.705	592.416
484.704	753.356
488.701	232.407
492.696	30.52
496.689	25.552
500.68	21.445
504.668	103.278
508.655	371.142
512.639	561.347
516.622	336.929
520.602	107.687
524.581	1.796
528.557	23.189
532.531	77.934
536.503	111.817
540.473	52.135
544.441	70.758
548.407	55.357
552.371	108.979
556.333	216.754
560.293	345.603
564.251	190.476
568.206	201.359
572.16	212.226
576.112	187.067
580.061	236.88
584.009	426.665
587.954	657.424
591.897	393.157
595.839	105.973
599.778	9.762
603.716	2.591
607.651	25.988
611.584	146.534
615.515	242.061
619.444	222.353
623.372	115.953
627.297	26.196
631.22	142.289
635.141	309.521
639.06	733.698
642.977	980.904
646.892	757.203
650.805	354.969
654.716	92.247
658.625	68.567
662.532	89.615
666.437	205.734
670.34	452.131
674.241	967.477
678.139	1165.57
682.036	655.512
685.931	346.671
689.824	274.469
693.715	352.483
697.604	593.46
701.491	1173.39
705.376	2373.28
709.259	4764.11
713.139	6841.91
717.018	5347.65
720.895	2768.35
724.77	1366.99
728.643	768.591
732.514	443.139
736.383	294.639
740.25	162.09
744.115	129.493
747.978	120.85
751.839	45.157
755.698	65.283
759.555	99.067
763.41	138.302
767.263	104.427
771.114	64.508
774.964	69.549
778.811	12.609
782.656	37.663
786.499	43.339
790.341	37.587
794.18	51.128
798.017	48.928
801.853	12.963
805.686	68.712
809.518	114.468
813.347	105.228
817.175	30.959
821.001	16.368
824.824	1.825
828.646	10.585
832.466	19.91
836.284	50.208
840.1	89.507
843.914	202.802
847.726	350.077
851.536	431.33
855.344	440.56
859.15	416.77
862.954	501.964
866.756	467.155
870.557	504.333
874.355	563.501
878.152	620.66
881.946	685.827
885.739	807.001
889.53	1090.17
893.318	1448.34
897.105	1913.51
900.89	1986.7
904.673	1835.74
908.454	1390.88
912.234	1069.08
916.011	822.317
919.786	722.581
923.56	746.854
927.331	796.134
931.101	821.089
934.868	758.394
938.634	752.285
942.398	876.82
946.16	1165.63
949.92	1548.41
953.678	1983.54
957.435	2830.52
961.189	3833.06
964.941	3693.65
968.692	3369.24
972.441	4021.55
976.187	5260.99
979.932	4984
983.675	3777.85
987.416	3144.04
991.155	2950.41
994.893	2839.65
998.628	2621.77
1002.36	2277.78
1006.09	1742.86
1009.82	1125.96
1013.55	790.418
1017.28	560.737
1021	480.432
1024.72	506.222
1028.44	476.082
1032.16	358.887
1035.88	326.89
1039.59	273.474
1043.31	294.114
1047.02	318.677
1050.73	363.921
1054.43	410.667
1058.14	356.505
1061.84	312.367
1065.54	246.27
1069.24	189.113
1072.94	238.862
1076.64	345.119
1080.33	405.366
1084.03	377.395
1087.71	219.895
1091.4	171.5
1095.09	155.038
1098.78	158.561
1102.46	192.934
1106.14	206.235
1109.82	173.006
1113.5	103.886
1117.17	63.881
1120.85	68.942
1124.52	36.145
1128.19	34.174
1131.86	27.873
1135.52	25.026
1139.19	4.569
1142.85	26.868
1146.51	9.049
1150.17	16.572
1153.83	7.783
1157.48	23.198
1161.14	3.954
1164.79	9.298
1168.44	2.222
1172.09	29.425
1175.73	26.037
1179.38	27.409
1183.02	6.731
1186.66	0.765
1190.3	36.884
1193.94	10.907
1197.58	13.297
1201.21	16.489
1204.84	14.15
1208.47	6.074
1212.1	2.616
1215.72	15.795
1219.35	22.475
1222.97	21.731
1226.59	28.984
1230.21	5.32
1233.83	12.64
1237.45	37.326
1241.06	14.268
1244.67	40.137
1248.28	13.968
1251.89	61.757
1255.5	45.465
1259.1	29.084
1262.7	25.687
1266.31	19.115
1269.9	50.433
1273.5	4.658
1277.1	36.789
1280.69	38.153
1284.29	31.736
1287.88	70.322
1291.46	8.928
1295.05	20.629
1298.64	25.208
1302.22	11.272
1305.8	20.78
1309.38	0.168
1312.96	27.868
1316.54	49.605
1320.11	3.899
1323.68	30.341
1327.25	36.717
1330.82	20.464
1334.39	7.809
1337.96	21.933
1341.52	16.985
1345.08	42.517
1348.64	77.837
1352.2	69.51
1355.76	44.825
1359.31	31.342
1362.87	55.66
1366.42	51.323
1369.97	29.571
1373.52	44.508
1377.06	50.794
1380.61	90.759
1384.15	59.504
1387.69	54.974
1391.23	51.882
1394.77	65.244
1398.3	35.842
1401.84	25.171
1405.37	59.591
1408.9	75.237
1412.43	55.629
1415.96	55.47
1419.48	52.152
1423.01	68.618
1426.53	81.226
1430.05	47.511
1433.57	54.163
1437.08	31.358
1440.6	38.493
1444.11	53.179
1447.62	25.648
1451.13	47.785
1454.64	30.575
1458.15	42.689
1461.65	80.077
1465.16	65.724
1468.66	69.587
1472.16	42.437
1475.65	17.491
1479.15	25.668
1482.64	24.154
1486.14	35.831
1489.63	55.575
1493.12	12.079
1496.61	22.106
1500.09	31.604
1503.58	40.256
