Measurement: Raman, 514 nm, ccw, Raman Data Processed
Mineral: Axinite-(Fe)
Rruff sample: R060558
Ideal chemistry: Ca_4_Fe^2+^_2_Al_4_[B_2_Si_8_O_30_](OH)_2_
Locality: unknown
Source: Gemological Institute of America
Description: Brown flattened crystal
Measured chemistry: Ca_2.00_(Fe^2+^_0.60_Mg_0.35_Mn_0.05_)_Î£=1_Al_2.00_BSi_4.00_O_15_(OH) ; B not measured
Pin_id: M01035
Orientation: Laser parallel to c* (0 0 1). Fiducial mark perpendicular to laser is parallel to a [1 0 0]
Raman shift (cm-1)	intensity
126.533	0
131.467	193.848
136.399	63.165
141.328	709.963
146.254	1130.16
151.178	1952.63
156.098	2793.82
161.017	3847.8
165.932	4613.87
170.845	7618.23
175.755	5002.23
180.662	1222.36
185.567	55.0012
190.469	141.044
195.368	1324.87
200.264	1605.54
205.158	3041.12
210.049	5109.99
214.937	6083.98
219.823	4466.3
224.706	2370.39
229.586	767.791
234.464	154.227
239.339	260.81
244.211	1163.58
249.081	2494.03
253.947	3238.41
258.812	2987.14
263.673	3790.01
268.532	5223.61
273.388	5126.51
278.241	3660.59
283.092	2269.45
287.94	2315.36
292.785	4562.75
297.628	8173.18
302.468	10445.4
307.305	9187.78
312.14	6212.58
316.972	3984.41
321.801	3016.32
326.628	1520.19
331.451	656.523
336.273	1079.62
341.091	2508.02
345.907	5172.04
350.72	6537.66
355.531	6433.48
360.339	2635.27
365.144	483.756
369.947	89.3113
374.746	126.054
379.544	474.778
384.338	2141.97
389.13	5308.09
393.919	6537.48
398.706	4129.89
403.49	1850.42
408.271	940.122
413.05	1261.99
417.826	2863.02
422.599	4684.43
427.37	7465.37
432.138	8892.74
436.903	5358.46
441.666	2667.49
446.426	2354.79
451.183	850.326
455.938	11.0754
460.69	145.311
465.44	30.7058
470.187	182.243
474.931	455.268
479.672	374.442
484.411	1365.71
489.148	1276.04
493.881	26.3982
498.612	214.255
503.341	103.603
508.066	606.182
512.789	1073.12
517.51	871.823
522.228	420.587
526.943	68.0254
531.656	23.6931
536.365	480.252
541.073	1212.12
545.778	2426.91
550.48	2233.76
555.179	1821.03
559.876	2635.44
564.57	2952.03
569.262	2566.86
573.951	3103.85
578.637	3375.89
583.321	4213.97
588.002	6117.91
592.68	5918.68
597.356	2959.74
602.03	1647.41
606.7	1801.1
611.368	2403.7
616.034	2428.71
620.697	1624.58
625.357	731.31
630.014	91.8921
634.67	3.80933
639.322	180.784
643.972	425.431
648.619	300.981
653.264	9.54028
657.906	148.319
662.545	290.267
667.182	1367.17
671.816	4018.49
676.448	6784.66
681.077	5376.75
685.703	2558.78
690.327	1338.12
694.948	1698.94
699.567	3000.31
704.183	7023.44
708.797	16231.6
713.407	26910.9
718.016	22212
722.621	10425.7
727.225	4650.57
731.825	2366.26
736.423	1346.8
741.019	875.458
745.611	608.578
750.202	682.83
754.789	1112.95
759.374	1923.93
763.957	2952.8
768.537	3664.49
773.114	2856.14
777.689	1424.69
782.261	679.528
786.831	254.338
791.398	188.543
795.963	43.0413
800.524	105.464
805.084	440.091
809.641	730.787
814.195	534.565
818.747	144.341
823.296	28.8799
827.842	151.599
832.386	11.7107
836.928	84.3384
841.467	106.948
846.003	22.2966
850.537	17.0456
855.068	22.8577
859.597	114.577
864.123	302.368
868.646	244.25
873.167	309.233
877.686	370.329
882.202	564.561
886.715	708.047
891.226	1297.71
895.734	2302.51
900.24	3529.47
904.743	4506.6
909.244	3832.04
913.742	2213.62
918.238	1208.06
922.731	707.672
927.221	728.406
931.709	746.693
936.195	902.41
940.678	804.48
945.158	1148.73
949.636	1825.15
954.111	3066.74
958.584	5864.12
963.054	10187.1
967.522	11431.5
971.987	9876.99
976.45	11731.2
980.91	13725.2
985.368	11286.4
989.823	8795.63
994.275	8137.33
998.725	9274.05
1003.17	10182.1
1007.62	8663.55
1012.06	5521.88
1016.5	3038.26
1020.94	1797.63
1025.37	1601.26
1029.81	1752.2
1034.23	1742.9
1038.66	1720.68
1043.09	1768.03
1047.51	1856.65
1051.93	2127.26
1056.35	2603.9
1060.76	2660.78
1065.17	2172.15
1069.58	1353.34
1073.99	1286.31
1078.4	2179.94
1082.8	3496.77
1087.2	3496.67
1091.6	2062.72
1095.99	1324.71
1100.38	994.01
1104.77	960.856
1109.16	839.475
1113.55	602.32
1117.93	363.679
1122.31	181.764
1126.68	139.746
1131.06	103.197
1135.43	18.3799
1139.8	54.6462
1144.17	33.8718
1148.54	80.9075
1152.9	28.7788
1157.26	51.1582
1161.62	40.6587
1165.97	6.96924
1170.32	32.3906
1174.67	48.8877
1179.02	44.2446
1183.37	56.5234
1187.71	51.541
1192.05	47.1443
1196.39	43.5818
1200.72	42.2295
1205.05	56.7935
1209.38	87.5322
1213.71	52.7029
1218.04	66.3062
1222.36	57.3259
1226.68	52.7959
1231	31.3977
1235.31	45.2297
1239.63	1.63159
1243.94	46.4971
1248.25	89.0747
1252.55	70.1284
1256.86	110.914
1261.15	18.7148
1265.45	136.222
1269.75	79.7861
1274.04	99.6458
1278.33	82.7441
1282.62	111.336
1286.91	60.6985
1291.19	89.95
1295.47	75.8257
1299.75	116.698
1304.03	78.0051
1308.3	127.939
1312.57	13.0373
1316.84	53.7273
1321.11	90.4746
1325.37	50.7778
1329.63	27.5071
1333.89	183.483
1338.15	101.181
1342.4	136.475
1346.65	141.349
1350.9	83.9221
1355.15	190.836
1359.4	200.127
1363.64	148.53
1367.88	177.561
1372.12	213.689
1376.35	136.342
1380.58	155.712
1384.81	143.533
1389.04	159.602
1393.26	163.46
1397.49	136.166
1401.71	38.5681
1405.92	62.5855
1410.14	152.831
1414.35	15.457
1418.56	74.895
1422.77	204.863
1426.98	125.175
1431.18	65.4334
1435.38	226.383
1439.58	102.888
1443.78	163.016
1447.97	76.4651
1452.16	54.5945
1456.35	87.6863
1460.54	30.3589
1464.72	51.3516
1468.9	72.5569
1473.08	33.677
1477.26	51.8398
1481.43	47.1228
1485.6	95.4868
1489.77	11.5303
1493.94	96.6511
1498.1	19.1836
1502.27	17.729
1506.43	68.7546
1510.58	35.8967
1514.74	23.8247
1518.89	117.505
1523.04	78.8313
1527.19	136.869
1531.34	102.993
1535.48	80.7627
1539.62	25.3657
1543.76	47.9312
1547.89	108.934
1552.03	21.3098
1556.16	120.946
1560.29	19.8315
