Measurement: Raman, 514 nm, ccw, Raman Data Processed
Mineral: Axinite-(Fe)
Rruff sample: R050061
Ideal chemistry: Ca_4_Fe^2+^_2_Al_4_[B_2_Si_8_O_30_](OH)_2_
Locality: Jamestown, California, USA
Source: Rock Currier
Description: Brown colored axe-head-shaped single crystals
Measured chemistry: Ca_2.00_(Fe^2+^_0.73_Mg_0.20_Mn_0.07_)Al_2.00_BSi_4_O_15_(OH)
Pin_id: L00381
Orientation: Laser parallel to a* (1 0 0). Fiducial mark perpendicular to laser is parallel to b [0 1 0]
Raman shift (cm-1)	intensity
89.663	0
93.868	174.812
98.07	387.358
102.271	877.269
106.469	4424.62
110.665	6723.25
114.859	3765.37
119.05	2360.51
123.24	2386.01
127.427	1455.86
131.612	1029.05
135.794	3080.49
139.975	4810.38
144.153	2704.23
148.329	1732.25
152.503	1273.95
156.674	706.002
160.843	521.616
165.011	1238.58
169.175	2632.04
173.338	2355.49
177.499	896.7
181.657	42.189
185.813	320.149
189.967	231.614
194.119	154.201
198.268	169.722
202.415	1007.56
206.561	2409.31
210.703	3520.85
214.844	3396.23
218.983	2761.56
223.119	1170.6
227.253	285.827
231.385	27.437
235.515	13.776
239.643	219.258
243.768	254.585
247.891	490.468
252.012	2119.17
256.131	4230.58
260.248	3544.56
264.363	4380.44
268.475	6773.32
272.585	9354.4
276.693	9704.32
280.799	6742.93
284.903	4768.57
289.005	4842.58
293.104	5225.12
297.201	4740.44
301.296	3398.7
305.389	2663.2
309.48	2122.6
313.569	2723.54
317.655	5191.45
321.74	5432.56
325.822	3798.02
329.902	3657.21
333.98	3597.26
338.056	4740.05
342.129	7411.19
346.201	6690.87
350.27	4122.36
354.337	2447.55
358.402	1013.88
362.465	268.067
366.526	56.666
370.585	65.333
374.642	160.674
378.696	292.386
382.748	932.392
386.799	2334.3
390.847	2307.04
394.893	978.74
398.936	592.246
402.978	786.658
407.018	994.312
411.055	1573.48
415.091	3806.71
419.124	6196.9
423.155	7244.84
427.184	6833.47
431.211	4547.78
435.236	2897.78
439.259	3101.46
443.28	6705.77
447.298	6175.59
451.315	2267.68
455.329	929.294
459.341	441.678
463.352	60.847
467.36	2.221
471.366	126.494
475.37	174.179
479.372	688.958
483.371	1650.9
487.369	1406.98
491.365	338.192
495.358	12.366
499.35	33.618
503.339	114.197
507.326	513.966
511.311	1191.33
515.295	1157.77
519.276	595.847
523.255	118.992
527.232	62.901
531.207	30.506
535.179	154.516
539.15	112.3
543.119	26.202
547.086	86.04
551.05	184.397
555.013	64.743
558.973	568.969
562.932	785.226
566.888	501.428
570.842	597.562
574.795	818.592
578.745	593.512
582.693	592.323
586.639	1036.03
590.583	1264.62
594.525	696.117
598.465	190.51
602.403	73.206
606.339	5.742
610.273	221.49
614.205	650.142
618.135	806.703
622.063	519.498
625.989	225.364
629.912	223.582
633.834	532.363
637.754	1168.77
641.671	2061.08
645.587	2183.43
649.501	1887.33
653.412	776.699
657.322	375.189
661.23	255.188
665.135	435.68
669.039	803.848
672.94	1888.48
676.84	2892.47
680.738	2065.5
684.633	1101.97
688.527	793.811
692.418	833.943
696.308	1088.79
700.195	1793.6
704.081	3529.27
707.964	7567.78
711.846	14290.9
715.726	13932.4
719.603	7773.84
723.479	3941.11
727.352	2219.26
731.224	1311.29
735.094	818.208
738.961	463.005
742.827	260.688
746.691	243.26
750.552	220.722
754.412	246.077
758.27	246.029
762.125	227.121
765.979	276.665
769.831	296.629
773.681	139.503
777.529	40.292
781.375	1.043
785.219	62.328
789.06	41.054
792.901	27.301
796.739	33.105
800.575	85.426
804.409	41.849
808.241	189.031
812.071	389.202
815.899	244.352
819.726	0.556
823.55	43.552
827.372	62.771
831.193	2.312
835.011	83.976
838.828	212.253
842.642	309.596
846.455	542.914
850.266	974.207
854.075	1095.53
857.881	1109.01
861.686	1072.73
865.489	1067.7
869.29	1166.73
873.089	1330.77
876.886	1641.83
880.682	1854.94
884.475	1946.09
888.266	2289.29
892.056	3027.54
895.843	3980.81
899.629	4547.14
903.413	4445.52
907.194	3942.92
910.974	2974.37
914.752	2095.99
918.528	1635.7
922.302	1535.44
926.074	1612.22
929.844	1752.74
933.613	1586.94
937.379	1510.14
941.144	1729.71
944.906	2370.41
948.667	3086.96
952.426	4009.54
956.183	5545.24
959.938	7527.1
963.691	9215.58
967.442	8234.15
971.191	8401.9
974.939	10687.2
978.684	12316.3
982.428	10149
986.169	7787.15
989.909	7176.35
993.647	6923.7
997.383	6540.14
1001.12	5894.22
1004.85	4474.24
1008.58	3128.79
1012.31	2077.8
1016.03	1542.3
1019.76	1153.21
1023.48	1048.32
1027.2	917.692
1030.92	718.842
1034.64	561.62
1038.36	539.672
1042.07	480.854
1045.78	516.411
1049.49	494.744
1053.2	592.796
1056.9	506.738
1060.61	500.887
1064.31	372.95
1068.01	366.802
1071.71	338.202
1075.41	439.981
1079.1	559.188
1082.79	676.949
1086.48	482.411
1090.17	369.769
1093.86	311.05
1097.55	268.75
1101.23	348.48
1104.91	397.735
1108.59	252.382
1112.27	260.666
1115.95	151.587
1119.62	190.7
1123.3	128.7
1126.97	119.477
1130.63	5.245
1134.3	12.4
1137.97	6.256
1141.63	6.954
1145.29	45.767
1148.95	62.106
1152.61	36.076
1156.27	27.511
1159.92	33.739
1163.57	48.241
1167.22	1.064
1170.87	18.602
1174.52	4.889
1178.16	61.844
1181.81	13.089
1185.45	39.84
1189.09	37.197
1192.73	58.801
1196.36	34.166
1200	103.242
1203.63	77.42
1207.26	68.532
1210.89	31.859
1214.52	46.159
1218.14	8.333
1221.77	10.121
1225.39	5.243
1229.01	30.793
1232.62	30.375
1236.24	61.816
1239.86	27.182
1243.47	58.58
1247.08	14.811
1250.69	197.791
1254.3	72.854
1257.9	48.975
1261.5	56.642
1265.11	105.028
1268.71	69.074
1272.3	55.832
1275.9	61.434
1279.49	40.762
1283.09	45.785
1286.68	81.761
1290.27	95.45
1293.86	75.515
1297.44	38.462
1301.03	61.842
1304.61	24.54
1308.19	12.656
1311.77	4.294
1315.34	9.219
1318.92	0.554
1322.49	54.774
1326.06	70.049
1329.63	81.556
1333.2	116.447
1336.77	64.817
1340.33	63.013
1343.89	5.365
1347.46	38.179
1351.02	5.408
1354.57	88.489
1358.13	90.943
1361.68	134.521
1365.23	81.465
1368.79	47.033
1372.33	109.232
1375.88	108.371
1379.43	66.485
1382.97	75.312
1386.51	48.4
1390.05	64.413
1393.59	31.585
1397.13	49.965
1400.66	67.205
1404.19	45.465
1407.72	115.715
1411.25	60.953
1414.78	68.761
1418.31	25.482
1421.83	90.823
1425.36	30.546
1428.88	75.767
1432.39	88.149
1435.91	94.757
1439.43	93.265
1442.94	97.795
1446.45	89.52
1449.96	54.978
1453.47	66.967
1456.98	95.501
1460.48	73.319
1463.99	27.114
1467.49	56.596
1470.99	7.614
1474.49	61.742
1477.99	37.376
1481.48	9.96
1484.97	52.665
1488.46	113.967
1491.95	66.394
1495.44	0.981
1498.93	17.802
1502.41	9.957
1505.9	21.841
1509.38	0
