Measurement: Raman, 514 nm, ccw, Raman Data Processed
Mineral: Axinite-(Fe)
Rruff sample: R040074
Ideal chemistry: Ca_4_Fe^2+^_2_Al_4_[B_2_Si_8_O_30_](OH)_2_
Locality: Luning, Nevada, USA
Source: University of Arizona Mineral Museum
Description: Pale brown wedge-shaped crystal
Measured chemistry: (Ca_0.98_Mn_0.01_)_2_(Fe_0.41_Mg_0.39_Mn_0.20_)Al_1.95_B_1.20_Si_3.90_O_15_(OH)
Pin_id: L00132
Orientation: Laser parallel to (-1 -1 0). Fiducial mark perpendicular to laser is parallel to c [0 0 1]
Raman shift (cm-1)	intensity
91.398	0
95.582	235.279
99.764	1164.87
103.943	3208.04
108.121	7946.26
112.297	6364
116.47	3245.28
120.642	2376.46
124.811	1137.57
128.979	559.08
133.144	258.114
137.307	705.885
141.469	2154.31
145.628	2992.93
149.786	3347.34
153.941	3596.96
158.094	3421.43
162.245	3081.84
166.395	4413.52
170.542	10550.9
174.687	9400.99
178.83	4061.09
182.972	441.595
187.111	186.706
191.248	1976.53
195.383	4851.44
199.516	2680
203.647	3572.04
207.777	6495.38
211.904	10360
216.029	10887.3
220.152	7317.24
224.273	3607.81
228.392	1249.32
232.509	28.182
236.625	463.379
240.738	312.361
244.849	1738.52
248.958	3944.12
253.065	5139.83
257.171	4432.56
261.274	3965.01
265.375	5137.62
269.475	7206.15
273.572	7988.96
277.667	6795.04
281.76	4233.73
285.852	2684.51
289.941	3847.06
294.029	7491.12
298.114	12616.9
302.198	15434.1
306.279	15104.9
310.359	10673.9
314.436	6952.45
318.512	8531.81
322.586	8761.8
326.657	4202.33
330.727	2082.29
334.795	2269.18
338.861	4652.95
342.924	9295.06
346.986	11226.4
351.046	10610.7
355.104	9922.63
359.16	3954.77
363.214	727.938
367.267	79.297
371.317	166.932
375.365	79.951
379.411	131.609
383.456	2023.11
387.498	6704.56
391.539	9885.96
395.577	8156.56
399.614	4320.59
403.649	2478.2
407.681	1567.71
411.712	2017.08
415.741	5496.3
419.768	8345.41
423.793	8434.82
427.816	13034.4
431.837	16214.1
435.857	10643.9
439.874	5343.54
443.889	4883.15
447.903	3902.64
451.914	1371.98
455.924	311.141
459.932	39.916
463.938	281.768
467.941	134.711
471.943	820.295
475.944	523.008
479.942	651.758
483.938	2386.56
487.932	2521.2
491.925	285.758
495.915	380.289
499.904	204.771
503.891	951.711
507.876	1632.51
511.859	1573.19
515.84	913.922
519.819	184.828
523.796	274.381
527.771	289.625
531.745	86.553
535.716	541.594
539.686	2611.51
543.654	4536.91
547.62	4991.92
551.584	4036.53
555.546	4560.74
559.506	6864.88
563.465	6288.83
567.421	4492.4
571.376	4765.58
575.329	6058.36
579.279	5730.76
583.228	6202.76
587.175	9154.35
591.121	9165.53
595.064	5386.3
599.006	2996.66
602.945	2486.59
606.883	3186.11
610.819	3805.21
614.753	3643.89
618.685	2612.99
622.615	1814.39
626.544	1071.02
630.471	608.125
634.395	94.795
638.318	563.145
642.239	1229.37
646.158	1505.17
650.076	1062.26
653.991	260.576
657.905	73.266
661.817	246.998
665.726	1070.38
669.635	3133.05
673.541	7045
677.445	10701.9
681.348	7869.94
685.248	4224.88
689.147	2677.34
693.044	2260.09
696.94	2812.6
700.833	4714.31
704.724	9785.73
708.614	20686.9
712.502	40277.8
716.388	44208.5
720.272	25408.9
724.155	12859
728.035	7138.98
731.914	4348.68
735.791	2648.17
739.666	1647.45
743.539	1236.53
747.41	1265.4
751.28	1424.09
755.148	1862.59
759.014	2760.92
762.878	4559.09
766.74	6997.09
770.601	7094.94
774.46	4552.7
778.316	2220.78
782.172	1159.43
786.025	698.082
789.876	236.709
793.726	103.904
797.574	51.969
801.42	199.523
805.264	33.307
809.107	354.066
812.947	647.164
816.786	651.324
820.623	230.65
824.459	293.328
828.292	286.908
832.124	141.688
835.954	42.648
839.782	73.059
843.608	28.367
847.433	3.512
851.255	241.342
855.076	536.258
858.895	631.242
862.713	616.367
866.528	381.791
870.342	487.412
874.154	893.197
877.965	1209.27
881.773	945.451
885.58	1271.73
889.385	1398.1
893.188	2514.57
896.989	3941.12
900.789	5657.77
904.587	6424.52
908.383	4441.4
912.177	2848.53
915.97	2235.81
919.76	1843.26
923.55	1510.86
927.337	1768.59
931.122	1736.46
934.906	1964.44
938.688	2092.53
942.468	2700.82
946.247	3576.86
950.023	4974.67
953.798	6533.31
957.572	10216.8
961.343	16765.8
965.113	21534.9
968.881	19004.2
972.647	17538.6
976.411	20984.8
980.174	22595.8
983.935	17048
987.694	13185.1
991.452	11408.7
995.207	11629.4
998.961	13269.7
1002.71	15866.7
1006.46	14379.4
1010.21	10676.4
1013.96	7252.9
1017.71	4803.29
1021.45	3849.36
1025.19	3751.74
1028.93	3788.38
1032.67	3193.39
1036.41	3067.56
1040.14	3234.39
1043.87	3458.13
1047.61	3242.15
1051.34	3846.98
1055.06	4303.62
1058.79	4960.02
1062.52	5016.21
1066.24	4167.08
1069.96	3314.22
1073.68	3180.62
1077.4	4087.05
1081.11	6362.79
1084.83	7327.76
1088.54	5773.42
1092.25	3757.92
1095.96	2832.5
1099.67	2097.27
1103.37	1891.91
1107.08	1626.08
1110.78	1140.74
1114.48	834.564
1118.18	804.846
1121.88	1068.25
1125.57	751.896
1129.27	325.826
1132.96	79.531
1136.65	66.812
1140.34	166.58
1144.02	293.021
1147.71	285.881
1151.39	349.033
1155.07	58.158
1158.76	45.596
1162.43	293.098
1166.11	150.318
1169.79	27.166
1173.46	176.371
1177.13	399.957
1180.8	143.637
1184.47	187.641
1188.14	232.076
1191.8	304.414
1195.46	112.602
1199.13	108.855
1202.79	555.906
1206.45	583.666
1210.1	622.422
1213.76	398.33
1217.41	580.631
1221.06	255.039
1224.71	259.221
1228.36	399.662
1232.01	631.947
1235.65	642.969
1239.3	499.645
1242.94	492.463
1246.58	526.922
1250.22	246.543
1253.85	64.252
1257.49	162.109
1261.12	338.1
1264.75	568.119
1268.38	639.602
1272.01	662.119
1275.64	313.158
1279.27	83.104
1282.89	80.746
1286.51	1.49
