Measurement: Raman, 514 nm, ccw, Raman Data Processed
Mineral: Axinite-(Fe)
Rruff sample: R050026
Ideal chemistry: Ca_4_Fe^2+^_2_Al_4_[B_2_Si_8_O_30_](OH)_2_
Locality: Pouyva mine, Polar Urals, Western Siberian Region, Russia
Source: Rock Currier
Description: Brown transparent flat crystal
Measured chemistry: Ca_2.00_(Fe^2+^_0.61_Mn_0.26_Mg_0.13_)Al_2.00_BSi_4_O_15_(OH)
Pin_id: L00250
Orientation: Laser parallel to -b* (0 -1 0). Fiducial mark perpendicular to laser is parallel to -c [0 0 -1]
Raman shift (cm-1)	intensity
81.521	0
85.706	35.554
89.89	704.559
94.071	2216.91
98.251	3654.19
102.428	4554.31
106.604	4475.94
110.777	5890.08
114.949	5403.44
119.119	2276.87
123.286	1433.68
127.452	1568.4
131.615	1594.67
135.777	873.539
139.937	1105.12
144.094	874.514
148.25	1781.8
152.403	3889.14
156.555	5232.26
160.705	4727.65
164.853	3085.18
168.998	5951.05
173.142	9011.11
177.284	5814.73
181.424	2301.14
185.562	193.626
189.698	471.389
193.831	373.513
197.963	107.289
202.093	1763.04
206.221	5482.61
210.347	7851.28
214.472	7073.2
218.594	4191.79
222.714	2022.68
226.832	485.964
230.948	335.476
235.063	393.373
239.175	246.578
243.286	1472.86
247.394	2759.31
251.501	2909.55
255.605	2916.31
259.708	2154.23
263.808	1653.24
267.907	2595.62
272.004	4060.21
276.099	4798.58
280.192	3933.74
284.283	2694.52
288.372	2309.07
292.459	3169.63
296.544	5512.57
300.627	8315.99
304.709	11917.5
308.788	13346.4
312.865	8127.56
316.941	4709.41
321.015	3869.84
325.086	2411.08
329.156	1497.54
333.224	1170.28
337.29	1004.89
341.354	2134.29
345.416	5045.6
349.476	8610.63
353.534	11737.5
357.591	7248.82
361.645	2663.37
365.698	802.426
369.748	371.174
373.797	526.062
377.844	683.722
381.889	1472.03
385.932	4114.42
389.973	8249.71
394.012	9126.74
398.049	6819.96
402.084	4010.15
406.118	2293.12
410.15	1825.64
414.179	3716.97
418.207	7809
422.233	7898.72
426.257	7908.12
430.279	7497.23
434.299	4906.05
438.318	2738.61
442.334	3452.96
446.349	5221.11
450.361	3050.11
454.372	1368.97
458.381	952.707
462.388	289.361
466.394	226.053
470.397	848.852
474.398	1061.11
478.398	1559.33
482.396	4003.69
486.391	5834.64
490.385	2663.8
494.377	416.858
498.368	84.085
502.356	482.884
506.342	972.93
510.327	1436.34
514.31	1745.02
518.291	1076.94
522.27	201.345
526.247	214.93
530.222	295.237
534.196	182.517
538.167	59.671
542.137	350.719
546.105	751.771
550.071	925.854
554.035	869.32
557.998	1853.04
561.958	2820.77
565.917	2827.64
569.874	3354.48
573.829	4720.3
577.782	4696.1
581.733	4661.87
585.683	6487.62
589.63	8673.35
593.576	6589.06
597.52	3614.75
601.462	2260.41
605.402	2436.06
609.341	3255.68
613.277	3483.28
617.212	3090.86
621.145	2804.41
625.076	1706.77
629.006	521.261
632.933	65.289
636.859	152.109
640.783	83.135
644.705	335.368
648.625	159.669
652.543	134.675
656.46	127.955
660.375	52.833
664.288	610.426
668.199	1653.39
672.108	3540.68
676.016	7435.27
679.921	9092.63
683.825	6079.63
687.727	3339.12
691.628	2289.53
695.526	2316.13
699.423	3672.32
703.318	6742.1
707.211	12701.7
711.102	24311.2
714.992	35410.4
718.879	28189.5
722.765	15498.3
726.649	7846.98
730.532	4350.46
734.412	2570.74
738.291	1557.84
742.168	1116.75
746.043	829.482
749.916	645.038
753.788	683.87
757.658	885.629
761.526	1430.67
765.392	2469.55
769.257	3010.26
773.119	2449.81
776.98	1431.21
780.839	799.45
784.697	519.547
788.552	157.357
792.406	2.226
796.258	60.609
800.108	137.167
803.957	164.926
807.804	33.459
811.649	228.528
815.492	256.809
819.333	32.171
823.173	98.411
827.011	194.281
830.847	60.958
834.681	22.991
838.514	144.992
842.345	272.488
846.174	529.538
850.001	783.888
853.827	1063.32
857.651	1080.81
861.473	1230.36
865.293	1551.01
869.112	1735.78
872.928	2022.75
876.744	2187.92
880.557	2407.28
884.369	2917.85
888.178	3835.11
891.987	5354.5
895.793	7737.61
899.598	11290.9
903.401	14614.3
907.202	14157.8
911.001	10991.6
914.799	7575.42
918.595	5319.45
922.389	3862.67
926.182	3436.06
929.972	3320.62
933.761	3255.43
937.549	2997.47
941.334	2902.76
945.118	3311.78
948.9	4066.37
952.681	5207.2
956.459	7239.2
960.236	11075.1
964.012	15792.9
967.785	16261.4
971.557	14148.2
975.327	15121.1
979.095	19366.8
982.862	19691.4
986.627	17928
990.39	17298.3
994.152	17369
997.912	17930.4
1001.67	18953.2
1005.43	17805.8
1009.18	14248.5
1012.93	9883.88
1016.68	6698.58
1020.43	4852.9
1024.18	3963.39
1027.93	3664.09
1031.67	3092.5
1035.42	2883.67
1039.16	2911.46
1042.9	3177.58
1046.63	3474.64
1050.37	4306.97
1054.11	5472.89
1057.84	6111.77
1061.57	5371.48
1065.3	3792.89
1069.03	2654.34
1072.75	2248.23
1076.47	2329.63
1080.2	3064.37
1083.92	3698.29
1087.64	3264.39
1091.36	2162.09
1095.07	1664.71
1098.79	1361.9
1102.5	1369.42
1106.21	1539.21
1109.92	1263.37
1113.62	934.98
1117.33	725.105
1121.04	570.838
1124.74	601.447
1128.44	313.925
1132.14	124.348
1135.83	89.375
1139.53	79.525
1143.22	95.543
1146.92	27.775
1150.61	11.398
1154.3	35.8
1157.98	39.178
1161.67	49.384
1165.35	68.855
1169.04	22.733
1172.72	27.149
1176.4	47.128
1180.07	21.146
1183.75	83.851
1187.42	39.538
1191.1	38.721
1194.77	3.041
1198.44	39.455
1202.1	35.114
1205.77	101.713
1209.43	61.916
1213.1	43.652
1216.76	0.018
1220.42	20.746
1224.07	36.402
1227.73	28.943
1231.38	80.98
1235.04	55.477
1238.69	25.436
1242.34	13.39
1245.99	40.124
1249.63	45.573
1253.28	41.459
1256.92	119.371
1260.56	90.528
1264.2	113.832
1267.84	61.68
1271.48	131.902
1275.11	119.458
1278.74	102.598
1282.38	124.273
1286.01	127.499
1289.63	169.194
1293.26	102.588
1296.89	103.604
1300.51	79.194
1304.13	62.867
1307.75	43.454
1311.37	53.564
1314.99	13.797
1318.6	85.158
1322.22	69.783
1325.83	86.134
1329.44	52.771
1333.05	94.648
1336.66	75.457
1340.26	59.524
1343.87	91.267
1347.47	93.033
1351.07	91.685
1354.67	147.674
1358.27	152.378
1361.86	196.757
1365.46	163.663
1369.05	136.26
1372.64	121.951
1376.23	140.225
1379.82	156.381
1383.41	147.2
1386.99	108.937
1390.57	104.115
1394.16	173.579
1397.74	109.611
1401.32	90.787
1404.89	135.968
1408.47	110.989
1412.04	130.912
1415.61	169.61
1419.18	107.347
1422.75	132.549
1426.32	137.83
1429.89	106.098
1433.45	117.144
1437.01	92.026
1440.58	120.563
1444.13	84.731
1447.69	114.689
1451.25	54.525
1454.81	91.319
1458.36	35.516
1461.91	40.539
1465.46	67.093
1469.01	135.485
1472.56	73.968
1476.1	81.14
1479.64	62.413
1483.19	112.305
1486.73	73.734
1490.27	50.573
1493.81	8.273
1497.34	25.078
1500.88	17.45
1504.41	38.516
1507.94	38.405
1511.47	7.87
1515	58.145
1518.53	0
