Measurement: Raman, 514 nm, ccw, Raman Data Processed
Mineral: Axinite-(Fe)
Rruff sample: R040074
Ideal chemistry: Ca_4_Fe^2+^_2_Al_4_[B_2_Si_8_O_30_](OH)_2_
Locality: Luning, Nevada, USA
Source: University of Arizona Mineral Museum
Description: Pale brown wedge-shaped crystal
Measured chemistry: (Ca_0.98_Mn_0.01_)_2_(Fe_0.41_Mg_0.39_Mn_0.20_)Al_1.95_B_1.20_Si_3.90_O_15_(OH)
Pin_id: L00239
Orientation: Laser parallel to b* (0 1 0). Fiducial mark perpendicular to laser is parallel to c [0 0 1]
Raman shift (cm-1)	intensity
90.003	0
94.188	298.166
98.37	1729.64
102.55	5895.82
106.729	13173.1
110.905	14770.3
115.079	4348.13
119.251	1736.45
123.422	926.785
127.59	236.195
131.756	67.599
135.92	1151.88
140.082	3688.97
144.242	4822.04
148.4	4992.9
152.556	5322.55
156.71	3601.4
160.862	3558.63
165.012	4277.51
169.16	6958.31
173.306	6721.56
177.449	3646.05
181.591	1292.43
185.731	441.068
189.869	1371.95
194.005	2464.92
198.139	1741.03
202.271	3241.36
206.4	4613.02
210.528	3985.62
214.654	2798.77
218.778	1292.51
222.9	121.8
227.019	311.457
231.137	676.792
235.253	459.505
239.367	724.894
243.479	1844.58
247.589	2740
251.697	3745.33
255.803	3754.86
259.906	4660.26
264.008	7684.17
268.108	11472.6
272.206	12564
276.302	10137.4
280.396	6772.1
284.488	5087.69
288.578	4803.97
292.666	5610.5
296.753	7576.79
300.837	9321.15
304.919	9522.19
308.999	6955.12
313.077	3601.15
317.154	2377.3
321.228	1933.59
325.3	2047.35
329.371	3076.76
333.439	2106.23
337.506	1606.31
341.57	3138.37
345.633	5289.07
349.693	8490.05
353.752	8921.52
357.809	3929.13
361.863	1293.27
365.916	455.287
369.967	577.873
374.016	776.967
378.063	678.573
382.108	1610.13
386.151	4261.64
390.192	7445.85
394.231	5368.15
398.269	2630.45
402.304	2144.8
406.337	2085.64
410.369	4176.38
414.398	12397
418.426	13407.6
422.452	6758.33
426.475	6368.99
430.497	7019.55
434.517	4519.93
438.535	2400.11
442.551	3000.07
446.565	2469.76
450.577	959.182
454.588	278.317
458.596	107.163
462.602	174.515
466.607	137.727
470.61	377.627
474.61	878.173
478.609	2925.14
482.606	8583.58
486.601	9739.62
490.594	3016.4
494.585	685.734
498.575	240.058
502.562	402.242
506.548	518.774
510.531	583.961
514.513	18.825
518.493	76.678
522.47	103.414
526.446	162.153
530.421	12.827
534.393	445.669
538.363	523.789
542.331	411.53
546.298	218.893
550.263	96.109
554.225	794.062
558.186	1992.95
562.145	2521.88
566.103	2650.43
570.058	4748.57
574.011	6160.62
577.963	5363.64
581.912	4410.57
585.86	5567.08
589.806	6163.17
593.75	3558.84
597.692	1644.08
601.632	1078.91
605.571	843.309
609.507	1507.29
613.442	2080.84
617.375	3313.19
621.306	3232.33
625.235	1381.94
629.162	314.742
633.087	121.135
637.011	111.11
640.932	526.164
644.852	756.2
648.77	580.165
652.686	389.685
656.6	167.539
660.513	333.434
664.423	890.376
668.332	2156.85
672.239	4807.01
676.144	6566.76
680.047	4611.15
683.948	2471.78
687.848	1614.58
691.746	1574.2
695.641	2341.77
699.535	3805.02
703.427	7837.32
707.318	15986.4
711.206	30318.6
715.093	32590.5
718.978	18842.1
722.861	8773.34
726.742	4604.24
730.621	2634.83
734.499	1675.1
738.374	945.072
742.248	574.751
746.12	604.146
749.99	503.267
753.859	602.118
757.725	930.712
761.59	1339.06
765.453	2307.15
769.314	2145.02
773.174	1132.66
777.031	450.35
780.887	68.525
784.741	93.243
788.593	112.518
792.443	198.792
796.291	304.965
800.138	411.92
803.983	19.338
807.826	847.094
811.667	1977.7
815.507	1354.5
819.344	645.199
823.18	6.03
827.014	223.303
830.847	26.951
834.677	107.642
838.506	219.163
842.333	371.258
846.158	953.439
849.981	1335.72
853.803	1388.2
857.623	1240.82
861.441	1153.6
865.257	1146.46
869.071	1169.56
872.884	1252.96
876.695	2066.55
880.504	2480.36
884.311	2864.4
888.117	4258.64
891.92	7003.15
895.722	10697.8
899.523	13442.6
903.321	12587.6
907.118	10632.8
910.913	8508.03
914.706	6053.44
918.497	4189
922.287	3984.71
926.075	4450.57
929.861	5496.57
933.645	4731.98
937.428	3807.36
941.208	3857.91
944.987	4590.46
948.765	6516.15
952.54	8106.59
956.314	8175.33
960.086	9822.92
963.856	11470.9
967.625	10419
971.392	10187.5
975.157	12515.5
978.92	15882.6
982.682	14507.6
986.441	12663.5
990.199	12663.9
993.956	12055.7
997.71	12254.7
1001.46	13498.9
1005.21	13268.1
1008.96	9783.06
1012.71	6037.18
1016.46	3891.77
1020.2	2852.38
1023.94	2009.93
1027.68	1574.54
1031.42	1497.91
1035.16	1302.57
1038.9	1854.4
1042.63	2072.79
1046.36	1919.48
1050.09	1840.91
1053.82	2187.16
1057.55	2954.65
1061.27	3210.69
1065	2727.2
1068.72	1843.83
1072.44	1479.94
1076.16	1745.89
1079.87	2422.41
1083.59	2727.29
1087.3	2091.12
1091.01	1524.62
1094.72	1358.55
1098.43	1713.61
1102.14	2197.78
1105.84	2551.8
1109.55	2065.77
1113.25	1608.71
1116.94	1111.18
1120.64	1173.13
1124.34	754.67
1128.03	555.873
1131.73	97.164
1135.42	31.828
1139.11	10.744
1142.8	53.188
1146.48	197.205
1150.16	121.197
1153.85	95.25
1157.53	8.875
1161.21	22.273
1164.88	304.615
1168.56	101.492
1172.23	31.777
1175.91	225.309
1179.58	269.137
1183.25	163.324
1186.91	152.035
1190.58	123.227
1194.24	74.074
1197.91	325.748
1201.57	213.268
1205.23	401.904
1208.88	521.885
1212.54	520.262
1216.19	389.793
1219.85	350.4
1223.5	358.092
1227.14	456.082
1230.79	513.131
1234.44	632.807
1238.08	687.086
1241.72	504.42
1245.37	358.428
1249	280.375
1252.64	93.539
1256.28	232.547
1259.91	457.904
1263.54	348.994
1267.17	491.555
1270.8	631.432
1274.43	500.264
1278.06	147.961
1281.68	3.17
