Measurement: Raman, 514 nm, ccw, Raman Data Processed
Mineral: Axinite-(Fe)
Rruff sample: R040074
Ideal chemistry: Ca_4_Fe^2+^_2_Al_4_[B_2_Si_8_O_30_](OH)_2_
Locality: Luning, Nevada, USA
Source: University of Arizona Mineral Museum
Description: Pale brown wedge-shaped crystal
Measured chemistry: (Ca_0.98_Mn_0.01_)_2_(Fe_0.41_Mg_0.39_Mn_0.20_)Al_1.95_B_1.20_Si_3.90_O_15_(OH)
Pin_id: M00342
Orientation: Laser parallel to -a* (-1 0 0). Fiducial mark perpendicular to laser is parallel to b [0 1 0]
Raman shift (cm-1)	intensity
99.453	0
103.636	906.241
107.817	5688.68
111.996	8756.47
116.172	6695.35
120.347	4441.1
124.519	3068.38
128.69	1421.36
132.858	260.867
137.025	531.511
141.189	2809.32
145.352	4577.89
149.512	4968.71
153.67	4815.36
157.827	3497.15
161.981	2823.45
166.133	4498.27
170.283	9138.56
174.431	7009.91
178.577	2474.65
182.721	47.671
186.863	817.043
191.003	192.697
195.141	575.111
199.277	195.775
203.411	1168.78
207.543	3893.29
211.673	6848.67
215.801	7914.93
219.927	5532.75
224.051	2353.72
228.173	579.73
232.292	236.356
236.41	409.67
240.526	1375.41
244.64	2279.43
248.752	2703.77
252.861	4177.59
256.969	4601.94
261.075	4556.76
265.179	6251.73
269.281	9535.5
273.38	11317
277.478	9721.11
281.574	6385.9
285.668	4110.59
289.76	4593.83
293.85	6205.21
297.937	7885.4
302.023	8204.7
306.107	7343.32
310.189	5991.95
314.269	7497.46
318.347	12023.8
322.423	12030.8
326.497	7378.53
330.569	4776.56
334.639	4788.6
338.707	7660.26
342.773	13072.3
346.837	12483.3
350.899	8278.69
354.96	5274.56
359.018	1718.03
363.074	327.744
367.128	104.804
371.181	853.336
375.231	1128.97
379.28	883.288
383.326	2105.29
387.37	5577.38
391.413	7459.59
395.454	5905.67
399.492	4164.84
403.529	3167.4
407.564	2009.98
411.596	2192.58
415.627	4705.19
419.656	6887.81
423.683	8400.42
427.708	10383
431.731	11745.6
435.752	8407.93
439.772	5210.05
443.789	5461.88
447.804	4313.42
451.817	1814.67
455.829	1135.65
459.838	666.374
463.846	246.839
467.852	747.048
471.855	1297.1
475.857	1029.76
479.857	1680.23
483.855	3161.31
487.851	2783.23
491.845	645.841
495.837	281.196
499.828	237.591
503.816	25.784
507.802	325.823
511.787	226.953
515.77	260.136
519.75	26.32
523.729	333.167
527.706	451.783
531.681	443.11
535.654	93.342
539.625	999.122
543.595	2214.59
547.562	2429.73
551.527	1824.55
555.491	2699.2
559.453	4343.9
563.412	4138.25
567.37	2452.24
571.326	2575.87
575.28	2659.12
579.233	2232
583.183	2184.49
587.131	2926.59
591.078	2828.29
595.022	1619.98
598.965	1020.88
602.906	791.37
606.845	1391.45
610.782	2081.12
614.718	2420.37
618.651	2879.21
622.582	2387.47
626.512	965.834
630.44	367.233
634.366	722.457
638.29	1507.09
642.212	2287.38
646.132	2483.5
650.05	1700.59
653.967	1043.23
657.882	566.668
661.794	752.957
665.705	1214.97
669.614	2764.53
673.522	6207.4
677.427	8219.95
681.331	5934.94
685.232	3282.85
689.132	2265.48
693.03	2110.98
696.926	2908.42
700.82	4575.99
704.713	9063.06
708.603	18969.6
712.492	32645.7
716.379	33051.3
720.264	19806.4
724.147	10021.1
728.028	5385.2
731.908	2888.89
735.785	1752.1
739.661	974.85
743.535	747.143
747.407	798.982
751.278	810.375
755.146	1001.32
759.013	1191.83
762.878	1771.9
766.741	2481.55
770.602	2500.78
774.461	1359.6
778.319	658.01
782.174	256.012
786.028	27.268
789.88	132.361
793.73	127.227
797.579	414.062
801.425	413.297
805.27	244.396
809.113	333.424
812.954	808.922
816.794	575.131
820.631	16.955
824.467	329.568
828.301	73.281
832.133	132.328
835.963	237.777
839.792	503.91
843.618	581.086
847.443	1028.72
851.266	1526.32
855.088	1663.72
858.907	1860.99
862.725	1718.2
866.541	1905.31
870.355	1852.61
874.167	1950.51
877.978	2187.01
881.787	2334.12
885.594	2221.19
889.399	2548.17
893.202	3385.08
897.004	5052.02
900.803	7189
904.601	7765.58
908.398	6252.5
912.192	4269.36
915.985	3086.17
919.776	2712.93
923.565	2649.65
927.352	2806.35
931.138	2733.06
934.922	2838.39
938.704	3105.48
942.484	3497.62
946.262	4786.89
950.039	6371.81
953.814	8378.59
957.587	10904.6
961.359	16147.4
965.128	19215
968.896	17062.4
972.662	16355
976.427	18594.1
980.189	19126.8
983.95	15857.6
987.709	12546.2
991.467	10836.5
995.222	9937.77
998.976	10396.8
1002.73	10358.1
1006.48	8700.49
1010.23	6310.1
1013.97	4396.33
1017.72	3392.26
1021.46	2495.02
1025.2	2215.11
1028.94	1700.21
1032.68	1739.88
1036.42	2114.55
1040.15	2917.3
1043.89	3306.01
1047.62	3500.07
1051.35	3502.53
1055.07	4229.83
1058.8	4893.27
1062.52	4847.94
1066.25	3861.53
1069.97	3155.77
1073.69	3111
1077.4	3995.69
1081.12	5574.74
1084.83	6479.41
1088.55	4433.91
1092.26	3170.03
1095.96	1965.67
1099.67	1503.76
1103.38	1111.21
1107.08	778.828
1110.78	386.117
1114.48	194.701
1118.18	602.982
1121.88	449.998
1125.57	466.428
1129.27	313.512
1132.96	78.924
1136.65	82.131
1140.34	61.367
1144.02	83.543
1147.71	48.188
1151.39	287.973
1155.07	337.188
1158.75	105.281
1162.43	179.701
1166.11	319.908
1169.78	141.193
1173.45	156.15
1177.12	299.25
1180.79	309.691
1184.46	438.211
1188.13	38.766
1191.79	141.742
1195.45	103.207
1199.11	0.344
1202.77	723.271
1206.43	817.246
1210.09	531.471
1213.74	436.885
1217.39	168.021
1221.05	87.275
1224.69	23.334
1228.34	185.68
1231.99	553.033
1235.63	561.908
1239.27	666.988
1242.91	459.609
1246.55	471.246
1250.19	152.906
1253.83	75.428
1257.46	125.555
1261.09	500.494
1264.72	648.66
1268.35	934.076
1271.98	668.748
1275.61	792.561
1279.23	464.975
1282.85	32.686
1286.47	70.873
1290.09	193.773
1293.71	132.705
1297.33	446.246
1300.94	678.508
1304.55	455.422
1308.16	44.199
1311.77	52.152
1315.38	53.865
1318.99	100.289
1322.59	40.586
1326.19	313.342
1329.79	410.865
1333.39	424.555
1336.99	698.939
1340.59	745.504
1344.18	475.746
1347.77	136.471
1351.37	27.002
1354.95	144.736
1358.54	272.873
1362.13	497.779
1365.71	841.439
1369.3	638.518
1372.88	842.404
1376.46	651.188
1380.04	362.553
1383.61	291.688
1387.19	310.553
1390.76	93.867
1394.33	160.193
1397.9	404.135
1401.47	544.584
1405.04	873.676
1408.6	796.258
1412.16	909.645
1415.72	811.508
1419.29	491.668
1422.84	203.498
1426.4	229.451
1429.96	130.797
1433.51	214.289
1437.06	417.621
1440.61	797.586
1444.16	1260.21
1447.71	1207.78
1451.25	980.055
1454.8	911.861
1458.34	581.156
1461.88	611.877
1465.42	217.943
1468.96	271.178
1472.49	466.854
1476.03	441.078
1479.56	714.887
1483.09	1222.32
1486.62	1038.32
1490.15	1229.25
1493.67	855.725
1497.2	744.648
1500.72	467.898
1504.24	463.875
1507.76	74.285
1511.28	92.121
1514.8	228.799
1518.31	0
