Measurement: Raman, 514 nm, ccw, Raman Data Processed
Mineral: Axinite-(Fe)
Rruff sample: R060194
Ideal chemistry: Ca_4_Fe^2+^_2_Al_4_[B_2_Si_8_O_30_](OH)_2_
Locality: near Dalbandi, Baluchistan Province, Pakistan
Source: Herbert Obodda
Description: Brown transparent wedge-shaped single crystal
Measured chemistry: Ca_2.00_(Fe^2+^_0.66_Mg_0.30_Mn_0.04_)Al_2.00_BSi_4.00_O_15_(OH)
Pin_id: L01255
Orientation: Laser parallel to (-1 0 -1). Fiducial mark perpendicular to laser is parallel to -b [0 -1 0]
Raman shift (cm-1)	intensity
53.91	0
58.864	386.351
63.817	269.277
68.767	101.293
73.714	28.5708
78.659	390.175
83.602	1669.27
88.542	3508.56
93.48	6502.72
98.416	7510.44
103.349	7879.06
108.28	9186.74
113.208	10684.9
118.134	10775.6
123.058	10246.9
127.979	9251.87
132.898	8297.71
137.814	8026.05
142.728	9412.64
147.639	10297.4
152.549	13706.8
157.455	10723.5
162.359	9007.93
167.261	10490.9
172.161	14390.4
177.058	11096.1
181.952	6966.87
186.845	5279.57
191.734	5047.97
196.622	5319.82
201.507	5291.95
206.389	6423.56
211.269	8166.55
216.147	8925.22
221.022	7944.29
225.895	5043.78
230.765	3144.78
235.633	3018.76
240.498	4038.84
245.361	4383.1
250.222	4597.93
255.08	6087.2
259.936	6307.47
264.789	5715.67
269.64	7537.4
274.488	8397.61
279.334	7171.11
284.178	5176.88
289.019	4246.82
293.857	4058.8
298.693	4444.71
303.527	5157.39
308.358	5156.71
313.187	4833.51
318.013	7528.76
322.837	7820.33
327.659	4725.92
332.478	3779.39
337.294	4656.6
342.108	9057.39
346.92	10915.7
351.729	6474.64
356.535	2125.59
361.34	157.779
366.141	604.518
370.94	301.84
375.737	292.404
380.531	411.83
385.323	2520.11
390.113	5841.52
394.9	5968.41
399.684	2832.22
404.466	1583.95
409.245	823.42
414.022	1696.43
418.797	4205.19
423.569	6544.27
428.338	8735.58
433.105	6758.98
437.87	3157.36
442.632	2574.61
447.391	2598.6
452.149	1238.22
456.903	806.055
461.655	474.184
466.405	444.027
471.152	1484.07
475.897	2059.22
480.639	5294.34
485.378	10830.3
490.116	6377.07
494.85	1667.11
499.582	585.584
504.312	577.107
509.039	615.025
513.764	26.5957
518.486	208.769
523.206	405.014
527.923	469.891
532.638	412.266
537.35	225.582
542.059	89.5508
546.766	474.541
551.471	307.652
556.173	1001.03
560.873	2223.71
565.57	2338.6
570.264	2306.49
574.957	3108.3
579.646	2716.94
584.333	1668.35
589.018	1516.44
593.7	1024.15
598.379	507.4
603.056	789.787
607.73	1505.43
612.402	3700.05
617.072	6886.54
621.739	7993.09
626.403	3979.83
631.065	1371.71
635.724	722.678
640.381	1150.61
645.035	1574.08
649.687	1440.03
654.336	901.982
658.983	689.861
663.627	1394.66
668.268	2276.17
672.907	4826.89
677.544	7631.47
682.178	5250.74
686.809	2567.8
691.438	2283.69
696.065	2808.94
700.688	5176.64
705.31	10449.2
709.929	21063.9
714.545	30617.3
719.158	20750.7
723.77	9006.84
728.378	4169.92
732.984	2360.9
737.588	1229.6
742.189	905.299
746.787	652.021
751.383	748.627
755.976	960.158
760.567	1091.68
765.155	1929.21
769.741	1837.77
774.324	1199.32
778.904	385.928
783.482	177.527
788.058	56.707
792.631	537.732
797.201	414.535
801.769	108.252
806.334	19.7793
810.897	430.135
815.457	766.902
820.014	461.398
824.569	195.994
829.122	58.0977
833.671	23.9824
838.219	102.404
842.763	621.238
847.306	736.717
851.845	1307.9
856.382	1461.82
860.917	1519.4
865.448	1771.09
869.978	1479.5
874.505	1503.88
879.029	1481.49
883.55	1703.15
888.069	1923.27
892.586	2949.88
897.1	4406.81
901.611	6388.08
906.12	7564.89
910.626	6214.11
915.129	3912.58
919.63	2168.06
924.129	2016.62
928.625	2413.02
933.118	3176.77
937.609	3051.72
942.097	3631.85
946.582	5625.48
951.065	9427.65
955.546	13694.7
960.023	19527.8
964.499	27049.5
968.971	23379.6
973.441	16485.2
977.909	16325
982.374	16296.4
986.836	13068.2
991.295	10945.6
995.753	9677.2
1000.21	9613.81
1004.66	8880.73
1009.11	6977.88
1013.55	4479.45
1018	3124.91
1022.44	1731.25
1026.88	1503.71
1031.32	1282.18
1035.75	1329.71
1040.18	1754.99
1044.61	2140.55
1049.04	2470.37
1053.46	3447.66
1057.88	4202.2
1062.3	4380.62
1066.71	3751.58
1071.13	2253.16
1075.54	2019.3
1079.94	3387.21
1084.35	4431.23
1088.75	3608.98
1093.15	2085.09
1097.55	1282.65
1101.94	1402.45
1106.34	1691.27
1110.73	1641.93
1115.11	1074.59
1119.5	1408.75
1123.88	1247.7
1128.26	849.121
1132.63	131.398
1137.01	275.375
1141.38	19.8906
1145.75	83.457
1150.12	43.3789
1154.48	34.6641
1158.84	63.1484
1163.2	106.898
1167.55	102.742
1171.91	11.9062
1176.26	92.4922
1180.61	181.606
1184.95	13.4766
1189.29	81.1094
1193.63	37.5
1197.97	13.2227
1202.31	4.14062
1206.64	128
1210.97	11.7578
1215.29	10.0156
1219.62	87.2461
1223.94	24.7383
1228.26	146.961
1232.57	96.4961
1236.89	47.7734
1241.2	431.172
1245.51	2.07422
1249.81	327.801
1254.12	10.8945
1258.42	200.602
1262.72	191.082
1267.01	254.894
1271.3	161.008
1275.59	262.406
1279.88	318.18
1284.17	153.516
1288.45	158.191
1292.73	197.316
1297.01	338.109
1301.28	263.852
1305.55	287.129
1309.82	285.144
1314.09	243.941
1318.35	389.797
1322.61	391.32
1326.87	258.344
1331.13	239.273
1335.38	131
1339.63	293.715
1343.88	289.531
1348.12	289.438
1352.37	149.184
1356.61	323.766
1360.85	318.164
1365.08	228.594
1369.31	560.207
1373.54	325.406
1377.77	318.137
1381.99	355.676
1386.22	171.688
1390.43	48.4688
1394.65	463.863
1398.87	318.254
1403.08	78.3203
1407.29	118.438
1411.49	76.2773
1415.69	221.496
1419.89	173.496
1424.09	436.75
1428.29	228.519
1432.48	368.18
1436.67	251.781
1440.86	235.055
1445.04	240.516
1449.23	385.035
1453.4	445.727
1457.58	292.945
1461.76	347.496
1465.93	392.973
1470.1	401.016
1474.26	277.414
1478.43	287.066
1482.59	108.973
1486.75	291.969
1490.9	243.106
1495.06	77.0547
1499.21	153.137
1503.35	73.8828
1507.5	188.305
1511.64	36.0234
1515.78	62.8281
1519.92	968.414
1524.05	163.309
1528.18	138.891
1532.31	504.625
1536.44	243.086
1540.56	114.973
1544.69	270.953
1548.8	410.902
1552.92	285.062
1557.03	133.457
1561.14	234.469
1565.25	335.031
1569.36	480.219
