Measurement: Raman, 514 nm, ccw, Raman Data Processed
Mineral: Axinite-(Fe)
Rruff sample: R060558
Ideal chemistry: Ca_4_Fe^2+^_2_Al_4_[B_2_Si_8_O_30_](OH)_2_
Locality: unknown
Source: Gemological Institute of America
Description: Brown flattened crystal
Measured chemistry: Ca_2.00_(Fe^2+^_0.60_Mg_0.35_Mn_0.05_)_Î£=1_Al_2.00_BSi_4.00_O_15_(OH) ; B not measured
Pin_id: M01972
Orientation: Laser parallel to (1 0 1). Fiducial mark perpendicular to laser is parallel to -b [0 -1 0]
Raman shift (cm-1)	intensity
126.377	0
131.343	4.47754
136.305	266.558
141.264	2390.15
146.22	5745.01
151.173	9427.25
156.123	6811.23
161.069	5064.08
166.013	6747.56
170.953	9081.52
175.89	6542.69
180.825	2555.72
185.756	1326.61
190.683	1910.94
195.608	1602.32
200.53	922.872
205.449	1877.58
210.364	3396.04
215.277	4080.39
220.186	2968.56
225.092	1030.68
229.996	120.835
234.896	387.261
239.793	80.3262
244.687	1339.84
249.578	2866.68
254.466	3383.43
259.351	3453.11
264.233	4100.16
269.112	4924.82
273.988	4204.82
278.86	3214.67
283.73	3051.49
288.597	2943.29
293.461	3293.57
298.321	5081.56
303.179	7332.62
308.034	7480.2
312.885	4733.19
317.734	3598.51
322.58	2718.06
327.422	1824.67
332.262	2112.54
337.099	4035.58
341.932	8162.65
346.763	9906.64
351.591	6569.48
356.416	2445.15
361.238	308.582
366.056	212.328
370.872	77.0059
375.685	370.457
380.495	1739.37
385.302	5456.31
390.106	9420.5
394.908	8371.41
399.706	3887.35
404.501	1778.81
409.294	1537.76
414.083	2534.14
418.869	4262.51
423.653	5843.25
428.434	6230.39
433.211	4244.78
437.986	1813.32
442.758	793.941
447.527	742.586
452.293	870.211
457.057	1310.78
461.817	1470.24
466.575	2061.57
471.329	3235.73
476.081	6570.73
480.83	15694.5
485.576	23269.1
490.319	12928.5
495.059	4260.52
499.796	2306.27
504.531	1791.67
509.262	1254.92
513.991	252.247
518.717	368.992
523.44	443.206
528.161	253.194
532.878	129.833
537.593	309.705
542.304	123.992
547.013	168.24
551.719	377.317
556.423	1040.72
561.123	1902.57
565.821	1439.84
570.516	1285.52
575.208	1522.59
579.897	1868.03
584.583	1942.83
589.267	2181.97
593.948	1379.45
598.626	1093.26
603.301	1626.38
607.974	3544.81
612.644	7689.55
617.311	12738.6
621.975	12145.9
626.636	5732.55
631.295	1700.46
635.951	794.661
640.604	727.148
645.254	845.922
649.902	771.384
654.547	689.338
659.189	953.202
663.828	1757.35
668.465	3963.12
673.099	7877.05
677.73	9325.06
682.359	5990.88
686.984	3477.94
691.607	3112.71
696.228	4356.41
700.845	8166.65
705.46	18161.2
710.072	34298.2
714.682	40638.5
719.288	24470.1
723.893	10085.2
728.494	4732.7
733.093	2703.65
737.689	1437.05
742.282	887.937
746.873	858.332
751.461	1090.26
756.046	1794.74
760.628	2696.81
765.208	3629.49
769.786	3187.81
774.36	1802.8
778.932	750.511
783.502	8.04004
788.068	207.674
792.632	413.22
797.194	471.229
801.752	329.558
806.309	85.1182
810.862	1035.36
815.413	1624.78
819.961	949.302
824.507	248.225
829.05	74.541
833.59	51.0259
838.128	189.695
842.663	503.594
847.195	1094.76
851.725	1304.22
856.252	1391.01
860.777	1260.17
865.299	1015.73
869.819	846.726
874.336	849.185
878.85	932.14
883.362	1146.62
887.871	1847.7
892.377	3335.47
896.881	5294.03
901.383	6427.43
905.882	5875.8
910.378	4143.36
914.872	2550.93
919.363	1981.97
923.852	2128.53
928.338	3224.85
932.821	4012.62
937.302	4653.87
941.781	6471.34
946.257	11265.5
950.73	18124
955.201	24871.9
959.669	33220.2
964.135	39395
968.598	30467
973.059	20869.3
977.517	19185.9
981.973	16669.6
986.426	12418.7
990.877	10040.8
995.325	9455.22
999.771	10985.8
1004.21	12305.6
1008.65	9374.53
1013.09	5433.62
1017.53	3092.92
1021.96	1985.97
1026.39	1572.33
1030.82	1228.45
1035.25	914.396
1039.67	988.678
1044.09	1253.9
1048.51	1844.47
1052.92	2895.06
1057.34	4126.21
1061.75	4828.98
1066.16	3785.8
1070.56	2581.94
1074.97	2821.44
1079.37	4023.29
1083.77	5023.7
1088.16	3237.02
1092.56	1962.52
1096.95	1888.91
1101.34	2550.08
1105.72	3545.2
1110.11	3045.16
1114.49	2212.98
1118.87	1411.46
1123.25	979.118
1127.62	750.673
1131.99	455.394
1136.36	277.266
1140.73	169.693
1145.09	117.16
1149.46	20.7744
1153.82	43.8218
1158.17	48.5444
1162.53	169.03
1166.88	30.9287
1171.23	91.8144
1175.58	91.2456
1179.93	70.7085
1184.27	42.5674
1188.61	41.5283
1192.95	21.4326
1197.29	12.3975
1201.62	64.1934
1205.95	63.8023
1210.28	34.6611
1214.61	34.8852
1218.93	58.0063
1223.25	104.334
1227.57	70.2481
1231.89	134.775
1236.2	260.974
1240.52	159.254
1244.83	226.195
1249.13	237.091
1253.44	367.882
1257.74	209.451
1262.05	346.714
1266.34	405.344
1270.64	421.396
1274.93	397.716
1279.23	423.206
1283.52	350.159
1287.8	369.369
1292.09	336.239
1296.37	397.912
1300.65	386.002
1304.93	228.543
1309.2	417.855
1313.48	322.425
1317.75	374.524
1322.02	321.89
1326.28	301.594
1330.55	301.2
1334.81	188.225
1339.07	167.847
1343.33	249.035
1347.58	213.286
1351.83	179.805
1356.08	212.825
1360.33	149.85
1364.58	202.161
1368.82	76.8613
1373.06	217.032
1377.3	116.42
1381.54	205.757
1385.77	160.393
1390.01	157.962
1394.24	137.935
1398.46	201.131
1402.69	166.941
1406.91	204.167
1411.14	116.785
1415.36	50.9228
1419.57	151.857
1423.79	84.2939
1428	213.672
1432.21	124.962
1436.42	271.361
1440.62	448.005
1444.83	390.46
1449.03	459.105
1453.23	576.367
1457.42	545.639
1461.62	424.73
1465.81	412.651
1470	275.463
1474.19	311.263
1478.38	167.966
1482.56	286.421
1486.74	47.3442
1490.92	58.0747
1495.1	5.04834
1499.27	13.7602
1503.45	88.9082
1507.62	75.1689
1511.79	20.667
1515.95	27.3418
1520.12	64.2036
1524.28	47.4194
1528.44	104.535
1532.6	193.111
1536.75	120.08
1540.9	121.406
1545.06	197.848
1549.2	79.8989
1553.35	232.036
1557.5	135.119
1561.64	0.348145
