Measurement: Raman, 514 nm, ccw, Raman Data Processed
Mineral: Axinite-(Fe)
Rruff sample: R040074
Ideal chemistry: Ca_4_Fe^2+^_2_Al_4_[B_2_Si_8_O_30_](OH)_2_
Locality: Luning, Nevada, USA
Source: University of Arizona Mineral Museum
Description: Pale brown wedge-shaped crystal
Measured chemistry: (Ca_0.98_Mn_0.01_)_2_(Fe_0.41_Mg_0.39_Mn_0.20_)Al_1.95_B_1.20_Si_3.90_O_15_(OH)
Pin_id: L00132
Orientation: Laser parallel to (-1 -1 0). Fiducial mark perpendicular to laser is parallel to c [0 0 1]
Raman shift (cm-1)	intensity
102.55	0
106.729	933.737
110.905	2324.45
115.079	2647.72
119.251	1986.89
123.422	1492.98
127.59	987.698
131.756	591.878
135.92	14.791
140.082	394.61
144.242	1652.81
148.4	4761.32
152.556	8471.66
156.71	5429.27
160.862	3216.77
165.012	2786.81
169.16	6391.5
173.306	9292.76
177.449	5459.97
181.591	2355.93
185.731	862.562
189.869	1191.24
194.005	3022.7
198.139	1386.8
202.271	743.051
206.4	1740.8
210.528	2539.63
214.654	3119.22
218.778	2809.33
222.9	1419.22
227.019	198.689
231.137	472.276
235.253	675.999
239.367	132.115
243.479	435.504
247.589	1302.59
251.697	2295.23
255.803	2020.59
259.906	1444.92
264.008	1858.94
268.108	2800.1
272.206	3109.09
276.302	2379.3
280.396	1701.75
284.488	1664.83
288.578	1739.34
292.666	2054.31
296.753	2884.33
300.837	4262.49
304.919	6088.68
308.999	6173.01
313.077	3515.63
317.154	2256.91
321.228	2277.05
325.3	1866.27
329.371	1624.56
333.439	1777.09
337.506	2382.37
341.57	5927.22
345.633	8602.1
349.693	7116.47
353.752	5339.04
357.809	2538.33
361.863	830.158
365.916	374.114
369.967	1058.66
374.016	1688.6
378.063	1558.02
382.108	1559.7
386.151	3687.58
390.192	8026.34
394.231	8690.12
398.269	5008.15
402.304	3231.7
406.337	2154.64
410.369	1662.8
414.398	3201.56
418.426	5439.93
422.452	4757.94
426.475	4655.59
430.497	4542.84
434.517	3029.49
438.535	1325.45
442.551	870.669
446.565	815.119
450.577	488.77
454.588	831.566
458.596	1103.58
462.602	854.851
466.607	1235.4
470.61	2375.26
474.61	2364.48
478.609	4336.65
482.606	11110.3
486.601	16752.4
490.594	7953.65
494.585	3007.4
498.575	1812.41
502.562	2227.41
506.548	3008.06
510.531	2445.84
514.513	1033.12
518.493	20.129
522.47	255.911
526.446	364.303
530.421	311.383
534.393	55.226
538.363	140.385
542.331	344.688
546.298	558.258
550.263	431.188
554.225	474.183
558.186	1478.45
562.145	2224.03
566.103	1469.6
570.058	1214.66
574.011	1629.18
577.963	1963.14
581.912	2076.55
585.86	2359.42
589.806	2551.73
593.75	1603.86
597.692	1045.08
601.632	935.169
605.571	1354.21
609.507	2279.43
613.442	4095.51
617.375	6953.99
621.306	8561.73
625.235	5018.74
629.162	1857.47
633.087	558.112
637.011	323.052
640.932	510.076
644.852	797.938
648.77	677.108
652.686	533.317
656.6	396.692
660.513	688.682
664.423	1049.97
668.332	1890.82
672.239	4143.56
676.144	7345.57
680.047	6837.73
683.948	3788.24
687.848	2089.17
691.746	1783.32
695.641	2224.43
699.535	3363.74
703.427	5865.6
707.318	12181.5
711.206	23647.8
715.093	32533.3
718.978	22498.4
722.861	10253.2
726.742	4987.62
730.621	2871.69
734.499	1875.41
738.374	1088.81
742.248	751.884
746.12	374.65
749.99	517.109
753.859	689.275
757.725	1072.93
761.59	1732.79
765.453	2794.19
769.314	3005.39
773.174	2136.35
777.031	1327.06
780.887	637.56
784.741	117.805
788.593	143.016
792.443	328.842
796.291	446.176
800.138	413.402
803.983	103.267
807.826	163.303
811.667	988.05
815.507	1093.95
819.344	673.177
823.18	213.743
827.014	84.151
830.847	75.612
834.677	45.073
838.506	186.924
842.333	640.024
846.158	993.936
849.981	1228.14
853.803	1142.63
857.623	1137.27
861.441	1252.26
865.257	1177.71
869.071	983.442
872.884	779.474
876.695	1095.9
880.504	1302.59
884.311	1249.47
888.117	1676.47
891.92	3283.61
895.722	3830.9
899.523	5958.16
903.321	6765.84
907.118	5843.64
910.913	4281.55
914.706	2889.56
918.497	2147.72
922.287	2005.88
926.075	2534.16
929.861	3372.5
933.645	3850.93
937.428	3936.73
941.208	4862.17
944.987	6760.46
948.765	10790.5
952.54	15138.7
956.314	17262.6
960.086	21035.5
963.856	25145.1
967.625	21864.9
971.392	16244.9
975.157	14464.6
978.92	15331.7
982.682	12873
986.441	9381.67
990.199	7782.38
993.956	7443.92
997.71	8807.98
1001.46	11434.8
1005.21	12002
1008.96	9155.46
1012.71	5649.37
1016.46	3685.14
1020.2	2830.53
1023.94	2471.63
1027.68	2430.8
1031.42	2084.61
1035.16	1484.83
1038.9	1546.27
1042.63	1782.26
1046.36	1940.73
1050.09	2382.77
1053.82	3198.29
1057.55	4245.03
1061.27	4504.09
1065	3662.32
1068.72	2646.66
1072.44	2410.46
1076.16	2914.22
1079.87	3958.34
1083.59	4861.68
1087.3	3654.33
1091.01	2376.44
1094.72	1617.49
1098.43	1738.74
1102.14	2349.56
1105.84	2820.37
1109.55	2580.81
1113.25	1979.76
1116.94	1398.09
1120.64	1136.49
1124.34	1062.91
1128.03	808.4
1131.73	433.062
1135.42	516.891
1139.11	200.203
1142.8	16.578
1146.48	85.326
1150.16	14.385
1153.85	4.943
1157.53	53.402
1161.21	241.539
1164.88	43.76
1168.56	197.314
1172.23	329.467
1175.91	152.072
1179.58	44.82
1183.25	71.076
1186.91	147.102
1190.58	332.902
1194.24	178.604
1197.91	324.221
1201.57	119.82
1205.23	55.494
1208.88	341.27
1212.54	487.213
1216.19	563.461
1219.85	590.217
1223.5	626.008
1227.14	718.643
1230.79	859.66
1234.44	651.525
1238.08	691.066
1241.72	654.033
1245.37	738.484
1249	621.402
1252.64	666.453
1256.28	473.43
1259.91	308.164
1263.54	107.938
1267.17	498.9
1270.8	643.023
1274.43	496.637
1278.06	504.92
1281.68	421.824
1285.3	445.518
1288.92	112.412
1292.54	298.5
1296.16	134.492
1299.78	38.58
1303.39	420.381
1307	327.969
