Measurement: Raman, 514 nm, ccw, Raman Data Processed
Mineral: Axinite-(Fe)
Rruff sample: R050026
Ideal chemistry: Ca_4_Fe^2+^_2_Al_4_[B_2_Si_8_O_30_](OH)_2_
Locality: Pouyva mine, Polar Urals, Western Siberian Region, Russia
Source: Rock Currier
Description: Brown transparent flat crystal
Measured chemistry: Ca_2.00_(Fe^2+^_0.61_Mn_0.26_Mg_0.13_)Al_2.00_BSi_4_O_15_(OH)
Pin_id: L00219
Orientation: Laser parallel to (1 1 0). Fiducial mark perpendicular to laser is parallel to c [0 0 1]
Raman shift (cm-1)	intensity
88.26	0
92.466	123.775
96.67	466.768
100.871	992.337
105.07	2919.56
109.267	7051.25
113.461	3686.23
117.653	2222.07
121.843	2204.82
126.031	2145.02
130.217	1454.95
134.4	1077.16
138.581	1802.38
142.76	1616.71
146.937	1711.04
151.112	2417.71
155.284	2850.67
159.454	1922.28
163.622	2205.5
167.787	4964.38
171.951	5032.18
176.112	2248.98
180.271	283.348
184.428	459.689
188.583	522.729
192.735	993.199
196.885	584.665
201.033	1192.64
205.179	3516.05
209.323	5905.83
213.464	5833.26
217.603	4079.23
221.741	1818.93
225.875	254.331
230.008	194.88
234.139	290.883
238.267	712.24
242.393	1381.06
246.517	1964.63
250.639	2797.37
254.759	4008.84
258.876	3398.93
262.991	3687.04
267.104	5302.19
271.215	7021.26
275.324	7540.69
279.431	5470.13
283.535	3576.91
287.638	3390.17
291.738	4041.03
295.836	4786.47
299.932	5146.41
304.025	5382.65
308.117	5049.12
312.206	4868.85
316.293	7637.81
320.378	8569.99
324.461	5202.05
328.542	3353.75
332.621	3447.93
336.697	5394.21
340.772	8783.4
344.844	8505.09
348.914	5978.55
352.982	4664.6
357.048	1822.61
361.111	241.758
365.173	204.796
369.232	56.431
373.29	216.71
377.345	235.403
381.398	1221.77
385.449	3440.17
389.497	5389.17
393.544	5187.76
397.589	3448.17
401.631	2232.49
405.672	1439.88
409.71	1470.34
413.746	3232.88
417.78	5538.48
421.812	7040.15
425.842	8131.81
429.869	7753.4
433.895	5049.92
437.918	3028.34
441.94	4015.67
445.959	4123.91
449.976	1920.06
453.991	993.129
458.004	646.12
462.015	165.034
466.024	372.903
470.031	920.766
474.035	844.736
478.038	1489.83
482.038	2898.22
486.037	2588.05
490.033	729.404
494.027	92.815
498.019	134.258
502.009	58.055
505.997	452.816
509.983	1109.96
513.967	1345.28
517.949	734.993
521.929	176.779
525.906	146.18
529.882	248.425
533.855	100.932
537.827	252.96
541.796	849.811
545.764	1357.62
549.729	1102.38
553.692	932.294
557.653	1889.72
561.612	2301.19
565.569	1604.62
569.524	1728.99
573.477	1828.32
577.428	1544.58
581.377	1538.79
585.324	2344.94
589.269	2519.02
593.212	2048.04
597.152	446.987
601.091	401.87
605.028	802.684
608.962	1412.43
612.895	1599.11
616.825	1721.71
620.754	1455.24
624.68	584.7
628.605	91.109
632.527	103.487
636.447	678.555
640.366	1384.32
644.282	1656.49
648.196	995.383
652.109	384.963
656.019	169.701
659.927	169.065
663.834	484.151
667.738	1395
671.64	3281.46
675.54	5845.39
679.439	5246.69
683.335	2805.81
687.229	1563.57
691.121	1304.1
695.012	1630.54
698.9	2708.92
702.786	5190.15
706.67	10600.2
710.552	20608.2
714.433	24955.9
718.311	15723.5
722.187	7800.99
726.061	3963.28
729.934	2314.42
733.804	1334.4
737.672	848.222
741.539	588.888
745.403	354.402
749.265	307.763
753.126	406.975
756.984	633.039
760.84	943.957
764.695	1513.73
768.547	1647.36
772.398	1117.84
776.246	606.19
780.093	258.399
783.937	101.432
787.78	84.839
791.621	116.684
795.459	151.549
799.296	179.261
803.131	122.271
806.964	15.267
810.795	205.845
814.623	198.656
818.45	30.06
822.275	87.113
826.098	90.735
829.92	3.894
833.739	56.728
837.556	168.382
841.371	295.505
845.184	522.116
848.996	857.765
852.805	1093.35
856.613	1113.88
860.418	1305.34
864.222	1408.79
868.023	1536.22
871.823	1790.65
875.621	1884.08
879.417	1974.51
883.211	2272.92
887.003	2374.3
890.793	3253.67
894.581	4821.1
898.367	7551.59
902.152	9538.49
905.934	8830.71
909.714	6056.33
913.493	3868.97
917.27	2702.62
921.044	2212.32
924.817	2133.07
928.588	2158.88
932.357	2188.76
936.124	2075.48
939.889	2363.02
943.652	2952.25
947.414	4228.57
951.173	5576.92
954.931	7779.85
958.686	11719.4
962.44	15359.9
966.192	13790.6
969.942	11947.2
973.69	13874.9
977.436	16586.4
981.18	14171
984.922	11321.7
988.663	10063
992.401	9904.73
996.138	10386.8
999.873	10060.8
1003.61	8522.26
1007.34	6095.27
1011.07	4121.66
1014.79	2805.38
1018.52	2144.87
1022.24	1972.76
1025.96	1834.04
1029.68	1675.63
1033.4	1665.56
1037.12	1749.36
1040.83	1943.6
1044.54	2083.39
1048.25	2602.48
1051.96	3291.27
1055.67	3259.79
1059.37	2762.38
1063.08	1901.42
1066.78	1458.32
1070.48	1585.16
1074.17	2089.55
1077.87	3227.78
1081.56	3805.29
1085.26	2826.42
1088.94	1668.77
1092.63	1196
1096.32	954.823
1100	921.462
1103.69	775.377
1107.37	586.708
1111.05	371.289
1114.72	248.037
1118.4	205.992
1122.07	183.277
1125.74	152.433
1129.41	101.114
1133.08	41.196
1136.75	15.319
1140.41	7.222
1144.07	8.067
1147.73	23.907
1151.39	7.757
1155.05	48.281
1158.7	26.332
1162.36	2.229
1166.01	61.937
1169.66	50.199
1173.3	26.389
1176.95	0.207
1180.59	47.941
1184.24	185.321
1187.88	82.213
1191.52	58.501
1195.15	50.771
1198.79	22.808
1202.42	18.879
1206.05	30.36
1209.68	10.349
1213.31	5.068
1216.93	14.627
1220.56	1.285
1224.18	16.623
1227.8	19.696
1231.42	50.022
1235.04	46.833
1238.65	50.158
1242.26	41.337
1245.88	77.428
1249.48	53.42
1253.09	53.322
1256.7	47.296
1260.3	28.638
1263.9	38.574
1267.51	95.045
1271.11	99.135
1274.7	103.863
1278.3	96.306
1281.89	77.521
1285.48	79.234
1289.07	19.098
1292.66	47.647
1296.25	38.326
1299.83	69.615
1303.41	39.612
1306.99	71.345
1310.57	56.111
1314.15	24.687
1317.73	80.497
1321.3	12.328
1324.87	21.61
1328.44	27.85
1332.01	118.746
1335.58	90.812
1339.14	109.802
1342.71	117.324
1346.27	120.702
1349.83	115.465
1353.39	50.335
1356.94	108.56
1360.5	66.322
1364.05	156.767
1367.6	127.591
1371.15	146.319
1374.7	147.584
1378.24	183.94
1381.79	164.539
1385.33	133.362
1388.87	84.939
1392.41	84.17
1395.95	58.106
1399.48	97.984
1403.02	116.466
1406.55	137.861
1410.08	112.413
1413.61	216.365
1417.13	159.526
1420.66	137.525
1424.18	101.784
1427.7	7.142
1431.22	59.349
1434.74	113.023
1438.26	26.114
1441.77	54.764
1445.28	168.404
1448.79	173.27
1452.3	126.894
1455.81	175.288
1459.32	128.611
1462.82	136.348
1466.32	90.822
1469.82	14.561
1473.32	8.617
1476.82	31.241
1480.32	110.343
1483.81	88.828
1487.3	88.823
1490.79	149.026
1494.28	80.344
1497.77	119.48
1501.25	72.422
1504.74	52.238
1508.22	1.258
1511.7	0
