Measurement: Raman, 514 nm, ccw, Raman Data Processed
Mineral: Axinite-(Fe)
Rruff sample: R040074
Ideal chemistry: Ca_4_Fe^2+^_2_Al_4_[B_2_Si_8_O_30_](OH)_2_
Locality: Luning, Nevada, USA
Source: University of Arizona Mineral Museum
Description: Pale brown wedge-shaped crystal
Measured chemistry: (Ca_0.98_Mn_0.01_)_2_(Fe_0.41_Mg_0.39_Mn_0.20_)Al_1.95_B_1.20_Si_3.90_O_15_(OH)
Pin_id: M00153
Orientation: Laser parallel to (1 0 1). Fiducial mark perpendicular to laser is parallel to b [0 1 0]
Raman shift (cm-1)	intensity
88.289	0
92.477	50.57
96.663	765.928
100.848	2305.16
105.03	6407.34
109.21	12327.5
113.388	12836.1
117.564	8330.76
121.738	5235.33
125.91	2457.08
130.08	1119.47
134.248	1110.41
138.413	4842.41
142.577	8628.33
146.739	8918.23
150.898	7482.18
155.056	4689.58
159.212	3194.06
163.365	3140.01
167.517	5793.21
171.666	7808.38
175.813	4856.51
179.959	1688.25
184.102	190.803
188.244	619.247
192.383	122.31
196.52	237.379
200.656	49.944
204.789	1938.66
208.92	5062.4
213.049	7286.31
217.176	7100.96
221.302	4183.79
225.425	1541.16
229.546	256.814
233.665	316.852
237.782	1859.35
241.898	2573.19
246.011	2157.13
250.122	3311.37
254.231	5392.3
258.338	6247.11
262.443	7716.97
266.546	12328.1
270.647	16129
274.747	16989.1
278.844	13608.1
282.939	9035.03
287.032	7339.71
291.123	7106.83
295.212	7644.51
299.3	7746.52
303.385	6838.95
307.468	5800.84
311.549	5796.35
315.629	9152.16
319.706	13498.4
323.781	11625.1
327.855	8112.02
331.926	6789.29
335.995	7588.37
340.063	11219.1
344.128	16021
348.192	12392.2
352.253	7139.48
356.313	3496.3
360.37	1053.79
364.426	90.513
368.479	253.574
372.531	1008.59
376.581	1082.67
380.629	876.479
384.674	2252.58
388.718	4512.34
392.76	5190.16
396.8	3423.57
400.838	2663.44
404.874	2183.32
408.908	1932.2
412.94	3733.07
416.97	7512.9
420.999	9292.51
425.025	11101.8
429.049	11700.7
433.072	9509.33
437.092	6087.59
441.111	6617.38
445.127	8650.52
449.142	5060.5
453.155	1971.54
457.166	805.267
461.175	105.691
465.181	209.378
469.186	498.684
473.19	775.899
477.191	1338.8
481.19	3669.54
485.187	5757.79
489.183	3715.71
493.176	933.775
497.168	38.392
501.157	32.794
505.145	582.068
509.131	1451.29
513.115	1672.63
517.097	912.216
521.077	165.998
525.055	390.437
529.031	481.163
533.006	224.19
536.978	120.017
540.949	432.685
544.917	717.989
548.884	644.948
552.849	944.562
556.812	1928.9
560.773	3339.88
564.732	2696.49
568.689	2964.7
572.644	4103.52
576.598	4113.94
580.55	2910.94
584.499	2337.53
588.447	2497.02
592.393	1673.92
596.337	589.881
600.279	181.521
604.219	227.071
608.158	718.947
612.094	1536.26
616.029	2834.13
619.962	4155.62
623.892	2866.47
627.821	1230.94
631.749	654.319
635.674	1080.77
639.597	2469.45
643.519	3650.59
647.438	3017.97
651.356	1631.18
655.272	700.792
659.186	513.035
663.098	689.305
667.009	1386.39
670.917	3028.95
674.824	5690.47
678.728	6148.18
682.631	3807.5
686.532	2115.55
690.432	1592.12
694.329	1923.59
698.224	2911.5
702.118	5454.67
706.01	10966.2
709.9	22507.2
713.788	35257.5
717.674	28687.2
721.558	14816.4
725.441	7384.87
729.322	3842.79
733.201	2268.12
737.078	1326.86
740.953	842.024
744.826	528.602
748.698	332.55
752.567	273.815
756.435	371.84
760.301	503.439
764.165	876.661
768.028	1078.42
771.888	768.633
775.747	374.308
779.604	70.606
783.459	63.696
787.312	264.548
791.164	341.7
795.013	406.432
798.861	246.84
802.707	126.592
806.551	159.98
810.394	1009.94
814.234	1188.46
818.073	727.29
821.91	274.842
825.745	137.073
829.578	206.763
833.41	226.956
837.24	454.211
841.068	650.312
844.894	1272.2
848.718	1924.23
852.54	2213.06
856.361	2381.69
860.18	2425.14
863.997	2333.44
867.812	2357.56
871.626	2146.62
875.438	2382.57
879.248	2472.62
883.056	2698.12
886.862	3125.72
890.667	4199.15
894.469	5991.08
898.27	8234.55
902.07	9613.54
905.867	8721.44
909.663	6669.76
913.457	5009.7
917.249	3731.85
921.039	3444.23
924.827	3826.45
928.614	4866.3
932.399	5161.4
936.182	4897.18
939.964	4806.14
943.744	5443.25
947.521	7399.39
951.298	10338.6
955.072	12683.6
958.845	16038.4
962.615	20669.5
966.384	20991.5
970.152	17693.5
973.917	18013.7
977.681	22101.4
981.443	21359.4
985.203	16218.7
988.962	13690.4
992.719	11514.5
996.474	10079.5
1000.23	10097.8
1003.98	9428.73
1007.73	7406.69
1011.48	4863.8
1015.22	3236.02
1018.97	2277.37
1022.71	1792.68
1026.45	1560.42
1030.19	1503.63
1033.93	1547.72
1037.66	1782.27
1041.4	2276.2
1045.13	2176.71
1048.86	1986.32
1052.59	2023.32
1056.32	2591.99
1060.04	2933.87
1063.77	2682.24
1067.49	2082.08
1071.21	1608.85
1074.93	1955.9
1078.64	2828.84
1082.36	4034.86
1086.07	3761.1
1089.78	2417.78
1093.49	1454.76
1097.2	1128.06
1100.91	1022.04
1104.61	1240.77
1108.32	1210.16
1112.02	1033.28
1115.72	705.411
1119.41	526.414
1123.11	288.721
1126.8	311.037
1130.5	85.295
1134.19	137.54
1137.88	128.436
1141.56	86.481
1145.25	3.085
1148.93	93.825
1152.62	155.811
1156.3	46.086
1159.98	48.893
1163.65	62.519
1167.33	2.99
1171	73.309
1174.68	38.431
1178.35	140.194
1182.02	12.521
1185.68	85.025
1189.35	45.527
1193.01	53.829
1196.67	163.874
1200.33	61.185
1203.99	19.429
1207.65	11.185
1211.31	12.059
1214.96	54.935
1218.61	93.624
1222.26	226.312
1225.91	233.286
1229.56	154.849
1233.2	193.932
1236.85	189.344
1240.49	271.913
1244.13	285.457
1247.77	194.05
1251.4	333.615
1255.04	322.847
1258.67	333.725
1262.3	228.164
1265.93	221.229
1269.56	294.596
1273.19	234.038
1276.82	201.202
1280.44	238.811
1284.06	372.324
1287.68	444.192
1291.3	371.516
1294.92	301.108
1298.53	87.462
1302.14	163.635
1305.76	57.768
1309.37	123.301
1312.98	225.591
1316.58	237.816
1320.19	340.884
1323.79	283.035
1327.39	204.422
1330.99	192.367
1334.59	111.949
1338.19	107.842
1341.79	192.866
1345.38	97.121
1348.97	205.545
1352.56	355.13
1356.15	410.078
1359.74	226.063
1363.32	310.38
1366.91	212.852
1370.49	26.308
1374.07	34.229
1377.65	89.286
1381.23	255.761
1384.8	360.923
1388.38	261.168
1391.95	338.755
1395.52	403.705
1399.09	207.567
1402.66	217.226
1406.22	120.172
1409.79	90.418
1413.35	221.791
1416.91	194.163
1420.47	215.135
1424.03	378.594
1427.59	300.429
1431.14	674.253
1434.69	459.658
1438.24	311.836
1441.8	198.039
1445.34	158.261
1448.89	30.031
1452.43	69.764
1455.98	3.674
1459.52	289.643
1463.06	191.059
1466.6	349.861
1470.14	669.957
1473.67	619.904
1477.2	555.691
1480.74	297.27
1484.27	185.65
1487.8	215.1
1491.32	46.385
1494.85	224.027
1498.37	118.258
1501.9	216.16
1505.42	319.682
1508.94	546.799
1512.45	637.416
1515.97	287.287
1519.49	380.492
