Measurement: Raman, 514 nm, ccw, Raman Data Processed
Mineral: Axinite-(Fe)
Rruff sample: R060183
Ideal chemistry: Ca_4_Fe^2+^_2_Al_4_[B_2_Si_8_O_30_](OH)_2_
Locality: Skagit Bluffs, near Manning Park, British Columbia, Canada
Source: Lloyd Twaites
Description: Light-pink transparent axe-head-shaped single crystal
Measured chemistry: Ca_2.00_(Fe^2+^_0.58_Mn_0.23_Mg_0.19_)Al_2.00_B_1.00_Si_4.00_O_15_(OH)
Pin_id: L00943
Orientation: Laser parallel to c* (0 0 1). Fiducial mark perpendicular to laser is parallel to a [1 0 0]
Raman shift (cm-1)	intensity
52.671	0
57.626	198.682
62.579	175.29
67.529	210.877
72.477	60.8621
77.423	9.88196
82.367	247.28
87.308	1154.12
92.246	3449.27
97.182	6810.54
102.116	12033.1
107.047	17909.8
111.976	15564.5
116.903	7059.58
121.827	3731.39
126.749	2628.48
131.668	2436.66
136.585	3792.28
141.5	6023.48
146.412	9107.46
151.321	14417.3
156.229	8825.56
161.134	5678.52
166.036	8749.4
170.936	16039.1
175.834	12378.4
180.729	6040.27
185.622	3447.21
190.512	5913.05
195.4	9041.64
200.286	8397.5
205.169	12912
210.049	14339.3
214.928	11489.7
219.803	8376.73
224.677	2955.98
229.548	487.115
234.416	519.867
239.282	2776.01
244.146	4970.1
249.007	5079.07
253.866	6321.08
258.722	6015.84
263.576	6431.3
268.427	10664.1
273.276	15368.1
278.123	13844.6
282.967	9369.62
287.809	7226.01
292.648	6387.69
297.485	7474.56
302.319	12902.5
307.151	18273.4
311.98	13254.6
316.807	12030.9
321.631	11098.7
326.454	7783.06
331.273	6866.66
336.09	8549.34
340.905	15423
345.717	16816.5
350.527	14255.7
355.334	8095.73
360.139	1621.69
364.941	443.634
369.741	469.224
374.538	351.879
379.333	1659.03
384.126	6637.26
388.916	15123.7
393.703	14270.9
398.488	6264.82
403.271	2731.82
408.051	2633.39
412.828	8117.68
417.603	16587.2
422.376	13773.4
427.146	10582.1
431.914	6964.36
436.679	3211.97
441.442	2858.86
446.202	2866.92
450.96	655.049
455.715	248.859
460.467	157.27
465.218	953.095
469.965	3091.12
474.711	5126.76
479.454	13435.9
484.194	28737.5
488.932	17044.5
493.667	5215.66
498.4	2761.31
503.13	3427.75
507.858	3894.09
512.583	2310.98
517.306	488.808
522.026	431.485
526.744	597.511
531.459	58.6411
536.172	300.978
540.882	41.6895
545.59	260.249
550.295	237.527
554.998	635.6
559.698	1950.09
564.396	3341.84
569.091	6379.54
573.784	8895.15
578.474	6874.62
583.162	5181.9
587.847	5912.95
592.529	4743.73
597.209	2328.93
601.887	1592.58
606.562	2825.99
611.235	6245.48
615.905	10582.6
620.572	11445.3
625.237	5532.66
629.9	1490.55
634.56	689.98
639.217	816.869
643.872	1478.25
648.524	1034.2
653.174	305.511
657.821	370.082
662.466	897.645
667.108	2234.43
671.748	5391.09
676.385	9836.39
681.02	8460.48
685.652	4507.4
690.281	3158.78
694.908	3969.27
699.533	6936.13
704.155	14221.1
708.774	30616.9
713.391	50638.4
718.005	45100.8
722.617	22905.1
727.226	10305.4
731.833	5324.55
736.437	2950.84
741.039	2075.95
745.638	1735.46
750.234	1775.1
754.828	2498.9
759.419	4187.91
764.008	6618.19
768.595	7307.77
773.178	5004.25
777.759	2286.84
782.338	858.715
786.914	219.143
791.488	222.061
796.059	543.125
800.627	558.652
805.193	60.314
809.756	1252.06
814.317	2291.16
818.875	1384.99
823.431	112.603
827.984	181.403
832.534	195.162
837.082	14.1494
841.627	410.543
846.17	905.331
850.71	1452.57
855.248	3252.31
859.783	858.612
864.316	761.526
868.846	982.105
873.373	1319.4
877.898	1760.45
882.42	2461.29
886.94	4052.97
891.457	7074.61
895.971	11660.5
900.483	15394.5
904.993	15569
909.5	13974
914.004	10798.7
918.505	8153.07
923.004	6840.12
927.501	7342.25
931.995	7682.75
936.486	7997.72
940.975	9706.68
945.461	14991.6
949.945	23317.3
954.426	30837.8
958.904	39271.2
963.38	48068.8
967.853	40330.6
972.324	29920.1
976.792	29221.3
981.258	29558.2
985.72	24660.8
990.181	21722.2
994.639	19926.2
999.094	20235
1003.55	23081.3
1008	21385.3
1012.44	13928
1016.89	7609.12
1021.33	4677.87
1025.77	3802.25
1030.21	2978.26
1034.64	1870.24
1039.07	1479.59
1043.5	1591.95
1047.93	1710.72
1052.35	2255.21
1056.78	2918.08
1061.19	2693.63
1065.61	2083.91
1070.02	1647.2
1074.43	2044.74
1078.84	3450.7
1083.25	5054.26
1087.65	3950.96
1092.05	2561.51
1096.45	2441.27
1100.85	3448.13
1105.24	4649.59
1109.63	4415.54
1114.02	3160.93
1118.4	2002.75
1122.78	1415.26
1127.16	972.802
1131.54	547.46
1135.92	367.011
1140.29	204.99
1144.66	57.6943
1149.02	10.6714
1153.39	42.814
1157.75	131.816
1162.11	158.355
1166.46	32.7485
1170.82	162.439
1175.17	137.833
1179.52	80.4292
1183.86	179.631
1188.21	26.2974
1192.55	39.2422
1196.89	4.32275
1201.22	31.3198
1205.55	9.59375
1209.88	40.5415
1214.21	22.8496
1218.54	141.677
1222.86	123.582
1227.18	162.871
1231.5	138.672
1235.81	112.321
1240.12	180.2
1244.43	220.708
1248.74	293.118
1253.04	215.149
1257.34	195.546
1261.64	412.867
1265.94	345.991
1270.23	340.375
1274.52	355.992
1278.81	458.607
1283.1	435.94
1287.38	393.897
1291.66	428.959
1295.94	326.301
1300.21	308.606
1304.48	188.743
1308.75	208.126
1313.02	211.506
1317.29	270.409
1321.55	168.822
1325.81	184.21
1330.06	256.091
1334.32	143.139
1338.57	263.059
1342.82	235.615
1347.06	255.949
1351.31	217.64
1355.55	220.961
1359.79	243.048
1364.02	353.209
1368.26	260.55
1372.49	257.799
1376.71	381.475
1380.94	280.953
1385.16	199.419
1389.38	219.565
1393.6	131.249
1397.81	134.674
1402.02	178.215
1406.23	125.259
1410.44	214.53
1414.64	299.17
1418.85	115.41
1423.04	311.369
1427.24	150.849
1431.43	191.06
1435.62	248.784
1439.81	69.3267
1444	118.468
1448.18	126.174
1452.36	7.77002
1456.54	102.072
1460.71	173.38
1464.89	69.8799
1469.06	114.103
1473.22	37.3838
1477.39	135.507
1481.55	31.977
1485.71	53.7559
1489.86	100.394
1494.02	131.525
1498.17	14.4702
1502.32	111.275
1506.46	74.5723
1510.61	56.8379
1514.75	187.1
1518.88	68.0234
1523.02	111.407
1527.15	71.3955
1531.28	173.833
1535.41	93.3091
1539.53	151.562
1543.66	118.147
1547.78	8.84863
1551.89	214.157
1556.01	283.386
1560.12	87.896
1564.23	53.3628
1568.33	99.9365
