Measurement: Raman, 514 nm, ccw, Raman Data Processed
Mineral: Axinite-(Fe)
Rruff sample: R050026
Ideal chemistry: Ca_4_Fe^2+^_2_Al_4_[B_2_Si_8_O_30_](OH)_2_
Locality: Pouyva mine, Polar Urals, Western Siberian Region, Russia
Source: Rock Currier
Description: Brown transparent flat crystal
Measured chemistry: Ca_2.00_(Fe^2+^_0.61_Mn_0.26_Mg_0.13_)Al_2.00_BSi_4_O_15_(OH)
Pin_id: L00147
Orientation: Laser parallel to -a* (-1 0 0). Fiducial mark perpendicular to laser is parallel to -b [0 -1 0]
Raman shift (cm-1)	intensity
85.455	0
89.663	63.166
93.868	596.771
98.07	821.367
102.271	854.165
106.469	1343.47
110.665	1566.51
114.859	944.119
119.05	553.741
123.24	770.102
127.427	1032.85
131.612	485.714
135.794	397.467
139.975	493.544
144.153	520.492
148.329	1016.18
152.503	894.364
156.674	673.641
160.843	351.97
165.011	620.833
169.175	1673.51
173.338	1261.55
177.499	624.161
181.657	106.012
185.813	137.26
189.967	149.979
194.119	71.613
198.268	9.841
202.415	371.409
206.561	1315.37
210.703	1840.88
214.844	1660.11
218.983	1572.59
223.119	527.213
227.253	61.972
231.385	86.915
235.515	55.214
239.643	384.548
243.768	506.969
247.891	450.861
252.012	849.508
256.131	1390.71
260.248	983.271
264.363	1154.24
268.475	1322.27
272.585	1468.17
276.693	1309.94
280.799	945.201
284.903	741.957
289.005	792.492
293.104	743.773
297.201	689.18
301.296	706.872
305.389	956.052
309.48	926.95
313.569	1287.94
317.655	2651.81
321.74	2476.47
325.822	1628.78
329.902	1382.66
333.98	1739.74
338.056	2814.78
342.129	3562.39
346.201	2293.37
350.27	1494.81
354.337	826.57
358.402	208.252
362.465	34.616
366.526	35.817
370.585	208.941
374.642	259.998
378.696	274.151
382.748	707.449
386.799	1499.39
390.847	1631.57
394.893	1266.45
398.936	1031.32
402.978	664.579
407.018	444.268
411.055	588.32
415.091	1404.73
419.124	2304.9
423.155	2805.78
427.184	2670.38
431.211	2064.71
435.236	1026.78
439.259	696.022
443.28	1027.06
447.298	795.445
451.315	421.626
455.329	391.622
459.341	224.445
463.352	208.11
467.36	363.655
471.366	494.178
475.37	479.904
479.372	1000.65
483.371	1803.47
487.369	1107.38
491.365	271.456
495.358	50.604
499.35	129.248
503.339	154.911
507.326	106.941
511.311	71.235
515.295	55.117
519.276	1.713
523.255	55.399
527.232	103.542
531.207	86.476
535.179	27.196
539.15	57.121
543.119	112.942
547.086	152.686
551.05	197.412
555.013	363.306
558.973	683.416
562.932	630.549
566.888	613.635
570.842	811.659
574.795	777.617
578.745	465.509
582.693	311.336
586.639	387.261
590.583	349.007
594.525	125.28
598.465	51.213
602.403	130.052
606.339	296.511
610.273	531.918
614.205	838.274
618.135	1094.58
622.063	800.919
625.989	351.081
629.912	130.401
633.834	118.065
637.754	264.548
641.671	473.971
645.587	445.327
649.501	270.686
653.412	118.197
657.322	99.299
661.23	167.302
665.135	295.686
669.039	603.247
672.94	1244.72
676.84	1837.91
680.738	1377.96
684.633	763.508
688.527	488.572
692.418	422.765
696.308	541.571
700.195	981.088
704.081	1955.62
707.964	4013.98
711.846	6477.33
715.726	6075.59
719.603	3381.75
723.479	1711.81
727.352	934.784
731.224	459.663
735.094	261.449
738.961	101.145
742.827	131.748
746.691	94.26
750.552	100.669
754.412	63.281
758.27	95.326
762.125	142.456
765.979	320.502
769.831	236.465
773.681	66.346
777.529	46.144
781.375	24.163
785.219	23.703
789.06	51.829
792.901	29.271
796.739	83.106
800.575	84.357
804.409	44.006
808.241	41.818
812.071	106.156
815.899	41.702
819.726	16.494
823.55	15.803
827.372	71.772
831.193	107.284
835.011	108.816
838.828	153.484
842.642	183.323
846.455	342.281
850.266	447.262
854.075	567.242
857.881	498.192
861.686	482.109
865.489	561.004
869.29	674.889
873.089	659.802
876.886	637.731
880.682	695.654
884.475	745.573
888.266	935.492
892.056	1394.38
895.843	2074.19
899.629	3078.09
903.413	3420.51
907.194	2831.03
910.974	2076.94
914.752	1429.98
918.528	1049.04
922.302	899.094
926.074	866.025
929.844	864.757
933.613	875.181
937.379	1017.16
941.144	1220.99
944.906	1610.16
948.667	2163.58
952.426	2823.36
956.183	3992.73
959.938	6056.25
963.691	6389.71
967.442	4688.13
971.191	4125.75
974.939	4496.58
978.684	4594.86
982.428	3972.53
986.169	3825.95
989.909	3514.61
993.647	3095.85
997.383	2964.02
1001.12	2599.86
1004.85	2128.38
1008.58	1538.28
1012.31	1191.48
1016.03	788.611
1019.76	616.26
1023.48	580.059
1027.2	520.966
1030.92	531.457
1034.64	575.243
1038.36	682.734
1042.07	761.23
1045.78	850.898
1049.49	1089.46
1053.2	1282.07
1056.9	1190.28
1060.61	843.009
1064.31	595.679
1068.01	548.86
1071.71	479.922
1075.41	670.854
1079.1	936.899
1082.79	925.979
1086.48	647.08
1090.17	484.523
1093.86	262.394
1097.55	247.454
1101.23	197.799
1104.91	203.125
1108.59	197.722
1112.27	150.295
1115.95	107.276
1119.62	85.4
1123.3	68.845
1126.97	35.517
1130.63	27.144
1134.3	29.469
1137.97	86.251
1141.63	57.419
1145.29	65.366
1148.95	20.257
1152.61	18.823
1156.27	17.087
1159.92	5.722
1163.57	48.626
1167.22	22.845
1170.87	41.235
1174.52	25.467
1178.16	15.778
1181.81	5.497
1185.45	56.161
1189.09	38.71
1192.73	7.301
1196.36	107.805
1200	33.461
1203.63	4.922
1207.26	86.879
1210.89	22.944
1214.52	12.44
1218.14	31.79
1221.77	65.902
1225.39	88.984
1229.01	79.212
1232.62	76.123
1236.24	43.991
1239.86	28.782
1243.47	2.504
1247.08	37.086
1250.69	45.542
1254.3	59.059
1257.9	142.371
1261.5	101.814
1265.11	134.496
1268.71	80.351
1272.3	80.044
1275.9	22.783
1279.49	88.148
1283.09	55.824
1286.68	52.829
1290.27	76.736
1293.86	148.905
1297.44	111.828
1301.03	81.194
1304.61	17.393
1308.19	25.253
1311.77	26.219
1315.34	91.99
1318.92	53.54
1322.49	125.423
1326.06	75.897
1329.63	83.662
1333.2	98.893
1336.77	79.657
1340.33	48.269
1343.89	12.373
1347.46	11.792
1351.02	97.461
1354.57	69.092
1358.13	126.627
1361.68	156.37
1365.23	87.11
1368.79	64.607
1372.33	72.048
1375.88	55.118
1379.43	61.306
1382.97	60.82
1386.51	87.032
1390.05	134.849
1393.59	158.694
1397.13	102.672
1400.66	157.236
1404.19	138.798
1407.72	110.008
1411.25	125.514
1414.78	21.034
1418.31	65.139
1421.83	59.27
1425.36	88.488
1428.88	107.981
1432.39	130.053
1435.91	115.933
1439.43	99.523
1442.94	118.586
1446.45	94.628
1449.96	42.462
1453.47	18.025
1456.98	118.791
1460.48	20.197
1463.99	59.455
1467.49	111.515
1470.99	48.091
1474.49	92.33
1477.99	97.81
1481.48	94.483
1484.97	82.943
1488.46	46.045
1491.95	9.378
1495.44	40.722
1498.93	32.621
1502.41	35.765
1505.9	47.034
1509.38	111.657
