Measurement: Raman, 514 nm, ccw, Raman Data Processed
Mineral: Axinite-(Fe)
Rruff sample: R060558
Ideal chemistry: Ca_4_Fe^2+^_2_Al_4_[B_2_Si_8_O_30_](OH)_2_
Locality: unknown
Source: Gemological Institute of America
Description: Brown flattened crystal
Measured chemistry: Ca_2.00_(Fe^2+^_0.60_Mg_0.35_Mn_0.05_)_Î£=1_Al_2.00_BSi_4.00_O_15_(OH) ; B not measured
Pin_id: M00962
Orientation: Laser parallel to a* (1 0 0). Fiducial mark perpendicular to laser is parallel to b [0 1 0]
Raman shift (cm-1)	intensity
94.025	0
99.011	302.474
103.994	472.938
108.974	750.561
113.95	1083.86
118.923	793.723
123.894	363.183
128.86	13.4722
133.824	47.3254
138.785	930.794
143.743	844.756
148.697	1127.63
153.648	1233.13
158.596	769.833
163.541	470.703
168.483	1136.64
173.422	1425.29
178.358	621.842
183.29	4.52148
188.22	183.816
193.146	245.897
198.07	169.459
202.99	956.842
207.907	2398.03
212.821	3395
217.732	3414.75
222.64	1659.97
227.545	521.971
232.446	71.3147
237.345	72.2751
242.241	288.221
247.133	435.059
252.023	1513.56
256.909	2122.88
261.792	2291.45
266.673	3337.95
271.55	4091.98
276.424	3420.54
281.296	2042.62
286.164	1566.2
291.029	1390.9
295.891	1168.85
300.751	936.382
305.607	998.435
310.46	1455.98
315.31	2683.95
320.157	4648.34
325.001	2950.12
329.843	1974.11
334.681	2103.22
339.516	3415.99
344.348	5400.2
349.177	3672.73
354.004	1508.56
358.827	343.688
363.647	43.7895
368.465	84.3472
373.279	59.2432
378.091	232.426
382.899	755.037
387.705	2116.57
392.507	2143.64
397.307	1121.36
402.104	832.791
406.898	762.158
411.689	1121.26
416.477	2451.59
421.262	4442.08
426.044	6602.71
430.823	4921.47
435.599	2365.38
440.373	1795.41
445.143	2843.58
449.911	1450.85
454.675	456.231
459.437	246.697
464.196	179.241
468.952	417.852
473.705	777.522
478.456	1585.5
483.203	3774.81
487.948	3759.15
492.689	1299.5
497.428	460.863
502.164	199.226
506.897	89.1702
511.627	106.707
516.355	69.7605
521.079	3.22656
525.801	126.355
530.52	99.721
535.236	82.8789
539.949	35.1367
544.659	6.71362
549.367	22.3125
554.071	201.226
558.773	700.053
563.472	1203.78
568.169	1163.39
572.862	1677.88
577.553	1579.24
582.241	960.461
586.926	757.543
591.608	625.475
596.287	151.25
600.964	135.861
605.638	350.302
610.309	969.568
614.977	1775.65
619.643	2529.55
624.306	1720.24
628.966	589.735
633.623	378.015
638.278	534.081
642.929	947.495
647.578	946.787
652.225	490.973
656.868	368.116
661.509	363.062
666.147	770.17
670.782	1508.65
675.415	3023.51
680.045	2673.93
684.672	1297.7
689.296	812.247
693.918	835.211
698.537	1346.25
703.153	2591.91
707.766	5824.3
712.377	11053.4
716.985	10321.2
721.591	4745.78
726.194	2047.05
730.794	923.061
735.391	589.802
739.986	330.072
744.578	198.5
749.167	146.467
753.754	250.186
758.338	262.665
762.919	361.909
767.497	432.925
772.073	299.721
776.647	124.302
781.217	41.6497
785.785	35.3272
790.351	103.047
794.913	106.918
799.473	84.0889
804.031	49.0735
808.586	19.5806
813.138	147.434
817.687	117.215
822.234	25.1169
826.778	5.66968
831.32	67.6482
835.859	78.8648
840.395	211.002
844.929	369.072
849.46	648.086
853.989	884.054
858.515	1009.99
863.038	998.898
867.559	1083.81
872.077	991.742
876.593	1098.72
881.106	1057.75
885.617	1127.85
890.124	1664.15
894.63	2732.55
899.133	4483.02
903.633	6956.65
908.13	7424.44
912.625	4986.41
917.118	2926.46
921.608	1688.62
926.095	1257.39
930.58	1095.54
935.062	1146.72
939.542	1286.24
944.019	1826.77
948.494	2966.68
952.966	4432.85
957.435	6258.99
961.902	9803.15
966.367	11042.1
970.829	8184.41
975.288	8105.12
979.745	9581.13
984.2	8161.43
988.652	6881.03
993.101	6459.92
997.548	5980.32
1001.99	5908.93
1006.43	4548.28
1010.87	2817.47
1015.31	1652.01
1019.75	1030.61
1024.18	859.676
1028.61	808.61
1033.03	676.807
1037.46	511.31
1041.88	445.613
1046.3	524.417
1050.72	666.007
1055.13	920.178
1059.54	1084.03
1063.95	970.484
1068.36	592.641
1072.77	533.581
1077.17	646.795
1081.57	901.497
1085.97	941.18
1090.36	408.594
1094.75	246.252
1099.14	251.303
1103.53	313.625
1107.92	261.906
1112.3	180.478
1116.68	114.99
1121.06	144.072
1125.43	35.8147
1129.81	6.00659
1134.18	17.9143
1138.55	19.0349
1142.91	22.6279
1147.28	8.25488
1151.64	5.71973
1155.99	14.4062
1160.35	3.11499
1164.71	39.1335
1169.06	10.2835
1173.41	23.3291
1177.75	29.6633
1182.1	52.834
1186.44	65.8023
1190.78	70.2991
1195.12	15.2214
1199.45	8.38818
1203.79	24.1016
1208.12	31.6223
1212.44	33.0688
1216.77	36.2849
1221.09	57.625
1225.41	97.1001
1229.73	145.363
1234.05	116.62
1238.36	38.9175
1242.67	129.553
1246.98	69.96
1251.29	76.1611
1255.59	89.124
1259.89	84.1748
1264.19	93.7686
1268.49	94.1335
1272.79	95.8096
1277.08	123.789
1281.37	50.7
1285.66	102.793
1289.94	88.7744
1294.23	99.7793
1298.51	92.6743
1302.79	178.522
1307.07	94.1438
1311.34	120.014
1315.61	83.4077
1319.88	54.1895
1324.15	77.2422
1328.41	63.6201
1332.68	79.7353
1336.94	117.523
1341.2	132.695
1345.45	111.126
1349.71	107.686
1353.96	127.543
1358.21	72.5371
1362.45	45.5249
1366.7	86.792
1370.94	158.964
1375.18	85.9917
1379.42	121.207
1383.66	103.034
1387.89	48.3608
1392.12	55.2847
1396.35	109.657
1400.58	13.1123
1404.8	62.8023
1409.03	60.6157
1413.24	70.7554
1417.46	51.3965
1421.68	27.0171
1425.89	33.396
1430.1	150.67
1434.31	178.818
1438.52	162.874
1442.72	91.1221
1446.93	312.337
1451.13	203.393
1455.33	80.769
1459.52	112.675
1463.71	219.433
1467.91	38.773
1472.1	143.599
1476.28	31.9092
1480.47	65.3281
1484.65	1.34131
1488.83	74.5644
1493.01	60.4683
1497.18	22.1377
1501.36	85.5811
1505.53	61.1313
1509.7	105.81
1513.87	6.48877
1518.03	127.001
1522.2	38.1357
1526.36	38.5532
1530.52	45.1494
1534.67	93.3154
1538.83	35.2827
1542.98	118.25
1547.13	68.7632
1551.28	6.99512
1555.42	78.2632
1559.57	0.127441
1563.71	0
