Measurement: Raman, 514 nm, ccw, Raman Data Processed
Mineral: Axinite-(Fe)
Rruff sample: R060558
Ideal chemistry: Ca_4_Fe^2+^_2_Al_4_[B_2_Si_8_O_30_](OH)_2_
Locality: unknown
Source: Gemological Institute of America
Description: Brown flattened crystal
Measured chemistry: Ca_2.00_(Fe^2+^_0.60_Mg_0.35_Mn_0.05_)_Î£=1_Al_2.00_BSi_4.00_O_15_(OH) ; B not measured
Pin_id: M00869
Orientation: Laser parallel to (0 1 1). Fiducial mark perpendicular to laser is parallel to a [1 0 0]
Raman shift (cm-1)	intensity
132.7	0
137.631	15.6716
142.56	430.756
147.485	871.245
152.408	1456.95
157.328	1447.04
162.246	820.82
167.16	926.793
172.073	1292.84
176.982	1379.85
181.888	515.706
186.792	415.019
191.694	516.665
196.592	1248.51
201.488	1361.22
206.381	1645.69
211.271	2069.16
216.159	1806.79
221.044	1342.66
225.926	606.669
230.806	10.3203
235.683	97.5002
240.557	111.079
245.429	93.9253
250.298	435.493
255.164	779.605
260.027	1302.72
264.888	1367.48
269.746	1930.53
274.601	1928.13
279.454	1510.23
284.304	934.81
289.151	801.984
293.996	744.842
298.838	1111.67
303.677	1626.13
308.514	2013.89
313.348	1962.7
318.179	1707.64
323.008	1759.76
327.834	1178.07
332.657	906.148
337.478	1362.27
342.295	2138.76
347.111	2879.6
351.923	2305.75
356.733	1324.17
361.54	395.859
366.345	6.78076
371.147	26.1118
375.946	111.54
380.743	461.111
385.537	1168.24
390.328	1961.98
395.116	2288.48
399.902	1164.15
404.686	753.709
409.466	918.277
414.244	1695.81
419.019	3022.97
423.792	3528.15
428.562	3174.44
433.329	2530.8
438.094	1293.18
442.856	659.544
447.616	584.887
452.372	389.19
457.126	114.446
461.878	174.65
466.627	331.794
471.373	592.87
476.116	1227.88
480.857	2565.86
485.596	3732.78
490.331	3631.64
495.064	1269.44
499.795	706.159
504.522	645.79
509.247	573.333
513.97	357.151
518.69	28.1211
523.407	105.463
528.121	137.164
532.833	49.7043
537.543	18.156
542.249	46.8623
546.953	11.6416
551.655	56.0381
556.354	159.268
561.05	433.359
565.743	673.279
570.434	776.025
575.123	949.582
579.808	861.945
584.491	767.112
589.172	744.078
593.85	692.839
598.525	372.393
603.197	379.736
607.868	676.867
612.535	1303.78
617.2	2113.48
621.862	2195.96
626.522	1359.22
631.178	380.26
635.833	182.073
640.485	219.66
645.134	245.022
649.78	207.837
654.424	83.551
659.066	173.815
663.704	268.336
668.341	666.944
672.974	1229.58
677.605	2679.47
682.234	1335.68
686.859	706.243
691.483	500.352
696.103	703.947
700.721	1280.32
705.337	3010.82
709.949	5691.74
714.56	7790.44
719.167	6074.92
723.772	2675.2
728.375	1221.26
732.975	581.132
737.572	347.805
742.167	191.29
746.759	1170.59
751.349	206.722
755.936	315.685
760.52	556.489
765.102	849.141
769.681	950.65
774.258	676.023
778.832	281.267
783.404	91.3894
787.973	51.6602
792.539	86.8791
797.103	101.47
801.665	79.2102
806.223	12.2981
810.779	126.797
815.333	283.176
819.884	146.651
824.433	42.1721
828.979	0.255127
833.522	13.2576
838.063	27.7344
842.601	170.221
847.137	255.733
851.67	342.291
856.2	429.905
860.729	521.587
865.254	413.349
869.777	445.2
874.297	428.15
878.815	466.228
883.33	564.529
887.843	684.004
892.353	1220.64
896.861	2165.46
901.366	3349.48
905.869	4269.65
910.369	4324.01
914.866	3200.54
919.361	1945.31
923.854	1163.28
928.344	1004.9
932.831	1009.04
937.316	1062.53
941.798	1497.93
946.278	2268.06
950.755	3566.23
955.23	5303.74
959.702	6995.62
964.171	8608.1
968.638	8130.67
973.103	5893.7
977.565	5630.75
982.025	5474.52
986.482	4944.65
990.936	4651.15
995.388	4466.05
999.837	4458.28
1004.28	4646.86
1008.73	3920.97
1013.17	2354.37
1017.61	1253.38
1022.05	750.097
1026.48	747.691
1030.91	631.027
1035.34	508.966
1039.77	250.195
1044.19	292.254
1048.62	359.056
1053.03	552.854
1057.45	825.874
1061.87	904.862
1066.28	819.885
1070.69	475.219
1075.09	527.566
1079.5	644.025
1083.9	855.142
1088.3	741.552
1092.69	420.958
1097.09	272.909
1101.48	407.271
1105.87	578.115
1110.26	512.729
1114.64	425.826
1119.02	242.091
1123.4	111.998
1127.78	77.5374
1132.15	3.87695
1136.53	32.6638
1140.89	16.7517
1145.26	54.2893
1149.63	22.946
1153.99	0.362061
1158.35	25.7632
1162.7	36.3545
1167.06	80.4595
1171.41	65.7534
1175.76	52.7312
1180.11	49.9692
1184.45	12.0254
1188.79	3.53662
1193.13	16.926
1197.47	48.167
1201.81	22.8755
1206.14	14.1741
1210.47	12.7878
1214.79	55.6465
1219.12	13.0962
1223.44	62.2253
1227.76	39.3875
1232.08	103.23
1236.39	15.4331
1240.7	68.7578
1245.02	37.5029
1249.32	44.9556
1253.63	13.6643
1257.93	155.216
1262.23	120.962
1266.53	142.583
1270.82	113.15
1275.12	104.523
1279.41	0.945557
1283.69	130.375
1287.98	6.27808
1292.26	115.481
1296.54	81.8706
1300.82	129.016
1305.1	72.9033
1309.37	89.0723
1313.64	154.93
1317.91	141.169
1322.17	83.8054
1326.44	69.6526
1330.7	104.344
1334.96	74.2842
1339.21	80.1213
1343.47	77.7632
1347.72	130.747
1351.97	100.93
1356.21	65.5496
1360.46	113.682
1364.7	125.158
1368.94	85.2104
1373.17	94.1313
1377.41	116.877
1381.64	64.4138
1385.87	38.9883
1390.1	153.872
1394.32	136.882
1398.54	14.0994
1402.76	69.3227
1406.98	94.2324
1411.19	31.2654
1415.41	77.6375
1419.62	71.0606
1423.82	84.5107
1428.03	114.706
1432.23	109.74
1436.43	150.921
1440.63	124.765
1444.82	51.6223
1449.02	98.2756
1453.21	109.504
1457.4	96.4768
1461.58	110.65
1465.77	57.2698
1469.95	83.8521
1474.12	53.3823
1478.3	101.966
1482.47	69.3274
1486.64	10.3926
1490.81	24.592
1494.98	71.783
1499.14	0.109863
1503.31	38.6096
1507.47	72.3852
1511.62	1.21728
1515.78	80.158
1519.93	32.176
1524.08	60.3901
1528.23	48.9639
1532.37	37.8215
1536.51	127.952
1540.65	9.05957
1544.79	35.8186
1548.93	31.9153
1553.06	54.7217
1557.19	113.795
1561.32	49.7249
