Measurement: Raman, 514 nm, ccw, Raman Data Processed
Mineral: Axinite-(Fe)
Rruff sample: R060194
Ideal chemistry: Ca_4_Fe^2+^_2_Al_4_[B_2_Si_8_O_30_](OH)_2_
Locality: near Dalbandi, Baluchistan Province, Pakistan
Source: Herbert Obodda
Description: Brown transparent wedge-shaped single crystal
Measured chemistry: Ca_2.00_(Fe^2+^_0.66_Mg_0.30_Mn_0.04_)Al_2.00_BSi_4.00_O_15_(OH)
Pin_id: L01072
Orientation: Laser parallel to -c* (0 0 -1). Fiducial mark perpendicular to laser is parallel to a [1 0 0]
Raman shift (cm-1)	intensity
53.91	0
58.864	239.458
63.817	262.996
68.767	8.55792
73.714	69.0748
78.659	121.988
83.602	340.265
88.542	1025.44
93.48	1956.57
98.416	3811.42
103.349	7804.69
108.28	15394.1
113.208	22071.5
118.134	14177.8
123.058	9866.5
127.979	7417.91
132.898	6260.52
137.814	9213.66
142.728	15754.5
147.639	11384.2
152.549	7487.89
157.455	6082.87
162.359	5142.33
167.261	6555.53
172.161	9877.42
177.058	7987.9
181.952	3522.83
186.845	1544.09
191.734	1591.08
196.622	3412.07
201.507	3966.12
206.389	6114.32
211.269	9576.9
216.147	10715.5
221.022	8304.52
225.895	3945.8
230.765	1362.05
235.633	730.029
240.498	917.934
245.361	1396.84
250.222	3157.9
255.08	8589.96
259.936	13232.9
264.789	14776.2
269.64	23572.7
274.488	31123.4
279.334	28270.1
284.178	17310.8
289.019	13499.4
293.857	14429.8
298.693	15234.8
303.527	11943.4
308.358	8839.5
313.187	7081.99
318.013	8740.76
322.837	10347.9
327.659	7405.59
332.478	7816.46
337.294	9228.5
342.108	14252.2
346.92	19332.7
351.729	13737.4
356.535	8309.43
361.34	2446.56
366.141	56.1055
370.94	476.376
375.737	457.307
380.531	434.435
385.323	2738.54
390.113	6060.22
394.9	4147.5
399.684	1462.76
404.466	2014.15
409.245	3643.05
414.022	7752.77
418.797	16442.1
423.569	20050.8
428.338	21147.3
433.105	14352.5
437.87	9822.35
442.632	14114.7
447.391	24036.5
452.149	10034.7
456.903	2517.17
461.655	695.903
466.405	69.374
471.152	53.8848
475.897	1148.34
480.639	3834.73
485.378	8789.01
490.116	5823.24
494.85	1007.08
499.582	108.482
504.312	107.227
509.039	1168
513.764	2337.16
518.486	1626.28
523.206	153.44
527.923	183.368
532.638	28.1309
537.35	510.499
542.059	110.939
546.766	166.041
551.471	350.147
556.173	63.8662
560.873	1292.37
565.57	1782.92
570.264	1181.22
574.957	1617.22
579.646	1835.89
584.333	2793.18
589.018	5164.04
593.7	5142.43
598.379	1842.31
603.056	443.649
607.73	388.817
612.402	1242.56
617.072	2276.61
621.739	2174.03
626.403	860.778
631.065	720.833
635.724	1711.16
640.381	3987.23
645.035	6213.71
649.687	4912.97
654.336	2336.88
658.983	1180.35
663.627	1225.1
668.268	2390.55
672.907	5263.78
677.544	9198.66
682.178	7357.17
686.809	3490.93
691.438	2324.82
696.065	2966.45
700.688	5751.99
705.31	12614
709.929	28077.2
714.545	46913.4
719.158	38104.9
723.77	17339.5
728.378	7786.24
732.984	3979.17
737.588	2298.27
742.189	1328.01
746.787	874.471
751.383	557.36
755.976	473.127
760.567	664.17
765.155	969.504
769.741	1050.01
774.324	732.988
778.904	479.441
783.482	72.9756
788.058	19.5732
792.631	202.387
797.201	168.38
801.769	156.197
806.334	201.983
810.897	662.011
815.457	939.942
820.014	241.488
824.569	53.0615
829.122	167.582
833.671	375.613
838.219	252.465
842.763	430.144
847.306	1287.6
851.845	2394.87
856.382	2959.97
860.917	2955.95
865.448	2719.84
869.978	2801.66
874.505	2987.49
879.029	3568.39
883.55	4313.62
888.069	5426.13
892.586	7986.92
897.1	11856.9
901.611	15110.1
906.12	15097.7
910.626	12885.7
915.129	8513.33
919.63	5348.08
924.129	4084.35
928.625	4124.06
933.118	4805.4
937.609	4282.74
942.097	4002.22
946.582	5381.71
951.065	8044.11
955.546	11505.1
960.023	16206.5
964.499	23096.3
968.971	24664.5
973.441	23890.3
977.909	32378.8
982.374	39440.1
986.836	30465.1
991.295	23307.8
995.753	22304.3
1000.21	22801.5
1004.66	21433.4
1009.11	15833.4
1013.55	9339.41
1018	5285.48
1022.44	3482.11
1026.88	2747.1
1031.32	2491.97
1035.75	1596.29
1040.18	1257.56
1044.61	1151.02
1049.04	987.864
1053.46	1148.4
1057.88	1357.11
1062.3	1413.95
1066.71	909.789
1071.13	673.452
1075.54	515.976
1079.94	920.557
1084.35	1398.07
1088.75	1318.33
1093.15	729.464
1097.55	655.435
1101.94	557.094
1106.34	836.692
1110.73	774.586
1115.11	375.862
1119.5	163.665
1123.88	315.475
1128.26	223.726
1132.63	68.0498
1137.01	7.80371
1141.38	20.375
1145.75	116.269
1150.12	74.8037
1154.48	55.0312
1158.84	80.7519
1163.2	19.4941
1167.55	110.976
1171.91	119.782
1176.26	98.8603
1180.61	61.8994
1184.95	110.529
1189.29	109.474
1193.63	124.619
1197.97	3.67969
1202.31	10.3984
1206.64	122.793
1210.97	184.929
1215.29	4.61035
1219.62	115.006
1223.94	100.986
1228.26	195.22
1232.57	231.539
1236.89	19.2471
1241.2	119.33
1245.51	149.601
1249.81	305.103
1254.12	237.906
1258.42	209.317
1262.72	141.03
1267.01	203.12
1271.3	155.3
1275.59	291.409
1279.88	203.001
1284.17	319.641
1288.45	161.205
1292.73	257.353
1297.01	147.404
1301.28	83.5986
1305.55	217.394
1309.82	109.846
1314.09	110.387
1318.35	124.257
1322.61	36.2832
1326.87	59.501
1331.13	164.156
1335.38	172.566
1339.63	301.37
1343.88	163.895
1348.12	260.523
1352.37	205.056
1356.61	89.792
1360.85	150.322
1365.08	202.509
1369.31	265.897
1373.54	340.626
1377.77	244.288
1381.99	68.2129
1386.22	190.026
1390.43	273.161
1394.65	97.1113
1398.87	28.8008
1403.08	223.273
1407.29	165.648
1411.49	168.413
1415.69	132.66
1419.89	118.425
1424.09	336.421
1428.29	204.697
1432.48	180.3
1436.67	140.061
1440.86	36.46
1445.04	113.222
1449.23	204.397
1453.4	98.6231
1457.58	45.9853
1461.76	210.48
1465.93	172.859
1470.1	167.867
1474.26	65.2891
1478.43	123.439
1482.59	102.138
1486.75	141.583
1490.9	9.49219
1495.06	40.0576
1499.21	64.6592
1503.35	151.065
1507.5	147.727
1511.64	162.715
1515.78	77.3955
1519.92	73.2861
1524.05	123.613
1528.18	93.0566
1532.31	187.223
1536.44	203.295
1540.56	87.8897
1544.69	168.441
1548.8	125.261
1552.92	258.463
1557.03	336.461
1561.14	91.4766
1565.25	109.823
1569.36	166.112
