Measurement: Raman, 514 nm, ccw, Raman Data Processed
Mineral: Axinite-(Fe)
Rruff sample: R040074
Ideal chemistry: Ca_4_Fe^2+^_2_Al_4_[B_2_Si_8_O_30_](OH)_2_
Locality: Luning, Nevada, USA
Source: University of Arizona Mineral Museum
Description: Pale brown wedge-shaped crystal
Measured chemistry: (Ca_0.98_Mn_0.01_)_2_(Fe_0.41_Mg_0.39_Mn_0.20_)Al_1.95_B_1.20_Si_3.90_O_15_(OH)
Pin_id: M00153
Orientation: Laser parallel to (1 0 1). Fiducial mark perpendicular to laser is parallel to b [0 1 0]
Raman shift (cm-1)	intensity
91.081	0
95.268	85.439
99.453	700.696
103.636	3212.81
107.817	12506.3
111.996	15952.6
116.172	10471.4
120.347	5647.16
124.519	2628.97
128.69	1352.33
132.858	1861.7
137.025	6681.61
141.189	15454
145.352	16882.6
149.512	11914
153.67	7293.66
157.827	4077.43
161.981	3691.55
166.133	5467.08
170.283	8539.28
174.431	7391.55
178.577	3516.65
182.721	536.608
186.863	674.127
191.003	512.344
195.141	96.795
199.277	466.737
203.411	1970.14
207.543	5133.27
211.673	8635.72
215.801	9329.27
219.927	6664.58
224.051	3373.82
228.173	1565.2
232.292	799.487
236.41	1066.4
240.526	1244.32
244.64	1316.06
248.752	2726.68
252.861	6815.24
256.969	9595.2
261.075	11389.5
265.179	16228.8
269.281	23548.8
273.38	27617.8
277.478	24205.1
281.574	16490.4
285.668	12462
289.76	12490.5
293.85	13676.6
297.937	14380.8
302.023	12628.8
306.107	9583.42
310.189	8174.82
314.269	10891.2
318.347	16400.2
322.423	15883.4
326.497	10476.1
330.569	7959.43
334.639	7606.67
338.707	10066
342.773	16548.8
346.837	16126.8
350.899	9791.87
354.96	5362.69
359.018	2357.39
363.074	830.224
367.128	233.523
371.181	5.999
375.231	49.583
379.28	134.255
383.326	937.638
387.37	2924.7
391.413	3233.56
395.454	1928.81
399.492	1687.42
403.529	2029.88
407.564	2296.9
411.596	4326.05
415.627	9773.04
419.656	11509.8
423.683	11636.1
427.708	12981.7
431.731	13956.6
435.752	10400.8
439.772	8154.38
443.789	11760.1
447.804	9857.29
451.817	4061.38
455.829	1442.47
459.838	478.017
463.846	98.048
467.852	293.42
471.855	185.492
475.857	0.889
479.857	504.861
483.855	1727.83
487.851	1389.37
491.845	58.285
495.837	381.326
499.828	173.947
503.816	484.091
507.802	2175.73
511.787	3628.04
515.77	2875.42
519.75	1324.19
523.729	443.269
527.706	71.274
531.681	215.159
535.654	655.154
539.625	1174.41
543.595	1784.06
547.562	1864.21
551.527	1497.04
555.491	2530.59
559.453	4421.87
563.412	3596.85
567.37	1636.53
571.326	1095.89
575.28	1163.94
579.233	1167.67
583.183	1860.1
587.131	3017.2
591.078	2872
595.022	1322.74
598.965	338.554
602.906	41.558
606.845	155.013
610.782	473.093
614.718	980.876
618.651	1957.59
622.582	1742.84
626.512	806.069
630.44	609.201
634.366	1296.13
638.29	3159.37
642.212	5549.53
646.132	5649.01
650.05	3430.03
653.967	1659.8
657.882	819.837
661.794	659.731
665.705	1028.74
669.614	2363.31
673.522	5185.69
677.427	6704.67
681.331	4691.93
685.232	2674.62
689.132	1990.86
693.03	1985.2
696.926	2944.11
700.82	5196.73
704.713	10621
708.603	22774.9
712.492	41428.5
716.379	41621.7
720.264	24564.6
724.147	12097.2
728.028	6429.42
731.908	3616.31
735.785	2169.89
739.661	1314.14
743.535	915.086
747.407	635.718
751.278	534.042
755.146	464.561
759.013	470.173
762.878	813.156
766.741	1104.09
770.602	1073.93
774.461	550.504
778.319	100.894
782.174	95.486
786.028	253.111
789.88	388.951
793.73	299.93
797.579	335.05
801.425	176.131
805.27	167.489
809.113	978.123
812.954	1571.36
816.794	1035.68
820.631	339.791
824.467	11.66
828.301	148.168
832.133	129.345
835.963	373.27
839.792	625.037
843.618	854.698
847.443	1475.23
851.266	2111.59
855.088	2334.83
858.907	2305.75
862.725	2319
866.541	2197
870.355	2184.06
874.167	2263.13
877.978	2346.22
881.787	2530.31
885.594	2570.42
889.399	2980.47
893.202	3893.47
897.004	5311.47
900.803	6169.52
904.601	5397.28
908.398	3924.67
912.192	2821.58
915.985	2252.65
919.776	2250.71
923.565	2724.71
927.352	3694.66
931.138	4510.64
934.922	4349.87
938.704	3933.22
942.484	4089.81
946.262	5123.57
950.039	6713.21
953.814	8640.5
957.587	10673.6
961.359	14761.3
965.128	17219.7
968.896	15978.1
972.662	17946.4
976.427	23771.2
980.189	25205
983.95	19181.3
987.709	13249.8
991.467	10459.4
995.222	9540.28
998.976	9650.69
1002.73	9521.31
1006.48	7647.81
1010.23	5180.32
1013.97	3343.97
1017.72	2342.93
1021.46	1587.51
1025.2	1255.06
1028.94	1043.89
1032.68	1019.31
1036.42	877.472
1040.15	1239.91
1043.89	1318.75
1047.62	1164.38
1051.35	1145.51
1055.07	1034.4
1058.8	1230.45
1062.52	1288.44
1066.25	1081.69
1069.97	1139.35
1073.69	1278.1
1077.4	2204.72
1081.12	3504.44
1084.83	3989.27
1088.55	2652.48
1092.26	1602.36
1095.96	1125.71
1099.67	860.626
1103.38	760.312
1107.08	723.97
1110.78	567.997
1114.48	447.302
1118.18	422.587
1121.88	310.73
1125.57	166.543
1129.27	20.902
1132.96	3.184
1136.65	46.056
1140.34	1.318
1144.02	32.767
1147.71	1245.88
1151.39	28.173
1155.07	26.73
1158.75	16.807
1162.43	136.076
1166.11	169.506
1169.78	17.964
1173.45	79.494
1177.12	5.89
1180.79	61.345
1184.46	4.13
1188.13	44.583
1191.79	57.275
1195.45	12.07
1199.11	28.457
1202.77	132.811
1206.43	103.562
1210.09	45.832
1213.74	27.952
1217.39	59.241
1221.05	25.873
1224.69	38.527
1228.34	55.52
1231.99	117.229
1235.63	106.547
1239.27	246.858
1242.91	163.23
1246.55	95.505
1250.19	2.222
1253.83	56.877
1257.46	174.109
1261.09	194.25
1264.72	209.47
1268.35	230.878
1271.98	268.759
1275.61	258.848
1279.23	255.131
1282.85	180.848
1286.47	113.322
1290.09	216.752
1293.71	133.364
1297.33	176.989
1300.94	187.133
1304.55	136.457
1308.16	21.826
1311.77	56.782
1315.38	6.901
1318.99	73.156
1322.59	11.626
1326.19	188.304
1329.79	145.179
1333.39	154.27
1336.99	197.743
1340.59	130.03
1344.18	169.701
1347.77	46.988
1351.37	60.941
1354.95	0.746
1358.54	165.432
1362.13	130.339
1365.71	228.866
1369.3	194.712
1372.88	148.429
1376.46	187.532
1380.04	102.592
1383.61	108.01
1387.19	20.764
1390.76	86.719
1394.33	125.904
1397.9	52.392
1401.47	147.39
1405.04	240.65
1408.6	158.314
1412.16	184.931
1415.72	217.894
1419.29	141.943
1422.84	41.206
1426.4	52.91
1429.96	79.568
1433.51	223.56
1437.06	217.262
1440.61	255.667
1444.16	308.715
1447.71	220.997
1451.25	239.16
1454.8	145.47
1458.34	105.337
1461.88	169.863
1465.42	10.318
1468.96	70.567
1472.49	216.386
1476.03	89.923
1479.56	321.354
1483.09	219.191
1486.62	332.078
1490.15	292.615
1493.67	276.104
1497.2	244.279
1500.72	221.735
1504.24	157.096
1507.76	49.335
1511.28	2.73
1514.8	132.995
1518.31	141.664
1521.83	0
