Measurement: Raman, 514 nm, ccw, Raman Data Processed
Mineral: Axinite-(Fe)
Rruff sample: R060194
Ideal chemistry: Ca_4_Fe^2+^_2_Al_4_[B_2_Si_8_O_30_](OH)_2_
Locality: near Dalbandi, Baluchistan Province, Pakistan
Source: Herbert Obodda
Description: Brown transparent wedge-shaped single crystal
Measured chemistry: Ca_2.00_(Fe^2+^_0.66_Mg_0.30_Mn_0.04_)Al_2.00_BSi_4.00_O_15_(OH)
Pin_id: L00952
Orientation: Laser parallel to (1 1 0). Fiducial mark perpendicular to laser is parallel to -c [0 0 -1]
Raman shift (cm-1)	intensity
53.91	0
58.864	282.162
63.817	49.2579
68.767	17.7944
73.714	761.864
78.659	2085.77
83.602	3882.08
88.542	5774.82
93.48	8941.09
98.416	9622.98
103.349	10684.9
108.28	16890.2
113.208	11046
118.134	9523.75
123.058	8285.41
127.979	6780.39
132.898	5598.53
137.814	5237.76
142.728	5721.32
147.639	7200.36
152.549	10160.3
157.455	10685.7
162.359	9371.45
167.261	13100.6
172.161	15297.8
177.058	7712.11
181.952	3617.18
186.845	3263.1
191.734	4977.79
196.622	6415.38
201.507	8202.07
206.389	12903.3
211.269	13667.6
216.147	10362
221.022	6283.78
225.895	3276.84
230.765	1743.71
235.633	1830.22
240.498	3007.12
245.361	4471.73
250.222	5592.73
255.08	5807.97
259.936	6393.37
264.789	7425.31
269.64	9650.82
274.488	8629.16
279.334	5069.16
284.178	3144.79
289.019	4478.94
293.857	9299.43
298.693	14837.1
303.527	17273.9
308.358	14914.5
313.187	7656.8
318.013	5451.51
322.837	2697.08
327.659	690.151
332.478	905.075
337.294	2984.89
342.108	8339.44
346.92	12205.7
351.729	13327.9
356.535	7132.52
361.34	1301.45
366.141	546.965
370.94	553.376
375.737	316.161
380.531	1006.56
385.323	5334.9
390.113	10531.5
394.9	10154.5
399.684	4881.88
404.466	2071.44
409.245	2032.13
414.022	5020.87
418.797	10501.6
423.569	11628.1
428.338	15647.5
433.105	10734.5
437.87	4401.14
442.632	3866.27
447.391	2628.82
452.149	142.694
456.903	369.766
461.655	410.026
466.405	172.364
471.152	1051.08
475.897	673.741
480.639	1979.28
485.378	5049.63
490.116	1523.73
494.85	127.826
499.582	457.635
504.312	1510.08
509.039	2361.24
513.764	2318.68
518.486	1067.25
523.206	83.6719
527.923	481.026
532.638	269.88
537.35	550.578
542.059	2376.05
546.766	3405.07
551.471	1980.89
556.173	1720.41
560.873	2778.26
565.57	2568.1
570.264	3334.61
574.957	4543.74
579.646	4986.45
584.333	7565.7
589.018	10508.4
593.7	6781.64
598.379	2949.97
603.056	2165.2
607.73	2999.29
612.402	4059.41
617.072	4046.04
621.739	3280.15
626.403	1751.72
631.065	605.713
635.724	81.1172
640.381	609.653
645.035	1190.75
649.687	836.425
654.336	80.3857
658.983	73.6904
663.627	694.215
668.268	2779.17
672.907	7406.32
677.544	10024.5
682.178	5274.69
686.809	2099.07
691.438	1596.17
696.065	2799.7
700.688	6404.73
705.31	16063
709.929	32994.4
714.545	41779.2
719.158	24352.3
723.77	10836.6
728.378	4890.33
732.984	2615.36
737.588	1398.3
742.189	824.31
746.787	725.153
751.383	946.543
755.976	1817.37
760.567	3970.67
765.155	6178.45
769.741	6172.73
774.324	3797.15
778.904	1770.48
783.482	705.634
788.058	303.393
792.631	98.5264
797.201	91.2148
801.769	266.051
806.334	82.9072
810.897	128.255
815.457	302.077
820.014	118.642
824.569	203.988
829.122	49.4228
833.671	62.4678
838.219	134.335
842.763	416.773
847.306	728.201
851.845	972.648
856.382	1525.14
860.917	2231.72
865.448	2105.4
869.978	1683.22
874.505	1763.22
879.029	1873.57
883.55	2111.52
888.069	2615.5
892.586	4350.12
897.1	7167.25
901.611	10568.7
906.12	13345.5
910.626	10792.8
915.129	6519.81
919.63	3657.15
924.129	2542.81
928.625	2074.58
933.118	2285.78
937.609	2111.66
942.097	2752.83
946.582	4017.2
951.065	6396.69
955.546	10469
960.023	17525.3
964.499	24615.6
968.971	20786.5
973.441	18446.7
977.909	22800.3
982.374	23576.7
986.836	19160.9
991.295	17621.9
995.753	19127.6
1000.21	22453.2
1004.66	22228.5
1009.11	15217.2
1013.55	8859.95
1018	5316.02
1022.44	4526.56
1026.88	4911.67
1031.32	4495.79
1035.75	3219.13
1040.18	2909.68
1044.61	2798.25
1049.04	3051.42
1053.46	3978.88
1057.88	4153.77
1062.3	3231.25
1066.71	2334.76
1071.13	1880.8
1075.54	2603.73
1079.94	5003.45
1084.35	6658.74
1088.75	4820.95
1093.15	2874.83
1097.55	2038.94
1101.94	1864.02
1106.34	2022.06
1110.73	1798.58
1115.11	1263.99
1119.5	802.601
1123.88	554.386
1128.26	472.284
1132.63	111.393
1137.01	82.5654
1141.38	28.2441
1145.75	3.49316
1150.12	156.777
1154.48	128.608
1158.84	2.75684
1163.2	21.6963
1167.55	144.467
1171.91	234.092
1176.26	148.629
1180.61	168.065
1184.95	3.31348
1189.29	74.8594
1193.63	138.788
1197.97	232.179
1202.31	73.9785
1206.64	0.691406
1210.97	92.8135
1215.29	0.439453
1219.62	255.885
1223.94	125.906
1228.26	202.263
1232.57	195.571
1236.89	59.8525
1241.2	275.769
1245.51	351.646
1249.81	441.96
1254.12	187.266
1258.42	503.774
1262.72	321.919
1267.01	419.635
1271.3	438.865
1275.59	242.57
1279.88	219.773
1284.17	463.22
1288.45	534.466
1292.73	471.285
1297.01	272.711
1301.28	434.847
1305.55	298.946
1309.82	355.556
1314.09	340.543
1318.35	537.604
1322.61	595.703
1326.87	342.492
1331.13	523.479
1335.38	321.818
1339.63	509.387
1343.88	317.41
1348.12	375.969
1352.37	443.088
1356.61	484.318
1360.85	416.756
1365.08	380.652
1369.31	562.799
1373.54	674.896
1377.77	470.812
1381.99	515.975
1386.22	484.856
1390.43	640.443
1394.65	519.328
1398.87	581.916
1403.08	397.356
1407.29	524.428
1411.49	245
1415.69	514.965
1419.89	252.174
1424.09	232.326
1428.29	266.59
1432.48	506.957
1436.67	240.023
1440.86	161.846
1445.04	257.773
1449.23	85.5566
1453.4	109.086
1457.58	363.719
1461.76	243.857
1465.93	233.654
1470.1	99.3555
1474.26	225.065
1478.43	333.59
1482.59	241.207
1486.75	35.3145
1490.9	169.016
1495.06	180.879
1499.21	203.231
1503.35	193.775
1507.5	100.787
1511.64	191.041
1515.78	184.209
1519.92	69.4414
1524.05	318.248
1528.18	143.957
1532.31	261.211
1536.44	441.435
1540.56	472.947
1544.69	498.385
1548.8	146.223
1552.92	243.707
1557.03	328.51
1561.14	78.1465
1565.25	282.17
1569.36	289.562
