Measurement: Raman, 514 nm, ccw, Raman Data Processed
Mineral: Axinite-(Fe)
Rruff sample: R060194
Ideal chemistry: Ca_4_Fe^2+^_2_Al_4_[B_2_Si_8_O_30_](OH)_2_
Locality: near Dalbandi, Baluchistan Province, Pakistan
Source: Herbert Obodda
Description: Brown transparent wedge-shaped single crystal
Measured chemistry: Ca_2.00_(Fe^2+^_0.66_Mg_0.30_Mn_0.04_)Al_2.00_BSi_4.00_O_15_(OH)
Pin_id: L00952
Orientation: Laser parallel to (1 1 0). Fiducial mark perpendicular to laser is parallel to -c [0 0 -1]
Raman shift (cm-1)	intensity
53.91	0
58.864	300.063
63.817	29.7183
68.767	247.78
73.714	764.462
78.659	1524.97
83.602	2684.83
88.542	4102.32
93.48	5859.51
98.416	6162.05
103.349	6167.29
108.28	11312.5
113.208	7215.94
118.134	6383.5
123.058	5153.19
127.979	4630
132.898	4255.48
137.814	4162.18
142.728	5728.59
147.639	7819.75
152.549	11643.9
157.455	8348.54
162.359	5614.87
167.261	7133.79
172.161	10555.1
177.058	8134.72
181.952	4189.95
186.845	2447.86
191.734	2513
196.622	3094.55
201.507	3363.07
206.389	5085.43
211.269	6796.6
216.147	7556.8
221.022	6882.14
225.895	3428.03
230.765	1310.34
235.633	669.504
240.498	790.935
245.361	1211.08
250.222	2418.68
255.08	4372.87
259.936	5119.46
264.789	4577.7
269.64	5170.42
274.488	4590.47
279.334	3380.69
284.178	2451.06
289.019	1987.45
293.857	1664.74
298.693	2458.83
303.527	3648.59
308.358	4798.9
313.187	4663.64
318.013	6013.67
322.837	5794.88
327.659	3374.15
332.478	3243.35
337.294	5608.37
342.108	10209.1
346.92	11047.5
351.729	5841.47
356.535	1634.29
361.34	285.083
366.141	856.765
370.94	141.21
375.737	65.3857
380.531	996.088
385.323	4623.7
390.113	7310.14
394.9	6231.88
399.684	3387.69
404.466	1693.69
409.245	1507.48
414.022	2789.08
418.797	6570.73
423.569	9256.91
428.338	10182.5
433.105	6376.47
437.87	2465.67
442.632	1302.04
447.391	1057.88
452.149	649.931
456.903	602.283
461.655	844.465
466.405	1641.39
471.152	2608
475.897	4461.2
480.639	9656.92
485.378	15751.1
490.116	9298.65
494.85	3110.49
499.582	2065.54
504.312	1903.09
509.039	1416.25
513.764	484.459
518.486	239.552
523.206	522.836
527.923	428.713
532.638	98.8496
537.35	60.3555
542.059	132.497
546.766	349.822
551.471	400.051
556.173	766.38
560.873	1820.1
565.57	2072.05
570.264	2060.3
574.957	2525.77
579.646	2156.42
584.333	1768.2
589.018	1924.09
593.7	1522.03
598.379	1119
603.056	1493.96
607.73	3128.89
612.402	6380.85
617.072	10479.6
621.739	10787.3
626.403	5712.8
631.065	2035.17
635.724	1234.37
640.381	1488.38
645.035	1874.35
649.687	1524.75
654.336	1358.86
658.983	1097.05
663.627	1458.68
668.268	3057.14
672.907	6036.67
677.544	8145.98
682.178	5686.23
686.809	2852.55
691.438	2520.96
696.065	3132.55
700.688	6079.07
705.31	12859.5
709.929	24978.9
714.545	32817.3
719.158	21058.6
723.77	9241.98
728.378	4145.37
732.984	2107.82
737.588	1082.34
742.189	749.981
746.787	507.757
751.383	711.699
755.976	1165.85
760.567	2043.24
765.155	2693.93
769.741	2802.94
774.324	1514.32
778.904	581.12
783.482	108.713
788.058	177.484
792.631	330.821
797.201	299.879
801.769	301.415
806.334	146.238
810.897	501.244
815.457	817.963
820.014	539.132
824.569	283.791
829.122	123.839
833.671	264.577
838.219	419.545
842.763	871.588
847.306	1388.75
851.845	1912.5
856.382	2273.62
860.917	2214.42
865.448	2294.51
869.978	2062.95
874.505	2012.77
879.029	1846.04
883.55	1891.75
888.069	2420.24
892.586	3681.5
897.1	5949.73
901.611	8766.01
906.12	10978.3
910.626	9499.45
915.129	6223.64
919.63	3727.05
924.129	2712.88
928.625	2933.09
933.118	3379.45
937.609	3958.59
942.097	5494.75
946.582	9009.4
951.065	14958.9
955.546	21180.6
960.023	29612.7
964.499	37820.1
968.971	30941.8
973.441	21794.8
977.909	20185.2
982.374	19351.8
986.836	15905.9
991.295	14335.2
995.753	13592.9
1000.21	13933.9
1004.66	13767.2
1009.11	10118.9
1013.55	6136.3
1018	3680.27
1022.44	2771.88
1026.88	2486.27
1031.32	2198.67
1035.75	1532.46
1040.18	1568.03
1044.61	1834.32
1049.04	2449.88
1053.46	3540.01
1057.88	4386.53
1062.3	4507.03
1066.71	3233.05
1071.13	2335.12
1075.54	2653.43
1079.94	3856.99
1084.35	4591.15
1088.75	3336.36
1093.15	1936.33
1097.55	1467.78
1101.94	2002.21
1106.34	2509.06
1110.73	2222.99
1115.11	1739.53
1119.5	1778.82
1123.88	1794.19
1128.26	956.815
1132.63	284.993
1137.01	111.647
1141.38	8.90137
1145.75	56.6455
1150.12	88.8262
1154.48	142.654
1158.84	173.94
1163.2	197.94
1167.55	96.0781
1171.91	64.4941
1176.26	85.5674
1180.61	94.4385
1184.95	93.3193
1189.29	95.082
1193.63	7.20996
1197.97	24.5586
1202.31	24.7568
1206.64	104.826
1210.97	116.522
1215.29	197.596
1219.62	292.83
1223.94	42.8301
1228.26	363.684
1232.57	185.855
1236.89	287.332
1241.2	316.05
1245.51	141.031
1249.81	170.214
1254.12	442.608
1258.42	529.955
1262.72	472.407
1267.01	277.749
1271.3	440.839
1275.59	302.397
1279.88	353.476
1284.17	334.824
1288.45	522.932
1292.73	594.527
1297.01	364.262
1301.28	535.648
1305.55	323.739
1309.82	490.665
1314.09	275.289
1318.35	317.275
1322.61	353.116
1326.87	374.335
1331.13	450.167
1335.38	539.233
1339.63	455.668
1343.88	540.015
1348.12	306.524
1352.37	476.512
1356.61	427.28
1360.85	362.746
1365.08	308.147
1369.31	215.837
1373.54	280.716
1377.77	313.26
1381.99	380.169
1386.22	437.236
1390.43	303.402
1394.65	202.295
1398.87	152.015
1403.08	110.353
1407.29	166.453
1411.49	134.252
1415.69	26.6074
1419.89	164.572
1424.09	216.167
1428.29	282.304
1432.48	3.5957
1436.67	299.302
1440.86	94.7031
1445.04	169.107
1449.23	170.644
1453.4	26.4609
1457.58	17.7832
1461.76	234.905
1465.93	303.108
1470.1	227.008
1474.26	14.498
1478.43	160.735
1482.59	8.67188
1486.75	49.5059
1490.9	18.1309
1495.06	203.76
1499.21	277.646
1503.35	51.1973
1507.5	225.069
1511.64	12.8848
1515.78	181.008
1519.92	22.7939
1524.05	16.1152
1528.18	60.2168
1532.31	102.744
1536.44	177.815
1540.56	290.162
1544.69	61.9365
1548.8	142.175
1552.92	397.772
1557.03	295.97
1561.14	132.421
1565.25	89.582
1569.36	101.841
