Measurement: Raman, 514 nm, ccw, Raman Data Processed
Mineral: Axinite-(Fe)
Rruff sample: R050026
Ideal chemistry: Ca_4_Fe^2+^_2_Al_4_[B_2_Si_8_O_30_](OH)_2_
Locality: Pouyva mine, Polar Urals, Western Siberian Region, Russia
Source: Rock Currier
Description: Brown transparent flat crystal
Measured chemistry: Ca_2.00_(Fe^2+^_0.61_Mn_0.26_Mg_0.13_)Al_2.00_BSi_4_O_15_(OH)
Pin_id: L00535
Orientation: Laser parallel to -c* (0 0 -1). Fiducial mark perpendicular to laser is parallel to a [1 0 0]
Raman shift (cm-1)	intensity
92.466	0
96.67	203.974
100.871	777.949
105.07	1457.3
109.267	4137.65
113.461	17270.8
117.653	835.561
121.843	97.275
126.031	29.159
130.217	80.041
134.4	116.827
138.581	648.361
142.76	619.949
146.937	1328.98
151.112	1533.3
155.284	1094.48
159.454	126.774
163.622	505.866
167.787	1741.77
171.951	2150.03
176.112	1214.5
180.271	370.055
184.428	126.847
188.583	524.441
192.735	1342.54
196.885	836.575
201.033	1457.09
205.179	2765.84
209.323	2595.78
213.464	1842.72
217.603	1471.59
221.741	591.334
225.875	20.151
230.008	190.461
234.139	117.279
238.267	128.023
242.393	414.316
246.517	506.087
250.639	698.492
254.759	1258.94
258.876	869.693
262.991	979.457
267.104	1490.96
271.215	2180.21
275.324	2610.22
279.431	1863.69
283.535	1293.43
287.638	1133.67
291.738	1211.23
295.836	1319.33
299.932	1813.06
304.025	3015.95
308.117	3239.01
312.206	2080.82
316.293	2385.45
320.378	2520.9
324.461	1696.44
328.542	1369.01
332.621	1364.78
336.697	1949.62
340.772	3396.66
344.844	3316.65
348.914	2516.06
352.982	2122.18
357.048	955.541
361.111	335.296
365.173	95.708
369.232	170.831
373.29	301.572
377.345	325.044
381.398	704.606
385.449	1849.5
389.497	2994
393.544	2091.62
397.589	1042.93
401.631	544.682
405.672	430.053
409.71	813.833
413.746	2457.6
417.78	4127.36
421.812	3087.09
425.842	2600.65
429.869	1829.02
433.895	905.21
437.918	621.229
441.94	1031.1
445.959	1037.91
449.976	279.541
453.991	29.068
458.004	13.573
462.015	26.038
466.024	146.084
470.031	384.095
474.035	539.544
478.038	1230.43
482.038	2902.21
486.037	3117.07
490.033	1210.06
494.027	428.572
498.019	378.837
502.009	610.893
505.997	920.039
509.983	871.94
513.967	616.787
517.949	155.624
521.929	24.576
525.906	37.728
529.882	1.482
533.855	12.645
537.827	39.282
541.796	33.791
545.764	19.163
549.729	18.579
553.692	35.916
557.653	250.898
561.612	420.13
565.569	558.294
569.524	904.359
573.477	1072.32
577.428	897.185
581.377	776.945
585.324	1075.6
589.269	1247.16
593.212	700.613
597.152	290.97
601.091	159.229
605.028	198.389
608.962	355.453
612.895	666.72
616.825	947.709
620.754	856.151
624.68	311.128
628.605	56.722
632.527	3.194
636.447	128.461
640.366	269.374
644.282	273.476
648.196	135.538
652.109	13.633
656.019	37.988
659.927	51.811
663.834	23.916
667.738	227.381
671.64	657.248
675.54	1285.03
679.439	1170.63
683.335	588.094
687.229	334.419
691.121	345.954
695.012	479.633
698.9	926.936
702.786	1760.74
706.67	3454.08
710.552	6477.39
714.433	7852.77
718.311	4979.09
722.187	2563.31
726.061	1261.45
729.934	714.503
733.804	477.475
737.672	339.369
741.539	204.187
745.403	155.932
749.265	183.607
753.126	341.215
756.984	534.76
760.84	832.187
764.695	1222.61
768.547	1315.98
772.398	922.328
776.246	568.727
780.093	263.122
783.937	120.283
787.78	36.787
791.621	32.573
795.459	25.584
799.296	47.987
803.131	16.791
806.964	88.932
810.795	265.115
814.623	253.101
818.45	80.258
822.275	34.095
826.098	53.25
829.92	58.521
833.739	2.897
837.556	56.826
841.371	159.754
845.184	298.791
848.996	321.877
852.805	427.017
856.613	382.221
860.418	358.524
864.222	385.935
868.023	361.45
871.823	439.063
875.621	523.756
879.417	600.515
883.211	886.398
887.003	1092.37
890.793	1554.41
894.581	2257.55
898.367	3025.81
902.152	3489.2
905.934	3483.71
909.714	2974.32
913.493	2103.03
917.27	1421.84
921.044	1121.77
924.817	1197.84
928.588	1249.02
932.357	1253.29
936.124	1230.65
939.889	1566.14
943.652	2107.16
947.414	3142.67
951.173	4044.18
954.931	5005.09
958.686	6744.73
962.44	7917.06
966.192	6478.69
969.942	4990.58
973.69	5225.19
977.436	5734.9
981.18	4916.48
984.922	4392.69
988.663	4288.06
992.401	4412.77
996.138	4577.73
999.873	5309.71
1003.61	4982.97
1007.34	3649.32
1011.07	2391.62
1014.79	1536.23
1018.52	1306.78
1022.24	1335.3
1025.96	1253.19
1029.68	904.643
1033.4	656.121
1037.12	533.083
1040.83	554.542
1044.54	613.949
1048.25	699.518
1051.96	758.897
1055.67	739.815
1059.37	596.217
1063.08	476.223
1066.78	398.453
1070.48	510.216
1074.17	674.368
1077.87	992.093
1081.56	943.626
1085.26	676.15
1088.94	462.965
1092.63	408.819
1096.32	425.935
1100	544.485
1103.69	587.954
1107.37	511.493
1111.05	296.835
1114.72	272.284
1118.4	258.798
1122.07	275.323
1125.74	167.472
1129.41	98.598
1133.08	23.392
1136.75	54.921
1140.41	16.726
1144.07	7.793
1147.73	54.063
1151.39	66.2
1155.05	22.949
1158.7	6.687
1162.36	4.667
1166.01	26.729
1169.66	17.733
1173.3	14.777
1176.95	25.523
1180.59	2.816
1184.24	43.503
1187.88	33.281
1191.52	16.381
1195.15	54.902
1198.79	24.726
1202.42	17.654
1206.05	59.72
1209.68	79.906
1213.31	51.387
1216.93	47.151
1220.56	50.235
1224.18	13.893
1227.8	32.242
1231.42	21.041
1235.04	4.783
1238.65	67.341
1242.26	88.881
1245.88	112.073
1249.48	43.174
1253.09	70.27
1256.7	37.17
1260.3	43.009
1263.9	58.637
1267.51	68.097
1271.11	77.301
1274.7	107.491
1278.3	121.443
1281.89	97.146
1285.48	39.746
1289.07	5.084
1292.66	37.939
1296.25	37.91
1299.83	56.749
1303.41	70.503
1306.99	87.897
1310.57	89.057
1314.15	40.703
1317.73	37.084
1321.3	14.297
1324.87	24.346
1328.44	42.336
1332.01	63.546
1335.58	54.488
1339.14	56.855
1342.71	106.667
1346.27	66.013
1349.83	47.94
1353.39	42.167
1356.94	20.021
1360.5	67.277
1364.05	35.121
1367.6	62.085
1371.15	63.676
1374.7	85.646
1378.24	86.595
1381.79	21.98
1385.33	70.701
1388.87	87.332
1392.41	37.787
1395.95	51.107
1399.48	35.953
1403.02	91.095
1406.55	47.995
1410.08	104.542
1413.61	93.556
1417.13	131.656
1420.66	119.284
1424.18	58.709
1427.7	36.117
1431.22	37.206
1434.74	38.99
1438.26	44.581
1441.77	51.497
1445.28	89.969
1448.79	108.95
1452.3	134.458
1455.81	84.195
1459.32	99.859
1462.82	73.443
1466.32	64.852
1469.82	54.698
1473.32	0.302
1476.82	56.03
1480.32	77.921
1483.81	31.012
1487.3	15.624
1490.79	130.211
1494.28	66.005
1497.77	76.585
1501.25	72.544
1504.74	34.812
1508.22	6.2
1511.7	0.287
