Measurement: Raman, 514 nm, ccw, Raman Data Processed
Mineral: Axinite-(Fe)
Rruff sample: R060558
Ideal chemistry: Ca_4_Fe^2+^_2_Al_4_[B_2_Si_8_O_30_](OH)_2_
Locality: unknown
Source: Gemological Institute of America
Description: Brown flattened crystal
Measured chemistry: Ca_2.00_(Fe^2+^_0.60_Mg_0.35_Mn_0.05_)_Î£=1_Al_2.00_BSi_4.00_O_15_(OH) ; B not measured
Pin_id: M00962
Orientation: Laser parallel to a* (1 0 0). Fiducial mark perpendicular to laser is parallel to b [0 1 0]
Raman shift (cm-1)	intensity
102.749	0
107.729	1222.04
112.706	991.133
117.68	906.68
122.651	444.518
127.619	22.2097
132.584	48.6807
137.545	811.364
142.503	994.319
147.459	1299.97
152.411	1641.78
157.36	1084.39
162.305	734.368
167.248	1224.22
172.188	1708.46
177.124	937.684
182.058	70.4258
186.988	80.1477
191.915	68.6646
196.839	206.67
201.76	1178.6
206.678	2871.3
211.593	4052.77
216.504	4148.02
221.413	2452.73
226.319	782.621
231.221	164.395
236.121	202.23
241.017	315.273
245.91	513.08
250.8	1675.78
255.688	2513.98
260.572	2995.41
265.453	3732.29
270.331	4760.04
275.206	4161.17
280.078	2677.99
284.947	1911.75
289.813	1587.89
294.676	1385.47
299.536	1241.93
304.393	1247.03
309.247	1793.73
314.098	3439.99
318.946	5410.79
323.791	4073.06
328.633	2566.79
333.472	2652.51
338.307	4184.8
343.14	6820.8
347.97	5003.19
352.797	2092.96
357.622	596.108
362.443	32.6074
367.261	166.568
372.076	54.4268
376.888	230.761
381.697	929.825
386.504	2207.26
391.307	2489.58
396.107	1388.7
400.905	1081.93
405.7	943.114
410.491	1259.09
415.28	2777.27
420.066	4986.69
424.848	7208.4
429.628	6341.31
434.405	3189.4
439.18	2143.68
443.951	2990.18
448.719	1757.85
453.485	543.713
458.247	187.965
463.007	275.137
467.763	488.448
472.517	918.889
477.268	1741.75
482.016	3786.17
486.762	4409.73
491.504	1917.36
496.244	584.064
500.98	325.821
505.714	181.691
510.445	78.6802
515.173	109.086
519.898	26.4194
524.621	180.873
529.34	169.215
534.057	22.6645
538.771	0.541504
543.482	4.37109
548.19	99.6108
552.896	154.826
557.598	690.515
562.298	1291.18
566.995	1360.76
571.689	1912.23
576.38	1849.59
581.069	1090.82
585.755	823.915
590.438	735.868
595.118	284.666
599.795	181.299
604.47	334.75
609.142	1018.18
613.811	2046.51
618.477	2925.39
623.14	2243.05
627.801	949.486
632.459	449.688
637.114	624.65
641.767	1040.95
646.416	1113.6
651.063	512.027
655.708	536.326
660.349	460.72
664.988	695.871
669.624	1596.6
674.257	3082.07
678.887	3234.91
683.515	1799.49
688.14	910.289
692.763	980.565
697.382	1435.83
701.999	2856.47
706.613	6366.76
711.225	12100.7
715.834	12685.3
720.44	6471.5
725.043	2762.38
729.644	1343.91
734.242	591.405
738.837	351.707
743.43	134.213
748.02	127.383
752.607	173.218
757.192	381.731
761.774	469.933
766.353	619.516
770.93	307.42
775.504	144.728
780.075	42.7485
784.644	11.7529
789.21	79.0898
793.773	181.473
798.334	138.523
802.892	126.774
807.447	43.603
812	104.426
816.55	206.371
821.098	52.2275
825.643	60.9341
830.185	23.3799
834.725	85.5864
839.262	179.588
843.796	374.477
848.328	711.266
852.857	911.969
857.384	1123.64
861.908	1098.91
866.429	1139.64
870.948	1159.27
875.464	1229.2
879.978	1222.31
884.489	1393.89
888.998	1811.61
893.504	2937.56
898.007	4745.58
902.508	7334.7
907.006	8481.25
911.502	6544.95
915.995	3721.49
920.485	2119.1
924.973	1543.22
929.459	1267.5
933.942	1403.61
938.422	1520.25
942.9	2060.45
947.375	3357.32
951.848	5245.44
956.318	7580.8
960.786	11270.3
965.251	13272.5
969.714	10507
974.174	9594.92
978.631	11124.2
983.086	9933.86
987.539	8330.89
991.989	7743.36
996.437	7058.17
1000.88	6933.01
1005.32	5516.97
1009.76	3584
1014.2	1982.23
1018.64	1242.58
1023.07	951.276
1027.5	856.654
1031.93	710.81
1036.35	582.157
1040.78	537.832
1045.19	593.223
1049.61	788.948
1054.03	818.823
1058.44	1083.58
1062.85	1335.24
1067.26	777.824
1071.66	566.181
1076.07	642.714
1080.47	899.305
1084.87	1159.85
1089.26	682.632
1093.65	383.48
1098.05	119.873
1102.43	281.067
1106.82	347.075
1111.2	344.794
1115.59	145.724
1119.96	134.587
1124.34	61.8257
1128.71	104.805
1133.09	5.35938
1137.45	57.8442
1141.82	2.7583
1146.18	45.4121
1150.55	6.01416
1154.91	26.6528
1159.26	85.4253
1163.62	120.795
1167.97	122.474
1172.32	0.412598
1176.67	25.3467
1181.01	27.9136
1185.36	2.021
1189.69	27.8525
1194.03	40.9966
1198.37	69.2837
1202.7	86.396
1207.03	21.0571
1211.36	113.373
1215.69	28.4487
1220.01	43.2964
1224.33	96.7388
1228.65	8.80713
1232.97	147.408
1237.28	6.73193
1241.6	180.78
1245.9	36.6909
1250.21	200.078
1254.52	117.074
1258.82	138.441
1263.12	77.1323
1267.42	152.961
1271.71	178.583
1276.01	117.954
1280.3	180.799
1284.59	127.478
1288.87	166.755
1293.16	250.475
1297.44	162.382
1301.72	124.752
1306	127.414
1310.27	123.507
1314.55	161.131
1318.82	62.4746
1323.08	54.7808
1327.35	154.401
1331.61	201.199
1335.87	162.891
1340.13	214.685
1344.39	181.502
1348.64	127.057
1352.9	55.0933
1357.15	72.3789
1361.39	187.095
1365.64	255.73
1369.88	162.846
1374.12	123.777
1378.36	102.835
1382.6	162.062
1386.83	8.73779
1391.07	23.3604
1395.29	85.4038
1399.52	99.7261
1403.75	48.7109
1407.97	195.734
1412.19	175.784
1416.41	101.858
1420.62	124.238
1424.84	67.9341
1429.05	125.694
1433.26	317.478
1437.47	153.378
1441.67	203.178
1445.88	169.01
1450.08	206.34
1454.28	196.902
1458.47	70.0977
1462.67	115.66
1466.86	127.298
1471.05	42.7505
1475.24	1.90137
1479.42	12.1543
1483.61	4.27246
1487.79	71.6934
1491.96	66.0644
1496.14	121.862
1500.32	3.25781
1504.49	61.7119
1508.66	0.758789
1512.83	47.8457
1516.99	87.959
1521.16	38.5791
1525.32	35.2412
1529.48	120.357
1533.63	41.127
1537.79	22.0713
1541.94	156.986
1546.09	138.06
1550.24	22.4717
1554.39	7.85254
1558.53	60.9941
1562.67	0.029297
