Measurement: Raman, 514 nm, ccw, Raman Data Processed
Mineral: Axinite-(Fe)
Rruff sample: R060194
Ideal chemistry: Ca_4_Fe^2+^_2_Al_4_[B_2_Si_8_O_30_](OH)_2_
Locality: near Dalbandi, Baluchistan Province, Pakistan
Source: Herbert Obodda
Description: Brown transparent wedge-shaped single crystal
Measured chemistry: Ca_2.00_(Fe^2+^_0.66_Mg_0.30_Mn_0.04_)Al_2.00_BSi_4.00_O_15_(OH)
Pin_id: L00975
Orientation: Laser parallel to a* (1 0 0). Fiducial mark perpendicular to laser is parallel to b [0 1 0]
Raman shift (cm-1)	intensity
53.91	0
58.864	140.227
63.817	173.156
68.767	122.65
73.714	52.5554
78.659	0.228638
83.602	115.001
88.542	912.909
93.48	3017.57
98.416	4495.98
103.349	4777.44
108.28	6058.39
113.208	8404
118.134	7578.67
123.058	7406.1
127.979	5767.35
132.898	3278.23
137.814	3164.94
142.728	4493.04
147.639	4215.21
152.549	9029.62
157.455	8388.96
162.359	4346.46
167.261	4124.1
172.161	10856.8
177.058	8800.51
181.952	3272.09
186.845	479.443
191.734	104.441
196.622	1412.94
201.507	2098.27
206.389	6781.47
211.269	11987.9
216.147	14932.8
221.022	14717.9
225.895	6077.57
230.765	1452.58
235.633	407.092
240.498	1772.08
245.361	2349.63
250.222	3130.33
255.08	8676.93
259.936	9819.83
264.789	10437.2
269.64	13395.4
274.488	14115.5
279.334	10393.2
284.178	6305.58
289.019	5286.56
293.857	4685.06
298.693	4461.01
303.527	3712.32
308.358	4820.91
313.187	6234.68
318.013	15574.5
322.837	19062.4
327.659	10407.2
332.478	8404.81
337.294	10755.6
342.108	20008.6
346.92	24917.1
351.729	12890.8
356.535	5153.8
361.34	748.14
366.141	567.34
370.94	291.649
375.737	901.617
380.531	1195.17
385.323	4954.52
390.113	11264.9
394.9	9772.5
399.684	5647.76
404.466	4277.27
409.245	3224.05
414.022	5352.78
418.797	14272.4
423.569	22475.8
428.338	27747.9
433.105	18230.7
437.87	7262.04
442.632	6108.9
447.391	8585.18
452.149	2970.83
456.903	1621.75
461.655	1343.89
466.405	1395.18
471.152	3108.53
475.897	4160.89
480.639	8583.2
485.378	19201.4
490.116	11382.4
494.85	3075.11
499.582	1549.5
504.312	831.489
509.039	284.733
513.764	62.9624
518.486	109.626
523.206	283.693
527.923	576.668
532.638	411.464
537.35	126.385
542.059	135.745
546.766	419.052
551.471	412.544
556.173	1005.12
560.873	4239.57
565.57	5213.77
570.264	5311.66
574.957	7561.18
579.646	5349.29
584.333	3074.93
589.018	3083.07
593.7	1904.65
598.379	622.429
603.056	763.958
607.73	2227.61
612.402	5586.53
617.072	10132.7
621.739	12464.1
626.403	6174.6
631.065	1805.28
635.724	1340.07
640.381	2656.93
645.035	4137.1
649.687	3042
654.336	1536.69
658.983	1271.13
663.627	1795.16
668.268	3530.46
672.907	8259.33
677.544	15286.8
682.178	11086.5
686.809	5336.15
691.438	3773.72
696.065	4221.97
700.688	7045.1
705.31	14479
709.929	32763.9
714.545	54937.5
719.158	39004.1
723.77	16417.5
728.378	7159.8
732.984	3560.02
737.588	1925.16
742.189	1083.23
746.787	783.269
751.383	702.289
755.976	1122.32
760.567	1742.39
765.155	2142.53
769.741	2028.77
774.324	1217.14
778.904	418.686
783.482	32.3027
788.058	216.869
792.631	334.326
797.201	488.116
801.769	431.898
806.334	202.822
810.897	303.147
815.457	893.411
820.014	472.352
824.569	56.6216
829.122	30.602
833.671	107.568
838.219	339.126
842.763	804.618
847.306	1643.95
851.845	2814.18
856.382	3551.34
860.917	3751.49
865.448	4247.68
869.978	4409.95
874.505	4291.38
879.029	4484.06
883.55	4619.09
888.069	5237.62
892.586	7383.79
897.1	12045.5
901.611	19519
906.12	29895.3
910.626	29765.3
915.129	19220.3
919.63	10321.1
924.129	6113.16
928.625	4908.85
933.118	4822.52
937.609	4916.98
942.097	6137.43
946.582	9125
951.065	15141
955.546	22642.4
960.023	33399.2
964.499	50812.5
968.971	48798
973.441	34729.8
977.909	36369
982.374	40102.6
986.836	32633.5
991.295	30052.8
995.753	27782.4
1000.21	25925.5
1004.66	23544.2
1009.11	16988.7
1013.55	10140.5
1018	6267.44
1022.44	4131.64
1026.88	3434.78
1031.32	3319.25
1035.75	2751.65
1040.18	2446.08
1044.61	2842.64
1049.04	3380.1
1053.46	4436.29
1057.88	5726.66
1062.3	6024.33
1066.71	4593.4
1071.13	2858.55
1075.54	2324.06
1079.94	3312.94
1084.35	5272.08
1088.75	4187.39
1093.15	2089.83
1097.55	1187.04
1101.94	922.632
1106.34	1377.47
1110.73	1327.5
1115.11	836.621
1119.5	520.43
1123.88	279.582
1128.26	178.93
1132.63	27.0557
1137.01	79.4351
1141.38	42.0381
1145.75	68.356
1150.12	114.411
1154.48	159.914
1158.84	128.935
1163.2	54.2483
1167.55	146.201
1171.91	76.8948
1176.26	112.763
1180.61	43.207
1184.95	88.5952
1189.29	14.3591
1193.63	5.86206
1197.97	41.956
1202.31	45.5413
1206.64	97.0193
1210.97	19.9548
1215.29	31.6755
1219.62	158.664
1223.94	150.039
1228.26	105.99
1232.57	92.9434
1236.89	164.48
1241.2	177.953
1245.51	185.41
1249.81	217.983
1254.12	215.538
1258.42	328.906
1262.72	351.232
1267.01	327.713
1271.3	349.369
1275.59	413.31
1279.88	337.68
1284.17	360.308
1288.45	310.322
1292.73	325.571
1297.01	190.685
1301.28	295.488
1305.55	152.957
1309.82	194.114
1314.09	145.841
1318.35	157.618
1322.61	245.614
1326.87	245.148
1331.13	185.606
1335.38	326.341
1339.63	171.541
1343.88	219.791
1348.12	147.721
1352.37	303.139
1356.61	255.891
1360.85	291.475
1365.08	268.448
1369.31	244.368
1373.54	306.315
1377.77	268.275
1381.99	188.237
1386.22	228.912
1390.43	274.432
1394.65	157.68
1398.87	163.114
1403.08	186.833
1407.29	245.376
1411.49	150.993
1415.69	123.886
1419.89	117.56
1424.09	238.79
1428.29	135.984
1432.48	164.233
1436.67	201.905
1440.86	145.511
1445.04	116.824
1449.23	107.993
1453.4	80.262
1457.58	103.675
1461.76	94.7178
1465.93	98.292
1470.1	31.8718
1474.26	66.6633
1478.43	62.8828
1482.59	40.3669
1486.75	70.1365
1490.9	9.7478
1495.06	42.6189
1499.21	16.4231
1503.35	98.085
1507.5	41.419
1511.64	85.5698
1515.78	26.3967
1519.92	107.714
1524.05	84.6631
1528.18	36.106
1532.31	122.543
1536.44	152.71
1540.56	150.42
1544.69	68.5413
1548.8	80.8833
1552.92	116.343
1557.03	295.519
1561.14	76.8897
1565.25	76.6682
1569.36	5.92969
