Measurement: Raman, 514 nm, ccw, Raman Data Processed
Mineral: Axinite-(Fe)
Rruff sample: R060183
Ideal chemistry: Ca_4_Fe^2+^_2_Al_4_[B_2_Si_8_O_30_](OH)_2_
Locality: Skagit Bluffs, near Manning Park, British Columbia, Canada
Source: Lloyd Twaites
Description: Light-pink transparent axe-head-shaped single crystal
Measured chemistry: Ca_2.00_(Fe^2+^_0.58_Mn_0.23_Mg_0.19_)Al_2.00_B_1.00_Si_4.00_O_15_(OH)
Pin_id: L00798
Orientation: Laser parallel to -b* (0 -1 0). Fiducial mark perpendicular to laser is parallel to -c [0 0 -1]
Raman shift (cm-1)	intensity
52.671	0
57.626	178.482
62.579	315.833
67.529	0.111267
72.477	89.4966
77.423	206.556
82.367	583.89
87.308	1877.31
92.246	4754.15
97.182	7161.18
102.116	8018.95
107.047	10113.8
111.976	6222.28
116.903	4343.65
121.827	3885.24
126.749	3817.64
131.668	2890.25
136.585	3063.92
141.5	3930.64
146.412	5876.09
151.321	8279.13
156.229	9330.24
161.134	8056.54
166.036	12329
170.936	16856.8
175.834	8519.58
180.729	3129.48
185.622	1715.49
190.512	2743.25
195.4	3927.89
200.286	6825.97
205.169	12634
210.049	14597.9
214.928	10007.1
219.803	4905.94
224.677	1680.84
229.548	452.741
234.416	731.967
239.282	2488.64
244.146	5208.56
249.007	5917.28
253.866	5038.25
258.722	4060.15
263.576	5023.75
268.427	7997.94
273.276	9476.55
278.123	6541.47
282.967	4118.67
287.809	5020.11
292.648	9351.64
297.485	15198.2
302.319	19841.7
307.151	18568.2
311.98	10694.4
316.807	8322.52
321.631	5451.53
326.454	2544.71
331.273	1733.38
336.09	2696.42
340.905	6910.75
345.717	11277.4
350.527	14588.9
355.334	7709.1
360.139	1628.68
364.941	412.699
369.741	497.318
374.538	312.568
379.333	1277.19
384.126	6544.77
388.916	12360.1
393.703	11334.6
398.488	5793.32
403.271	2680.98
408.051	2340.54
412.828	5203.96
417.603	8801.2
422.376	11129.2
427.146	14911.9
431.914	11112.3
436.679	5359.32
441.442	5101.84
446.202	3632.84
450.96	1023.26
455.715	373.03
460.467	222.119
465.218	175.544
469.965	971.936
474.711	851.46
479.454	2888.06
484.194	5347.69
488.932	1573.67
493.667	146.713
498.4	401.838
503.13	1762.41
507.858	3153.9
512.583	3090.17
517.306	1251.46
522.026	70.9648
526.744	423.029
531.459	196.222
536.172	788.775
540.882	2592.99
545.59	3687.8
550.295	2906.86
554.998	3457.56
559.698	5241.44
564.396	4433.14
569.091	5063.01
573.784	6020.82
578.474	6591.55
583.162	9350.13
587.847	12290.5
592.529	7878.73
597.209	3734.65
601.887	2921.92
606.562	3863.07
611.235	4489.07
615.905	3905.73
620.572	2794
625.237	1066.86
629.9	73.2251
634.56	10.0161
639.217	387.742
643.872	694.436
648.524	91.6763
653.174	96.6831
657.821	96.2261
662.466	978.624
667.108	3423.64
671.748	8402.54
676.385	12792.8
681.02	8736.47
685.652	4477.97
690.281	3328.44
694.908	4520.3
699.533	8475.71
704.155	18665
708.774	37742.4
713.391	51739.9
718.005	35238.6
722.617	16319.4
727.226	7726.53
731.833	4365.85
736.437	2826.4
741.039	1910.44
745.638	1634.43
750.234	1736.79
754.828	2339.42
759.419	4129.35
764.008	5967.58
768.595	6351.52
773.178	4141.75
777.759	2018.31
782.338	1104.86
786.914	468.85
791.488	131.442
796.059	30.2192
800.627	31.2266
805.193	94.0894
809.756	401.74
814.317	317.731
818.875	36.6587
823.431	241.385
827.984	279.83
832.534	222.347
837.082	143.154
841.627	62.644
846.17	303.148
850.71	571.544
855.248	849.867
859.783	1117.15
864.316	1374.43
868.846	1547.73
873.373	1509.1
877.898	1640.58
882.42	2093.35
886.94	3017.35
891.457	4831.56
895.971	8127.15
900.483	11400.3
904.993	11582.1
909.5	8230.15
914.004	4984.44
918.505	3079.29
923.004	2653.69
927.501	2679.34
931.995	2626.6
936.486	2345.3
940.975	2710.54
945.461	3700.19
949.945	5638.4
954.426	9308.63
958.904	16641.7
963.38	23066.8
967.853	20359.1
972.324	20200.7
976.792	25965.8
981.258	26250.1
985.72	21478.3
990.181	19228.4
994.639	20321.4
999.094	22524.3
1003.55	22329.1
1008	16690.8
1012.44	10035.2
1016.89	5954.04
1021.33	4454.82
1025.77	4188.11
1030.21	3809.16
1034.64	3572.38
1039.07	3865.9
1043.5	4110.81
1047.93	5105.09
1052.35	7024.08
1056.78	7965.62
1061.19	6248.96
1065.61	4012.9
1070.02	2895.74
1074.43	3450
1078.84	5856.66
1083.25	7579.16
1087.65	5242.29
1092.05	3044.53
1096.45	2326.8
1100.85	2127.46
1105.24	2107.09
1109.63	1751.12
1114.02	1133.82
1118.4	662.608
1122.78	558.865
1127.16	445.419
1131.54	145.853
1135.92	13.8438
1140.29	13.0322
1144.66	66.3423
1149.02	6.38672
1153.39	31.8877
1157.75	73.4551
1162.11	100.713
1166.46	102.384
1170.82	53.792
1175.17	184.944
1179.52	49.2685
1183.86	32.5137
1188.21	6.19287
1192.55	61.1553
1196.89	30.4795
1201.22	95.8359
1205.55	32.1323
1209.88	28.209
1214.21	55.3852
1218.54	145.076
1222.86	16.0908
1227.18	4.49658
1231.5	97.0508
1235.81	71.9438
1240.12	195.089
1244.43	147.58
1248.74	77.124
1253.04	115.172
1257.34	161.536
1261.64	157.208
1265.94	198.98
1270.23	169.743
1274.52	200.163
1278.81	257.264
1283.1	158.889
1287.38	127.168
1291.66	163.667
1295.94	207.982
1300.21	169.206
1304.48	56.7432
1308.75	13.6182
1313.02	59.4263
1317.29	45.8794
1321.55	172.885
1325.81	76.2793
1330.06	249.869
1334.32	176.804
1338.57	154.619
1342.82	162.311
1347.06	255.348
1351.31	244.119
1355.55	179.206
1359.79	181.352
1364.02	296.916
1368.26	273.483
1372.49	304.189
1376.71	200.94
1380.94	237.238
1385.16	217.631
1389.38	225.031
1393.6	212.227
1397.81	193.393
1402.02	181.089
1406.23	77.1294
1410.44	198.88
1414.64	234.772
1418.85	299.413
1423.04	203.597
1427.24	223.154
1431.43	286.212
1435.62	121.523
1439.81	249.674
1444	196.604
1448.18	64.8867
1452.36	140.155
1456.54	119.816
1460.71	101.548
1464.89	111.626
1469.06	122.717
1473.22	117.374
1477.39	60.7642
1481.55	61.4028
1485.71	112.043
1489.86	169.441
1494.02	160.718
1498.17	178.22
1502.32	190.032
1506.46	257.466
1510.61	28.2329
1514.75	158.831
1518.88	290.917
1523.02	105.918
1527.15	349.606
1531.28	376.644
1535.41	162.412
1539.53	171.632
1543.66	170.668
1547.78	52.751
1551.89	127.291
1556.01	195.965
1560.12	87.6616
1564.23	17.2383
1568.33	37.5117
