Measurement: Raman, 514 nm, ccw, Raman Data Processed
Mineral: Axinite-(Fe)
Rruff sample: R050061
Ideal chemistry: Ca_4_Fe^2+^_2_Al_4_[B_2_Si_8_O_30_](OH)_2_
Locality: Jamestown, California, USA
Source: Rock Currier
Description: Brown colored axe-head-shaped single crystals
Measured chemistry: Ca_2.00_(Fe^2+^_0.73_Mg_0.20_Mn_0.07_)Al_2.00_BSi_4_O_15_(OH)
Pin_id: L00318
Orientation: Laser parallel to (0 1 1). Fiducial mark perpendicular to laser is parallel to a [1 0 0]
Raman shift (cm-1)	intensity
96.67	0
100.871	10.952
105.07	787.926
109.267	3262.96
113.461	3152.45
117.653	2129.47
121.843	2085.04
126.031	1708.35
130.217	1522
134.4	2485.66
138.581	3886.42
142.76	3122.91
146.937	2056.76
151.112	2126.43
155.284	2443.17
159.454	1468.65
163.622	859.144
167.787	2269.77
171.951	2985.62
176.112	1860.34
180.271	514.128
184.428	319.405
188.583	124.911
192.735	740.377
196.885	393.105
201.033	599.97
205.179	2309.57
209.323	4370.55
213.464	5141.88
217.603	4769.47
221.741	2956.4
225.875	899.627
230.008	10.25
234.139	176.851
238.267	101.358
242.393	73.484
246.517	514.521
250.639	2367.4
254.759	4845.27
258.876	5263.34
262.991	6065.06
267.104	8015.56
271.215	9378.47
275.324	9551.99
279.431	7365.35
283.535	5188.28
287.638	4850.24
291.738	5191.05
295.836	5441.02
299.932	4488.21
304.025	3878.67
308.117	3266.09
312.206	2527.21
316.293	3655.39
320.378	4472.66
324.461	3556.04
328.542	3310.48
332.621	3581.44
336.697	4426.48
340.772	6827.85
344.844	7736.94
348.914	6187.7
352.982	4736.68
357.048	2307.29
361.111	716.482
365.173	153.818
369.232	40.983
373.29	117.133
377.345	416.972
381.398	1413.94
385.449	3472.3
389.497	4762.21
393.544	3646.09
397.589	2152.75
401.631	1461.46
405.672	1545.68
409.71	2069.32
413.746	4095.8
417.78	7512.32
421.812	11414.9
425.842	12177.5
429.869	8290.07
433.895	4714.5
437.918	4284.79
441.94	8496.93
445.959	10418.9
449.976	5370.8
453.991	2052.53
458.004	1023.15
462.015	438.66
466.024	237.071
470.031	617.562
474.035	1310.29
478.038	3188.22
482.038	6494.44
486.037	6616.98
490.033	3054.87
494.027	880.953
498.019	202.045
502.009	19.913
505.997	12.889
509.983	489.934
513.967	914.024
517.949	555.494
521.929	70.996
525.906	117.562
529.882	12.894
533.855	180.652
537.827	198.255
541.796	148.248
545.764	228.416
549.729	214.616
553.692	59.878
557.653	688.713
561.612	1598.74
565.569	1555.97
569.524	1877.15
573.477	2568.22
577.428	2346.2
581.377	2042.08
585.324	2629.84
589.269	3123.5
593.212	2160.05
597.152	909.491
601.091	476.82
605.028	622.344
608.962	1235.14
612.895	2054.14
616.825	2394.03
620.754	1995.8
624.68	1140.16
628.605	642.425
632.527	636.524
636.447	1271.68
640.366	2236.96
644.282	2963.67
648.196	2305.63
652.109	1244.4
656.019	736.767
659.927	668.399
663.834	1023.78
667.738	1814.06
671.64	3594.8
675.54	6600.38
679.439	6539.47
683.335	3946.03
687.229	2321.52
691.121	1908.09
695.012	2098.23
698.9	3188.95
702.786	5670.95
706.67	10954.5
710.552	21265.3
714.433	26740.5
718.311	18215.6
722.187	9470.58
726.061	4870.35
729.934	2720.96
733.804	1620.41
737.672	1022.71
741.539	677.845
745.403	418.827
749.265	324.657
753.126	299.337
756.984	340.87
760.84	365.256
764.695	377.293
768.547	388.606
772.398	263.573
776.246	137.407
780.093	72.939
783.937	61.841
787.78	97.358
791.621	101.509
795.459	113.425
799.296	130.198
803.131	15.79
806.964	129.25
810.795	224.183
814.623	185.064
818.45	8.981
822.275	71.246
826.098	39.83
829.92	27.715
833.739	87.217
837.556	120.117
841.371	328.178
845.184	736.267
848.996	1166.32
852.805	1605.42
856.613	1666.91
860.418	1689.9
864.222	1839.34
868.023	2015.92
871.823	2160.6
875.621	2299.34
879.417	2658.1
883.211	3201.88
887.003	3900.68
890.793	5579.49
894.581	8058.35
898.367	11097.3
902.152	14346.2
905.934	15105.3
909.714	11984.3
913.493	8083.43
917.27	5329.61
921.044	3524.87
924.817	3065.25
928.588	2993.73
932.357	2922.9
936.124	2766.68
939.889	2970.98
943.652	3514.56
947.414	4631.81
951.173	5955.31
954.931	8079.83
958.686	11929.7
962.44	16800.5
966.192	16981.4
969.942	15181.9
973.69	17485.8
977.436	22907.1
981.18	21764.4
984.922	17675.9
988.663	15307.1
992.401	14859.3
996.138	15241.9
999.873	15174.7
1003.61	12427.9
1007.34	8954.83
1011.07	5898.77
1014.79	3894.36
1018.52	2790.57
1022.24	2283.15
1025.96	2124.32
1029.68	1968.05
1033.4	1563.52
1037.12	1443.91
1040.83	1422.76
1044.54	1315.24
1048.25	1271.08
1051.96	1381.37
1055.67	1452.26
1059.37	1313.8
1063.08	1041.98
1066.78	704.036
1070.48	628.963
1074.17	627.136
1077.87	808.179
1081.56	1078.87
1085.26	990.503
1088.94	655.225
1092.63	473.937
1096.32	385.156
1100	456.969
1103.69	456.643
1107.37	394.653
1111.05	303.907
1114.72	238.344
1118.4	144.2
1122.07	110.98
1125.74	52.177
1129.41	77.148
1133.08	32.628
1136.75	97.852
1140.41	85.059
1144.07	41.317
1147.73	20.77
1151.39	64.986
1155.05	2.573
1158.7	31.243
1162.36	15.144
1166.01	55.439
1169.66	13.828
1173.3	11.772
1176.95	2.251
1180.59	56.194
1184.24	2.412
1187.88	47.117
1191.52	7.872
1195.15	43.825
1198.79	21.879
1202.42	10.985
1206.05	62.563
1209.68	9.986
1213.31	20.038
1216.93	20.711
1220.56	30.902
1224.18	60.552
1227.8	57.583
1231.42	11.307
1235.04	20.889
1238.65	47.311
1242.26	44.649
1245.88	49.95
1249.48	71.927
1253.09	96.198
1256.7	90.84
1260.3	73.304
1263.9	110.493
1267.51	91.454
1271.11	40.067
1274.7	66.438
1278.3	64.361
1281.89	159.161
1285.48	115.41
1289.07	84.306
1292.66	88.512
1296.25	1.814
1299.83	77.44
1303.41	18.865
1306.99	27.428
1310.57	44.92
1314.15	20.375
1317.73	27.197
1321.3	90.717
1324.87	35.043
1328.44	39.151
1332.01	25.295
1335.58	74.148
1339.14	42.816
1342.71	15.26
1346.27	139.333
1349.83	146.144
1353.39	94.814
1356.94	121.556
1360.5	201.676
1364.05	42.625
1367.6	87.562
1371.15	94.789
1374.7	116.371
1378.24	101.526
1381.79	131.484
1385.33	114.568
1388.87	104.966
1392.41	94.906
1395.95	128.83
1399.48	109.66
1403.02	85.061
1406.55	55.932
1410.08	57.382
1413.61	111.905
1417.13	61.53
1420.66	141.982
1424.18	100.326
1427.7	165.653
1431.22	151.832
1434.74	121.051
1438.26	106.327
1441.77	115.36
1445.28	97.956
1448.79	164.11
1452.3	70.058
1455.81	110.546
1459.32	127.37
1462.82	134.408
1466.32	105.112
1469.82	146.45
1473.32	46.264
1476.82	33.119
1480.32	76.855
1483.81	5.492
1487.3	40.529
1490.79	57.068
1494.28	7.151
1497.77	54.104
1501.25	25.243
1504.74	50.642
1508.22	60.098
1511.7	58.602
