Measurement: Raman, 514 nm, ccw, Raman Data Processed
Mineral: Axinite-(Fe)
Rruff sample: R060183
Ideal chemistry: Ca_4_Fe^2+^_2_Al_4_[B_2_Si_8_O_30_](OH)_2_
Locality: Skagit Bluffs, near Manning Park, British Columbia, Canada
Source: Lloyd Twaites
Description: Light-pink transparent axe-head-shaped single crystal
Measured chemistry: Ca_2.00_(Fe^2+^_0.58_Mn_0.23_Mg_0.19_)Al_2.00_B_1.00_Si_4.00_O_15_(OH)
Pin_id: L00943
Orientation: Laser parallel to c* (0 0 1). Fiducial mark perpendicular to laser is parallel to a [1 0 0]
Raman shift (cm-1)	intensity
52.671	0
57.626	329.415
62.579	387.842
67.529	44.6804
72.477	13.4894
77.423	184.474
82.367	1217.63
87.308	2059.95
92.246	5148.64
97.182	10837.3
102.116	18128.7
107.047	28879.5
111.976	26294.2
116.903	13170.5
121.827	7858.49
126.749	6192.61
131.668	6103.64
136.585	9579.01
141.5	12683.6
146.412	10366.1
151.321	11012
156.229	6268.07
161.134	4638.7
166.036	8009.93
170.936	14221.6
175.834	9066.61
180.729	3463.75
185.622	1559.88
190.512	2463.84
195.4	4309.61
200.286	5850.93
205.169	11333.3
210.049	14041.9
214.928	13798.6
219.803	11186.5
224.677	5218.47
229.548	702.996
234.416	1049.97
239.282	3280.09
244.146	5128.98
249.007	5846.58
253.866	9244.21
258.722	11255.2
263.576	11790.8
268.427	18322.2
273.276	26225.7
278.123	24368.1
282.967	16246.5
287.809	12945.7
292.648	12387.5
297.485	11621.9
302.319	10467.7
307.151	11073.7
311.98	11817.9
316.807	20264.1
321.631	22751.7
326.454	15775.7
331.273	13834.3
336.09	16070.3
340.905	24492.6
345.717	23362
350.527	14246.3
355.334	6288
360.139	641.094
364.941	815.796
369.741	642.398
374.538	341.862
379.333	1564.1
384.126	5377.56
388.916	9668
393.703	7136.66
398.488	3555.02
403.271	2571.79
408.051	3855.22
412.828	10083.2
417.603	19613.9
422.376	19035.5
427.146	17213
431.914	12553.2
436.679	8323.14
441.442	10897.6
446.202	11782.5
450.96	3739.76
455.715	916.257
460.467	172.191
465.218	56.5801
469.965	1328.78
474.711	1909.82
479.454	4907.62
484.194	10698.1
488.932	5963.15
493.667	1518.7
498.4	1189.65
503.13	2174.87
507.858	3574.21
512.583	3583.37
517.306	1492.47
522.026	81.6973
526.744	612.901
531.459	527.746
536.172	71.7764
540.882	119.344
545.59	98.936
550.295	271.28
554.998	1325.15
559.698	3376.03
564.396	4621.29
569.091	7276.77
573.784	9970.41
578.474	7382.16
583.162	4805.97
587.847	4636.77
592.529	3016.53
597.209	993.185
601.887	420.163
606.562	979.465
611.235	2982.71
615.905	5487.06
620.572	6213.19
625.237	3083.08
629.9	1230.68
634.56	1506.98
639.217	3376.95
643.872	4840.81
648.524	3546.62
653.174	1457.7
657.821	598.336
662.466	899.129
667.108	1940.44
671.748	4445.59
676.385	8277.12
681.02	7226.82
685.652	3664.95
690.281	2485.99
694.908	3139.3
699.533	5997.42
704.155	12879.9
708.774	28136.1
713.391	47310
718.005	42815.5
722.617	21638.9
727.226	9666.93
731.833	4930.78
736.437	2735.43
741.039	1735.06
745.638	1264.74
750.234	1168.11
754.828	1564.64
759.419	2265.05
764.008	2980.47
768.595	3110.95
773.178	2043.5
777.759	839.269
782.338	192.192
786.914	125.085
791.488	261.181
796.059	520.145
800.627	524.408
805.193	134.717
809.756	848.528
814.317	1387.86
818.875	723.288
823.431	17.6216
827.984	249.117
832.534	89.4082
837.082	209.085
841.627	1298.38
846.17	1564.58
850.71	2169.77
855.248	2374.98
859.783	2367.27
864.316	2549.69
868.846	2809.3
873.373	3017.13
877.898	3543.35
882.42	4246.12
886.94	5388.32
891.457	8103.08
895.971	12217.5
900.483	15635.7
904.993	15790.7
909.5	13018.7
914.004	9756.74
918.505	7476.99
923.004	6453.26
927.501	6983.47
931.995	7375.87
936.486	7000.61
940.975	7944.67
945.461	11070.1
949.945	16956.4
954.426	22928.2
958.904	30319.1
963.38	38225.6
967.853	35078.2
972.324	30506
976.792	34492.9
981.258	36872.1
985.72	30457.9
990.181	26327
994.639	22379.6
999.094	20129.6
1003.55	18715
1008	15671.8
1012.44	9598.98
1016.89	5509.74
1021.33	3505.9
1025.77	2676.45
1030.21	2013.01
1034.64	1478.12
1039.07	1348.78
1043.5	1564.94
1047.93	1605.72
1052.35	1963.94
1056.78	2366.75
1061.19	2286.36
1065.61	1635.05
1070.02	1368.05
1074.43	1715.47
1078.84	3150.6
1083.25	4593.43
1087.65	3695.03
1092.05	2512.74
1096.45	1768.09
1100.85	2293.78
1105.24	2898.61
1109.63	2592.14
1114.02	1970.78
1118.4	1281.1
1122.78	738.368
1127.16	551.2
1131.54	272.614
1135.92	178.505
1140.29	89.7026
1144.66	60.5029
1149.02	144.126
1153.39	27.9292
1157.75	139.985
1162.11	60.8574
1166.46	75.7695
1170.82	46.6958
1175.17	39.9072
1179.52	120.402
1183.86	48.2075
1188.21	66.6304
1192.55	40.6909
1196.89	41.3843
1201.22	95.7671
1205.55	6.3291
1209.88	9.2793
1214.21	19.4106
1218.54	56.1792
1222.86	129.644
1227.18	93.915
1231.5	160.9
1235.81	78.0727
1240.12	125.346
1244.43	111.877
1248.74	229.984
1253.04	270.097
1257.34	259.185
1261.64	243.566
1265.94	266.978
1270.23	369.243
1274.52	273.486
1278.81	363.356
1283.1	352.313
1287.38	379.143
1291.66	365.175
1295.94	359.798
1300.21	211.602
1304.48	252.751
1308.75	228.344
1313.02	178.618
1317.29	249.073
1321.55	102.669
1325.81	296.915
1330.06	230.779
1334.32	353.477
1338.57	277.077
1342.82	238.065
1347.06	236.965
1351.31	312.432
1355.55	266.76
1359.79	299.142
1364.02	313.516
1368.26	326.072
1372.49	341.679
1376.71	312.39
1380.94	303.001
1385.16	202.098
1389.38	240.833
1393.6	122.877
1397.81	93.3701
1402.02	245.778
1406.23	122.843
1410.44	188.119
1414.64	191.453
1418.85	246.993
1423.04	149.451
1427.24	148.503
1431.43	165.281
1435.62	160.133
1439.81	92.3623
1444	255.121
1448.18	84.9019
1452.36	111.835
1456.54	76.0478
1460.71	187.977
1464.89	62.4653
1469.06	104.802
1473.22	23.5698
1477.39	13.9761
1481.55	48.416
1485.71	139.714
1489.86	137.993
1494.02	274.948
1498.17	132.41
1502.32	183.029
1506.46	169.582
1510.61	304.016
1514.75	208.412
1518.88	265.836
1523.02	128.581
1527.15	140.388
1531.28	176.609
1535.41	172.636
1539.53	112.688
1543.66	192.454
1547.78	151.969
1551.89	13.5093
1556.01	151.237
1560.12	181.402
1564.23	225.458
1568.33	3.39746
