Measurement: Raman, 514 nm, ccw, Raman Data Processed
Mineral: Axinite-(Fe)
Rruff sample: R060558
Ideal chemistry: Ca_4_Fe^2+^_2_Al_4_[B_2_Si_8_O_30_](OH)_2_
Locality: unknown
Source: Gemological Institute of America
Description: Brown flattened crystal
Measured chemistry: Ca_2.00_(Fe^2+^_0.60_Mg_0.35_Mn_0.05_)_Î£=1_Al_2.00_BSi_4.00_O_15_(OH) ; B not measured
Pin_id: M01661
Orientation: Laser parallel to (1 1 0). Fiducial mark perpendicular to laser is parallel to c [0 0 1]
Raman shift (cm-1)	intensity
95.272	0
100.257	398.493
105.239	1814.54
110.218	3652.65
115.194	3239.42
120.166	2222.06
125.136	575.393
130.102	19.0212
135.065	867.389
140.025	2664.49
144.981	1815.97
149.935	1295.73
154.886	668.212
159.833	352.092
164.777	978.647
169.718	1970.86
174.656	1484.94
179.591	181.589
184.523	338.637
189.452	185.42
194.377	308.643
199.3	747.688
204.219	2637.68
209.136	5073.68
214.049	5974.07
218.959	4620.75
223.866	1755.07
228.77	496.863
233.671	391.128
238.569	825.635
243.464	565.672
248.356	1099.92
253.244	3662.53
258.13	4447.77
263.013	5735.68
267.892	8729.4
272.769	10268.1
277.643	8236.6
282.513	5266.13
287.381	4620.14
292.245	4519.83
297.106	3751.67
301.965	2422.43
306.82	2216.03
311.673	4303.45
316.522	8925.8
321.369	8853.51
326.212	5119.71
331.052	4391.11
335.89	5791.21
340.724	9503.56
345.556	9892.99
350.384	3832.94
355.21	1150.4
360.032	261.352
364.852	25.8489
369.669	15.8989
374.482	108.493
379.293	610.611
384.101	1963.99
388.906	3047.48
393.708	1707.96
398.507	1050.84
403.303	1351.63
408.096	1384.45
412.886	2190.76
417.673	4489.26
422.457	7824.96
427.239	8598.86
432.017	5605.98
436.793	3710.4
441.566	5596.16
446.335	6592.26
451.102	2303.66
455.866	494.253
460.627	102.576
465.385	27.9468
470.141	189.281
474.893	394.356
479.643	1390.34
484.389	2748.2
489.133	1453.21
493.874	323.337
498.612	155.572
503.347	97.9187
508.08	350.11
512.809	773.778
517.536	512.588
522.26	64.157
526.981	202.973
531.699	107.426
536.414	83.9143
541.127	2.07935
545.836	7.08691
550.543	78.9102
555.247	430.622
559.948	1217.25
564.647	1447.78
569.342	1433.21
574.035	1704.51
578.725	1105.68
583.412	721.698
588.096	676.558
592.778	389.244
597.457	31.2759
602.133	3.43726
606.806	300.993
611.476	1015.6
616.144	1712.98
620.809	1675.09
625.471	790.905
630.13	482.415
634.787	853.611
639.441	1835.55
644.092	2587.64
648.74	1811.57
653.386	927.404
658.029	529.215
662.669	575.877
667.306	970
671.941	1995.59
676.572	3114.97
681.202	2109.89
685.828	1066.41
690.452	845.915
695.073	1133.21
699.691	2110.72
704.307	4823.8
708.919	10708.5
713.53	16322.7
718.137	10833.5
722.742	4756.88
727.344	2160.85
731.943	1165.41
736.54	674.475
741.134	417.913
745.725	240.123
750.314	164.226
754.9	225.976
759.483	292.384
764.064	373.459
768.642	388.21
773.217	238.649
777.79	132.785
782.36	34.4676
786.927	98.5867
791.492	124.003
796.054	126.05
800.613	70.7352
805.17	17.0341
809.724	151.852
814.275	228.965
818.824	114.931
823.37	18.2114
827.914	10.4428
832.455	106.941
836.993	168.319
841.529	459.598
846.062	823.794
850.593	1310.92
855.121	1484
859.646	1519.03
864.169	1405.74
868.689	1440.06
873.207	1386.12
877.722	1533.58
882.234	1680.34
886.744	1859.18
891.251	2376.24
895.756	3541.43
900.258	4848.77
904.757	6185.32
909.254	5282.13
913.749	3422.08
918.24	2129.2
922.73	1538.08
927.216	1388.45
931.701	1540.33
936.182	1662.89
940.661	2090.59
945.138	3052.97
949.612	4931.49
954.083	7155.36
958.552	10420
963.019	14127.1
967.483	13096
971.944	11407.6
976.403	14145.5
980.859	14398.9
985.313	10152.6
989.764	7700.66
994.213	6591.17
998.659	6500.1
1003.1	5852.45
1007.54	3975.48
1011.98	2325.39
1016.42	1341.25
1020.85	913.146
1025.29	792.337
1029.71	833.492
1034.14	499.186
1038.56	391.866
1042.99	374.726
1047.4	371.496
1051.82	527.517
1056.23	545.816
1060.65	696.588
1065.06	536.848
1069.46	340.115
1073.87	434.282
1078.27	890.098
1082.67	1208.97
1087.07	984.224
1091.46	520.919
1095.85	284.531
1100.24	234.972
1104.63	243.232
1109.01	191.668
1113.39	160.511
1117.78	119.383
1122.15	20.9011
1126.53	40.7413
1130.9	46.1149
1135.27	14.2728
1139.64	13.0928
1144	11.798
1148.37	6.28748
1152.73	25.2434
1157.09	20.4775
1161.44	1.89087
1165.79	57.0143
1170.14	35.2256
1174.49	22.3805
1178.84	8.35229
1183.18	22.5942
1187.53	52.8525
1191.86	3.92456
1196.2	12.3767
1200.54	10.6506
1204.87	35.9567
1209.2	49.8812
1213.53	46.6731
1217.85	5.25806
1222.17	3.65613
1226.49	36.2632
1230.81	42.6703
1235.13	84.7955
1239.44	65.6598
1243.75	86.296
1248.06	65.6559
1252.37	87.7432
1256.67	61.5083
1260.97	60.0986
1265.27	134.001
1269.57	69.9819
1273.86	93.3721
1278.15	86.3796
1282.44	128.03
1286.73	122.179
1291.02	96.6749
1295.3	70.4332
1299.58	72.093
1303.86	55.2299
1308.13	42.2721
1312.41	11.7322
1316.68	84.7942
1320.95	29.8474
1325.22	49.6079
1329.48	92.7501
1333.74	97.2965
1338	100.96
1342.26	91.5238
1346.52	119.614
1350.77	122.105
1355.02	71.6709
1359.27	81.7683
1363.52	86.1608
1367.76	112.245
1372	86.8669
1376.24	92.3744
1380.48	94.2314
1384.72	102.504
1388.95	87.326
1393.18	62.244
1397.41	66.8632
1401.63	75.6407
1405.86	82.3084
1410.08	38.9077
1414.3	62.5198
1418.52	34.9862
1422.73	68.9835
1426.95	47.8972
1431.16	48.4955
1435.37	109.789
1439.57	61.5341
1443.78	8.7124
1447.98	48.4945
1452.18	62.1219
1456.38	16.547
1460.57	49.0715
1464.76	74.8176
1468.95	89.4469
1473.14	9.29675
1477.33	56.4196
1481.51	65.0364
1485.7	33.6749
1489.88	16.3766
1494.05	71.7675
1498.23	8.30933
1502.4	103.946
1506.57	70.6199
1510.74	22.5615
1514.91	111.114
1519.08	18.114
1523.24	8.40576
1527.4	83.9122
1531.56	50.7386
1535.71	73.2482
1539.87	63.6503
1544.02	17.4638
1548.17	55.8794
1552.32	98.2741
1556.46	110.658
1560.61	27.2339
