Measurement: Raman, 514 nm, ccw, Raman Data Processed
Mineral: Axinite-(Fe)
Rruff sample: R050026
Ideal chemistry: Ca_4_Fe^2+^_2_Al_4_[B_2_Si_8_O_30_](OH)_2_
Locality: Pouyva mine, Polar Urals, Western Siberian Region, Russia
Source: Rock Currier
Description: Brown transparent flat crystal
Measured chemistry: Ca_2.00_(Fe^2+^_0.61_Mn_0.26_Mg_0.13_)Al_2.00_BSi_4_O_15_(OH)
Pin_id: L00535
Orientation: Laser parallel to -c* (0 0 -1). Fiducial mark perpendicular to laser is parallel to a [1 0 0]
Raman shift (cm-1)	intensity
88.26	0
92.466	82.785
96.67	447.79
100.871	988.632
105.07	1716.26
109.267	4611.68
113.461	8153.32
117.653	761.851
121.843	107.276
126.031	17.972
130.217	0.585
134.4	50.923
138.581	398.728
142.76	668.631
146.937	1783.2
151.112	2326.8
155.284	1137.65
159.454	466.19
163.622	764.567
167.787	2102.88
171.951	2867.73
176.112	1707.14
180.271	629.21
184.428	338.883
188.583	854.067
192.735	2032.77
196.885	1246.11
201.033	1801.81
205.179	3331.81
209.323	3066.06
213.464	2071.45
217.603	1557.99
221.741	742.697
225.875	59.579
230.008	172.901
234.139	135.609
238.267	122.873
242.393	524.323
246.517	629.411
250.639	802.406
254.759	1122.9
258.876	763.176
262.991	754.484
267.104	1258.12
271.215	2068.86
275.324	2438.56
279.431	1701.93
283.535	1267.41
287.638	1047.96
291.738	1037.89
295.836	1344.34
299.932	2103.37
304.025	3914.67
308.117	4238.9
312.206	2417.11
316.293	2161.34
320.378	2137.64
324.461	1488.62
328.542	1164.98
332.621	1084.32
336.697	1815.96
340.772	3403.96
344.844	3468.26
348.914	2855.71
352.982	2485.24
357.048	1067.85
361.111	324.665
365.173	116.653
369.232	228.394
373.29	344.513
377.345	418.945
381.398	841.344
385.449	2236.72
389.497	3856.97
393.544	2932.88
397.589	1506.49
401.631	785.373
405.672	553.324
409.71	954.284
413.746	2712.26
417.78	4524.25
421.812	3013.23
425.842	2351.19
429.869	1819.12
433.895	911.006
437.918	434.856
441.94	578.667
445.959	624.439
449.976	171.167
453.991	39.147
458.004	8.613
462.015	35.737
466.024	254.995
470.031	593.202
474.035	770.051
478.038	1779.98
482.038	4296.84
486.037	4695.99
490.033	1857.35
494.027	742.913
498.019	669.983
502.009	938.718
505.997	1306.85
509.983	1186.31
513.967	693.28
517.949	203.262
521.929	30.745
525.906	68.963
529.882	1.722
533.855	60.118
537.827	23.781
541.796	58.309
545.764	33.691
549.729	8.922
553.692	21.18
557.653	219.793
561.612	394.537
565.569	604.167
569.524	955.682
573.477	1194.08
577.428	994.358
581.377	874.517
585.324	1319.56
589.269	1481.47
593.212	852.265
597.152	473.936
601.091	282.484
605.028	319.908
608.962	604.208
612.895	1036.24
616.825	1396.65
620.754	1384.21
624.68	620.031
628.605	126.728
632.527	1.301
636.447	35.656
640.366	116.406
644.282	146.32
648.196	39.712
652.109	83.893
656.019	66.853
659.927	26.423
663.834	53.566
667.738	307.389
671.64	812.946
675.54	1627.42
679.439	1497.33
683.335	772.253
687.229	475.685
691.121	418.632
695.012	641.672
698.9	1127.38
702.786	2236.47
706.67	4194.38
710.552	8097.56
714.433	9624.04
718.311	6116.43
722.187	3055.72
726.061	1582.92
729.934	950.042
733.804	590.078
737.672	421.037
741.539	298.923
745.403	260.739
749.265	347.49
753.126	445.178
756.984	732.81
760.84	1282.39
764.695	1819.91
768.547	1911.41
772.398	1384.94
776.246	763.51
780.093	438.052
783.937	192.561
787.78	33.901
791.621	47.412
795.459	36.52
799.296	30.529
803.131	28.654
806.964	104.664
810.795	371.542
814.623	366.195
818.45	148.543
822.275	35.742
826.098	95.093
829.92	75.611
833.739	41.248
837.556	95.223
841.371	183.989
845.184	269.933
848.996	364.961
852.805	367.078
856.613	319.296
860.418	247.63
864.222	275.148
868.023	284.792
871.823	358.553
875.621	390.454
879.417	586.539
883.211	825.784
887.003	1124.17
890.793	1633.71
894.581	2359.42
898.367	3086.3
902.152	3725.34
905.934	3723.56
909.714	3200.91
913.493	2343.39
917.27	1616.01
921.044	1245.76
924.817	1300.66
928.588	1369.73
932.357	1427.94
936.124	1538.31
939.889	1942.85
943.652	2755.41
947.414	4053.49
951.173	5257.13
954.931	6560.06
958.686	8799.58
962.44	10419.5
966.192	8229.83
969.942	6030.41
973.69	5872.96
977.436	6176.07
981.18	5258.36
984.922	4537.56
988.663	4618.97
992.401	4616.54
996.138	5269.27
999.873	6369.17
1003.61	6347.28
1007.34	4599.5
1011.07	2933.34
1014.79	1871.51
1018.52	1498.95
1022.24	1522.12
1025.96	1465.98
1029.68	1023.68
1033.4	737.594
1037.12	569.728
1040.83	579.62
1044.54	580.548
1048.25	706.077
1051.96	775.728
1055.67	749.39
1059.37	632.054
1063.08	514.875
1066.78	472.656
1070.48	605.368
1074.17	795.96
1077.87	1103.91
1081.56	1117.01
1085.26	812.641
1088.94	566.604
1092.63	497.732
1096.32	578.009
1100	755.385
1103.69	805.357
1107.37	693.598
1111.05	457.427
1114.72	358.365
1118.4	307.206
1122.07	295.179
1125.74	210.43
1129.41	76.542
1133.08	49.433
1136.75	39.65
1140.41	85.039
1144.07	6.391
1147.73	18.416
1151.39	21.103
1155.05	8.732
1158.7	13.172
1162.36	11.328
1166.01	30.938
1169.66	51.75
1173.3	46.648
1176.95	6.298
1180.59	14.715
1184.24	8.194
1187.88	26.755
1191.52	6.654
1195.15	18.233
1198.79	32.801
1202.42	22.584
1206.05	29.391
1209.68	36.142
1213.31	75.522
1216.93	72.982
1220.56	31.801
1224.18	19.314
1227.8	15.101
1231.42	36.961
1235.04	49.617
1238.65	28.323
1242.26	115.586
1245.88	111.207
1249.48	80.365
1253.09	58.412
1256.7	68.095
1260.3	41.913
1263.9	57.336
1267.51	75.49
1271.11	92.44
1274.7	103.228
1278.3	72.859
1281.89	120.27
1285.48	44.408
1289.07	69.413
1292.66	47.228
1296.25	36.794
1299.83	29.237
1303.41	46.227
1306.99	63.477
1310.57	75.462
1314.15	35.393
1317.73	49.22
1321.3	4.361
1324.87	36.271
1328.44	32.853
1332.01	62.999
1335.58	47.708
1339.14	124.649
1342.71	100.228
1346.27	68.261
1349.83	65.697
1353.39	63.932
1356.94	59.157
1360.5	39.388
1364.05	40.602
1367.6	63.065
1371.15	38.629
1374.7	41.447
1378.24	144.109
1381.79	105.515
1385.33	16.066
1388.87	31.8
1392.41	49.274
1395.95	60.142
1399.48	26.785
1403.02	97.934
1406.55	70.848
1410.08	123.042
1413.61	79.172
1417.13	115.759
1420.66	53.18
1424.18	75.84
1427.7	37.161
1431.22	40.516
1434.74	97.44
1438.26	48.276
1441.77	59.295
1445.28	71.585
1448.79	104.644
1452.3	58.543
1455.81	89.145
1459.32	71.285
1462.82	53.972
1466.32	54.685
1469.82	41.997
1473.32	12.366
1476.82	40.887
1480.32	46.608
1483.81	57.757
1487.3	80.956
1490.79	107.326
1494.28	101.082
1497.77	73.425
1501.25	35.098
1504.74	45.698
1508.22	24.653
1511.7	0.246
