Measurement: Raman, 514 nm, ccw, Raman Data Processed
Mineral: Axinite-(Fe)
Rruff sample: R050026
Ideal chemistry: Ca_4_Fe^2+^_2_Al_4_[B_2_Si_8_O_30_](OH)_2_
Locality: Pouyva mine, Polar Urals, Western Siberian Region, Russia
Source: Rock Currier
Description: Brown transparent flat crystal
Measured chemistry: Ca_2.00_(Fe^2+^_0.61_Mn_0.26_Mg_0.13_)Al_2.00_BSi_4_O_15_(OH)
Pin_id: L00250
Orientation: Laser parallel to -b* (0 -1 0). Fiducial mark perpendicular to laser is parallel to -c [0 0 -1]
Raman shift (cm-1)	intensity
85.706	0
89.89	22.497
94.071	1692.09
98.251	2679.04
102.428	3386.73
106.604	1938.48
110.777	2690.79
114.949	5119.92
119.119	776.625
123.286	729.418
127.452	1212.21
131.615	1549.79
135.777	605.512
139.937	883.322
144.094	1109.83
148.25	1627.16
152.403	3681.69
156.555	7112.85
160.705	6839.07
164.853	4416.43
168.998	7685.06
173.142	11536.8
177.284	7852.26
181.424	3316.88
185.562	789.027
189.698	387.968
193.831	598.536
197.963	157.342
202.093	1113.81
206.221	4615.05
210.347	9090.38
214.472	9676.53
218.594	6603.7
222.714	3907.3
226.832	1563.17
230.948	371.153
235.063	76.402
239.175	557.406
243.286	2249.86
247.394	3856.33
251.501	4267.65
255.605	4150.89
259.708	3045.49
263.808	2522.25
267.907	3283.2
272.004	4530.77
276.099	5012.93
280.192	3787.96
284.283	2653.22
288.372	2383.51
292.459	4049.26
296.544	7461.83
300.627	11263.5
304.709	15797.9
308.788	17392.6
312.865	10178.6
316.941	5245.86
321.015	3801.68
325.086	2216.66
329.156	1070.44
333.224	620.669
337.29	738.189
341.354	2300.21
345.416	5758.15
349.476	10627.4
353.534	15292.7
357.591	9760.41
361.645	3558.76
365.698	1081.21
369.748	296.891
373.797	214.192
377.844	639.7
381.889	1466.27
385.932	4303.02
389.973	8346.16
394.012	10267.5
398.049	8202.43
402.084	4607.53
406.118	2377.11
410.15	1409.02
414.179	2299.25
418.207	4827.49
422.233	6802.68
426.257	8427.78
430.279	8052.82
434.299	5417.8
438.318	3019.74
442.334	4187.66
446.349	6182.6
450.361	3434.58
454.372	1173.62
458.381	610.751
462.388	177.973
466.394	440.342
470.397	1480
474.398	1565.96
478.398	1639.3
482.396	3920.67
486.391	6057.59
490.385	3501.1
494.377	289.276
498.368	247.296
502.356	1.354
506.342	609.286
510.327	1475.69
514.31	2275.45
518.291	1579.81
522.27	559.556
526.247	49.735
530.222	242.14
534.196	242.346
538.167	72.833
542.137	451.014
546.105	1164.35
550.071	1342.84
554.035	1278.49
557.998	2020.45
561.958	2973.76
565.917	2962.2
569.874	3532.76
573.829	4853.44
577.782	4959.22
581.733	5425.1
585.683	8361.08
589.63	11137.2
593.576	8663.36
597.52	4659.64
601.462	3000.01
605.402	3403.48
609.341	4539.03
613.277	4645.68
617.212	3745.4
621.145	2718.2
625.076	1397.08
629.006	440.027
632.933	90.962
636.859	55.202
640.783	238.159
644.705	500.46
648.625	359.376
652.543	54.081
656.46	125.142
660.375	134.144
664.288	835.995
668.199	2336.02
672.108	5176.17
676.016	10388.1
679.921	12562.8
683.825	8439.89
687.727	4658.32
691.628	3282.68
695.526	3395.2
699.423	4859.74
703.318	8624.25
707.211	16228.6
711.102	31542.9
714.992	45467
718.879	36301
722.765	20344.8
726.649	10418.6
730.532	5862.12
734.412	3514.56
738.291	2187.85
742.168	1486.82
746.043	1169.03
749.916	963.915
753.788	974.659
757.658	1288.27
761.526	2011.73
765.392	3251.06
769.257	3999.25
773.119	3174.31
776.98	1868.23
780.839	1128.01
784.697	719.668
788.552	340.278
792.406	127.669
796.258	3.11
800.108	37.419
803.957	105.532
807.804	19.398
811.649	120.425
815.492	107.835
819.333	166.196
823.173	215.07
827.011	110.144
830.847	62.173
834.681	7.096
838.514	36.034
842.345	138.207
846.174	328.842
850.001	524.728
853.827	631.625
857.651	757.525
861.473	798.444
865.293	1131.4
869.112	1549.37
872.928	1786.39
876.744	2085.51
880.557	2359.74
884.369	2871.05
888.178	3846.45
891.987	5469.93
895.793	8336.46
899.598	12563
903.401	16639.7
907.202	16106.4
911.001	11633.1
914.799	7549.9
918.595	5148.81
922.389	3891.81
926.182	3364.95
929.972	3056.26
933.761	3049.73
937.549	2963.35
941.334	3202.09
945.118	3529.11
948.9	4356.38
952.681	5675.94
956.459	8331.92
960.236	13547.7
964.012	20214.4
967.785	20883.8
971.557	17914.2
975.327	19614.5
979.095	24965.6
982.862	25222.5
986.627	21857.9
990.39	19855.7
994.152	19797.1
997.912	20968.4
1001.67	21990.9
1005.43	20353.3
1009.18	16138.4
1012.93	11492.4
1016.68	7629.46
1020.43	5415.15
1024.18	4277.94
1027.93	3714.58
1031.67	3218.4
1035.42	2858.5
1039.16	2714.94
1042.9	2730.72
1046.63	2909.35
1050.37	3636.77
1054.11	4557.27
1057.84	4861.73
1061.57	4396.19
1065.3	3180.69
1069.03	2259.87
1072.75	1840.02
1076.47	2198.79
1080.2	3110.56
1083.92	3977.59
1087.64	3546.56
1091.36	2395.8
1095.07	1771.59
1098.79	1451.96
1102.5	1375.77
1106.21	1421.83
1109.92	1217.69
1113.62	837.005
1117.33	710
1121.04	465.139
1124.74	575.863
1128.44	200.377
1132.14	103.228
1135.83	68.053
1139.53	85.808
1143.22	87.611
1146.92	22.816
1150.61	8.759
1154.3	50.954
1157.98	55.871
1161.67	96.515
1165.35	16.173
1169.04	36.06
1172.72	36.949
1176.4	20.561
1180.07	10.118
1183.75	80.392
1187.42	50.638
1191.1	25.026
1194.77	31.773
1198.44	47.701
1202.1	35.213
1205.77	93.321
1209.43	61.252
1213.1	4.345
1216.76	5.914
1220.42	26.806
1224.07	5.06
1227.73	8.455
1231.38	0.596
1235.04	77.287
1238.69	32.795
1242.34	4.077
1245.99	15.172
1249.63	94.022
1253.28	71.166
1256.92	45.722
1260.56	103.954
1264.2	87.8
1267.84	73.315
1271.48	36.534
1275.11	95.987
1278.74	117.041
1282.38	63.517
1286.01	92.599
1289.63	121.604
1293.26	76.705
1296.89	120.525
1300.51	33.88
1304.13	23.461
1307.75	41.923
1311.37	24.457
1314.99	31.163
1318.6	36.245
1322.22	73.416
1325.83	81.324
1329.44	72.459
1333.05	57.41
1336.66	53.485
1340.26	97.202
1343.87	120.702
1347.47	76.213
1351.07	97.723
1354.67	137.851
1358.27	152.191
1361.86	180.217
1365.46	225.906
1369.05	203.235
1372.64	133.715
1376.23	127.448
1379.82	117.378
1383.41	160.333
1386.99	150.905
1390.57	144.401
1394.16	148.235
1397.74	130.606
1401.32	157.004
1404.89	149.684
1408.47	151.366
1412.04	118.495
1415.61	154.827
1419.18	79.587
1422.75	112.084
1426.32	140.925
1429.89	89.774
1433.45	176.476
1437.01	109.094
1440.58	115.316
1444.13	101.896
1447.69	84.471
1451.25	127.233
1454.81	20.954
1458.36	34.249
1461.91	66.624
1465.46	54.34
1469.01	92.939
1472.56	56.636
1476.1	80.75
1479.64	92.723
1483.19	132.252
1486.73	89.827
1490.27	16.174
1493.81	40.062
1497.34	52.573
1500.88	63.984
1504.41	43.071
1507.94	1.188
1511.47	51.208
1515	40.154
1518.53	97.483
1522.05	94.212
