Measurement: Raman, 514 nm, ccw, Raman Data Processed
Mineral: Axinite-(Fe)
Rruff sample: R060183
Ideal chemistry: Ca_4_Fe^2+^_2_Al_4_[B_2_Si_8_O_30_](OH)_2_
Locality: Skagit Bluffs, near Manning Park, British Columbia, Canada
Source: Lloyd Twaites
Description: Light-pink transparent axe-head-shaped single crystal
Measured chemistry: Ca_2.00_(Fe^2+^_0.58_Mn_0.23_Mg_0.19_)Al_2.00_B_1.00_Si_4.00_O_15_(OH)
Pin_id: L01506
Orientation: Laser parallel to (-1 -1 0). Fiducial mark perpendicular to laser is parallel to c [0 0 1]
Raman shift (cm-1)	intensity
52.671	0
57.626	302.133
62.579	187.553
67.529	185.598
72.477	25.4192
77.423	402.21
82.367	1414.43
87.308	2725.33
92.246	6110.88
97.182	7903.19
102.116	9073.74
107.047	14639.5
111.976	10415.9
116.903	7136.96
121.827	5785.55
126.749	5704.78
131.668	5376.58
136.585	5905.19
141.5	8712.58
146.412	9820.06
151.321	9393.41
156.229	8440.62
161.134	7253.75
166.036	11373.7
170.936	17301.3
175.834	10563.5
180.729	4186.02
185.622	2597.73
190.512	4225.6
195.4	5829.26
200.286	7157.44
205.169	11722.3
210.049	15903.8
214.928	12869.2
219.803	7709.63
224.677	3182.49
229.548	1293.06
234.416	1089.24
239.282	2718.01
244.146	4233.2
249.007	4924.78
253.866	5440.53
258.722	4670.82
263.576	4588.84
268.427	7421.89
273.276	10743.6
278.123	8257.7
282.967	4283.28
287.809	4184.21
292.648	7280.35
297.485	11097.6
302.319	13413.8
307.151	12688.9
311.98	9184.69
316.807	11493.1
321.631	9226.67
326.454	4416.97
331.273	2804.52
336.09	4208.87
340.905	9676.93
345.717	11065.6
350.527	9962.34
355.334	5160.85
360.139	738.267
364.941	610.951
369.741	432.219
374.538	170.561
379.333	929.392
384.126	4674.2
388.916	8655.82
393.703	8945.72
398.488	5248.84
403.271	2489.22
408.051	1988.78
412.828	4454.43
417.603	7520.1
422.376	9012.74
427.146	13203.2
431.914	12612.5
436.679	5889.56
441.442	4399.19
446.202	3396.36
450.96	1182.98
455.715	709.984
460.467	123.28
465.218	300.668
469.965	857.129
474.711	332.66
479.454	1333.19
484.194	2851.65
488.932	1076.77
493.667	267.092
498.4	104.219
503.13	955.602
507.858	1345.83
512.583	970.605
517.306	120.647
522.026	478.012
526.744	685.233
531.459	267.697
536.172	514.078
540.882	2527.49
545.59	4206.26
550.295	3252.21
554.998	3454.27
559.698	4462.27
564.396	3483.22
569.091	3362.94
573.784	3696.03
578.474	3507.8
583.162	4771.2
587.847	6337.2
592.529	3851.75
597.209	1758.81
601.887	1210.21
606.562	1980.66
611.235	2871.01
615.905	2888.72
620.572	2426.77
625.237	1173.11
629.9	403.698
634.56	597.1
639.217	1106.67
643.872	1665.46
648.524	1317.5
653.174	1249.08
657.821	2223.36
662.466	4257.08
667.108	5455.77
671.748	7047.45
676.385	10240.4
681.02	7805.34
685.652	3779.91
690.281	2645.03
694.908	3137.05
699.533	5715.05
704.155	13062.9
708.774	27756.3
713.391	42489.8
718.005	33069.5
722.617	15825.3
727.226	7156.28
731.833	3743.39
736.437	2086.26
741.039	1534.64
745.638	1255.76
750.234	1040.64
754.828	1680.71
759.419	2949
764.008	4957.51
768.595	5456.33
773.178	3636.22
777.759	1758.25
782.338	831.911
786.914	192.915
791.488	31.9092
796.059	209.654
800.627	220.344
805.193	94.8428
809.756	285.519
814.317	418.096
818.875	86.8164
823.431	199.363
827.984	297.848
832.534	265.09
837.082	1.25098
841.627	32.4414
846.17	349.925
850.71	627.042
855.248	628.834
859.783	905.626
864.316	1153.56
868.846	1306.55
873.373	1337.34
877.898	1523.01
882.42	1775.64
886.94	2055.24
891.457	3157.44
895.971	5040.73
900.483	7368.76
904.993	7486.02
909.5	5668.67
914.004	3838.72
918.505	3033.12
923.004	2685.76
927.501	2899.97
931.995	2793.9
936.486	2702
940.975	3234.85
945.461	4559.71
949.945	6439.65
954.426	10196.7
958.904	16943.3
963.38	23156.1
967.853	20785.1
972.324	18446.9
976.792	21591.8
981.258	21608.5
985.72	17204.3
990.181	14916.8
994.639	14763.9
999.094	15734.9
1003.55	15636.5
1008	12396.1
1012.44	8033.96
1016.89	5078.35
1021.33	4001.96
1025.77	3904
1030.21	3555.23
1034.64	3493.64
1039.07	3981.46
1043.5	4544.02
1047.93	5620.13
1052.35	7348.8
1056.78	7853.51
1061.19	6808.39
1065.61	4269.31
1070.02	3248.28
1074.43	3961.72
1078.84	6268.06
1083.25	8091.97
1087.65	5680.6
1092.05	3474.93
1096.45	2312.55
1100.85	1996.08
1105.24	3065.91
1109.63	1433.29
1114.02	1190.32
1118.4	1176.1
1122.78	1078.99
1127.16	597.174
1131.54	341.887
1135.92	181.693
1140.29	5.04199
1144.66	34.044
1149.02	10.6113
1153.39	69.5537
1157.75	23.8691
1162.11	217.345
1166.46	36.6846
1170.82	70.125
1175.17	122.155
1179.52	8.16113
1183.86	12.7998
1188.21	16.0908
1192.55	7.1875
1196.89	206.973
1201.22	31.4707
1205.55	105.297
1209.88	143.353
1214.21	54.2549
1218.54	111.505
1222.86	155.44
1227.18	153.18
1231.5	109.115
1235.81	205.658
1240.12	168.051
1244.43	219.75
1248.74	71.957
1253.04	70.126
1257.34	130.21
1261.64	312.315
1265.94	258.947
1270.23	72.1436
1274.52	242.581
1278.81	146.201
1283.1	345.023
1287.38	255.342
1291.66	397.258
1295.94	253.778
1300.21	258.025
1304.48	272.966
1308.75	218.633
1313.02	212.787
1317.29	230.192
1321.55	374.015
1325.81	403.998
1330.06	301.824
1334.32	230.287
1338.57	380.888
1342.82	323.947
1347.06	361.117
1351.31	215.217
1355.55	207.066
1359.79	359.667
1364.02	317.162
1368.26	318.842
1372.49	191.017
1376.71	438.131
1380.94	161.746
1385.16	346.833
1389.38	158.459
1393.6	225.083
1397.81	109.762
1402.02	182.372
1406.23	59.9228
1410.44	116.068
1414.64	204.624
1418.85	80.6084
1423.04	212.988
1427.24	365.964
1431.43	145.667
1435.62	362.588
1439.81	430.997
1444	288.112
1448.18	336.026
1452.36	346.796
1456.54	295.742
1460.71	247.948
1464.89	271.229
1469.06	301.523
1473.22	199.545
1477.39	225.654
1481.55	44.1621
1485.71	189.151
1489.86	85.25
1494.02	11.5195
1498.17	2.74414
1502.32	60.207
1506.46	56.4844
1510.61	2.7793
1514.75	74.334
1518.88	1.27344
1523.02	79.7715
1527.15	209.807
1531.28	183.99
1535.41	213.19
1539.53	204.51
1543.66	365.047
1547.78	238.371
1551.89	241.363
1556.01	308.959
1560.12	24.8105
1564.23	11.4434
1568.33	108.561
