Measurement: Raman, 514 nm, ccw, Raman Data Processed
Mineral: Axinite-(Fe)
Rruff sample: R060194
Ideal chemistry: Ca_4_Fe^2+^_2_Al_4_[B_2_Si_8_O_30_](OH)_2_
Locality: near Dalbandi, Baluchistan Province, Pakistan
Source: Herbert Obodda
Description: Brown transparent wedge-shaped single crystal
Measured chemistry: Ca_2.00_(Fe^2+^_0.66_Mg_0.30_Mn_0.04_)Al_2.00_BSi_4.00_O_15_(OH)
Pin_id: L00543
Orientation: Laser parallel to (-1 0 -1). Fiducial mark perpendicular to laser is parallel to b [0 1 0]
Raman shift (cm-1)	intensity
53.91	0
58.864	112.294
63.817	99.3424
68.767	8.16138
73.714	65.8048
78.659	48.391
83.602	337.151
88.542	947.232
93.48	2474.48
98.416	5898.86
103.349	13276.1
108.28	29279
113.208	18489.8
118.134	6654.18
123.058	3957.1
127.979	2727.78
132.898	3617.93
137.814	7757.58
142.728	10872.8
147.639	6805.11
152.549	6484.21
157.455	6066.06
162.359	6180.71
167.261	9756.27
172.161	13106.7
177.058	6893.9
181.952	2214.76
186.845	749.283
191.734	1058.08
196.622	2327
201.507	5173.74
206.389	8869.72
211.269	8379.94
216.147	5107.48
221.022	2260.59
225.895	517.51
230.765	196.442
235.633	236.851
240.498	585.877
245.361	2249.96
250.222	4040.98
255.08	7484.76
259.936	9224.19
264.789	13301.3
269.64	22424.9
274.488	27002.5
279.334	19796.4
284.178	11315.6
289.019	10068.9
293.857	11867.6
298.693	15100.3
303.527	16207.1
308.358	14948
313.187	7413.8
318.013	4258.43
322.837	3437.66
327.659	4770.1
332.478	5312.08
337.294	4027.62
342.108	8359.59
346.92	14252.3
351.729	17125.2
356.535	10662.5
361.34	2782.76
366.141	479.815
370.94	166.319
375.737	114.141
380.531	752.342
385.323	3405.14
390.113	7643.33
394.9	4607.85
399.684	1825.74
404.466	2092.17
409.245	4996.91
414.022	13817.6
418.797	26841.3
423.569	15799.2
428.338	15091.2
433.105	10296.2
437.87	5797.1
442.632	9556.95
447.391	10477.7
452.149	2380.22
456.903	432.556
461.655	225.494
466.405	409.898
471.152	363.458
475.897	2370.95
480.639	7241.02
485.378	13848.7
490.116	5226.11
494.85	784.344
499.582	28.3755
504.312	495.186
509.039	1426.21
513.764	2061.78
518.486	824.112
523.206	25.7754
527.923	118.489
532.638	635.014
537.35	935.543
542.059	423.042
546.766	183.47
551.471	117.17
556.173	111.069
560.873	1240.41
565.57	1824.88
570.264	2889.11
574.957	4463.08
579.646	4057.75
584.333	5965.11
589.018	10187.1
593.7	7460.74
598.379	2718.97
603.056	1072.06
607.73	683.168
612.402	1056.58
617.072	1370.27
621.739	856.6
626.403	20.5391
631.065	274.181
635.724	241.25
640.381	1533.14
645.035	2279.91
649.687	1364.74
654.336	349.144
658.983	142.421
663.627	636.575
668.268	2150.32
672.907	5542.81
677.544	8396.85
682.178	4851.32
686.809	2199.26
691.438	2104.02
696.065	3108.02
700.688	6864.6
705.31	15838.1
709.929	35008.1
714.545	49242.4
719.158	30001.1
723.77	12867.2
728.378	6161.74
732.984	3324.71
737.588	2009.13
742.189	1047.19
746.787	784.05
751.383	634.597
755.976	916.733
760.567	1551.4
765.155	2655.42
769.741	2911.83
774.324	1752.6
778.904	819.863
783.482	301.981
788.058	55.8601
792.631	159.983
797.201	182.446
801.769	29.1628
806.334	467.309
810.897	1377.74
815.457	1412.11
820.014	307.432
824.569	226.414
829.122	294.536
833.671	268.011
838.219	32.9297
842.763	398.301
847.306	1191.99
851.845	1753.84
856.382	1667.88
860.917	1340.14
865.448	1150.65
869.978	1280.44
874.505	1733.56
879.029	2478.02
883.55	3454.91
888.069	5366.25
892.586	8886.02
897.1	13649.4
901.611	14173.6
906.12	11697.4
910.626	10603
915.129	7704.35
919.63	4903.51
924.129	4202.49
928.625	5032.45
933.118	5540.06
937.609	3962.15
942.097	3471.2
946.582	4662.15
951.065	6878.94
955.546	9510.53
960.023	12165
964.499	16258.1
968.971	15676.9
973.441	16951.4
977.909	25341.5
982.374	28549.5
986.836	22468.4
991.295	21817.2
995.753	22861.8
1000.21	23077.4
1004.66	22735.4
1009.11	16755.3
1013.55	9272.2
1018	4947.28
1022.44	3165.39
1026.88	2523.01
1031.32	1909.66
1035.75	1430.43
1040.18	1426.76
1044.61	1487.94
1049.04	1584.04
1053.46	2125.82
1057.88	2417.1
1062.3	2224.61
1066.71	1327.22
1071.13	791.793
1075.54	720.915
1079.94	1275.7
1084.35	1966.45
1088.75	1318.77
1093.15	927.11
1097.55	876.758
1101.94	1392.82
1106.34	1923.6
1110.73	1715.31
1115.11	1095.77
1119.5	698.925
1123.88	457.404
1128.26	355.303
1132.63	55.6895
1137.01	11.6631
1141.38	0.998779
1145.75	95.1455
1150.12	4.41113
1154.48	39.2739
1158.84	95.0139
1163.2	83.0105
1167.55	94.2073
1171.91	46.0227
1176.26	108.569
1180.61	23.6875
1184.95	45.6082
1189.29	43.1931
1193.63	44.3525
1197.97	3.30591
1202.31	61.4492
1206.64	44.0102
1210.97	34.3091
1215.29	17.729
1219.62	46.1738
1223.94	40.8967
1228.26	51.9143
1232.57	67.7415
1236.89	171.804
1241.2	169.202
1245.51	200.961
1249.81	171.061
1254.12	160.544
1258.42	175.301
1262.72	356.366
1267.01	221.263
1271.3	274.663
1275.59	277.54
1279.88	276.904
1284.17	266.283
1288.45	295.265
1292.73	252.645
1297.01	243.708
1301.28	187.914
1305.55	177.367
1309.82	191.194
1314.09	191.666
1318.35	132.208
1322.61	154.35
1326.87	141.592
1331.13	180.195
1335.38	148.345
1339.63	182.726
1343.88	157.626
1348.12	122.02
1352.37	77.7026
1356.61	230.333
1360.85	145.722
1365.08	173.26
1369.31	193.099
1373.54	190.995
1377.77	158.341
1381.99	168.321
1386.22	130.448
1390.43	173.796
1394.65	126.19
1398.87	129.805
1403.08	186.087
1407.29	157.538
1411.49	124.701
1415.69	152.828
1419.89	112.857
1424.09	116.461
1428.29	140.8
1432.48	128.086
1436.67	161.192
1440.86	179.215
1445.04	276.992
1449.23	248.595
1453.4	308.297
1457.58	292.49
1461.76	223.684
1465.93	208.423
1470.1	133.941
1474.26	121.36
1478.43	100.588
1482.59	65.8127
1486.75	41.4668
1490.9	11.6865
1495.06	95.6177
1499.21	31.5339
1503.35	43.8355
1507.5	22.4043
1511.64	48.2007
1515.78	19.2498
1519.92	24.4722
1524.05	13.9294
1528.18	106.458
1532.31	111.298
1536.44	97.229
1540.56	22.8706
1544.69	55.9907
1548.8	80.9551
1552.92	57.1311
1557.03	33.9092
1561.14	4.06201
1565.25	66.7849
1569.36	50.1746
