Measurement: Raman, 514 nm, ccw, Raman Data Processed
Mineral: Axinite-(Fe)
Rruff sample: R060558
Ideal chemistry: Ca_4_Fe^2+^_2_Al_4_[B_2_Si_8_O_30_](OH)_2_
Locality: unknown
Source: Gemological Institute of America
Description: Brown flattened crystal
Measured chemistry: Ca_2.00_(Fe^2+^_0.60_Mg_0.35_Mn_0.05_)_Î£=1_Al_2.00_BSi_4.00_O_15_(OH) ; B not measured
Pin_id: M01160
Orientation: Laser parallel to b* (0 1 0). Fiducial mark perpendicular to laser is parallel to -c [0 0 -1]
Raman shift (cm-1)	intensity
97.765	0
102.749	3739.73
107.729	11773.2
112.706	5890.13
117.68	1978.25
122.651	518.746
127.619	296.195
132.584	33.4705
137.545	1824.19
142.503	3392.25
147.459	3229.22
152.411	4224.01
157.36	3342.63
162.305	3156.76
167.248	5034.28
172.188	6850.34
177.124	3651.85
182.058	892.743
186.988	746.029
191.915	3840.78
196.839	4671.33
201.76	5245.1
206.678	7865.12
211.593	6694.93
216.504	4516.85
221.413	2288.5
226.319	422.858
231.221	375.036
236.121	286.235
241.017	713.618
245.91	1341.62
250.8	2229.85
255.688	3466.64
260.572	4676.44
265.453	7309.76
270.331	11092.3
275.206	10911.2
280.078	6781.09
284.947	4002.62
289.813	4036.03
294.676	5580.94
299.536	8102.31
304.393	9959.07
309.247	10175.1
314.098	7022.86
318.946	6684.73
323.791	4745.58
328.633	3115.08
333.472	2730.23
338.307	3574.45
343.14	7982.72
347.97	9680.05
352.797	9315.94
357.622	5369.09
362.443	1477.94
367.261	307.433
372.076	275.543
376.888	446.701
381.697	1043.49
386.504	3833.45
391.307	8147.9
396.107	5552.49
400.905	2510.78
405.7	1995.3
410.491	3267.36
415.28	9565.03
420.066	13726.9
424.848	8137.71
429.628	7174.33
434.405	4853.36
439.18	2274.74
443.951	2993.46
448.719	2109.45
453.485	209.698
458.247	289.144
463.007	439.048
467.763	57.8188
472.517	664.636
477.268	1885.24
482.016	6035.97
486.762	11704.8
491.504	5012.53
496.244	1512.16
500.98	1681.18
505.714	2810.95
510.445	3559.61
515.173	2377.71
519.898	583.704
524.621	47.0691
529.34	34.6218
534.057	126.052
538.771	369.231
543.482	378.067
548.19	443.544
552.896	256.924
557.598	581.578
562.298	1154.13
566.995	1640.24
571.689	3105.84
576.38	3930.91
581.069	3177.43
585.755	3936.38
590.438	5426.75
595.118	3374.53
599.795	1327.06
604.47	438.786
609.142	613.742
613.811	1000.72
618.477	1404.44
623.14	1036.05
627.801	214.165
632.459	104.578
637.114	34.7522
641.767	576.02
646.416	717.754
651.063	274.959
655.708	88.2183
660.349	40.8789
664.988	215.001
669.624	1144.78
674.257	2946.8
678.887	3890.97
683.515	2066.55
688.14	923.79
692.763	1012.17
697.382	1685.86
701.999	3673.95
706.613	8839.49
711.225	19656.4
715.834	25386.8
720.44	14471.5
725.043	6290.69
729.644	3010.33
734.242	1665.44
738.837	951.375
743.43	614.211
748.02	686.932
752.607	881.434
757.192	1572.5
761.774	2939.15
766.353	4356.41
770.93	4122.42
775.504	2449.58
780.075	1102.43
784.644	449.507
789.21	97.3767
793.773	51.9968
798.334	171.836
802.892	144.54
807.447	258.558
812	987.998
816.55	942.501
821.098	299.062
825.643	122.329
830.185	182.472
834.725	39.7607
839.262	119.673
843.796	403.274
848.328	885.09
852.857	1099.15
857.384	906.468
861.908	769.082
866.429	790.013
870.948	737.286
875.464	947.924
879.978	1403.94
884.489	1922
888.998	2891.36
893.504	4832.96
898.007	7331.21
902.508	8762.08
907.006	9819.95
911.502	9824.21
915.995	6772.36
920.485	4037.23
924.973	2954.83
929.459	3108.49
933.942	3236.74
938.422	2931.49
942.9	3364.36
947.375	5045.18
951.848	7803.71
956.318	10487
960.786	14155.8
965.251	17161.3
969.714	13785.8
974.174	12333.4
978.631	15294.5
983.086	14808.3
987.539	12270.9
991.989	12362.3
996.437	12757.5
1000.88	14760.4
1005.32	16163
1009.76	12094.6
1014.2	6523.25
1018.64	3438.22
1023.07	2844.18
1027.5	3352.42
1031.93	2141.46
1036.35	1204.42
1040.78	792.544
1045.19	607.633
1049.61	711.364
1054.03	806.567
1058.44	878.808
1062.85	748.938
1067.26	481.285
1071.66	395.854
1076.07	678.191
1080.47	1351.26
1084.87	1856.38
1089.26	1236.19
1093.65	702.312
1098.05	713.713
1102.43	1079.78
1106.82	1399.2
1111.2	1240.16
1115.59	845.527
1119.96	472.787
1124.34	285.797
1128.71	155.885
1133.09	72.8176
1137.45	86.8818
1141.82	14.4199
1146.18	32.8684
1150.55	68.573
1154.91	75.7295
1159.26	77.5703
1163.62	38.9834
1167.97	62.7017
1172.32	20.6572
1176.67	74.9226
1181.01	48.2732
1185.36	45.7712
1189.69	5.11279
1194.03	44.4047
1198.37	130.502
1202.7	14.0829
1207.03	33.0862
1211.36	99.5284
1215.69	69.3711
1220.01	81.6715
1224.33	37.2974
1228.65	93.2544
1232.97	101.577
1237.28	100.313
1241.6	92.3675
1245.9	119.707
1250.21	83.5242
1254.52	118.661
1258.82	148.213
1263.12	204.103
1267.42	156.611
1271.71	184.804
1276.01	188.972
1280.3	205.876
1284.59	160.243
1288.87	160.351
1293.16	157.766
1297.44	129.459
1301.72	116.112
1306	113.97
1310.27	100.211
1314.55	68.7462
1318.82	59.7853
1323.08	122.934
1327.35	57.4938
1331.61	90.3951
1335.87	87.6254
1340.13	136.387
1344.39	111.809
1348.64	101.788
1352.9	118.996
1357.15	115.775
1361.39	135.97
1365.64	113.339
1369.88	98.5314
1374.12	101.767
1378.36	104.085
1382.6	88.9088
1386.83	106.976
1391.07	78.7085
1395.29	27.5718
1399.52	45.2451
1403.75	34.9199
1407.97	89.5831
1412.19	66.8926
1416.41	116.448
1420.62	110.853
1424.84	73.0085
1429.05	62.6671
1433.26	86.0194
1437.47	15.8604
1441.67	48.7563
1445.88	50.9465
1450.08	16.4246
1454.28	18.3538
1458.47	79.3448
1462.67	51.203
1466.86	33.1141
1471.05	28.1786
1475.24	61.1896
1479.42	43.1754
1483.61	45.9913
1487.79	25.6796
1491.96	12.54
1496.14	9.49353
1500.32	41.2809
1504.49	64.3428
1508.66	47.5557
1512.83	20.2214
1516.99	53.0386
1521.16	43.4446
1525.32	37.1934
1529.48	94.5149
1533.63	83.5935
1537.79	50.1831
1541.94	76.8906
1546.09	2.80933
1550.24	63.2214
1554.39	113.078
1558.53	3.46802
1562.67	0.225342
