Measurement: Raman, 514 nm, ccw, Raman Data Processed
Mineral: Axinite-(Fe)
Rruff sample: R060194
Ideal chemistry: Ca_4_Fe^2+^_2_Al_4_[B_2_Si_8_O_30_](OH)_2_
Locality: near Dalbandi, Baluchistan Province, Pakistan
Source: Herbert Obodda
Description: Brown transparent wedge-shaped single crystal
Measured chemistry: Ca_2.00_(Fe^2+^_0.66_Mg_0.30_Mn_0.04_)Al_2.00_BSi_4.00_O_15_(OH)
Pin_id: L00975
Orientation: Laser parallel to a* (1 0 0). Fiducial mark perpendicular to laser is parallel to b [0 1 0]
Raman shift (cm-1)	intensity
53.91	0
58.864	160.604
63.817	233.228
68.767	32.8613
73.714	114.106
78.659	76.3857
83.602	227.655
88.542	1389.84
93.48	4054.42
98.416	4024.12
103.349	4519.27
108.28	10814.2
113.208	9561.78
118.134	6228.22
123.058	5995.86
127.979	4540.08
132.898	2252.3
137.814	1819.83
142.728	2890.23
147.639	3518.47
152.549	7154.8
157.455	9658.59
162.359	7049.91
167.261	11770.7
172.161	22785.9
177.058	9752.44
181.952	2790.18
186.845	886.996
191.734	2530.82
196.622	6172.46
201.507	5341.06
206.389	10668.5
211.269	16121.1
216.147	13969.4
221.022	8492.19
225.895	3490.75
230.765	1222.38
235.633	692.353
240.498	2311.24
245.361	4049.03
250.222	5643.78
255.08	6827.86
259.936	6385.76
264.789	7493.31
269.64	11982.6
274.488	14064.7
279.334	9901.25
284.178	4656.98
289.019	3945.82
293.857	8723.66
298.693	15711.4
303.527	18082
308.358	16718.4
313.187	10194.5
318.013	12013.1
322.837	9919.56
327.659	3331.1
332.478	2059.96
337.294	3247.07
342.108	9744.33
346.92	16434.7
351.729	14040.4
356.535	8613.39
361.34	1723.86
366.141	331.254
370.94	436.211
375.737	127.88
380.531	283.478
385.323	3987.72
390.113	11726
394.9	13882
399.684	7261.95
404.466	3619.37
409.245	1852.26
414.022	3490.56
418.797	10506.2
423.569	10913.2
428.338	18869.5
433.105	19729
437.87	7683.64
442.632	4595.38
447.391	5026.14
452.149	1023.87
456.903	579.508
461.655	183.991
466.405	142.222
471.152	1711.17
475.897	978.784
480.639	1247.02
485.378	4075.83
490.116	1738.29
494.85	407.439
499.582	420.739
504.312	241.655
509.039	838.887
513.764	987.953
518.486	819.984
523.206	104.584
527.923	374.257
532.638	207.456
537.35	439.611
542.059	2726.38
546.766	5981.17
551.471	4059.83
556.173	2961.81
560.873	5172.9
565.57	4500.7
570.264	3864.76
574.957	5070.57
579.646	4805.03
584.333	5731.08
589.018	9834.71
593.7	7547.88
598.379	2737.56
603.056	1598.72
607.73	2417.99
612.402	3877.04
617.072	4054.5
621.739	3489.36
626.403	1361.58
631.065	211.144
635.724	216.876
640.381	764.79
645.035	1505.87
649.687	872.971
654.336	96.5796
658.983	54.2056
663.627	651.434
668.268	2528.29
672.907	7167.41
677.544	13811.6
682.178	9153.64
686.809	3969.49
691.438	2486.3
696.065	3372.84
700.688	6495.48
705.31	14611.7
709.929	34042.6
714.545	55891.7
719.158	38090.1
723.77	16497
728.378	7900.18
732.984	4186.77
737.588	2627.76
742.189	1715.16
746.787	1367.01
751.383	1356.31
755.976	1901.06
760.567	3427.29
765.155	6115.02
769.741	7171.83
774.324	4726.32
778.904	2478.18
783.482	1167.45
788.058	557.506
792.631	197.995
797.201	86.645
801.769	41.5293
806.334	240.034
810.897	618.109
815.457	644.923
820.014	7.44043
824.569	261.574
829.122	269.323
833.671	264.197
838.219	201.653
842.763	91.9556
847.306	105.839
851.845	345.543
856.382	430.253
860.917	628.998
865.448	970.808
869.978	1175.71
874.505	1397.74
879.029	1600.94
883.55	1822.37
888.069	1955.02
892.586	3112.94
897.1	5216.31
901.611	8380.14
906.12	12080.6
910.626	10364.8
915.129	5991.89
919.63	3286.38
924.129	2183.53
928.625	1972.81
933.118	2139.41
937.609	2781
942.097	2587.51
946.582	3513.65
951.065	5562.24
955.546	9319.55
960.023	16890.9
964.499	28104.2
968.971	26669.9
973.441	20418.4
977.909	24292.7
982.374	27939.1
986.836	21559.5
991.295	17779.8
995.753	17494.9
1000.21	19400.8
1004.66	19672.6
1009.11	15227.7
1013.55	9146.6
1018	5100.62
1022.44	3443.51
1026.88	3360.02
1031.32	3751.81
1035.75	3681.81
1040.18	3934.38
1044.61	4335.02
1049.04	4720.8
1053.46	6194.7
1057.88	7184.23
1062.3	6385.5
1066.71	4191.89
1071.13	2664.63
1075.54	2996.71
1079.94	5369.03
1084.35	9404.5
1088.75	7849.39
1093.15	3968.67
1097.55	2388.71
1101.94	1899.72
1106.34	1841.87
1110.73	1438.81
1115.11	881.375
1119.5	622.938
1123.88	434.287
1128.26	272.401
1132.63	119.917
1137.01	10.6899
1141.38	24.1409
1145.75	70.5581
1150.12	24.5757
1154.48	0.288086
1158.84	68.0322
1163.2	21.8552
1167.55	90.5393
1171.91	47.0574
1176.26	50.064
1180.61	64.7803
1184.95	2.67944
1189.29	39.1228
1193.63	68.3591
1197.97	40.6352
1202.31	53.3276
1206.64	46.5818
1210.97	20.4377
1215.29	57.9839
1219.62	62.9492
1223.94	23.5044
1228.26	31.8479
1232.57	7.56348
1236.89	133.146
1241.2	134.088
1245.51	153.278
1249.81	61.7671
1254.12	114.478
1258.42	95.6594
1262.72	130.964
1267.01	153.429
1271.3	118.114
1275.59	176.442
1279.88	225.929
1284.17	240.936
1288.45	216.275
1292.73	219.053
1297.01	218.993
1301.28	149.371
1305.55	126.454
1309.82	52.4802
1314.09	60.8232
1318.35	45.291
1322.61	112.41
1326.87	79.8633
1331.13	94.5884
1335.38	233.045
1339.63	208.04
1343.88	189.187
1348.12	183.394
1352.37	212.384
1356.61	164.385
1360.85	289.283
1365.08	238.752
1369.31	260.006
1373.54	214.085
1377.77	216.68
1381.99	316.317
1386.22	205.176
1390.43	150.649
1394.65	162.508
1398.87	59.6179
1403.08	94.51
1407.29	133.486
1411.49	166.106
1415.69	179.915
1419.89	261.471
1424.09	231.248
1428.29	225.862
1432.48	161.582
1436.67	201.639
1440.86	96.9885
1445.04	77.6689
1449.23	122.13
1453.4	108.377
1457.58	90.8857
1461.76	164.028
1465.93	68.3333
1470.1	106.149
1474.26	182.014
1478.43	7.75586
1482.59	68.1738
1486.75	26.0369
1490.9	78.7761
1495.06	32.7046
1499.21	63.7346
1503.35	65.8926
1507.5	7.42236
1511.64	10.9246
1515.78	23.3862
1519.92	94.8496
1524.05	0.568359
1528.18	91.0725
1532.31	19.7251
1536.44	94.9934
1540.56	41.9934
1544.69	110.759
1548.8	63.3799
1552.92	68.7222
1557.03	213.25
1561.14	2.75928
1565.25	33.096
1569.36	25.0144
