Measurement: Raman, 514 nm, ccw, Raman Data Processed
Mineral: Axinite-(Fe)
Rruff sample: R050061
Ideal chemistry: Ca_4_Fe^2+^_2_Al_4_[B_2_Si_8_O_30_](OH)_2_
Locality: Jamestown, California, USA
Source: Rock Currier
Description: Brown colored axe-head-shaped single crystals
Measured chemistry: Ca_2.00_(Fe^2+^_0.73_Mg_0.20_Mn_0.07_)Al_2.00_BSi_4_O_15_(OH)
Pin_id: L00531
Orientation: Laser parallel to (1 1 0). Fiducial mark perpendicular to laser is parallel to -c [0 0 -1]
Raman shift (cm-1)	intensity
85.455	0
89.663	7.57
93.868	187.155
98.07	1127.83
102.271	2607.46
106.469	6130.95
110.665	6658.64
114.859	2580.93
119.05	811.264
123.24	694.534
127.427	536.442
131.612	443.978
135.794	833.124
139.975	1306.64
144.153	1411.05
148.329	3502.67
152.503	4551.71
156.674	2393.35
160.843	1368.93
165.011	1802.67
169.175	4036.29
173.338	5028.86
177.499	2750.43
181.657	764.28
185.813	222.47
189.967	1586.97
194.119	3222.7
198.268	2546.58
202.415	5120.52
206.561	7822.43
210.703	6605.08
214.844	4918.43
218.983	3394.51
223.119	1183.4
227.253	155.058
231.385	502.383
235.515	293.426
239.643	538.611
243.768	1557.78
247.891	1955.82
252.012	2646.91
256.131	3275.81
260.248	3486.34
264.363	4899.79
268.475	6829.16
272.585	8329.99
276.693	7561.92
280.799	5354.72
284.903	4230.25
289.005	3518.36
293.104	3358.73
297.201	4024.34
301.296	5356.2
305.389	7461.32
309.48	6456.69
313.569	3982.31
317.655	4366.17
321.74	4399.21
325.822	3379.23
329.902	2802.58
333.98	2185.27
338.056	2595.28
342.129	4823.6
346.201	6758.52
350.27	7709.4
354.337	6029.36
358.402	2363.24
362.465	640.921
366.526	137.452
370.585	62.963
374.642	225.822
378.696	708.814
382.748	2280.93
386.799	6214.07
390.847	8866.43
394.893	6137.19
398.936	2578.7
402.978	1372.01
407.018	1596.78
411.055	3601.42
415.091	10678.9
419.124	16193.5
423.155	13488
427.184	12852.5
431.211	9626.89
435.236	4990.16
439.259	3397.29
443.28	4365.26
447.298	3815.05
451.315	1822.65
455.329	1204.05
459.341	868.244
463.352	563.218
467.36	565.968
471.366	985.485
475.37	1855.84
479.372	4909.33
483.371	11139.1
487.369	11152.3
491.365	4215.01
495.358	1398.91
499.35	683.636
503.339	422.103
507.326	244.296
511.311	6.878
515.295	295.146
519.276	399.579
523.255	307.599
527.232	177.031
531.207	52.091
535.179	265.224
539.15	325
543.119	210.437
547.086	265.475
551.05	265.161
555.013	695.995
558.973	1907.31
562.932	3050.47
566.888	3898.32
570.842	6028.86
574.795	7159.07
578.745	5258.96
582.693	3686.53
586.639	3765.78
590.583	4095.7
594.525	2881.3
598.465	1638.58
602.403	1298.54
606.339	1557.17
610.273	2591.5
614.205	4481.5
618.135	6770.2
622.063	6276.58
625.989	3122.66
629.912	1147.43
633.834	615.771
637.754	660.867
641.671	1033.29
645.587	1152.59
649.501	845.237
653.412	566.461
657.322	481.79
661.23	686.726
665.135	1155.69
669.039	2249.12
672.94	4741.77
676.84	6956.86
680.738	5347.44
684.633	2872.86
688.527	1878.65
692.418	1807.17
696.308	2488.6
700.195	3999.68
704.081	7427.87
707.964	15326.8
711.846	26686.8
715.726	26806.6
719.603	15616.3
723.479	7375.86
727.352	3913.32
731.224	2201.69
735.094	1311.96
738.961	755.16
742.827	515.29
746.691	430.361
750.552	520.386
754.412	650.371
758.27	1006.33
762.125	1615.27
765.979	2144.19
769.831	2067.12
773.681	1229.06
777.529	535.013
781.375	162.998
785.219	88.979
789.06	148.272
792.901	215.397
796.739	261.674
800.575	305.263
804.409	195.037
808.241	262.611
812.071	988.348
815.899	964.211
819.726	415.219
823.55	77.483
827.372	77.472
831.193	0.384
835.011	34.931
838.828	161.373
842.642	269.565
846.455	638.052
850.266	1026.76
854.075	1223.72
857.881	1462.99
861.686	1573.56
865.489	1696.45
869.29	1781.67
873.089	1765.31
876.886	1950.39
880.682	2266.88
884.475	2808.77
888.266	4030.05
892.056	6287.7
895.843	9761.78
899.629	13956.3
903.413	18701.2
907.194	20896.4
910.974	17742.1
914.752	11618.1
918.528	7294.46
922.302	5271.23
926.074	4511.4
929.844	4417.99
933.613	3884.97
937.379	3689.23
941.144	4071.66
944.906	5698.9
948.667	8147.29
952.426	10894.1
956.183	13826.6
959.938	18528.3
963.691	22409.9
967.442	18242
971.191	14764.6
974.939	15557.7
978.684	17528.2
982.428	17025.2
986.169	16458.9
989.909	18243.6
993.647	17808.9
997.383	17274.7
1001.12	17331
1004.85	14869.1
1008.58	10428.5
1012.31	6719.43
1016.03	4499.36
1019.76	3418.89
1023.48	2961.01
1027.2	2822.06
1030.92	2275.36
1034.64	1931.84
1038.36	2022.38
1042.07	2159.21
1045.78	2565.03
1049.49	3187.99
1053.2	3842.27
1056.9	4197.64
1060.61	3802.71
1064.31	2784.8
1068.01	2087.75
1071.71	1666.4
1075.41	1919.09
1079.1	2408.69
1082.79	2461.35
1086.48	1659.72
1090.17	1213.23
1093.86	1080.56
1097.55	1531.74
1101.23	2119.77
1104.91	2421.68
1108.59	1963.58
1112.27	1416.6
1115.95	997.188
1119.62	725.929
1123.3	508.3
1126.97	391.658
1130.63	299.923
1134.3	178.802
1137.97	105.842
1141.63	33.707
1145.29	38.041
1148.95	40.247
1152.61	20.594
1156.27	12.377
1159.92	19.008
1163.57	96.436
1167.22	140.459
1170.87	89.06
1174.52	4.226
1178.16	51.274
1181.81	14.864
1185.45	4.426
1189.09	19.508
1192.73	50.218
1196.36	18.541
1200	23.73
1203.63	2.115
1207.26	32.306
1210.89	59.477
1214.52	64.824
1218.14	34.192
1221.77	37.109
1225.39	15.272
1229.01	25.763
1232.62	30.627
1236.24	107.921
1239.86	101.798
1243.47	103.542
1247.08	82.702
1250.69	31.722
1254.3	14.61
1257.9	94.781
1261.5	77.64
1265.11	166.901
1268.71	157.773
1272.3	272.155
1275.9	184.019
1279.49	138.315
1283.09	108.428
1286.68	119.054
1290.27	50.066
1293.86	87.685
1297.44	147.405
1301.03	134.516
1304.61	110.181
1308.19	112.417
1311.77	79.7
1315.34	35.272
1318.92	63.127
1322.49	55.076
1326.06	47.901
1329.63	91.278
1333.2	96.133
1336.77	120.655
1340.33	137.943
1343.89	42.668
1347.46	146.82
1351.02	74.844
1354.57	143.062
1358.13	147.31
1361.68	115.951
1365.23	117.136
1368.79	115.694
1372.33	110.502
1375.88	164.542
1379.43	210.505
1382.97	197.736
1386.51	143.502
1390.05	95.721
1393.59	69.996
1397.13	115.616
1400.66	140.769
1404.19	151.607
1407.72	156.633
1411.25	217.951
1414.78	125.649
1418.31	200.864
1421.83	38.567
1425.36	35.39
1428.88	71.429
1432.39	67.523
1435.91	60.333
1439.43	158.78
1442.94	145.473
1446.45	110.522
1449.96	104.197
1453.47	115.553
1456.98	110.783
1460.48	61.949
1463.99	101.606
1467.49	46.747
1470.99	27.103
1474.49	46.135
1477.99	12.56
1481.48	100.115
1484.97	82.642
1488.46	19.471
1491.95	94.467
1495.44	97.86
1498.93	64.768
1502.41	8.05
1505.9	38.786
1509.38	0.933
