Measurement: Raman, 514 nm, ccw, Raman Data Processed
Mineral: Axinite-(Fe)
Rruff sample: R060558
Ideal chemistry: Ca_4_Fe^2+^_2_Al_4_[B_2_Si_8_O_30_](OH)_2_
Locality: unknown
Source: Gemological Institute of America
Description: Brown flattened crystal
Measured chemistry: Ca_2.00_(Fe^2+^_0.60_Mg_0.35_Mn_0.05_)_Î£=1_Al_2.00_BSi_4.00_O_15_(OH) ; B not measured
Pin_id: M01661
Orientation: Laser parallel to (1 1 0). Fiducial mark perpendicular to laser is parallel to c [0 0 1]
Raman shift (cm-1)	intensity
91.531	0
96.519	2214.27
101.503	5871.14
106.484	10785.6
111.462	6180.5
116.437	1528.07
121.409	387.839
126.377	237.426
131.343	88.0464
136.305	284.692
141.264	1322.85
146.22	1818.7
151.173	3502.07
156.123	4742.55
161.069	4336.41
166.013	4951.84
170.953	6839.9
175.89	4140.32
180.825	1387.35
185.756	1399.5
190.683	2410.75
195.608	4087.45
200.53	6314.6
205.449	9197.89
210.364	8139.89
215.277	5380.96
220.186	2888.45
225.092	964.397
229.996	32.1235
234.896	219.763
239.793	468.864
244.687	2012.79
249.578	3214.07
254.466	4201.04
259.351	5392.77
264.233	7391.02
269.112	10105.9
273.988	8769.94
278.86	5056.62
283.73	2692.54
288.597	3741.56
293.461	7892.9
298.321	13993.5
303.179	18498.2
308.034	17847.8
312.885	10110.7
317.734	3631.83
322.58	1150.35
327.422	707.767
332.262	949.247
337.099	2237.35
341.932	6058.05
346.763	12259.4
351.591	17652
356.416	13042.2
361.238	4744.16
366.056	1258.53
370.872	139.407
375.685	0.182129
380.495	767.345
385.302	3226.53
390.106	7207.97
394.908	6317.41
399.706	2825.89
404.501	2005.48
409.294	4152.31
414.083	10378.4
418.869	17482.8
423.653	14437.4
428.434	14425.6
433.211	9088.73
437.986	4543.82
442.758	5924.81
447.527	5834.64
452.293	1461.26
457.057	157.352
461.817	504.489
466.575	364.44
471.329	456.913
476.081	2305.74
480.83	6917.14
485.576	12488.1
490.319	6496.25
495.059	2182.91
499.796	2028.68
504.531	2824.88
509.262	3059.88
513.991	2343.59
518.717	1279.11
523.44	550.395
528.161	340.609
532.878	540.835
537.593	864.975
542.304	1126
547.013	1204.94
551.719	592.271
556.423	319.321
561.123	442.786
565.821	554.106
570.516	953.085
575.208	1938.69
579.897	4078.89
584.583	8024.65
589.267	12680
593.948	9558.77
598.626	4470.26
603.301	2373.2
607.974	1876.99
612.644	2318.59
617.311	1906.1
621.975	907.186
626.636	130.824
631.295	166.439
635.951	125.277
640.604	48.2239
645.254	100.309
649.902	43.5266
654.547	104.868
659.189	61.5413
663.828	627.727
668.465	2062.36
673.099	4937.47
677.73	6692.04
682.359	4174.09
686.984	2073.18
691.607	1610.06
696.228	2328.24
700.845	4673.76
705.46	10782.9
710.072	23533.5
714.682	32731.4
719.288	21091.7
723.893	9588.44
728.494	4816.6
733.093	2791.2
737.689	1846.29
742.282	1340.83
746.873	1290.67
751.461	1464.81
756.046	2245.48
760.628	3987.7
765.208	5979.59
769.786	6002.57
774.36	3956.14
778.932	2113.59
783.502	1158
788.068	673.222
792.632	389.066
797.194	156.802
801.752	239.027
806.309	276.113
810.862	686.157
815.413	490.23
819.961	15.3518
824.507	185.762
829.05	247.202
833.59	183.358
838.128	46.0352
842.663	244.432
847.195	536.519
851.725	814.807
856.252	695.321
860.777	594.096
865.299	536.192
869.819	425.648
874.336	513.568
878.85	676.95
883.362	1317.76
887.871	2511
892.377	4534.61
896.881	7350.7
901.383	8180.28
905.882	7814.75
910.378	7410.88
914.872	5324.54
919.363	3179.05
923.852	2245.34
928.338	1826.68
932.821	1723.34
937.302	1749.66
941.781	2157.44
946.257	2928.68
950.73	4398.48
955.201	6419.83
959.669	10277.9
964.135	14053.9
968.598	13535.5
973.059	13917.8
977.517	19218.1
981.973	20572
986.426	16390.4
990.877	15229.9
995.325	17662.9
999.771	21677.5
1004.21	23652.1
1008.65	18093.2
1013.09	10101.8
1017.53	5497.02
1021.96	3871.88
1026.39	3786.29
1030.82	3161.91
1035.25	1951.59
1039.67	1165.83
1044.09	742.468
1048.51	578.494
1052.92	516.896
1057.34	612.578
1061.75	559.343
1066.16	366.605
1070.56	289.373
1074.97	452.734
1079.37	652.459
1083.77	881.866
1088.16	681.247
1092.56	347.671
1096.95	230.462
1101.34	169.873
1105.72	108.767
1110.11	138.809
1114.49	16.679
1118.87	15.1936
1123.25	21.4485
1127.62	44.374
1131.99	0.520752
1136.36	55.116
1140.73	40.8955
1145.09	56.5737
1149.46	20.5071
1153.82	41.6423
1158.17	47.7393
1162.53	25.447
1166.88	8.94824
1171.23	16.1294
1175.58	6.53564
1179.93	9.40991
1184.27	57.209
1188.61	38.9104
1192.95	32.8689
1197.29	40.5153
1201.62	57.3639
1205.95	86.486
1210.28	27.3949
1214.61	14.4987
1218.93	31.0666
1223.25	57.1549
1227.57	70.7334
1231.89	67.6976
1236.2	109.198
1240.52	127.237
1244.83	100.993
1249.13	115.206
1253.44	137.648
1257.74	118.303
1262.05	158.271
1266.34	145.852
1270.64	94.6942
1274.93	129.282
1279.23	170.874
1283.52	158.458
1287.8	80.0427
1292.09	87.8413
1296.37	87.5889
1300.65	73.2621
1304.93	17.2471
1309.2	65.6606
1313.48	56.5237
1317.75	68.2444
1322.02	37.7766
1326.28	102.763
1330.55	68.0847
1334.81	124.949
1339.07	94.0888
1343.33	82.5591
1347.58	101.109
1351.83	62.7689
1356.08	104.683
1360.33	85.9869
1364.58	171.572
1368.82	78.7623
1373.06	111.41
1377.3	63.4249
1381.54	58.3397
1385.77	120.939
1390.01	48.8232
1394.24	65.6168
1398.46	59.9963
1402.69	89.0623
1406.91	76.7053
1411.14	101.028
1415.36	71.4973
1419.57	69.6008
1423.79	115.719
1428	88.9436
1432.21	129.05
1436.42	53.9618
1440.62	61.8259
1444.83	30.3113
1449.03	101.649
1453.23	13.5378
1457.42	59.7219
1461.62	28.9639
1465.81	62.4127
1470	10.4326
1474.19	44.2863
1478.38	68.5934
1482.56	31.1753
1486.74	37.1169
1490.92	76.9031
1495.1	39.8715
1499.27	35.8036
1503.45	12.2821
1507.62	62.511
1511.79	67.1495
1515.95	58.6437
1520.12	1.29358
1524.28	27.6809
1528.44	76.6879
1532.6	28.2651
1536.75	39.156
1540.9	8.13672
1545.06	20.457
1549.2	20.72
1553.35	97.8655
1557.5	103.927
1561.64	0.45459
