Measurement: Raman, 514 nm, ccw, Raman Data Processed
Mineral: Axinite-(Fe)
Rruff sample: R050061
Ideal chemistry: Ca_4_Fe^2+^_2_Al_4_[B_2_Si_8_O_30_](OH)_2_
Locality: Jamestown, California, USA
Source: Rock Currier
Description: Brown colored axe-head-shaped single crystals
Measured chemistry: Ca_2.00_(Fe^2+^_0.73_Mg_0.20_Mn_0.07_)Al_2.00_BSi_4_O_15_(OH)
Pin_id: L00399
Orientation: Laser parallel to c* (0 0 1). Fiducial mark perpendicular to laser is parallel to a [1 0 0]
Raman shift (cm-1)	intensity
89.663	0
93.868	55.511
98.07	588.513
102.271	953.918
106.469	1610.23
110.665	2925.17
114.859	2320.78
119.05	1493.41
123.24	1402.24
127.427	656.446
131.612	319.441
135.794	793.445
139.975	1808.28
144.153	1347.47
148.329	1876.14
152.503	2605.04
156.674	1007.9
160.843	95.454
165.011	376.225
169.175	1880.16
173.338	2964.72
177.499	1289
181.657	56.785
185.813	447.949
189.967	136.152
194.119	1026.18
198.268	626.863
202.415	1599.75
206.561	3678.8
210.703	5590.7
214.844	5935.49
218.983	6105.41
223.119	3227.41
227.253	790.446
231.385	48.144
235.515	7.097
239.643	441.992
243.768	473.49
247.891	435.614
252.012	1909.78
256.131	4204.94
260.248	3604.91
264.363	3992.2
268.475	5299.49
272.585	6158.25
276.693	5903.21
280.799	4299.24
284.903	3226.91
289.005	3389.55
293.104	3513.79
297.201	3016.12
301.296	2264.94
305.389	2340.81
309.48	2776.43
313.569	4435.29
317.655	9222.36
321.74	10345.6
325.822	6212.33
329.902	4509.12
333.98	5014.27
338.056	7591.62
342.129	12355.1
346.201	11207.1
350.27	4906.89
354.337	2147.97
358.402	748.061
362.465	157.501
366.526	7.372
370.585	299.885
374.642	735.18
378.696	707.873
382.748	1694.62
386.799	3840.45
390.847	4226.66
394.893	2434.32
398.936	1490.75
402.978	1444.59
407.018	1318.29
411.055	1553.77
415.091	3070.44
419.124	5846.07
423.155	8706.56
427.184	9350.86
431.211	6944.97
435.236	3819.88
439.259	2965.18
443.28	4982.46
447.298	5066.07
451.315	1967.28
455.329	676.33
459.341	298.249
463.352	252.037
467.36	564.732
471.366	1058.38
475.37	1041.97
479.372	1648.68
483.371	3566.66
487.369	3703.96
491.365	1443.72
495.358	752.739
499.35	667.87
503.339	803.927
507.326	974.944
511.311	1018.63
515.295	809.239
519.276	248.904
523.255	92.553
527.232	261.491
531.207	234.625
535.179	111.563
539.15	60.37
543.119	13.818
547.086	118.286
551.05	7.173
555.013	189.829
558.973	878.531
562.932	1490.17
566.888	1384.65
570.842	1796.98
574.795	2196.16
578.745	1518.18
582.693	977.033
586.639	900.731
590.583	848.271
594.525	414.651
598.465	121.87
602.403	124.87
606.339	334.657
610.273	1048.28
614.205	2111.75
618.135	2962.07
622.063	2555.16
625.989	1103.17
629.912	521.096
633.834	567.7
637.754	1078.54
641.671	1841.05
645.587	2152.34
649.501	1488.68
653.412	849.713
657.322	470.712
661.23	415
665.135	556.056
669.039	992.379
672.94	2196.68
676.84	3633.55
680.738	2978.87
684.633	1601.13
688.527	956.432
692.418	879.638
696.308	1157.83
700.195	1806.57
704.081	3462.62
707.964	7476.7
711.846	13907.7
715.726	15590.2
719.603	9552.5
723.479	4660.69
727.352	2410.73
731.224	1433.64
735.094	891.427
738.961	522.083
742.827	411.617
746.691	301.031
750.552	354.33
754.412	459.375
758.27	760.724
762.125	1032.99
765.979	1393.87
769.831	1361.65
773.681	850.349
777.529	509.959
781.375	196.487
785.219	27.934
789.06	130.77
792.901	112.068
796.739	122.109
800.575	158.938
804.409	116.57
808.241	28.81
812.071	233.662
815.899	187.096
819.726	59.496
823.55	34.183
827.372	5.057
831.193	32.851
835.011	64
838.828	204.468
842.642	411.639
846.455	694.378
850.266	1101.44
854.075	1296.76
857.881	1431.21
861.686	1460.75
865.489	1492.97
869.29	1413.12
873.089	1457.92
876.886	1607.81
880.682	1677.8
884.475	1713.9
888.266	1917.09
892.056	2491.35
895.843	3717.73
899.629	5257.22
903.413	7178.81
907.194	7488.54
910.974	5935.41
914.752	3973.42
918.528	2740.53
922.302	2181.74
926.074	1932.09
929.844	1944.58
933.613	1997.21
937.379	2387.62
941.144	2966.4
944.906	4291.4
948.667	6253.95
952.426	8492.02
956.183	10950
959.938	16078.2
963.691	19940.1
967.442	16522.2
971.191	13484.5
974.939	14482.4
978.684	15940
982.428	13462.8
986.169	10345.9
989.909	9169.94
993.647	8474.03
997.383	8317.85
1001.12	8001.99
1004.85	6544.68
1008.58	4604.69
1012.31	2925.07
1016.03	2097.31
1019.76	1618.69
1023.48	1647.8
1027.2	1673.61
1030.92	1271.17
1034.64	926.91
1038.36	807.448
1042.07	776.053
1045.78	923.698
1049.49	1001.07
1053.2	1210.34
1056.9	1230.56
1060.61	1075.21
1064.31	795.371
1068.01	754.117
1071.71	727.501
1075.41	1045.43
1079.1	1619.35
1082.79	1948.4
1086.48	1342.73
1090.17	852.162
1093.86	532.32
1097.55	405.555
1101.23	441.433
1104.91	394.594
1108.59	554.209
1112.27	261.331
1115.95	198.065
1119.62	181.729
1123.3	114.81
1126.97	68.628
1130.63	20.643
1134.3	40.518
1137.97	23.307
1141.63	5.055
1145.29	46.413
1148.95	41.019
1152.61	31.985
1156.27	18.609
1159.92	54.013
1163.57	27.046
1167.22	0.246
1170.87	26.377
1174.52	60.347
1178.16	21.607
1181.81	17.103
1185.45	12.648
1189.09	12.383
1192.73	18.469
1196.36	52.453
1200	1.966
1203.63	11.26
1207.26	12.484
1210.89	14.808
1214.52	12.619
1218.14	15.88
1221.77	12.575
1225.39	33.365
1229.01	13.381
1232.62	54.32
1236.24	3.858
1239.86	82.206
1243.47	27.405
1247.08	51.456
1250.69	50.46
1254.3	31.262
1257.9	42.938
1261.5	62.417
1265.11	75.718
1268.71	123.795
1272.3	118.604
1275.9	108.168
1279.49	96.326
1283.09	127.064
1286.68	53.078
1290.27	52.653
1293.86	44.9
1297.44	68.729
1301.03	49.756
1304.61	47.035
1308.19	52.367
1311.77	42.234
1315.34	34.321
1318.92	18.566
1322.49	57.501
1326.06	46.911
1329.63	80.471
1333.2	87.055
1336.77	54.954
1340.33	84.331
1343.89	90.067
1347.46	49.307
1351.02	42.105
1354.57	60.092
1358.13	108.993
1361.68	85.688
1365.23	109.535
1368.79	75.829
1372.33	92.651
1375.88	106.666
1379.43	116.831
1382.97	93.702
1386.51	76.684
1390.05	53.96
1393.59	77.706
1397.13	81.395
1400.66	104.221
1404.19	99.891
1407.72	133.856
1411.25	131.277
1414.78	132.744
1418.31	57.868
1421.83	4.44
1425.36	79.998
1428.88	65.901
1432.39	40.313
1435.91	92.173
1439.43	84.138
1442.94	89.821
1446.45	105.896
1449.96	86.885
1453.47	34.271
1456.98	51.238
1460.48	8.995
1463.99	32.925
1467.49	64.284
1470.99	39.549
1474.49	27.177
1477.99	20.02
1481.48	12.267
1484.97	87.504
1488.46	93.658
1491.95	68.337
1495.44	78.323
1498.93	35.764
1502.41	58.628
1505.9	37.015
1509.38	0.465
1512.86	0
