Measurement: Raman, 514 nm, ccw, Raman Data Processed
Mineral: Axinite-(Fe)
Rruff sample: R050061
Ideal chemistry: Ca_4_Fe^2+^_2_Al_4_[B_2_Si_8_O_30_](OH)_2_
Locality: Jamestown, California, USA
Source: Rock Currier
Description: Brown colored axe-head-shaped single crystals
Measured chemistry: Ca_2.00_(Fe^2+^_0.73_Mg_0.20_Mn_0.07_)Al_2.00_BSi_4_O_15_(OH)
Pin_id: L00531
Orientation: Laser parallel to (1 1 0). Fiducial mark perpendicular to laser is parallel to -c [0 0 -1]
Raman shift (cm-1)	intensity
92.466	0
96.67	58.563
100.871	385.676
105.07	2010.73
109.267	3392.04
113.461	2107.21
117.653	483.604
121.843	642.256
126.031	695.67
130.217	321.165
134.4	158.43
138.581	256.615
142.76	1419.48
146.937	6393.27
151.112	12525.1
155.284	7597.87
159.454	4351.73
163.622	4598.47
167.787	8719.43
171.951	14432.9
176.112	11378.2
180.271	5444.4
184.428	2251.48
188.583	2567.55
192.735	4968.59
196.885	2675.48
201.033	1755.9
205.179	3660.25
209.323	5052.48
213.464	4325.47
217.603	3119.11
221.741	1697.37
225.875	55.304
230.008	399.367
234.139	183.92
238.267	931.538
242.393	2933.43
246.517	4680.72
250.639	5375.98
254.759	5071.09
258.876	3601.2
262.991	3955.68
267.104	5543.48
271.215	7083.05
275.324	7333.75
279.431	6705.05
283.535	7176.38
287.638	6058.58
291.738	4581.52
295.836	4854.97
299.932	7097.47
304.025	11760.4
308.117	13314.9
312.206	7029.65
316.293	3298.69
320.378	2165.01
324.461	2093.58
328.542	3133.02
332.621	2285.98
336.697	1280.23
340.772	3415.74
344.844	7327.5
348.914	9112.48
352.982	8808.38
357.048	3734.2
361.111	1005.08
365.173	221.669
369.232	31.978
373.29	32.158
377.345	669.312
381.398	1837.39
385.449	5309.42
389.497	13061.8
393.544	15640.4
397.589	8008.81
401.631	2641.6
405.672	997.129
409.71	906.392
413.746	2391.4
417.78	4835.15
421.812	4727.66
425.842	5410.06
429.869	5252.31
433.895	3481.36
437.918	1635.21
441.94	771.819
445.959	619.195
449.976	878.319
453.991	1297.17
458.004	1645.75
462.015	1173.1
466.024	1384.25
470.031	1969.09
474.035	3009.65
478.038	7351.19
482.038	21051.2
486.037	31912
490.033	15153.7
494.027	5506.03
498.019	2541.32
502.009	1341.24
505.997	865.801
509.983	350.978
513.967	132.662
517.949	419.597
521.929	475.95
525.906	368.573
529.882	143.344
533.855	453.058
537.827	486.254
541.796	85.013
545.764	80.072
549.729	190.272
553.692	395.915
557.653	1554.66
561.612	2786.13
565.569	2516.2
569.524	2798.86
573.477	4097.12
577.428	4314.98
581.377	3587.46
585.324	3625.53
589.269	4043.22
593.212	2915.51
597.152	1626.42
601.091	1523.94
605.028	2174.08
608.962	4060.84
612.895	8042.24
616.825	14202.3
620.754	18451.9
624.68	11141.2
628.605	3976.17
632.527	1234.36
636.447	672.269
640.366	676.728
644.282	1024.41
648.196	919.398
652.109	787.785
656.019	931.82
659.927	1376.36
663.834	2162.41
667.738	3670.69
671.64	7087.57
675.54	13062.6
679.439	12913.3
683.335	7586
687.229	4747.98
691.121	4237.22
695.012	5189.97
698.9	7866.05
702.786	13395.3
706.67	24482.7
710.552	46659.7
714.433	58941.7
718.311	39173.5
722.187	19465.3
726.061	9786.92
729.934	5548.5
733.804	3528.02
737.672	2421.49
741.539	1870.94
745.403	1448.38
749.265	1315.81
753.126	1684.27
756.984	2510.75
760.84	3790.28
764.695	5221.87
768.547	5023.54
772.398	3290.29
776.246	1659.15
780.093	645.127
783.937	19.237
787.78	264.686
791.621	423.47
795.459	445.924
799.296	476.51
803.131	298.359
806.964	246.396
810.795	1951.2
814.623	3080.28
818.45	1964.63
822.275	983.29
826.098	336.457
829.92	14.997
833.739	56.296
837.556	57.333
841.371	346.62
845.184	666.46
848.996	811.701
852.805	955.403
856.613	853.705
860.418	928.703
864.222	1055.32
868.023	997.506
871.823	881.296
875.621	849.704
879.417	1099.79
883.211	1697.57
887.003	2592.01
890.793	4327.15
894.581	6866.99
898.367	9157.57
902.152	9638.83
905.934	9250.79
909.714	8103.42
913.493	6226.67
917.27	4420.6
921.044	3925.46
924.817	4600.58
928.588	6346.6
932.357	7073.3
936.124	6520.11
939.889	7166.21
943.652	10053.8
947.414	16183.8
951.173	23051.5
954.931	28634
958.686	35896.7
962.44	45469.5
966.192	39643.2
969.942	26267.8
973.69	20583.1
977.436	20699.3
981.18	18045.8
984.922	13993.6
988.663	12232.2
992.401	11931.5
996.138	13121.6
999.873	16532.4
1003.61	18174
1007.34	15017.6
1011.07	9781.25
1014.79	6090.48
1018.52	4175.22
1022.24	3415.41
1025.96	2946.42
1029.68	2497.31
1033.4	2259.44
1037.12	2281.88
1040.83	2515.91
1044.54	2816.12
1048.25	3725.35
1051.96	5056.54
1055.67	5962.19
1059.37	6039.69
1063.08	4839.36
1066.78	3449.61
1070.48	3125.99
1074.17	3760.21
1077.87	5389.46
1081.56	6360.06
1085.26	4821.27
1088.94	2930.54
1092.63	2466
1096.32	3093.23
1100	4540.68
1103.69	6284.11
1107.37	5688.41
1111.05	4135.06
1114.72	2727.95
1118.4	1876
1122.07	1403.1
1125.74	1082.29
1129.41	876.733
1133.08	731.336
1136.75	617.13
1140.41	421.334
1144.07	180.337
1147.73	67.652
1151.39	15.817
1155.05	55.352
1158.7	36.866
1162.36	15.65
1166.01	44.791
1169.66	118.151
1173.3	109.87
1176.95	83.292
1180.59	119.06
1184.24	64.882
1187.88	32.043
1191.52	8.856
1195.15	28.359
1198.79	20.361
1202.42	82.772
1206.05	20.718
1209.68	10.696
1213.31	91.253
1216.93	51.101
1220.56	88.187
1224.18	43.168
1227.8	10.613
1231.42	6.229
1235.04	44.586
1238.65	19.62
1242.26	156.069
1245.88	200.685
1249.48	186.759
1253.09	246.189
1256.7	145.996
1260.3	79.828
1263.9	104.473
1267.51	126.288
1271.11	168.495
1274.7	215.71
1278.3	280.187
1281.89	351.019
1285.48	251.253
1289.07	199.948
1292.66	105.866
1296.25	60.089
1299.83	85.021
1303.41	161.494
1306.99	103.998
1310.57	202.898
1314.15	238.584
1317.73	185.88
1321.3	172.243
1324.87	92.092
1328.44	136.124
1332.01	91.892
1335.58	117.536
1339.14	212.626
1342.71	265
1346.27	291.402
1349.83	317.655
1353.39	196.619
1356.94	235.493
1360.5	136.105
1364.05	364.933
1367.6	113.807
1371.15	130.164
1374.7	262.965
1378.24	293.161
1381.79	241.507
1385.33	248.423
1388.87	272.458
1392.41	263.385
1395.95	180.643
1399.48	75.422
1403.02	180.625
1406.55	189.106
1410.08	132.262
1413.61	278.706
1417.13	304.49
1420.66	316.875
1424.18	251.167
1427.7	220.056
1431.22	142.599
1434.74	107.401
1438.26	0.698
1441.77	73.099
1445.28	100.473
1448.79	202.597
1452.3	210.523
1455.81	145.375
1459.32	235.301
1462.82	214.378
1466.32	156.604
1469.82	148.537
1473.32	114.068
1476.82	79.343
1480.32	3.459
1483.81	67.857
1487.3	56.287
1490.79	183.299
1494.28	110.689
1497.77	152.947
1501.25	153.406
1504.74	208.734
1508.22	138.914
1511.7	206.274
1515.18	0
