Measurement: Raman, 514 nm, ccw, Raman Data Processed
Mineral: Axinite-(Fe)
Rruff sample: R060194
Ideal chemistry: Ca_4_Fe^2+^_2_Al_4_[B_2_Si_8_O_30_](OH)_2_
Locality: near Dalbandi, Baluchistan Province, Pakistan
Source: Herbert Obodda
Description: Brown transparent wedge-shaped single crystal
Measured chemistry: Ca_2.00_(Fe^2+^_0.66_Mg_0.30_Mn_0.04_)Al_2.00_BSi_4.00_O_15_(OH)
Pin_id: L01255
Orientation: Laser parallel to (-1 0 -1). Fiducial mark perpendicular to laser is parallel to -b [0 -1 0]
Raman shift (cm-1)	intensity
53.91	0
58.864	274.204
63.817	194.555
68.767	2.98486
73.714	49.993
78.659	498.049
83.602	1916.35
88.542	3515.11
93.48	5858.47
98.416	6483.65
103.349	6569.11
108.28	8823.94
113.208	6442.35
118.134	6482.6
123.058	6354.37
127.979	6151.76
132.898	5868.38
137.814	6369.81
142.728	8244.6
147.639	8875.6
152.549	12941.7
157.455	9505.5
162.359	7357
167.261	7746.22
172.161	10497
177.058	10277.3
181.952	6438.78
186.845	4526.38
191.734	3591.88
196.622	3485.07
201.507	3784.06
206.389	4961.04
211.269	7590.63
216.147	8973.32
221.022	8464.85
225.895	5085.54
230.765	2656.69
235.633	2147.3
240.498	2186.13
245.361	2865.98
250.222	3910.02
255.08	6324.84
259.936	7746.18
264.789	6152.66
269.64	6593.8
274.488	6115.2
279.334	4345.69
284.178	3925.25
289.019	3230.81
293.857	2379.25
298.693	2758.44
303.527	3893.28
308.358	5496.63
313.187	4922.36
318.013	5987.34
322.837	6781.44
327.659	4062.53
332.478	3837.5
337.294	4337.2
342.108	7608.53
346.92	10448.4
351.729	6934.79
356.535	2395.93
361.34	325.997
366.141	451.275
370.94	518.539
375.737	9.46191
380.531	1010.73
385.323	3466.97
390.113	6555.7
394.9	6876.6
399.684	2925.42
404.466	1396.69
409.245	1240.94
414.022	2001.21
418.797	5153.53
423.569	9562.36
428.338	12461.6
433.105	8208.16
437.87	3365.93
442.632	1779.81
447.391	1873.72
452.149	1276.56
456.903	1297.23
461.655	1044.64
466.405	1093.7
471.152	2017.33
475.897	4010.43
480.639	9027.93
485.378	18558.7
490.116	11737.8
494.85	3496.93
499.582	1823.12
504.312	727.301
509.039	194.775
513.764	400.744
518.486	444.469
523.206	476.248
527.923	229.156
532.638	85.8438
537.35	209.025
542.059	81.3594
546.766	222.453
551.471	305.15
556.173	1062.7
560.873	2900.21
565.57	2994.67
570.264	2797.95
574.957	3122.01
579.646	2914.77
584.333	2073.17
589.018	1929.18
593.7	1127.71
598.379	998.744
603.056	1402.21
607.73	2856.07
612.402	6225.27
617.072	11007.8
621.739	13406.5
626.403	6992.53
631.065	2477.7
635.724	1460.03
640.381	1636.71
645.035	1892.54
649.687	1320.94
654.336	1237.34
658.983	1375.26
663.627	2003.22
668.268	3521.62
672.907	6923.32
677.544	11019.3
682.178	7792.44
686.809	4341.15
691.438	3579.88
696.065	4321.55
700.688	7245.41
705.31	14401.6
709.929	27590.7
714.545	39158.9
719.158	26591.1
723.77	11093.3
728.378	5071.54
732.984	2669.82
737.588	1481.17
742.189	1290.59
746.787	1116.1
751.383	1027.73
755.976	1092.49
760.567	1611.42
765.155	1926.54
769.741	1886.88
774.324	1191.47
778.904	388.336
783.482	89.8125
788.058	266.4
792.631	428.582
797.201	319.272
801.769	325.516
806.334	91.0742
810.897	436.68
815.457	1006.76
820.014	639.932
824.569	154.32
829.122	125.648
833.671	84.7266
838.219	288.502
842.763	497.127
847.306	907.668
851.845	1592.16
856.382	1816.66
860.917	2044.2
865.448	2213.83
869.978	1999.61
874.505	1805.56
879.029	1857.76
883.55	2050.25
888.069	2396.05
892.586	4184.37
897.1	6923.28
901.611	9997.88
906.12	12486.1
910.626	10383.9
915.129	6361.57
919.63	3922.23
924.129	2924.25
928.625	3003.23
933.118	3595.2
937.609	3753.66
942.097	5072.81
946.582	8421.42
951.065	13491.2
955.546	20085.8
960.023	27953.6
964.499	37370.4
968.971	32189.2
973.441	21643.7
977.909	20381.4
982.374	19974.5
986.836	16303.8
991.295	15291.5
995.753	13300.6
1000.21	12108.2
1004.66	11809.3
1009.11	8884.81
1013.55	5652.96
1018	3564.02
1022.44	2322.96
1026.88	1859.8
1031.32	1542.6
1035.75	1462.73
1040.18	1519.21
1044.61	1987.29
1049.04	2652.28
1053.46	4175.52
1057.88	5357.82
1062.3	5492.72
1066.71	4455.95
1071.13	3113.22
1075.54	2681.49
1079.94	3628.4
1084.35	4718.23
1088.75	3408.23
1093.15	1525.8
1097.55	1397.94
1101.94	1612.62
1106.34	2181.15
1110.73	2022.68
1115.11	1655.14
1119.5	1281.58
1123.88	1051.45
1128.26	681.104
1132.63	159.435
1137.01	303.006
1141.38	152.856
1145.75	56.0391
1150.12	122.752
1154.48	52.1387
1158.84	137.56
1163.2	117.234
1167.55	83.4375
1171.91	24.3457
1176.26	30.0625
1180.61	76.3262
1184.95	2.00391
1189.29	104.328
1193.63	77.9356
1197.97	107.398
1202.31	216.578
1206.64	4.82031
1210.97	27.3984
1215.29	74.7832
1219.62	36.6348
1223.94	193.16
1228.26	147.359
1232.57	296.272
1236.89	166.705
1241.2	167.272
1245.51	301.654
1249.81	112.957
1254.12	193.935
1258.42	46.502
1262.72	118.658
1267.01	413.185
1271.3	458.051
1275.59	533.643
1279.88	295.297
1284.17	614.045
1288.45	495.455
1292.73	396.826
1297.01	474.682
1301.28	510.316
1305.55	297.152
1309.82	402.168
1314.09	261.541
1318.35	304.391
1322.61	342.166
1326.87	237.315
1331.13	282.562
1335.38	272.127
1339.63	340.889
1343.88	374.205
1348.12	241.207
1352.37	313.922
1356.61	330.734
1360.85	373.887
1365.08	341.922
1369.31	361.539
1373.54	272.398
1377.77	331.652
1381.99	332.637
1386.22	293.17
1390.43	323.016
1394.65	221.709
1398.87	363.152
1403.08	256.154
1407.29	483.269
1411.49	121.943
1415.69	260.106
1419.89	246.203
1424.09	471.92
1428.29	120.881
1432.48	426.522
1436.67	203.566
1440.86	328.17
1445.04	216.478
1449.23	189.057
1453.4	158.594
1457.58	431.459
1461.76	304.543
1465.93	235.853
1470.1	232.051
1474.26	431.285
1478.43	251.652
1482.59	281.387
1486.75	450.539
1490.9	406.15
1495.06	9.40234
1499.21	109.334
1503.35	132.33
1507.5	150.941
1511.64	376.584
1515.78	344.705
1519.92	167.135
1524.05	554.348
1528.18	258.654
1532.31	349.766
1536.44	233.24
1540.56	451.537
1544.69	19.1445
1548.8	319.943
1552.92	545.775
1557.03	347.068
1561.14	220.816
1565.25	187.217
1569.36	268.853
