Measurement: Raman, 514 nm, ccw, Raman Data Processed
Mineral: Axinite-(Fe)
Rruff sample: R060183
Ideal chemistry: Ca_4_Fe^2+^_2_Al_4_[B_2_Si_8_O_30_](OH)_2_
Locality: Skagit Bluffs, near Manning Park, British Columbia, Canada
Source: Lloyd Twaites
Description: Light-pink transparent axe-head-shaped single crystal
Measured chemistry: Ca_2.00_(Fe^2+^_0.58_Mn_0.23_Mg_0.19_)Al_2.00_B_1.00_Si_4.00_O_15_(OH)
Pin_id: L01002
Orientation: Laser parallel to (-1 0 -1). Fiducial mark perpendicular to laser is parallel to b [0 1 0]
Raman shift (cm-1)	intensity
52.671	0
57.626	316.284
62.579	403.222
67.529	127.771
72.477	59.0457
77.423	205.326
82.367	876.798
87.308	2991.76
92.246	7554.69
97.182	12609.2
102.116	17855.5
107.047	24911.8
111.976	22639
116.903	13068
121.827	9047.66
126.749	7327
131.668	6707.78
136.585	9663.39
141.5	11908.2
146.412	9498.45
151.321	9623.09
156.229	6137.27
161.134	5669.31
166.036	8800.11
170.936	14056.5
175.834	7755.42
180.729	2419.54
185.622	481.7
190.512	1098.87
195.4	3057.68
200.286	5234.23
205.169	10644.2
210.049	15406.1
214.928	15042.4
219.803	12523.5
224.677	5067.86
229.548	1444.32
234.416	1751.24
239.282	3483.5
244.146	4841.12
249.007	6095.47
253.866	10407.6
258.722	13249.6
263.576	14683.2
268.427	20984.9
273.276	26812.4
278.123	24057.7
282.967	15590.5
287.809	13499.9
292.648	13116.6
297.485	11758.6
302.319	9157.62
307.151	9797.58
311.98	13309.3
316.807	22918.8
321.631	24579.8
326.454	16942.5
331.273	16068.4
336.09	20101.3
340.905	28141
345.717	24638.6
350.527	12590
355.334	4410.42
360.139	109.12
364.941	1071.08
369.741	361.426
374.538	489.004
379.333	2041.04
384.126	5993.36
388.916	9703.53
393.703	7690.43
398.488	4775.12
403.271	4086.23
408.051	5156.5
412.828	10912.4
417.603	19533
422.376	23568.9
427.146	22185.2
431.914	16112.6
436.679	10922.2
441.442	14048.7
446.202	13822.1
450.96	5180.26
455.715	1790.02
460.467	170.78
465.218	208.029
469.965	1670.76
474.711	2738.67
479.454	6157.65
484.194	10277.6
488.932	5235.44
493.667	1462.04
498.4	1054.29
503.13	1890.09
507.858	2967.23
512.583	2870.56
517.306	1043
522.026	466.83
526.744	925.065
531.459	660.827
536.172	246.357
540.882	223.257
545.59	754.058
550.295	1154.37
554.998	2347.28
559.698	4519.64
564.396	5353.38
569.091	6105.41
573.784	7325.66
578.474	5450.07
583.162	3763.57
587.847	3287.09
592.529	1916.59
597.209	731.987
601.887	621.591
606.562	1643.18
611.235	4209.94
615.905	7126.43
620.572	7636.59
625.237	3774.39
629.9	1803.78
634.56	2282.74
639.217	4487.24
643.872	6083.41
648.524	4739.22
653.174	2504.83
657.821	1742.8
662.466	1934.57
667.108	3507.7
671.748	6979.3
676.385	11508.9
681.02	9537.25
685.652	5198.68
690.281	3642.86
694.908	4348.21
699.533	7601.16
704.155	15968.5
708.774	33669.4
713.391	54246.6
718.005	49214.4
722.617	25721.6
727.226	12006.4
731.833	6117.69
736.437	3404.55
741.039	2217.24
745.638	1893.02
750.234	2174.93
754.828	3198.66
759.419	3677.97
764.008	3535.19
768.595	2798.28
773.178	1571.29
777.759	560.266
782.338	62.0864
786.914	304.65
791.488	620.393
796.059	652.231
800.627	521.886
805.193	224.447
809.756	630.25
814.317	1069.75
818.875	449.584
823.431	130.438
827.984	69.7998
832.534	367.681
837.082	818.268
841.627	1554.32
846.17	2710.83
850.71	3713.93
855.248	4151
859.783	4117.08
864.316	4425.24
868.846	5024.55
873.373	5725.13
877.898	6811.41
882.42	7572.36
886.94	8832.87
891.457	10983.1
895.971	14673.3
900.483	17897.6
904.993	17708.9
909.5	14467
914.004	10541.1
918.505	8205.65
923.004	7246.27
927.501	7364.3
931.995	7641.74
936.486	7306.12
940.975	8695.5
945.461	12576.8
949.945	18386.6
954.426	24969
958.904	33967.8
963.38	41412.4
967.853	37903.6
972.324	35015.8
976.792	41302.7
981.258	44279.2
985.72	36364.3
990.181	29703.1
994.639	24920.5
999.094	21784.5
1003.55	18883.5
1008	14266.2
1012.44	9243.26
1016.89	5815.15
1021.33	3874.5
1025.77	3005.83
1030.21	2626.13
1034.64	2359.59
1039.07	2598.48
1043.5	2963.1
1047.93	3093.82
1052.35	3592.31
1056.78	4182.56
1061.19	3862.91
1065.61	2721.82
1070.02	2244.78
1074.43	2655.19
1078.84	4431.24
1083.25	5782.5
1087.65	4472.76
1092.05	2570.43
1096.45	1610.44
1100.85	1517.02
1105.24	1653.15
1109.63	2534.74
1114.02	1150.7
1118.4	706.493
1122.78	530.616
1127.16	265.062
1131.54	57.4443
1135.92	33.355
1140.29	96.0649
1144.66	104.557
1149.02	83.5498
1153.39	138.656
1157.75	131.321
1162.11	209.399
1166.46	136.319
1170.82	66.0181
1175.17	70.7251
1179.52	16.7095
1183.86	71.2925
1188.21	11.6152
1192.55	120.735
1196.89	62.9932
1201.22	78.8208
1205.55	76.8589
1209.88	95.791
1214.21	102.82
1218.54	45.251
1222.86	142.715
1227.18	145.91
1231.5	201.751
1235.81	239.882
1240.12	161.412
1244.43	299.231
1248.74	245.504
1253.04	349.627
1257.34	253.274
1261.64	326.789
1265.94	410.877
1270.23	408.862
1274.52	414.234
1278.81	593.25
1283.1	415.111
1287.38	319.595
1291.66	348.633
1295.94	348.266
1300.21	239.162
1304.48	258.368
1308.75	152.03
1313.02	127.574
1317.29	149.963
1321.55	239.215
1325.81	324.651
1330.06	233.586
1334.32	254.496
1338.57	329.914
1342.82	317.252
1347.06	325.625
1351.31	316.154
1355.55	407.341
1359.79	299.102
1364.02	333.424
1368.26	222.855
1372.49	166.42
1376.71	260.54
1380.94	241.676
1385.16	241.398
1389.38	242.214
1393.6	253.744
1397.81	226.582
1402.02	131.387
1406.23	192.819
1410.44	160.485
1414.64	297.242
1418.85	197.04
1423.04	215.699
1427.24	92.019
1431.43	214.595
1435.62	98.4834
1439.81	146.355
1444	161.016
1448.18	96.1548
1452.36	93.186
1456.54	93.9023
1460.71	40.5503
1464.89	18.6641
1469.06	121.418
1473.22	29.7095
1477.39	24.8569
1481.55	9.8877
1485.71	106.008
1489.86	153.239
1494.02	49.4307
1498.17	100.02
1502.32	58.8398
1506.46	86.2246
1510.61	70.644
1514.75	30.5596
1518.88	167.336
1523.02	48.4985
1527.15	125.674
1531.28	171.332
1535.41	137.154
1539.53	89.0581
1543.66	138.177
1547.78	63.7891
1551.89	171.747
1556.01	212.546
1560.12	134.151
1564.23	133.435
1568.33	28.8643
