Measurement: Raman, 514 nm, ccw, Raman Data Processed
Mineral: Axinite-(Fe)
Rruff sample: R060194
Ideal chemistry: Ca_4_Fe^2+^_2_Al_4_[B_2_Si_8_O_30_](OH)_2_
Locality: near Dalbandi, Baluchistan Province, Pakistan
Source: Herbert Obodda
Description: Brown transparent wedge-shaped single crystal
Measured chemistry: Ca_2.00_(Fe^2+^_0.66_Mg_0.30_Mn_0.04_)Al_2.00_BSi_4.00_O_15_(OH)
Pin_id: L01072
Orientation: Laser parallel to -c* (0 0 -1). Fiducial mark perpendicular to laser is parallel to a [1 0 0]
Raman shift (cm-1)	intensity
53.91	0
58.864	249
63.817	343.794
68.767	47.8117
73.714	24.8904
78.659	93.7669
83.602	465.501
88.542	1368.6
93.48	3185.96
98.416	5576.41
103.349	10034.5
108.28	16661
113.208	18483.4
118.134	9561.81
123.058	5698.59
127.979	3832.1
132.898	2998.47
137.814	3799.11
142.728	6628.86
147.639	7546.17
152.549	11619
157.455	10863.9
162.359	6495.49
167.261	7714.77
172.161	13379.7
177.058	13156.1
181.952	5605.9
186.845	2640.7
191.734	4704.64
196.622	10540.1
201.507	8728.65
206.389	12879
211.269	15209.7
216.147	12946.7
221.022	10354.2
225.895	5004.42
230.765	1132.28
235.633	294.132
240.498	1246.72
245.361	2780.39
250.222	3339.13
255.08	5763.51
259.936	7856.93
264.789	8080.28
269.64	13177.5
274.488	17648
279.334	14751.7
284.178	8945.37
289.019	6661.98
293.857	6910.4
298.693	8947.51
303.527	12172.2
308.358	15952.3
313.187	13489.7
318.013	13414.2
322.837	15252.4
327.659	8740.83
332.478	6112.93
337.294	7097.57
342.108	13674.6
346.92	21490
351.729	16008.4
356.535	10453.5
361.34	2723.03
366.141	191.982
370.94	547.468
375.737	97.5947
380.531	694.429
385.323	4084.11
390.113	12144.9
394.9	13819
399.684	6367.38
404.466	3531.97
409.245	2790.03
414.022	6956.52
418.797	19049.9
423.569	17805.3
428.338	16603.6
433.105	13354.7
437.87	5956.52
442.632	4962.95
447.391	7793.86
452.149	2814.16
456.903	244.739
461.655	284.748
466.405	281.435
471.152	1916.22
475.897	2967.89
480.639	7036.33
485.378	18750.5
490.116	16524.2
494.85	4543.44
499.582	2228.44
504.312	3185.31
509.039	4618.09
513.764	4264.62
518.486	1729.65
523.206	16.2803
527.923	432.056
532.638	314.281
537.35	88.2363
542.059	92.1201
546.766	36.917
551.471	182.736
556.173	88.458
560.873	1404.12
565.57	2771.19
570.264	4494.31
574.957	6911.39
579.646	5677.39
584.333	4230.25
589.018	5874.91
593.7	6139.33
598.379	2729.46
603.056	1291.71
607.73	1646.16
612.402	3760.27
617.072	6581
621.739	7761.31
626.403	4181.17
631.065	1103.55
635.724	443.372
640.381	1254.36
645.035	2364.81
649.687	1685.71
654.336	679.909
658.983	218.814
663.627	619.259
668.268	1517.04
672.907	4066.41
677.544	7669.33
682.178	6543.9
686.809	2949.05
691.438	1825.57
696.065	2405.89
700.688	4751.47
705.31	10477.2
709.929	24086.7
714.545	42484.8
719.158	35770.7
723.77	16550.3
728.378	7295.77
732.984	3689.03
737.588	2295.17
742.189	1378.45
746.787	985.349
751.383	1104.29
755.976	1760.26
760.567	3377.29
765.155	5843.43
769.741	7239.74
774.324	5154.47
778.904	2584.71
783.482	1065.88
788.058	333.45
792.631	89.0898
797.201	310.954
801.769	427.312
806.334	230.586
810.897	554.74
815.457	1411.69
820.014	856.566
824.569	119.577
829.122	244.644
833.671	239.096
838.219	43.5342
842.763	435.74
847.306	1163.23
851.845	2004.99
856.382	2088.09
860.917	1927.56
865.448	1657.47
869.978	1919.86
874.505	1851.78
879.029	2266.3
883.55	2679.44
888.069	3606.36
892.586	5916.14
897.1	9987.98
901.611	14605
906.12	19196.5
910.626	21601.8
915.129	17150.6
919.63	9809.32
924.129	6101.4
928.625	5196.27
933.118	6509.72
937.609	5353.22
942.097	6276.69
946.582	9390.1
951.065	15199.5
955.546	22647.5
960.023	30718
964.499	43540.8
968.971	42470.8
973.441	29835.2
977.909	29008.9
982.374	32570.2
986.836	27138.2
991.295	24310.6
995.753	24279.5
1000.21	24950.9
1004.66	27577.7
1009.11	24661.1
1013.55	15079.2
1018	7744.62
1022.44	4917.33
1026.88	4320.31
1031.32	4486.06
1035.75	2835.7
1040.18	1629.78
1044.61	1654.06
1049.04	1663.57
1053.46	2020.77
1057.88	2893.75
1062.3	3132
1066.71	2506.48
1071.13	1727.18
1075.54	1633.5
1079.94	2562.26
1084.35	4515.08
1088.75	4051.81
1093.15	1999.68
1097.55	1638.75
1101.94	1829.22
1106.34	2697.01
1110.73	2844.31
1115.11	2157.45
1119.5	1301.7
1123.88	950.24
1128.26	469.378
1132.63	281.63
1137.01	178.86
1141.38	99.9131
1145.75	63.9014
1150.12	141.144
1154.48	7.30176
1158.84	208.58
1163.2	202.886
1167.55	182.707
1171.91	57.8428
1176.26	112.184
1180.61	140.673
1184.95	38.374
1189.29	30.3789
1193.63	53.7812
1197.97	7.92285
1202.31	161.161
1206.64	92.25
1210.97	134.982
1215.29	77.4424
1219.62	38.9619
1223.94	66.7119
1228.26	45.7803
1232.57	91.0732
1236.89	171.581
1241.2	239.463
1245.51	174.419
1249.81	202.603
1254.12	303.348
1258.42	550.684
1262.72	315.99
1267.01	310.787
1271.3	359.343
1275.59	401.184
1279.88	450.588
1284.17	455.932
1288.45	513.227
1292.73	473.019
1297.01	386.899
1301.28	341.275
1305.55	398.345
1309.82	310.559
1314.09	285.304
1318.35	241.356
1322.61	131.178
1326.87	118.045
1331.13	262.515
1335.38	256.69
1339.63	240.458
1343.88	388.084
1348.12	352.046
1352.37	205.851
1356.61	344.245
1360.85	172.527
1365.08	345.399
1369.31	231.153
1373.54	282.746
1377.77	284.763
1381.99	211.074
1386.22	150.95
1390.43	318.728
1394.65	6.12109
1398.87	180.992
1403.08	239.326
1407.29	229.19
1411.49	306
1415.69	252.662
1419.89	271.802
1424.09	199.821
1428.29	153.762
1432.48	272.715
1436.67	171.964
1440.86	36.3897
1445.04	60.8994
1449.23	181.144
1453.4	113.096
1457.58	179.339
1461.76	171.406
1465.93	89.0859
1470.1	81.4092
1474.26	61.3984
1478.43	123.703
1482.59	5.69043
1486.75	170.355
1490.9	167.269
1495.06	53.5527
1499.21	23.6299
1503.35	137.131
1507.5	184.895
1511.64	58.1338
1515.78	53.7236
1519.92	129.476
1524.05	196.332
1528.18	214.474
1532.31	210.782
1536.44	237.789
1540.56	154.833
1544.69	89.8389
1548.8	25.1562
1552.92	184.948
1557.03	205.433
1561.14	33.2334
1565.25	196.493
1569.36	1.55078
