Measurement: Raman, 514 nm, ccw, Raman Data Processed
Mineral: Axinite-(Fe)
Rruff sample: R060183
Ideal chemistry: Ca_4_Fe^2+^_2_Al_4_[B_2_Si_8_O_30_](OH)_2_
Locality: Skagit Bluffs, near Manning Park, British Columbia, Canada
Source: Lloyd Twaites
Description: Light-pink transparent axe-head-shaped single crystal
Measured chemistry: Ca_2.00_(Fe^2+^_0.58_Mn_0.23_Mg_0.19_)Al_2.00_B_1.00_Si_4.00_O_15_(OH)
Pin_id: L01002
Orientation: Laser parallel to (-1 0 -1). Fiducial mark perpendicular to laser is parallel to b [0 1 0]
Raman shift (cm-1)	intensity
52.671	0
57.626	239.816
62.579	352.616
67.529	26.3176
72.477	38.6223
77.423	7.6637
82.367	442.25
87.308	1847.77
92.246	5495.81
97.182	9392.05
102.116	11166.1
107.047	13151.8
111.976	10513.8
116.903	7610.28
121.827	6230.49
126.749	6337.63
131.668	4913.48
136.585	4866.52
141.5	5779.72
146.412	7614.34
151.321	10745.7
156.229	6765.73
161.134	4826.53
166.036	7396.08
170.936	13516.3
175.834	8597.94
180.729	3922.97
185.622	1250.16
190.512	1457.35
195.4	2454.32
200.286	2786.57
205.169	6247.13
210.049	9114.84
214.928	9643.07
219.803	9149.73
224.677	3478.51
229.548	933.757
234.416	1443.44
239.282	3792.95
244.146	5592.52
249.007	5371.79
253.866	6863
258.722	7341.34
263.576	7996.03
268.427	10677.6
273.276	12585.9
278.123	10592.6
282.967	7007.82
287.809	5570.4
292.648	4708.17
297.485	4581.18
302.319	5854.18
307.151	7673.09
311.98	6625.8
316.807	11459.2
321.631	12466.1
326.454	9167.42
331.273	8824.06
336.09	11029.9
340.905	17375.8
345.717	15983.7
350.527	10829.4
355.334	4241.99
360.139	143.721
364.941	845.072
369.741	242.893
374.538	585.304
379.333	1631.15
384.126	5402.79
388.916	10378.2
393.703	10480.9
398.488	5462.51
403.271	3457.6
408.051	2915.94
412.828	5818.88
417.603	11884.8
422.376	16138.4
427.146	17252
431.914	11105.2
436.679	6513.9
441.442	6149.11
446.202	5869.69
450.96	2540.55
455.715	2112.62
460.467	1022.79
465.218	1241.98
469.965	2721.1
474.711	4062.08
479.454	10233.8
484.194	19958.2
488.932	10135.3
493.667	3361.83
498.4	1950.81
503.13	1491.12
507.858	1308.04
512.583	692.631
517.306	105.709
522.026	725.855
526.744	726.001
531.459	398.81
536.172	18.5689
540.882	120.322
545.59	318.388
550.295	713.668
554.998	2079.44
559.698	4172.65
564.396	4637.24
569.091	6108.15
573.784	7922.32
578.474	6015.69
583.162	3736.23
587.847	3035.87
592.529	2061.57
597.209	1062.28
601.887	1324.95
606.562	2631.56
611.235	5985.05
615.905	11314.4
620.572	13575.6
625.237	6693.51
629.9	2440.21
634.56	1494.64
639.217	2011.78
643.872	2928.91
648.524	2425.17
653.174	1563.3
657.821	1366.08
662.466	2001.41
667.108	3576.59
671.748	7460.21
676.385	13265
681.02	11164.8
685.652	6114.56
690.281	4464.31
694.908	4993.53
699.533	7576.37
704.155	15171.8
708.774	30806
713.391	51735.7
718.005	45904.2
722.617	22886.3
727.226	10267.2
731.833	5102.78
736.437	2786.16
741.039	1941.34
745.638	1490.34
750.234	1844.21
754.828	2548.98
759.419	3126.69
764.008	3221.4
768.595	2949.13
773.178	1509.96
777.759	605.92
782.338	53.0523
786.914	328.462
791.488	459.582
796.059	635.76
800.627	688.875
805.193	291.864
809.756	622.258
814.317	1464.79
818.875	868.015
823.431	256.445
827.984	158.748
832.534	232.865
837.082	526.721
841.627	1106.81
846.17	1839.76
850.71	2483.77
855.248	2646.91
859.783	2862.23
864.316	3161.79
868.846	3490.65
873.373	3938.87
877.898	4439.52
882.42	5204.57
886.94	6344.66
891.457	8819.94
895.971	12608.3
900.483	16563.2
904.993	16759.5
909.5	13131.1
914.004	9855.02
918.505	7486.52
923.004	6555.59
927.501	6682.45
931.995	7058.81
936.486	6934.4
940.975	8408.19
945.461	12512.9
949.945	19265.6
954.426	25683
958.904	33369.2
963.38	41468.1
967.853	35015.9
972.324	28011.5
976.792	30593.9
981.258	31895.1
985.72	27612.1
990.181	24368.8
994.639	21397.4
999.094	19071.8
1003.55	17320
1008	13821.3
1012.44	9237.07
1016.89	5674.23
1021.33	3910.79
1025.77	2962.36
1030.21	2544.4
1034.64	2376.88
1039.07	3037.81
1043.5	3750.99
1047.93	4406.48
1052.35	5745.75
1056.78	7317.35
1061.19	6801.23
1065.61	4739.86
1070.02	3294.28
1074.43	3446.71
1078.84	4742.95
1083.25	6052.72
1087.65	4347.35
1092.05	2527.87
1096.45	1814.59
1100.85	2108.47
1105.24	2531.88
1109.63	2187.67
1114.02	1647.34
1118.4	1379.01
1122.78	1200.34
1127.16	823.891
1131.54	271.728
1135.92	113.751
1140.29	59.6108
1144.66	49.3833
1149.02	154.665
1153.39	128.066
1157.75	118.424
1162.11	88.6148
1166.46	229.837
1170.82	121.075
1175.17	110.672
1179.52	102.74
1183.86	69.6519
1188.21	64.0669
1192.55	69.2456
1196.89	78.2612
1201.22	85.3999
1205.55	35.9595
1209.88	70.2368
1214.21	113.305
1218.54	81.3213
1222.86	170.501
1227.18	182.081
1231.5	177.623
1235.81	184.562
1240.12	251.307
1244.43	184.768
1248.74	267.634
1253.04	215.36
1257.34	272.553
1261.64	399.066
1265.94	440.772
1270.23	336.317
1274.52	385.648
1278.81	413.005
1283.1	463.55
1287.38	402.963
1291.66	533.112
1295.94	389.147
1300.21	235.963
1304.48	354.821
1308.75	240.078
1313.02	275.912
1317.29	199.892
1321.55	387.493
1325.81	135.622
1330.06	199.103
1334.32	263.168
1338.57	214.857
1342.82	318.686
1347.06	334.367
1351.31	354.877
1355.55	218.226
1359.79	410.666
1364.02	249.334
1368.26	302.338
1372.49	276.752
1376.71	292.696
1380.94	267.515
1385.16	265.459
1389.38	246.08
1393.6	115.864
1397.81	177.887
1402.02	149.169
1406.23	157.535
1410.44	105.047
1414.64	139.882
1418.85	107.98
1423.04	153.841
1427.24	127.329
1431.43	187.846
1435.62	131.558
1439.81	105.838
1444	137.162
1448.18	162.822
1452.36	49.019
1456.54	8.29297
1460.71	44.6177
1464.89	4.25781
1469.06	61.7583
1473.22	0.703613
1477.39	67.1348
1481.55	58.228
1485.71	136.661
1489.86	29.7656
1494.02	0.689941
1498.17	17.5869
1502.32	54.3486
1506.46	102.658
1510.61	161.69
1514.75	7.76611
1518.88	69.0894
1523.02	110.948
1527.15	110.362
1531.28	98.853
1535.41	56.8989
1539.53	103.871
1543.66	78.1655
1547.78	15.6069
1551.89	187.589
1556.01	213.309
1560.12	97.0938
1564.23	148.315
1568.33	2.55029
