Measurement: Raman, 514 nm, ccw, Raman Data Processed
Mineral: Axinite-(Fe)
Rruff sample: R060183
Ideal chemistry: Ca_4_Fe^2+^_2_Al_4_[B_2_Si_8_O_30_](OH)_2_
Locality: Skagit Bluffs, near Manning Park, British Columbia, Canada
Source: Lloyd Twaites
Description: Light-pink transparent axe-head-shaped single crystal
Measured chemistry: Ca_2.00_(Fe^2+^_0.58_Mn_0.23_Mg_0.19_)Al_2.00_B_1.00_Si_4.00_O_15_(OH)
Pin_id: L01743
Orientation: Laser parallel to (0 1 1). Fiducial mark perpendicular to laser is parallel to -a [-1 0 0]
Raman shift (cm-1)	intensity
52.671	0
57.626	188.556
62.579	248.556
67.529	28.3654
72.477	37.4712
77.423	159.916
82.367	604.156
87.308	1498.86
92.246	4108.66
97.182	10129.6
102.116	20449.6
107.047	34253.2
111.976	20538
116.903	7590.29
121.827	2903.05
126.749	1911.62
131.668	2585.66
136.585	4481.85
141.5	5095.63
146.412	4693.99
151.321	5216.37
156.229	5777.8
161.134	5764.33
166.036	9158.94
170.936	13710.5
175.834	9435.01
180.729	4755.2
185.622	3660.57
190.512	6529.03
195.4	8434.48
200.286	13723.3
205.169	20626.2
210.049	14783
214.928	6595.19
219.803	1996.36
224.677	51.877
229.548	400.519
234.416	341.51
239.282	2968
244.146	5507.72
249.007	6422.05
253.866	7269.75
258.722	7535.64
263.576	10249.6
268.427	17984.6
273.276	22712.4
278.123	16533.8
282.967	10162.7
287.809	7653.92
292.648	9233.72
297.485	14830.9
302.319	23998.4
307.151	24640
311.98	11968.8
316.807	4972.06
321.631	3518.26
326.454	4248.65
331.273	3158.42
336.09	3150.55
340.905	7743.87
345.717	15901.4
350.527	22838.5
355.334	12615.3
360.139	3895.84
364.941	555.575
369.741	160.587
374.538	147.568
379.333	2280.48
384.126	8400.83
388.916	16267.3
393.703	10576.8
398.488	5071.23
403.271	3577.53
408.051	8606.08
412.828	25159.5
417.603	31172.3
422.376	18652.2
427.146	14205.5
431.914	8007.19
436.679	3941.19
441.442	4483.43
446.202	3328.8
450.96	669.24
455.715	378.542
460.467	586.833
465.218	250.3
469.965	1035.76
474.711	4906.45
479.454	15337.8
484.194	24587.6
488.932	11125.4
493.667	3210.96
498.4	1386.19
503.13	1367.1
507.858	1120.6
512.583	330.111
517.306	70.8525
522.026	74.3687
526.744	522.81
531.459	1317.33
536.172	1540.36
540.882	1086.85
545.59	520.739
550.295	244.09
554.998	379.289
559.698	1508.68
564.396	3552.67
569.091	7232.82
573.784	9232.08
578.474	8207.4
583.162	10327.7
587.847	13868.1
592.529	9674.32
597.209	4617.54
601.887	2197.12
606.562	1662.8
611.235	2035.42
615.905	2366.56
620.572	1948.71
625.237	615.835
629.9	87.2676
634.56	198.694
639.217	238.849
643.872	340.345
648.524	115.41
653.174	18.9209
657.821	56.2495
662.466	563.142
667.108	2182.48
671.748	5404.83
676.385	8645.17
681.02	6304.5
685.652	3408.85
690.281	2834.21
694.908	4072.92
699.533	7781.81
704.155	17132.5
708.774	36643.9
713.391	51761.2
718.005	37437.7
722.617	18417.1
727.226	8571.75
731.833	4682.49
736.437	2930.68
741.039	1931.6
745.638	1599.74
750.234	1521.86
754.828	2330.31
759.419	4089.12
764.008	6901.34
768.595	7369.65
773.178	4836.92
777.759	2469.68
782.338	1080.13
786.914	486.599
791.488	59.5962
796.059	182.63
800.627	22.4082
805.193	670.796
809.756	2119.21
814.317	2192.84
818.875	610.73
823.431	99.0708
827.984	328.238
832.534	317.983
837.082	115.515
841.627	366.074
846.17	1008.19
850.71	1321.87
855.248	1067.17
859.783	845.122
864.316	712.771
868.846	897.16
873.373	1590.33
877.898	2451.31
882.42	3992.1
886.94	7080.88
891.457	12362.7
895.971	19950.7
900.483	23482.9
904.993	22321.8
909.5	19908.7
914.004	14310.4
918.505	9471.92
923.004	7038.97
927.501	6957.27
931.995	6320.73
936.486	5128.93
940.975	5565.4
945.461	7835.07
949.945	11572
954.426	14578.1
958.904	18133.3
963.38	21689.3
967.853	19402.8
972.324	18689.5
976.792	23881
981.258	25899.9
985.72	24438
990.181	25301.4
994.639	24956
999.094	26948
1003.55	30708.1
1008	25748.1
1012.44	15042.7
1016.89	8249.9
1021.33	5418.16
1025.77	4548.72
1030.21	3499.52
1034.64	2113.79
1039.07	1497.34
1043.5	1152.9
1047.93	1071.21
1052.35	1067.06
1056.78	1121.11
1061.19	864.05
1065.61	489.093
1070.02	302.836
1074.43	241.545
1078.84	756.674
1083.25	932.016
1087.65	824.005
1092.05	878.69
1096.45	1257.09
1100.85	2285.15
1105.24	3009.33
1109.63	2668.85
1114.02	1963.46
1118.4	1225.3
1122.78	985.055
1127.16	604.763
1131.54	256.056
1135.92	126.695
1140.29	98.7222
1144.66	38.1152
1149.02	149.651
1153.39	30.3252
1157.75	33.9048
1162.11	94.5327
1166.46	127.27
1170.82	198.837
1175.17	76.5835
1179.52	7.66113
1183.86	75.0781
1188.21	0.146973
1192.55	88.5366
1196.89	0.527344
1201.22	65.0688
1205.55	110.876
1209.88	71.5117
1214.21	135.075
1218.54	2.55713
1222.86	94.7026
1227.18	139.195
1231.5	165.301
1235.81	134.72
1240.12	190.29
1244.43	228.407
1248.74	278.674
1253.04	176.397
1257.34	251.791
1261.64	274.41
1265.94	334.062
1270.23	230.339
1274.52	403.992
1278.81	264.941
1283.1	339.831
1287.38	338.116
1291.66	341.284
1295.94	349.588
1300.21	186.519
1304.48	206.902
1308.75	121.767
1313.02	102.286
1317.29	132.9
1321.55	137.059
1325.81	155.832
1330.06	152.26
1334.32	253.871
1338.57	185.196
1342.82	304.492
1347.06	213.873
1351.31	104.606
1355.55	246.131
1359.79	226.117
1364.02	294.308
1368.26	128.027
1372.49	194.872
1376.71	170.482
1380.94	131.714
1385.16	191.416
1389.38	167.227
1393.6	123.268
1397.81	135.054
1402.02	75.1787
1406.23	133.451
1410.44	67.5688
1414.64	88.2334
1418.85	142.703
1423.04	122.277
1427.24	187.76
1431.43	206.675
1435.62	204.503
1439.81	38.3623
1444	158.6
1448.18	85.8384
1452.36	16.4878
1456.54	126.15
1460.71	18.0547
1464.89	31.314
1469.06	112.389
1473.22	76.5444
1477.39	189.959
1481.55	126.395
1485.71	132.446
1489.86	101.728
1494.02	95.4522
1498.17	133.051
1502.32	216.606
1506.46	90.1401
1510.61	97.3252
1514.75	52.9692
1518.88	69.8794
1523.02	143.737
1527.15	133.976
1531.28	204.711
1535.41	71.603
1539.53	103.752
1543.66	167.078
1547.78	38.8193
1551.89	226.499
1556.01	240.54
1560.12	11.3789
1564.23	144.031
1568.33	161.975
