Measurement: Raman, 514 nm, ccw, Raman Data Processed
Mineral: Axinite-(Fe)
Rruff sample: R040074
Ideal chemistry: Ca_4_Fe^2+^_2_Al_4_[B_2_Si_8_O_30_](OH)_2_
Locality: Luning, Nevada, USA
Source: University of Arizona Mineral Museum
Description: Pale brown wedge-shaped crystal
Measured chemistry: (Ca_0.98_Mn_0.01_)_2_(Fe_0.41_Mg_0.39_Mn_0.20_)Al_1.95_B_1.20_Si_3.90_O_15_(OH)
Pin_id: M00153
Orientation: Laser parallel to (1 0 1). Fiducial mark perpendicular to laser is parallel to b [0 1 0]
Raman shift (cm-1)	intensity
89.685	0
93.873	146.167
98.058	1319.24
102.242	2601.91
106.423	5394.45
110.603	7274.64
114.78	6023.65
118.956	4570.96
123.129	3069.86
127.3	1195.62
131.469	340.247
135.636	19.527
139.801	1744.32
143.964	3256.31
148.125	5293.07
152.284	6795.53
156.441	4889.8
160.596	3644.95
164.749	3156
168.9	5720.78
173.049	7096.93
177.195	4516.3
181.34	1989.47
185.483	175.744
189.624	227.692
193.762	194.51
197.899	620.544
202.034	157.122
206.166	2188.17
210.297	5599.34
214.425	7420.39
218.552	6401.37
222.676	3471.31
226.799	998.767
230.919	42.367
235.038	269.832
239.154	1591.98
243.269	2383.28
247.381	2923.83
251.492	3984.31
255.6	4464.88
259.707	4237.84
263.811	5742.99
267.914	8427.55
272.014	10070.5
276.113	8951.51
280.209	6519.52
284.304	5035.13
288.396	4018.03
292.487	3648.81
296.575	3887.69
300.662	4422.09
304.746	5558.36
308.829	5977.68
312.909	5269.36
316.988	7740.96
321.065	10392.8
325.139	8574.7
329.212	6186.01
333.283	5597.54
337.351	6599.32
341.418	11321.4
345.483	14585.1
349.546	10669.1
353.606	7018.98
357.665	2825.84
361.722	600.015
365.777	3.374
369.83	529.041
373.881	1330.82
377.93	1222.68
381.977	1570.22
386.023	3925.92
390.066	7192.85
394.107	7265.31
398.146	4427.51
402.184	3067.97
406.219	2129.42
410.252	1966.74
414.284	3461.94
418.313	6332.95
422.341	10183.5
426.367	12783.4
430.39	10752.8
434.412	7001.64
438.432	4359.94
442.45	4808.27
446.466	4935.64
450.48	2472.49
454.492	1542.89
458.502	1212.83
462.51	653.458
466.517	664.746
470.521	1680.82
474.523	2636.09
478.524	5072.07
482.523	12389
486.519	16696.8
490.514	8335.61
494.507	2995.12
498.498	1278
502.487	618.694
506.474	530.88
510.459	524.292
514.442	366.111
518.424	164.763
522.403	533.444
526.381	572.044
530.356	393.735
534.33	93.492
538.302	225.606
542.272	288.103
546.24	342.007
550.206	393.33
554.17	849.175
558.132	2563.83
562.093	3535.08
566.051	3122.84
570.008	3840.12
573.963	5276.9
577.915	4823.18
581.866	3228.95
585.815	2542.2
589.763	2189.23
593.708	1290.35
597.651	712.178
601.593	771.909
605.532	1127.55
609.47	2155.68
613.406	4479.29
617.34	8280.37
621.272	10221.6
625.202	5836.82
629.131	2403.63
633.057	1088.78
636.982	1224.28
640.905	1708.46
644.825	2112.73
648.744	1616.05
652.662	961.147
656.577	822.459
660.49	934.588
664.402	1567.33
668.312	2993.99
672.219	5892.03
676.125	9678.65
680.03	8269.48
683.932	4778.07
687.832	3032.1
691.731	2623.48
695.628	3032.79
699.522	4650.32
703.415	8159.88
707.307	15739.4
711.196	31591.2
715.083	40614.1
718.969	26686.2
722.853	13047.7
726.735	6488.46
730.615	3648.57
734.493	2138.01
738.37	1251.79
742.244	801.92
746.117	615.379
749.988	444.132
753.857	483.87
757.724	662.89
761.59	969.505
765.453	1461.5
769.315	1523.88
773.175	1089.65
777.033	408.811
780.889	40.276
784.744	131.346
788.596	397.806
792.447	418.981
796.296	321.143
800.143	330.335
803.989	183.446
807.832	327.468
811.674	1110.56
815.514	1288.07
819.352	652.823
823.189	240.502
827.023	107.646
830.856	149.978
834.687	248.165
838.516	445.86
842.343	789.533
846.169	1213.67
849.992	1852.65
853.814	2421.44
857.634	2409.06
861.453	2382.55
865.269	2311.89
869.084	2239.15
872.897	2307.37
876.708	2192.57
880.517	2498.75
884.325	3041.82
888.13	3774.87
891.934	5357.86
895.737	8210.63
899.537	12311.4
903.336	14850.5
907.132	12039.1
910.928	8518.82
914.721	5910.8
918.512	4513.06
922.302	3875.26
926.09	4547.35
929.876	5316.85
933.66	5609.06
937.443	5577.07
941.224	6264.01
945.003	8576.41
948.78	12999
952.556	17225.3
956.33	20804.7
960.102	26487.4
963.872	32789.4
967.64	28861.9
971.407	22684.5
975.172	22174
978.935	24150.6
982.697	20617.9
986.456	17776.4
990.214	16237.1
993.971	13782.1
997.725	12557.4
1001.48	12966.2
1005.23	11531.2
1008.98	8664.19
1012.73	5839.32
1016.47	3778.31
1020.22	2730.39
1023.96	2168.59
1027.7	1974.43
1031.44	1867.77
1035.17	1881.68
1038.91	2080.2
1042.64	2765.95
1046.37	2775
1050.1	3348.15
1053.83	3999.07
1057.56	5024.51
1061.28	5755.31
1065.01	5130.43
1068.73	3735.55
1072.45	3025.78
1076.16	3198.02
1079.88	4432.35
1083.6	5441.04
1087.31	4329.79
1091.02	2529.17
1094.73	1759.81
1098.44	1641.08
1102.14	1863.78
1105.85	2195.05
1109.55	1857.55
1113.25	1499.12
1116.95	1000.17
1120.65	710.72
1124.34	660.793
1128.04	600.506
1131.73	359.536
1135.42	307.137
1139.11	194.85
1142.79	132.199
1146.48	30.496
1150.16	102.854
1153.84	75.922
1157.52	24.213
1161.2	26.584
1164.88	81.517
1168.56	218.344
1172.23	152.933
1175.9	158.769
1179.57	30.354
1183.24	114.258
1186.9	97.021
1190.57	49.582
1194.23	4.173
1197.89	134.961
1201.55	59.095
1205.21	71.832
1208.87	178.492
1212.52	275.747
1216.18	255.406
1219.83	197.347
1223.48	265.957
1227.13	94.567
1230.77	98.869
1234.42	217.663
1238.06	162.163
1241.7	300.683
1245.34	339.55
1248.98	504.115
1252.62	427.174
1256.25	319.837
1259.88	276.49
1263.51	319.305
1267.14	265.717
1270.77	320.073
1274.4	471.93
1278.02	522.822
1281.65	530.976
1285.27	457.565
1288.89	150.01
1292.51	249.222
1296.12	197.144
1299.74	86.422
1303.35	324.102
1306.96	399.866
1310.57	423.988
1314.18	594.504
1317.79	138.527
1321.39	107.362
1324.99	53.771
1328.59	183.568
1332.19	73.05
1335.79	158.992
1339.39	225.631
1342.98	394.56
1346.58	556.027
1350.17	410.53
1353.76	272.584
1357.35	147.704
1360.93	9.837
1364.52	44.138
1368.1	72.673
1371.68	142.213
1375.26	61.006
1378.84	648.277
1382.42	596.906
1385.99	303.391
1389.57	259.105
1393.14	231.297
1396.71	59.973
1400.28	35.084
1403.85	107.646
1407.41	372.973
1410.98	380.531
1414.54	556.139
1418.1	563.652
1421.66	561.887
1425.21	473.371
1428.77	237.33
1432.33	141.277
1435.88	1034.4
1439.43	128.561
1442.98	0.828
1446.53	253.543
1450.07	487.461
1453.62	741.854
1457.16	817.697
1460.7	800.465
1464.24	681.367
1467.78	433.203
1471.32	380.52
1474.85	570.736
1478.38	78.986
1481.91	124.207
1485.44	295.367
1488.97	176.238
1492.5	616.629
1496.03	672.498
1499.55	804.299
1503.07	868.592
1506.59	604.486
1510.11	437.861
1513.63	284.117
1517.14	142.736
1520.66	0
