Measurement: Raman, 514 nm, ccw, Raman Data Processed
Mineral: Axinite-(Fe)
Rruff sample: R040074
Ideal chemistry: Ca_4_Fe^2+^_2_Al_4_[B_2_Si_8_O_30_](OH)_2_
Locality: Luning, Nevada, USA
Source: University of Arizona Mineral Museum
Description: Pale brown wedge-shaped crystal
Measured chemistry: (Ca_0.98_Mn_0.01_)_2_(Fe_0.41_Mg_0.39_Mn_0.20_)Al_1.95_B_1.20_Si_3.90_O_15_(OH)
Pin_id: L00197
Orientation: Laser parallel to c* (0 0 1). Fiducial mark perpendicular to laser is parallel to -a [-1 0 0]
Raman shift (cm-1)	intensity
91.398	0
95.582	133.481
99.764	701.83
103.943	2659.04
108.121	7117.9
112.297	7710.69
116.47	5077.14
120.642	2869.78
124.811	1291.89
128.979	213.942
133.144	300.158
137.307	2144.31
141.469	5597.39
145.628	6212
149.786	4697.03
153.941	3392.49
158.094	2018.19
162.245	1588.09
166.395	2319.6
170.542	3927.25
174.687	3205.72
178.83	1213.06
182.972	193.341
187.111	443.81
191.248	445.216
195.383	1105.36
199.516	897.424
203.647	2203.44
207.777	4395.42
211.904	5815.31
216.029	5705.03
220.152	3854.41
224.273	1659.36
228.392	258.361
232.509	222.745
236.625	312.028
240.738	1071.98
244.849	819.78
248.958	1235.14
253.065	2863.48
257.171	3804.93
261.274	4639.89
265.375	7946.96
269.475	12174.2
273.572	13770.8
277.667	11186.6
281.76	6871.13
285.852	4823.93
289.941	4575.39
294.029	5055.7
298.114	5805.86
302.198	5807.44
306.279	5261.98
310.359	5004.01
314.436	6153.91
318.512	9913.83
322.586	10153.7
326.657	6522.9
330.727	4880.52
334.795	4548.24
338.861	6376.93
342.924	11105.1
346.986	11660.7
351.046	7963.91
355.104	5398.63
359.16	2162.66
363.214	431.574
367.267	32.629
371.317	237.831
375.365	375.471
379.411	514.566
383.456	1312.18
387.498	3474.5
391.539	4684.29
395.577	2884.03
399.614	1972.49
403.649	1884.15
407.681	1730.68
411.712	3278.11
415.741	8168.42
419.768	9394.6
423.793	8590.47
427.816	8755.98
431.837	6791.1
435.857	4001.85
439.874	3840.23
443.889	7195.33
447.903	6002.6
451.914	2017.12
455.924	516.085
459.932	2.707
463.938	171.363
467.941	49.511
471.943	689.548
475.944	694.868
479.942	1753.12
483.938	4922.26
487.932	5063.86
491.925	1613.88
495.915	371.073
499.904	334.789
503.891	757.472
507.876	1495.18
511.859	1784.94
515.84	1074.33
519.819	291.613
523.796	126.358
527.771	280.811
531.745	171.169
535.716	106.311
539.686	195.765
543.654	66.875
547.62	3.402
551.584	61.125
555.546	311.002
559.506	979.108
563.465	1428.35
567.421	1914.08
571.376	3192.5
575.329	4019.62
579.279	2990.42
583.228	2109.91
587.175	2896.08
591.121	2808.47
595.064	1356.48
599.006	455.713
602.945	101.615
606.883	184.127
610.819	684.269
614.753	1360.1
618.685	2073.8
622.615	1729.27
626.544	601.722
630.471	167.724
634.395	255.564
638.318	998.707
642.239	1916.52
646.158	1998.05
650.076	1152.04
653.991	493.404
657.905	237.388
661.817	201.901
665.726	517.909
669.635	1331.92
673.541	2739.75
677.445	3668.29
681.348	2400.9
685.248	1211.41
689.147	791.318
693.044	875.621
696.94	1356.16
700.833	2633.76
704.724	5260.9
708.614	10754.5
712.502	20334
716.388	20927
720.272	11729.6
724.155	5721.88
728.035	2855.82
731.914	1645.43
735.791	932.712
739.666	574.663
743.539	376.29
747.41	344.753
751.28	417.661
755.148	561.206
759.014	772.237
762.878	1473.99
766.74	1613.37
770.601	1405.82
774.46	761.006
778.316	245.23
782.172	5.448
786.025	113.074
789.876	151.685
793.726	192.073
797.574	207.06
801.42	184.656
805.264	81.69
809.107	390.297
812.947	905.462
816.786	733.106
820.623	183.91
824.459	33.855
828.292	24.073
832.124	76.303
835.954	213.454
839.782	349.975
843.608	763.103
847.433	1223.37
851.255	1656.55
855.076	1839.75
858.895	1690.93
862.713	1558.22
866.528	1490.65
870.342	1476.12
874.154	1716.62
877.965	1769.19
881.773	2159.89
885.58	2678.61
889.385	3516.27
893.188	5461.85
896.989	8101.31
900.789	10450.2
904.587	10779.5
908.383	8858.92
912.177	6908.35
915.97	4877.76
919.76	3584.16
923.55	2922.51
927.337	3145.82
931.122	3462.53
934.906	3388.09
938.688	3230.87
942.468	3553.12
946.247	4811.61
950.023	7107.73
953.798	8938.16
957.572	10285.9
961.343	13293.7
965.113	15833.1
968.881	13852.5
972.647	12801.4
976.411	15465.4
980.174	18346.1
983.935	15501.5
987.694	13269.7
991.452	12700.8
995.207	11071.7
998.961	10732.6
1002.71	11444.1
1006.46	10276.8
1010.21	7356.78
1013.96	4630.27
1017.71	2939.79
1021.45	2149.34
1025.19	1891.51
1028.93	1892.93
1032.67	1445.94
1036.41	1135.82
1040.14	973.325
1043.87	1086.69
1047.61	1032.64
1051.34	1124.19
1055.06	1198.82
1058.79	1429.96
1062.52	1678.76
1066.24	1503.77
1069.96	990.562
1073.68	912.327
1077.4	1103.54
1081.11	1553.79
1084.83	1973.1
1088.54	1600.14
1092.25	996.477
1095.96	741.142
1099.67	792.172
1103.37	985.506
1107.08	1174.03
1110.78	909.304
1114.48	676.162
1118.18	554.817
1121.88	629.619
1125.57	410.288
1129.27	143.502
1132.96	112.297
1136.65	15.275
1140.34	34.837
1144.02	147.641
1147.71	31.808
1151.39	10.283
1155.07	46.572
1158.76	65.329
1162.43	104.155
1166.11	126.273
1169.79	55.889
1173.46	5.122
1177.13	81.394
1180.8	1.154
1184.47	111.665
1188.14	106.186
1191.8	39.273
1195.46	14.673
1199.13	127.009
1202.79	151.807
1206.45	292.763
1210.1	209.879
1213.76	199.208
1217.41	334.833
1221.06	258.44
1224.71	275.046
1228.36	304.646
1232.01	396.167
1235.65	376.135
1239.3	271.821
1242.94	283.014
1246.58	273.193
1250.22	180.679
1253.85	161.417
1257.49	187.088
1261.12	280.992
1264.75	348.38
1268.38	280.321
1272.01	290.095
1275.64	133.374
1279.27	150.985
1282.89	5.059
1286.51	33.81
1290.13	101.651
1293.75	212.398
1297.37	242.327
1300.98	175.336
1304.6	30.8
