Measurement: Raman, 514 nm, ccw, Raman Data Processed
Mineral: Axinite-(Fe)
Rruff sample: R060558
Ideal chemistry: Ca_4_Fe^2+^_2_Al_4_[B_2_Si_8_O_30_](OH)_2_
Locality: unknown
Source: Gemological Institute of America
Description: Brown flattened crystal
Measured chemistry: Ca_2.00_(Fe^2+^_0.60_Mg_0.35_Mn_0.05_)_Î£=1_Al_2.00_BSi_4.00_O_15_(OH) ; B not measured
Pin_id: M01035
Orientation: Laser parallel to c* (0 0 1). Fiducial mark perpendicular to laser is parallel to a [1 0 0]
Raman shift (cm-1)	intensity
126.533	0
131.467	0.86084
136.399	147.638
141.328	1375.27
146.254	1632.75
151.178	2325.99
156.098	2295.37
161.017	2203.92
165.932	2888.11
170.845	4811.33
175.755	2634.73
180.662	551.957
185.567	40.97
190.469	200.662
195.368	914.332
200.264	1139.74
205.158	2403.01
210.049	3287.06
214.937	3220.11
219.823	2179.16
224.706	940.339
229.586	126.775
234.464	192.417
239.339	47.1265
244.211	711.677
249.081	1420.02
253.947	1788.64
258.812	1797.29
263.673	2477.04
268.532	3552.34
273.388	3608.92
278.241	2467.02
283.092	1547.7
287.94	1687.33
292.785	2923.68
297.628	5092.55
302.468	6328.75
307.305	5798.16
312.14	4245.74
316.972	2813.02
321.801	2084.89
326.628	1032.33
331.451	660.947
336.273	728.963
341.091	1643.71
345.907	3260.88
350.72	4229.44
355.531	4210.57
360.339	1656.15
365.144	293.087
369.947	51.3506
374.746	167.202
379.544	284.832
384.338	1276.73
389.13	3662.17
393.919	4272.9
398.706	2300.47
403.49	1115.25
408.271	959.208
413.05	1510.35
417.826	3253.41
422.599	3684.28
427.37	4838.07
432.138	5375.33
436.903	2741.69
441.666	1612.25
446.426	1679.98
451.183	479.878
455.938	18.0757
460.69	91.3257
465.44	106.438
470.187	119.459
474.931	371.283
479.672	851.293
484.411	2120.4
489.148	1505.6
493.881	284.437
498.612	32.3062
503.341	442.679
508.066	1027.35
512.789	1207.33
517.51	794.335
522.228	366.933
526.943	48.7227
531.656	15.4351
536.365	270.454
541.073	571.256
545.778	1136.98
550.48	976.882
555.179	866.088
559.876	1588.41
564.57	1771.66
569.262	1781.83
573.951	2263.85
578.637	2512.71
583.321	2803.41
588.002	4014.94
592.68	3742.29
597.356	1723.84
602.03	1031.81
606.7	1144.77
611.368	1472.67
616.034	1505.17
620.697	1220.53
625.357	549.73
630.014	65.7729
634.67	37.3843
639.322	138.864
643.972	241.871
648.619	195.7
653.264	53.5425
657.906	46.3848
662.545	71.4336
667.182	929.259
671.816	2448.86
676.448	4057.46
681.077	2920.9
685.703	1291.18
690.327	759.693
694.948	1025.55
699.567	1872.37
704.183	4496.77
708.797	10300.8
713.407	17015.5
718.016	12886.9
722.621	5828.15
727.225	2704.12
731.825	1249.86
736.423	776.381
741.019	396.988
745.611	326.935
750.202	364.127
754.789	521.608
759.374	1069.98
763.957	1755.62
768.537	2211.03
773.114	1547.53
777.689	774.384
782.261	278.375
786.831	170.237
791.398	110.346
795.963	135.774
800.524	5.9375
805.084	151.674
809.641	368.602
814.195	396.621
818.747	35.6397
823.296	111.404
827.842	117.173
832.386	37.3184
836.928	51.4233
841.467	19.7368
846.003	101.913
850.537	238.174
855.068	211.536
859.597	333.712
864.123	247.625
868.646	344.019
873.167	282.287
877.686	387.501
882.202	566.678
886.715	649.172
891.226	1195.85
895.734	2226.74
900.24	3189.89
904.743	3772.35
909.244	3449.15
913.742	2243.49
918.238	1294.1
922.731	735.069
927.221	688.592
931.709	947.735
936.195	858.555
940.678	737.055
945.158	922.901
949.636	1354.07
954.111	2329.64
958.584	3936.97
963.054	6430.68
967.522	6941.09
971.987	6181.72
976.45	7584.51
980.91	9069.59
985.368	7531.14
989.823	6273.32
994.275	6053.09
998.725	6866.27
1003.17	7736.85
1007.62	6779.05
1012.06	3974.65
1016.5	2161.16
1020.94	1343.3
1025.37	1097.58
1029.81	1239.1
1034.23	1077.96
1038.66	1095.28
1043.09	1108.37
1047.51	1158.72
1051.93	1448.23
1056.35	1815.78
1060.76	1735.09
1065.17	1527.49
1069.58	896.799
1073.99	873.56
1078.4	1313.62
1082.8	2040.71
1087.2	2112.13
1091.6	1102.42
1095.99	713.566
1100.38	655.558
1104.77	701.28
1109.16	760.136
1113.55	473.256
1117.93	253.81
1122.31	219.989
1126.68	41.813
1131.06	63.3672
1135.43	83.3179
1139.8	31.3599
1144.17	18.3286
1148.54	0.635742
1152.9	46.6924
1157.26	3.98291
1161.62	35.2998
1165.97	37.1445
1170.32	0.347656
1174.67	1.14941
1179.02	30.8115
1183.37	91.4814
1187.71	10.8232
1192.05	33.646
1196.39	83.3354
1200.72	91.5273
1205.05	54.1519
1209.38	59.478
1213.71	91.957
1218.04	35.3477
1222.36	95.3555
1226.68	127.019
1231	15.3633
1235.31	44.229
1239.63	113.982
1243.94	3.1626
1248.25	17.9898
1252.55	16.8501
1256.86	100.094
1261.15	188.034
1265.45	249.761
1269.75	110.197
1274.04	165.749
1278.33	104.997
1282.62	224.438
1286.91	248.531
1291.19	176.276
1295.47	99.4331
1299.75	121.123
1304.03	52.9522
1308.3	241.61
1312.57	47.7188
1316.84	128.695
1321.11	131.351
1325.37	42.7915
1329.63	54.7095
1333.89	150.443
1338.15	224.766
1342.4	146.966
1346.65	156.551
1350.9	172.724
1355.15	204.193
1359.4	179.834
1363.64	154.761
1367.88	124.219
1372.12	78.8218
1376.35	133.47
1380.58	93.0781
1384.81	87.7578
1389.04	50.7075
1393.26	108.147
1397.49	162.763
1401.71	10.145
1405.92	36.7202
1410.14	116.182
1414.35	52.5537
1418.56	130.67
1422.77	152.924
1426.98	216.285
1431.18	103.561
1435.38	196.042
1439.58	143.374
1443.78	168.644
1447.97	172.016
1452.16	115.916
1456.35	102.245
1460.54	92.3403
1464.72	80.4634
1468.9	134.173
1473.08	122.772
1477.26	51.8828
1481.43	80.9424
1485.6	60.1426
1489.77	43.2998
1493.94	146.458
1498.1	32.6313
1502.27	24.0708
1506.43	87.8379
1510.58	51.8672
1514.74	104.074
1518.89	78.6157
1523.04	89.5688
1527.19	132.757
1531.34	90.2197
1535.48	30.3569
1539.62	18.8389
1543.76	2.93994
1547.89	291.827
1552.03	90.2168
1556.16	135.547
1560.29	99.3091
