Measurement: Raman, 514 nm, ccw, Raman Data Processed
Mineral: Axinite-(Fe)
Rruff sample: R060194
Ideal chemistry: Ca_4_Fe^2+^_2_Al_4_[B_2_Si_8_O_30_](OH)_2_
Locality: near Dalbandi, Baluchistan Province, Pakistan
Source: Herbert Obodda
Description: Brown transparent wedge-shaped single crystal
Measured chemistry: Ca_2.00_(Fe^2+^_0.66_Mg_0.30_Mn_0.04_)Al_2.00_BSi_4.00_O_15_(OH)
Pin_id: L00599
Orientation: Laser parallel to (0 -1 -1). Fiducial mark perpendicular to laser is parallel to a [1 0 0]
Raman shift (cm-1)	intensity
53.91	0
58.864	211.115
63.817	36.5874
68.767	6.72803
73.714	276.433
78.659	242.748
83.602	489.855
88.542	1147.86
93.48	3456.43
98.416	9282.62
103.349	19924.5
108.28	37468.4
113.208	27701.4
118.134	8972.42
123.058	3140.4
127.979	1684.42
132.898	2215.92
137.814	4523.22
142.728	6806.75
147.639	5449.76
152.549	5431.94
157.455	6611.78
162.359	7764.23
167.261	10946.3
172.161	14921.7
177.058	11150.4
181.952	4531.03
186.845	2214.73
191.734	3629.76
196.622	6346.11
201.507	10149
206.389	15675.1
211.269	14412.8
216.147	7689.75
221.022	2773.42
225.895	329.552
230.765	628.028
235.633	395.798
240.498	1246.7
245.361	3842.67
250.222	5776.24
255.08	8052.12
259.936	11129.1
264.789	15100.2
269.64	23658.7
274.488	27784.3
279.334	20972.5
284.178	12011.3
289.019	9568.26
293.857	12094.6
298.693	18120.2
303.527	23559.1
308.358	24558.2
313.187	13769.4
318.013	5413.93
322.837	4704.36
327.659	6161.68
332.478	5369.14
337.294	3970.07
342.108	8152.31
346.92	16489.1
351.729	24272.4
356.535	17998.4
361.34	6093.91
366.141	1240.31
370.94	37.0352
375.737	54.3638
380.531	1768.42
385.323	6725.24
390.113	13997.6
394.9	11264.9
399.684	4832
404.466	4009.91
409.245	8242.21
414.022	21504
418.797	37365.2
423.569	24967.3
428.338	18265.7
433.105	12536.4
437.87	6302.3
442.632	7339.32
447.391	7982.4
452.149	2619.46
456.903	165.403
461.655	339.258
466.405	268.478
471.152	761.071
475.897	4500.14
480.639	12780.7
485.378	23793.1
490.116	13651.6
494.85	3301.86
499.582	860.891
504.312	586.909
509.039	212.555
513.764	154.372
518.486	312.258
523.206	267.117
527.923	387.422
532.638	1184.11
537.35	1646.28
542.059	786.876
546.766	340.841
551.471	20.748
556.173	125.099
560.873	1068.84
565.57	2851.27
570.264	5831.86
574.957	8383.54
579.646	7685.28
584.333	9572.02
589.018	14526.8
593.7	11975.4
598.379	5489.02
603.056	2397.61
607.73	1556.68
612.402	1543.12
617.072	1550.38
621.739	1140.54
626.403	280.597
631.065	170.547
635.724	29.1919
640.381	557.645
645.035	1137.06
649.687	758.332
654.336	233.469
658.983	230.025
663.627	651.089
668.268	2593.24
672.907	6332.14
677.544	9402.09
682.178	6413.09
686.809	3201.21
691.438	2672.94
696.065	3982.27
700.688	8244.62
705.31	18912.1
709.929	40338.5
714.545	56841.9
719.158	39934.4
723.77	18174
728.378	8479.79
732.984	4534.76
737.588	2706.95
742.189	1785.81
746.787	1305.26
751.383	1355.67
755.976	1825.46
760.567	3333.66
765.155	5886.39
769.741	6058.3
774.324	4007.27
778.904	1943.39
783.482	903.777
788.058	367.056
792.631	45.5933
797.201	179.24
801.769	19.2046
806.334	656.522
810.897	1758.46
815.457	2123.58
820.014	1098.93
824.569	241.466
829.122	372.77
833.671	378.224
838.219	99.5425
842.763	422.961
847.306	1245.94
851.845	1913.45
856.382	1481.52
860.917	817.208
865.448	714.541
869.978	939.565
874.505	1467.32
879.029	2470.84
883.55	3882.18
888.069	6799.43
892.586	11916.7
897.1	18786.1
901.611	21811.7
906.12	22156.5
910.626	22640.3
915.129	17239.6
919.63	10191.3
924.129	6963.4
928.625	6818.33
933.118	6843.89
937.609	5291.77
942.097	4889.65
946.582	6622.76
951.065	10039
955.546	12982.4
960.023	16023.8
964.499	19977.5
968.971	19160.7
973.441	18840.8
977.909	26294.2
982.374	30807.2
986.836	27542.5
991.295	28964
995.753	31617.8
1000.21	32429.9
1004.66	33690.2
1009.11	26955.6
1013.55	15289.1
1018	8292.41
1022.44	5109.05
1026.88	4135.41
1031.32	3346.09
1035.75	2026.42
1040.18	1419.89
1044.61	1268.89
1049.04	1410.55
1053.46	1452.35
1057.88	1673.14
1062.3	1377.4
1066.71	878.834
1071.13	377.309
1075.54	349.752
1079.94	551.315
1084.35	672.81
1088.75	654.446
1093.15	500.383
1097.55	1013.03
1101.94	1789.64
1106.34	2615.06
1110.73	2550.6
1115.11	1808.42
1119.5	1373.64
1123.88	1050.48
1128.26	587.355
1132.63	177.556
1137.01	167.329
1141.38	66.1841
1145.75	46.3169
1150.12	56.3828
1154.48	138.748
1158.84	73.2271
1163.2	104.712
1167.55	79.7207
1171.91	80.6973
1176.26	94.1411
1180.61	108.3
1184.95	39.9639
1189.29	86.6831
1193.63	67.1064
1197.97	15.2598
1202.31	11.7407
1206.64	59.1006
1210.97	117.037
1215.29	38.0674
1219.62	32.7105
1223.94	188.833
1228.26	123.1
1232.57	126.287
1236.89	248.268
1241.2	124.438
1245.51	132.444
1249.81	164.729
1254.12	165.715
1258.42	259.153
1262.72	232.255
1267.01	192.344
1271.3	320.709
1275.59	325.66
1279.88	351.111
1284.17	352.081
1288.45	294.281
1292.73	335.434
1297.01	241.428
1301.28	234.725
1305.55	244.889
1309.82	171.232
1314.09	152.771
1318.35	114.272
1322.61	166.792
1326.87	221.656
1331.13	140.085
1335.38	252.016
1339.63	243.891
1343.88	148.17
1348.12	176.308
1352.37	217.556
1356.61	212.598
1360.85	167.717
1365.08	259.842
1369.31	149.272
1373.54	117.289
1377.77	205.137
1381.99	172.568
1386.22	173.083
1390.43	113.275
1394.65	58.5376
1398.87	36.3804
1403.08	117.177
1407.29	92.0327
1411.49	101.451
1415.69	138.855
1419.89	122.848
1424.09	106.812
1428.29	49.9438
1432.48	136.142
1436.67	28.6875
1440.86	101.635
1445.04	85.1006
1449.23	94.6694
1453.4	83.5615
1457.58	92.2227
1461.76	26.5015
1465.93	89.9805
1470.1	2.7207
1474.26	8.3042
1478.43	65.9536
1482.59	155.988
1486.75	98.7529
1490.9	17.3081
1495.06	77.7759
1499.21	52.6953
1503.35	55.8174
1507.5	55.9605
1511.64	106.955
1515.78	47.6992
1519.92	73.3989
1524.05	40.8164
1528.18	77.4453
1532.31	65.5205
1536.44	165.335
1540.56	76.3433
1544.69	85.9053
1548.8	178.944
1552.92	171.942
1557.03	139.55
1561.14	26.8936
1565.25	108.677
1569.36	95.5015
