Measurement: Raman, 514 nm, ccw, Raman Data Processed
Mineral: Azurite
Rruff sample: R050497
Ideal chemistry: Cu_3_(CO_3_)_2_(OH)_2_
Locality: Tsumeb mine, Tsumeb, Otavi District, Oshikoto, Namibia
Source: Marcus Origlieri
Description: Blue prismatic single crystal
Measured chemistry: Cu_3.00_(CO_3_)_2_(OH)_2_
Pin_id: L01361
Orientation: Laser parallel to b* (0 1 0). Fiducial mark perpendicular to laser is parallel to c [0 0 1]
Raman shift (cm-1)	intensity
52.671	0
57.626	112.786
62.579	445.493
67.529	64.675
72.477	1323.94
77.423	8984.2
82.367	5953.6
87.308	4361.97
92.246	1705.85
97.182	965.785
102.116	951.957
107.047	1618.55
111.976	1720.05
116.903	1506.71
121.827	3019.22
126.749	5556.39
131.668	3190.43
136.585	4352.61
141.5	1910.34
146.412	1101.39
151.321	766.9
156.229	994.96
161.134	3470.59
166.036	6904.8
170.936	3042.55
175.834	1963.83
180.729	989.375
185.622	1083.12
190.512	1114.86
195.4	975.882
200.286	908.32
205.169	876.073
210.049	106.527
214.928	159.906
219.803	178.517
224.677	447.192
229.548	1238.84
234.416	4710.23
239.282	13460.2
244.146	14518.6
249.007	6077.33
253.866	4706.32
258.722	4724.5
263.576	2559.8
268.427	2611.13
273.276	4963.4
278.123	4733.6
282.967	2804.72
287.809	1297.77
292.648	401.755
297.485	67.6421
302.319	177.593
307.151	193.124
311.98	105.959
316.807	24.1055
321.631	95.5332
326.454	184.836
331.273	321.503
336.09	458.096
340.905	561.089
345.717	799.223
350.527	1172.14
355.334	1765.07
360.139	2854.24
364.941	4525.63
369.741	7113.96
374.538	10855.2
379.333	13992.4
384.126	16372.4
388.916	26519
393.703	48145.5
398.488	39170.6
403.271	24492.3
408.051	14054.6
412.828	7353.53
417.603	4510
422.376	2748.99
427.146	1816.51
431.914	1180.51
436.679	735.976
441.442	447.894
446.202	222.023
450.96	51.4609
455.715	44.3965
460.467	43.8018
465.218	52.0034
469.965	1.78809
474.711	44.602
479.454	6.70703
484.194	29.2944
488.932	56.3213
493.667	44.457
498.4	129.42
503.13	77.1807
507.858	86.7588
512.583	209.828
517.306	333.812
522.026	564.59
526.744	1085.89
531.459	2156.84
536.172	2668.01
540.882	1924.08
545.59	1242.56
550.295	708.354
554.998	482.957
559.698	347.367
564.396	254.659
569.091	241.787
573.784	260.736
578.474	125.492
583.162	35.0395
587.847	8.38135
592.529	14.4556
597.209	30.4004
601.887	32.9898
606.562	15.1313
611.235	26.5283
615.905	63.5549
620.572	38.9468
625.237	55.9082
629.9	38.9268
634.56	26.2539
639.217	20.0264
643.872	40.2856
648.524	16.9941
653.174	20.8677
657.821	69.6091
662.466	50.5393
667.108	85.0085
671.748	54.0322
676.385	79.6084
681.02	135.796
685.652	146.602
690.281	136.053
694.908	271.163
699.533	225.937
704.155	296.379
708.774	298.344
713.391	461.281
718.005	726.751
722.617	1234.89
727.226	2032.75
731.833	3199.87
736.437	3161.2
741.039	2464.46
745.638	2423.21
750.234	3254.11
754.828	5236.36
759.419	6498.72
764.008	5268.79
768.595	3238.62
773.178	2086.44
777.759	1251.39
782.338	889.364
786.914	605.176
791.488	596.081
796.059	605.582
800.627	636.412
805.193	941.639
809.756	1824.99
814.317	1626.03
818.875	894.869
823.431	1067.95
827.984	2093.6
832.534	4175.34
837.082	5561.08
841.627	4135.82
846.17	2218.59
850.71	1122.48
855.248	565.473
859.783	303.328
864.316	155.293
868.846	129.781
873.373	77.4287
877.898	70.6724
882.42	57.4492
886.94	32.9048
891.457	8.19946
895.971	36.7556
900.483	88.844
904.993	15.1065
909.5	47.239
914.004	135.755
918.505	229.448
923.004	367.366
927.501	757.529
931.995	1202.95
936.486	1185.58
940.975	943.405
945.461	702.451
949.945	351.725
954.426	211.676
958.904	112.761
963.38	190.536
967.853	155.451
972.324	144.493
976.792	97.7119
981.258	108.051
985.72	52.5049
990.181	19.0762
994.639	27.2185
999.094	77.5947
1003.55	57.4744
1008	24.2705
1012.44	42.4504
1016.89	0.92041
1021.33	24.0872
1025.77	40.1909
1030.21	57.178
1034.64	83.8337
1039.07	7.18945
1043.5	47.8381
1047.93	129.887
1052.35	59.9893
1056.78	188.863
1061.19	151.407
1065.61	159.672
1070.02	258.818
1074.43	400.232
1078.84	622.13
1083.25	1050.13
1087.65	2646.01
1092.05	7222.31
1096.45	4965.89
1100.85	2159.39
1105.24	826.478
1109.63	552.669
1114.02	382.409
1118.4	239.941
1122.78	131.477
1127.16	137.913
1131.54	141.659
1135.92	85.918
1140.29	108.024
1144.66	5.55225
1149.02	61.1355
1153.39	8.36304
1157.75	68.4102
1162.11	60.0527
1166.46	55.45
1170.82	14.6057
1175.17	106.593
1179.52	70.1428
1183.86	69.0317
1188.21	71.7073
1192.55	95.1562
1196.89	12.3506
1201.22	37.064
1205.55	32.0347
1209.88	9.99756
1214.21	31.8101
1218.54	43.7253
1222.86	70.3826
1227.18	44.5022
1231.5	14.7256
1235.81	48.6653
1240.12	57.0889
1244.43	65.511
1248.74	40.7244
1253.04	18.8227
1257.34	72.7456
1261.64	93.5381
1265.94	36.1477
1270.23	47.8479
1274.52	38.8445
1278.81	6.34497
1283.1	75.0371
1287.38	88.761
1291.66	246.802
1295.94	129.902
1300.21	106.026
1304.48	74.978
1308.75	11.1006
1313.02	55.9919
1317.29	73.0713
1321.55	89.4023
1325.81	102.806
1330.06	86.4319
1334.32	30.5811
1338.57	22.7295
1342.82	9.44678
1347.06	0.237549
1351.31	13.6687
1355.55	39.8525
1359.79	31.4058
1364.02	80.5078
1368.26	30.8779
1372.49	101.629
1376.71	98.7473
1380.94	102.513
1385.16	152.809
1389.38	136.949
1393.6	170.837
1397.81	123.797
1402.02	326.536
1406.23	492.58
1410.44	606.399
1414.64	1090.46
1418.85	1960.54
1423.04	4249.71
1427.24	12094.6
1431.43	8685.89
1435.62	3020.01
1439.81	1142.31
1444	633.303
1448.18	476.814
1452.36	809.927
1456.54	2906.3
1460.71	1357.53
1464.89	367.388
1469.06	98.939
1473.22	91.8433
1477.39	22.8457
1481.55	13.9756
1485.71	70.124
1489.86	76.313
1494.02	4.42871
1498.17	102.844
1502.32	11.0107
1506.46	101.162
1510.61	77.3428
1514.75	86.8696
1518.88	118.823
1523.02	144.419
1527.15	119.116
1531.28	162.268
1535.41	131.714
1539.53	128.047
1543.66	48.605
1547.78	30.9912
1551.89	111.389
1556.01	297.577
1560.12	87.5493
1564.23	44.7949
1568.33	95.5571
