Measurement: Raman, 514 nm, ccw, Raman Data Processed
Mineral: Azurite
Rruff sample: R050638
Ideal chemistry: Cu_3_(CO_3_)_2_(OH)_2_
Locality: Zacatecas, Mexico
Source: University of Arizona Mineral Museum
Description: Blue bladed crystals
Measured chemistry: Cu_3.00_(CO_3_)_2_(OH)_2_
Pin_id: M00225
Orientation: Laser parallel to (1 0 1). Fiducial mark perpendicular to laser is parallel to -b [0 -1 0]
Raman shift (cm-1)	intensity
73.714	0
78.659	7069.74
83.602	20888.1
88.542	19177.9
93.48	3182.77
98.416	141.361
103.349	510.495
108.28	1224.13
113.208	495.282
118.134	1261.66
123.058	1164.25
127.979	2257.74
132.898	11070.7
137.814	12109.7
142.728	12908.2
147.639	4207.38
152.549	2136.44
157.455	4028.87
162.359	1725.79
167.261	2916.24
172.161	8628.78
177.058	8582.91
181.952	9426.2
186.845	3161.87
191.734	1654.85
196.622	1827.94
201.507	1878.19
206.389	128.486
211.269	355.495
216.147	163.119
221.022	216.348
225.895	81.3491
230.765	805.516
235.633	2716.11
240.498	8953.45
245.361	13052.7
250.222	31090.5
255.08	12203.1
259.936	3790.14
264.789	3430.52
269.64	4048.42
274.488	3337.96
279.334	5848.23
284.178	7885.15
289.019	4794.08
293.857	1975.88
298.693	524.629
303.527	24.5701
308.358	132.803
313.187	114.622
318.013	26.3171
322.837	534.049
327.659	1362.18
332.478	2273.91
337.294	2135.99
342.108	1234.83
346.92	1063.65
351.729	1314.14
356.535	2027.79
361.34	3194.67
366.141	4816.02
370.94	6630.35
375.737	9143.77
380.531	12410.6
385.323	16680.6
390.113	21978.6
394.9	31870.6
399.684	47664.5
404.466	50051.4
409.245	26705.1
414.022	15124.6
418.797	10218.1
423.569	6728.43
428.338	4285.61
433.105	2810.66
437.87	1861.66
442.632	1135
447.391	680.534
452.149	470.178
456.903	380.254
461.655	286.033
466.405	272.119
471.152	290.347
475.897	260
480.639	178.652
485.378	103.169
490.116	219.43
494.85	298.678
499.582	275.645
504.312	187.976
509.039	199.906
513.764	252.484
518.486	346.154
523.206	529.359
527.923	872.737
532.638	1712.96
537.35	2885.5
542.059	3745.3
546.766	2943.59
551.471	1639.48
556.173	1000.69
560.873	696.844
565.57	498.539
570.264	412.85
574.957	262.769
579.646	120.287
584.333	69.3914
589.018	24.0808
593.7	26.7974
598.379	54.2617
603.056	100.523
607.73	7.69165
612.402	67.6475
617.072	21.6155
621.739	18.5239
626.403	36.4761
631.065	30.5784
635.724	50.3475
640.381	12.1898
645.035	39.7102
649.687	36.6658
654.336	17.906
658.983	16.491
663.627	29.9322
668.268	8.46704
672.907	38.0819
677.544	101.935
682.178	131.065
686.809	116.521
691.438	106.322
696.065	256.48
700.688	264.03
705.31	346.989
709.929	302.361
714.545	374.149
719.158	532.379
723.77	715.701
728.378	1134.49
732.984	1731.52
737.588	2504.44
742.189	2947
746.787	2916
751.383	3204.62
755.976	4394.93
760.567	6462.08
765.155	7565.7
769.741	6036.41
774.324	3669.2
778.904	2145.73
783.482	1520.49
788.058	1234.17
792.631	1014.59
797.201	916.602
801.769	1124.15
806.334	1263.61
810.897	1665
815.457	2395.05
820.014	3161.91
824.569	4486.65
829.122	6721.36
833.671	8814.78
838.219	8173.39
842.763	6203.39
847.306	3815.06
851.845	2129.65
856.382	1274.51
860.917	727.532
865.448	476.52
869.978	347.232
874.505	273.464
879.029	208.356
883.55	171.042
888.069	155.062
892.586	154.992
897.1	94.54
901.611	41.4297
906.12	59.7405
910.626	17.522
915.129	97.7654
919.63	74.4978
924.129	135.643
928.625	238.132
933.118	479.015
937.609	690.242
942.097	568.84
946.582	403.213
951.065	258.018
955.546	150.541
960.023	148.338
964.499	42.3931
968.971	32.6924
973.441	17.8069
977.909	59.8765
982.374	77.7627
986.836	39.1375
991.295	87.1382
995.753	11.4138
1000.21	90.2114
1004.66	2.95947
1009.11	22.988
1013.55	40.9663
1018	9.92163
1022.44	34.3921
1026.88	7.49658
1031.32	29.762
1035.75	56.5579
1040.18	103.558
1044.61	88.3977
1049.04	129.413
1053.46	187.944
1057.88	212.127
1062.3	280.177
1066.71	615.951
1071.13	461.391
1075.54	673.869
1079.94	1030.31
1084.35	1648.5
1088.75	3770.14
1093.15	9023.69
1097.55	13759.2
1101.94	6862.26
1106.34	2565.45
1110.73	1305.48
1115.11	747.347
1119.5	627.511
1123.88	460.214
1128.26	403.685
1132.63	194.623
1137.01	160.045
1141.38	79.2208
1145.75	78.2991
1150.12	9.9884
1154.48	3.91931
1158.84	65.2314
1163.2	11.0806
1167.55	8.77112
1171.91	31.0935
1176.26	7.23889
1180.61	11.471
1184.95	26.8939
1189.29	28.9261
1193.63	7.04871
1197.97	43.9099
1202.31	8.31457
1206.64	47.9121
1210.97	19.7787
1215.29	22.9713
1219.62	2.54578
1223.94	1.16443
1228.26	73.1991
1232.57	59.1628
1236.89	21.2242
1241.2	36.9845
1245.51	14.8904
1249.81	9.33667
1254.12	84.057
1258.42	28.3997
1262.72	83.5652
1267.01	198.836
1271.3	21.78
1275.59	95.5731
1279.88	74.1654
1284.17	115.936
1288.45	67.3566
1292.73	44.5651
1297.01	65.6149
1301.28	78.1773
1305.55	72.0879
1309.82	50.8009
1314.09	50.0532
1318.35	51.4482
1322.61	21.6303
1326.87	69.9523
1331.13	113.5
1335.38	14.2122
1339.63	24.624
1343.88	37.0227
1348.12	31.4625
1352.37	35.2629
1356.61	50.8485
1360.85	18.0076
1365.08	2.66699
1369.31	2.66992
1373.54	17.6478
1377.77	25.5797
1381.99	109.867
1386.22	132
1390.43	52.9279
1394.65	62.725
1398.87	168.666
1403.08	234.57
1407.29	411.039
1411.49	797.901
1415.69	2067.67
1419.89	3153.5
1424.09	2090.55
1428.29	2064.01
1432.48	2074.43
1436.67	790.558
1440.86	369.961
1445.04	191.91
1449.23	185.878
1453.4	286.74
1457.58	855.269
1461.76	811.574
1465.93	228.753
1470.1	210.541
1474.26	83.1646
1478.43	186.139
1482.59	203.473
1486.75	138.953
1490.9	139.434
1495.06	124.778
1499.21	92.9386
1503.35	65.0203
1507.5	58.8708
1511.64	76.1936
1515.78	75.1394
1519.92	60.3197
1524.05	114.46
1528.18	78.4155
1532.31	90.5831
1536.44	76.6094
1540.56	52.7235
1544.69	77.8084
1548.8	115.2
1552.92	355.09
1557.03	249.491
1561.14	15.8503
1565.25	102.398
1569.36	7.83569
