Measurement: Raman, 514 nm, ccw, Raman Data Processed
Mineral: Azurite
Rruff sample: R050638
Ideal chemistry: Cu_3_(CO_3_)_2_(OH)_2_
Locality: Zacatecas, Mexico
Source: University of Arizona Mineral Museum
Description: Blue bladed crystals
Measured chemistry: Cu_3.00_(CO_3_)_2_(OH)_2_
Pin_id: M00402
Orientation: Laser parallel to c* (0 0 1). Fiducial mark perpendicular to laser is parallel to -a [-1 0 0]
Raman shift (cm-1)	intensity
52.671	0
57.626	203.493
62.579	59.7657
67.529	460.58
72.477	6531.72
77.423	34032.4
82.367	49597.4
87.308	29106.7
92.246	7929.48
97.182	3562.59
102.116	3241.44
107.047	4892.65
111.976	3721.72
116.903	2845.16
121.827	5779.24
126.749	9717.61
131.668	17345.4
136.585	13634.7
141.5	7750.74
146.412	6927.26
151.321	4887.65
156.229	4007.06
161.134	4690.53
166.036	7704.98
170.936	13606.3
175.834	11258.4
180.729	6522.63
185.622	3285.95
190.512	2231.69
195.4	2028.33
200.286	1870.64
205.169	1262.75
210.049	36.3794
214.928	205.605
219.803	118.733
224.677	771.852
229.548	3234.07
234.416	5521.75
239.282	18006.4
244.146	20694.5
249.007	19852.9
253.866	10210.2
258.722	4620.37
263.576	4102.12
268.427	5220.16
273.276	7888.3
278.123	10073.5
282.967	9305.72
287.809	5283.99
292.648	1712.22
297.485	206.363
302.319	286.65
307.151	407.364
311.98	349.061
316.807	249.211
321.631	1958.33
326.454	3335.27
331.273	2981.89
336.09	1977.1
340.905	1039.96
345.717	859.908
350.527	1193.68
355.334	2259.43
360.139	3657.65
364.941	5446.29
369.741	8202.94
374.538	12204.2
379.333	16386.9
384.126	21343.1
388.916	32101.5
393.703	50918.1
398.488	55565.7
403.271	44703.3
408.051	25070.8
412.828	13721.1
417.603	8282.12
422.376	5298.86
427.146	3247.25
431.914	2017.22
436.679	1189.73
441.442	637.035
446.202	200.5
450.96	52.4397
455.715	22.0781
460.467	16.8413
465.218	11.8867
469.965	17.4092
474.711	39.9597
479.454	3.26294
484.194	5.10669
488.932	6.34668
493.667	7.45288
498.4	78.7869
503.13	38.0554
507.858	131.523
512.583	143.387
517.306	241.657
522.026	534.535
526.744	1180.82
531.459	2569.29
536.172	3958.17
540.882	3832.75
545.59	2673.25
550.295	1498.4
554.998	914.391
559.698	524.379
564.396	447.662
569.091	363.213
573.784	256.01
578.474	158.028
583.162	83.2129
587.847	27.2544
592.529	33.1079
597.209	61.8545
601.887	3.09961
606.562	24.6623
611.235	26.3518
615.905	14.6572
620.572	20.0996
625.237	10.813
629.9	16.4109
634.56	20.3523
639.217	7.08557
643.872	8.00684
648.524	23.8826
653.174	14.6528
657.821	23.5408
662.466	32.558
667.108	18.3386
671.748	24.9967
676.385	83.6368
681.02	126.305
685.652	153.08
690.281	201
694.908	220.106
699.533	247.422
704.155	290.97
708.774	403.766
713.391	553.827
718.005	662.168
722.617	1013.6
727.226	1632.73
731.833	2623.19
736.437	3497.2
741.039	3637.9
745.638	3494.64
750.234	4065.7
754.828	6009.77
759.419	7963.23
764.008	7703.54
768.595	5492.53
773.178	3271.12
777.759	2110.72
782.338	1506.99
786.914	1163.48
791.488	954.918
796.059	916.823
800.627	956.548
805.193	1247.88
809.756	1926.84
814.317	2474.53
818.875	2836.5
823.431	4360.67
827.984	6411.58
832.534	7082.73
837.082	6424.29
841.627	4729.87
846.17	2906.52
850.71	1506.24
855.248	861.071
859.783	533.051
864.316	313.57
868.846	181.144
873.373	198.157
877.898	180.95
882.42	199.954
886.94	123.213
891.457	153.602
895.971	226.279
900.483	242.826
904.993	275.581
909.5	433.863
914.004	589.661
918.505	938.899
923.004	1563.61
927.501	2641.82
931.995	4041.48
936.486	4424.57
940.975	3715.11
945.461	2390.06
949.945	1406.33
954.426	881.079
958.904	669.054
963.38	500.306
967.853	408.841
972.324	276.652
976.792	167.716
981.258	133.034
985.72	151.609
990.181	32.4326
994.639	22.5068
999.094	7.75195
1003.55	4.79126
1008	48.217
1012.44	17.6982
1016.89	47.4326
1021.33	43.1582
1025.77	17.0413
1030.21	79.1121
1034.64	35.7769
1039.07	151.095
1043.5	106.894
1047.93	88.1067
1052.35	245.754
1056.78	237.075
1061.19	311.04
1065.61	434.446
1070.02	581.27
1074.43	775.054
1078.84	1295.38
1083.25	2364.49
1087.65	5658.66
1092.05	14180.9
1096.45	14571.5
1100.85	6931.86
1105.24	2839.23
1109.63	1409.88
1114.02	958.844
1118.4	680.902
1122.78	585.802
1127.16	418.159
1131.54	228.018
1135.92	112.135
1140.29	58.8285
1144.66	55.5486
1149.02	26.7325
1153.39	16.8755
1157.75	19.1967
1162.11	25.8364
1166.46	32.9443
1170.82	10.9082
1175.17	6.9397
1179.52	11.7529
1183.86	4.33118
1188.21	38.0489
1192.55	24.1566
1196.89	13.8805
1201.22	21.2787
1205.55	17.2744
1209.88	22.2214
1214.21	5.71887
1218.54	26.02
1222.86	31.0879
1227.18	8.7428
1231.5	38.0697
1235.81	32.3699
1240.12	85.328
1244.43	3.26331
1248.74	14.1843
1253.04	37.0844
1257.34	52.4727
1261.64	40.6198
1265.94	77.6813
1270.23	96.5454
1274.52	82.3793
1278.81	91.0572
1283.1	100.092
1287.38	92.0444
1291.66	77.1554
1295.94	119.545
1300.21	94.6683
1304.48	29.8908
1308.75	121.774
1313.02	83.1677
1317.29	30.8588
1321.55	37.3949
1325.81	69.911
1330.06	88.2399
1334.32	24.2457
1338.57	31.5625
1342.82	55.6984
1347.06	9.34717
1351.31	64.436
1355.55	24.3756
1359.79	19.3916
1364.02	61.0691
1368.26	32.1205
1372.49	41.9973
1376.71	40.0991
1380.94	97.3677
1385.16	120.849
1389.38	97.8109
1393.6	109.662
1397.81	173.706
1402.02	314.837
1406.23	518.79
1410.44	1032.03
1414.64	2806.62
1418.85	3678.26
1423.04	2307.7
1427.24	2607.39
1431.43	2064.97
1435.62	841.999
1439.81	392.052
1444	251.522
1448.18	205.768
1452.36	476.289
1456.54	1462.96
1460.71	1068.41
1464.89	360.888
1469.06	219.429
1473.22	185.463
1477.39	248.152
1481.55	181.842
1485.71	181.466
1489.86	105.076
1494.02	107.517
1498.17	136.687
1502.32	115.55
1506.46	71.1735
1510.61	106.01
1514.75	93.3202
1518.88	113.879
1523.02	151.762
1527.15	139.76
1531.28	151.041
1535.41	158.203
1539.53	151.31
1543.66	102.615
1547.78	86.8904
1551.89	131.596
1556.01	304.078
1560.12	28.6482
1564.23	65.3462
1568.33	83.4912
