Measurement: Raman, 514 nm, ccw, Raman Data Processed
Mineral: Azurite
Rruff sample: R050638
Ideal chemistry: Cu_3_(CO_3_)_2_(OH)_2_
Locality: Zacatecas, Mexico
Source: University of Arizona Mineral Museum
Description: Blue bladed crystals
Measured chemistry: Cu_3.00_(CO_3_)_2_(OH)_2_
Pin_id: M00381
Orientation: Laser parallel to a* (1 0 0). Fiducial mark perpendicular to laser is parallel to b [0 1 0]
Raman shift (cm-1)	intensity
52.671	0
57.626	73.1004
62.579	14.9414
67.529	118.508
72.477	1949.66
77.423	7824.2
82.367	9567.41
87.308	5840.25
92.246	3845.88
97.182	2902.03
102.116	2566.55
107.047	3434.82
111.976	3238.84
116.903	3256.65
121.827	2777.35
126.749	3103.89
131.668	6669.73
136.585	10236.7
141.5	8516.33
146.412	6899.13
151.321	3940.43
156.229	2749.41
161.134	2591.15
166.036	3582.64
170.936	5307.87
175.834	5086.54
180.729	5838.2
185.622	10534.5
190.512	11924
195.4	10778.8
200.286	6997.99
205.169	3415.48
210.049	1323.69
214.928	956.154
219.803	630.002
224.677	603.171
229.548	994.153
234.416	1700.58
239.282	6518.12
244.146	7876.55
249.007	6850.69
253.866	3441.44
258.722	1393.67
263.576	944.292
268.427	952.023
273.276	1352.75
278.123	1651.49
282.967	1256.27
287.809	673.1
292.648	86.9651
297.485	200.184
302.319	335.818
307.151	240.447
311.98	265.084
316.807	21.5674
321.631	339.677
326.454	696.089
331.273	700.681
336.09	636.585
340.905	511.567
345.717	661.554
350.527	987.779
355.334	1518.31
360.139	2470.08
364.941	3897.07
369.741	6123.31
374.538	9285.83
379.333	12598.6
384.126	17718.6
388.916	31205.8
393.703	55754.2
398.488	58889.7
403.271	45927
408.051	25736.1
412.828	14262
417.603	9139.56
422.376	6392.81
427.146	4821.69
431.914	3588.16
436.679	2727.2
441.442	2146.2
446.202	1660.54
450.96	1463.78
455.715	1287.81
460.467	1267.12
465.218	1303.18
469.965	1263.79
474.711	1096.8
479.454	940.79
484.194	984.788
488.932	935.231
493.667	782.632
498.4	663.827
503.13	526.917
507.858	481.832
512.583	373.199
517.306	409.178
522.026	408.667
526.744	785.623
531.459	1308.83
536.172	1868.69
540.882	1839.25
545.59	1370.32
550.295	819.246
554.998	608.117
559.698	441.31
564.396	352.112
569.091	304.301
573.784	303.696
578.474	113.709
583.162	82.6513
587.847	54.4609
592.529	29.0365
597.209	6.82861
601.887	15.3964
606.562	75.9822
611.235	28.406
615.905	60.8641
620.572	33.7043
625.237	17.5558
629.9	45.7655
634.56	75.3643
639.217	49.3726
643.872	14.7236
648.524	33.8263
653.174	31.5011
657.821	93.421
662.466	34.7135
667.108	21.3225
671.748	72.7588
676.385	24.1107
681.02	28.8911
685.652	76.4977
690.281	79.3302
694.908	24.4247
699.533	89.7555
704.155	70.4042
708.774	80.3857
713.391	102.72
718.005	201.46
722.617	276.639
727.226	310.259
731.833	378.249
736.437	560.533
741.039	695.784
745.638	722.537
750.234	860.076
754.828	1076.58
759.419	1505.45
764.008	1508.42
768.595	1055.83
773.178	797.987
777.759	561.696
782.338	499.707
786.914	411.789
791.488	400.378
796.059	402.213
800.627	396.994
805.193	457.337
809.756	598.225
814.317	946.602
818.875	1458.85
823.431	2666.52
827.984	4097.25
832.534	4653.82
837.082	3877.09
841.627	2600.01
846.17	1409.58
850.71	761.238
855.248	461.704
859.783	279.287
864.316	263.005
868.846	215.882
873.373	291.306
877.898	386.487
882.42	438.828
886.94	567.667
891.457	684.036
895.971	786.561
900.483	963.744
904.993	1282.99
909.5	1586.75
914.004	2234.19
918.505	3391.86
923.004	5435.94
927.501	9092.65
931.995	13212
936.486	14377.2
940.975	11240
945.461	6928.69
949.945	3893.12
954.426	2420.2
958.904	1861.87
963.38	1379.08
967.853	1170.77
972.324	849.944
976.792	702.543
981.258	509.571
985.72	380.997
990.181	191.793
994.639	124.95
999.094	19.4601
1003.55	18.6506
1008	43.0939
1012.44	46.6412
1016.89	7.93262
1021.33	49.4648
1025.77	23.6266
1030.21	18.4921
1034.64	43.2546
1039.07	35.2831
1043.5	15.2366
1047.93	19.3159
1052.35	30.7327
1056.78	91.8232
1061.19	111.892
1065.61	226.18
1070.02	379.457
1074.43	625.549
1078.84	811.1
1083.25	1631.68
1087.65	3926.11
1092.05	10719.9
1096.45	10245.4
1100.85	4640.6
1105.24	1800.52
1109.63	986.873
1114.02	596.987
1118.4	486.072
1122.78	413.222
1127.16	279.747
1131.54	89.9855
1135.92	36.2058
1140.29	12.9559
1144.66	34.3721
1149.02	2.05884
1153.39	20.2476
1157.75	42.048
1162.11	27.1705
1166.46	27.0347
1170.82	3.20373
1175.17	15.0631
1179.52	19.8971
1183.86	23.3983
1188.21	51.318
1192.55	39.3762
1196.89	15.7064
1201.22	24.7225
1205.55	13.515
1209.88	6.90747
1214.21	19.0513
1218.54	23.2424
1222.86	3.52405
1227.18	75.1355
1231.5	60.2815
1235.81	107.02
1240.12	66.8811
1244.43	84.6997
1248.74	73.9482
1253.04	59.9377
1257.34	121.597
1261.64	65.0104
1265.94	92.3499
1270.23	105.096
1274.52	104.829
1278.81	120.7
1283.1	141.436
1287.38	95.9351
1291.66	96.2681
1295.94	57.6585
1300.21	109.571
1304.48	93.8568
1308.75	83.0619
1313.02	80.3718
1317.29	76.0804
1321.55	56.2135
1325.81	64.4571
1330.06	94.5286
1334.32	29.9663
1338.57	57.1453
1342.82	50.6902
1347.06	18.4737
1351.31	26.8547
1355.55	45.3362
1359.79	4.3042
1364.02	14.5845
1368.26	25.0752
1372.49	37.8312
1376.71	41.3406
1380.94	37.2711
1385.16	31.033
1389.38	12.2954
1393.6	5.96277
1397.81	1.0564
1402.02	39.1169
1406.23	66.2991
1410.44	71.2185
1414.64	230.471
1418.85	440.724
1423.04	289.954
1427.24	184.332
1431.43	143.844
1435.62	130.53
1439.81	191.918
1444	193.534
1448.18	320.778
1452.36	697.689
1456.54	2113.21
1460.71	1259.01
1464.89	388.884
1469.06	210.319
1473.22	229.608
1477.39	224.747
1481.55	254.845
1485.71	213.212
1489.86	154.442
1494.02	123.908
1498.17	94.3925
1502.32	70.885
1506.46	33.3318
1510.61	0.350098
1514.75	97.0503
1518.88	121.56
1523.02	118.508
1527.15	102.877
1531.28	93.5392
1535.41	82.4737
1539.53	65.7305
1543.66	41.1837
1547.78	45.5638
1551.89	193.718
1556.01	262.874
1560.12	3.43542
1564.23	9.51709
1568.33	14.3481
