Measurement: Raman, 514 nm, ccw, Raman Data Processed
Mineral: Azurite
Rruff sample: R050638
Ideal chemistry: Cu_3_(CO_3_)_2_(OH)_2_
Locality: Zacatecas, Mexico
Source: University of Arizona Mineral Museum
Description: Blue bladed crystals
Measured chemistry: Cu_3.00_(CO_3_)_2_(OH)_2_
Pin_id: M00496
Orientation: Laser parallel to -b* (0 -1 0). Fiducial mark perpendicular to laser is parallel to -c [0 0 -1]
Raman shift (cm-1)	intensity
52.671	0
57.626	61.6891
62.579	8.13959
67.529	77.7999
72.477	1251.62
77.423	3815.69
82.367	26586.3
87.308	12593.4
92.246	3744.17
97.182	2110.7
102.116	1710.41
107.047	2113.06
111.976	3054.84
116.903	2163.2
121.827	1549.18
126.749	2508.43
131.668	9290.39
136.585	11615.6
141.5	18364.3
146.412	3983.4
151.321	4974.08
156.229	8022.5
161.134	1796.71
166.036	2247.26
170.936	6598.53
175.834	8043.85
180.729	16656.6
185.622	3432.88
190.512	2599.2
195.4	2697.33
200.286	2203.12
205.169	1414.23
210.049	201.186
214.928	203.608
219.803	129.59
224.677	218.554
229.548	621.085
234.416	2475.88
239.282	4467.67
244.146	7238.27
249.007	19438.5
253.866	3224.34
258.722	1509.62
263.576	3081.27
268.427	1964.1
273.276	1309
278.123	3171.96
282.967	3910.02
287.809	1721.16
292.648	533.388
297.485	39.331
302.319	197.193
307.151	312.594
311.98	250.678
316.807	25.1946
321.631	550.597
326.454	1983.15
331.273	3994.56
336.09	2676.82
340.905	1332.26
345.717	953.879
350.527	1067.82
355.334	1481.15
360.139	2558.84
364.941	3988.74
369.741	5161.79
374.538	7221.93
379.333	10634.1
384.126	13729.4
388.916	16860.5
393.703	27595.6
398.488	53876.5
403.271	46247.2
408.051	22268.6
412.828	13370.7
417.603	9923.49
422.376	6457.9
427.146	4143.91
431.914	2586.49
436.679	1770.63
441.442	947.817
446.202	687.719
450.96	432.796
455.715	283.721
460.467	340.529
465.218	226.257
469.965	228.727
474.711	256.044
479.454	200.386
484.194	169.69
488.932	226.373
493.667	179.75
498.4	201.577
503.13	171.058
507.858	134.729
512.583	110.337
517.306	160.362
522.026	244.811
526.744	463.297
531.459	1112.63
536.172	2170.29
540.882	3149.82
545.59	2202.03
550.295	1158.72
554.998	721.375
559.698	415.713
564.396	351.962
569.091	335.648
573.784	190.08
578.474	125.237
583.162	25.109
587.847	19.9341
592.529	28.054
597.209	74.9484
601.887	24.2367
606.562	48.294
611.235	13.3198
615.905	57.157
620.572	24.881
625.237	31.5404
629.9	18.1521
634.56	34.5111
639.217	4.30164
643.872	30.3226
648.524	8.58521
653.174	14.9421
657.821	13.7168
662.466	10.5725
667.108	44.5829
671.748	51.8751
676.385	78.4766
681.02	116.439
685.652	116.801
690.281	114.58
694.908	182.793
699.533	118.485
704.155	217.65
708.774	169.305
713.391	276.456
718.005	350.106
722.617	406.275
727.226	562.171
731.833	867.237
736.437	1367.6
741.039	1892.83
745.638	2044.42
750.234	1964.96
754.828	2262.75
759.419	3379.23
764.008	4038.34
768.595	2984.32
773.178	1853.69
777.759	1149.99
782.338	821.04
786.914	713.131
791.488	691.446
796.059	683.229
800.627	718.682
805.193	893.981
809.756	1210.05
814.317	1721.66
818.875	2400.81
823.431	3605.58
827.984	7055.59
832.534	8538.76
837.082	7067.32
841.627	4640.35
846.17	2887.34
850.71	1613.28
855.248	976.78
859.783	690.106
864.316	433.928
868.846	268.837
873.373	187.932
877.898	142.547
882.42	123.592
886.94	147.782
891.457	81.4681
895.971	124.804
900.483	101.657
904.993	94.0386
909.5	89.6675
914.004	82.5643
918.505	89.7179
923.004	144.85
927.501	245.804
931.995	347.748
936.486	564.995
940.975	469.579
945.461	273.43
949.945	149.572
954.426	81.9497
958.904	64.5416
963.38	80.3422
967.853	86.3414
972.324	84.5238
976.792	25.8666
981.258	58.354
985.72	38.989
990.181	10.2319
994.639	17.681
999.094	0.261841
1003.55	14.073
1008	30.8616
1012.44	33.6548
1016.89	19.8524
1021.33	11.0903
1025.77	13.5638
1030.21	23.8588
1034.64	8.90173
1039.07	28.4131
1043.5	91.904
1047.93	73.9362
1052.35	135.307
1056.78	187.935
1061.19	162.871
1065.61	304.753
1070.02	332.325
1074.43	508.14
1078.84	689.206
1083.25	1091.98
1087.65	2131.03
1092.05	5712.63
1096.45	12183.9
1100.85	5109.29
1105.24	1976.63
1109.63	1081.66
1114.02	668.725
1118.4	406.133
1122.78	312.936
1127.16	246.137
1131.54	170.02
1135.92	131.74
1140.29	53.2788
1144.66	12.8332
1149.02	32.3719
1153.39	35.9728
1157.75	53.7417
1162.11	1.99829
1166.46	27.4799
1170.82	43.6412
1175.17	22.7367
1179.52	10.7006
1183.86	16.5226
1188.21	28.246
1192.55	22.2581
1196.89	31.9973
1201.22	13.3309
1205.55	14.203
1209.88	24.3314
1214.21	5.02234
1218.54	5.45728
1222.86	1.0708
1227.18	6.40686
1231.5	9.09302
1235.81	53.7814
1240.12	61.8865
1244.43	29.7941
1248.74	64.0772
1253.04	67.4843
1257.34	35.5939
1261.64	27.8955
1265.94	49.8561
1270.23	55.8108
1274.52	67.5915
1278.81	54.0725
1283.1	64.7511
1287.38	42.3278
1291.66	70.2331
1295.94	69.2734
1300.21	116.131
1304.48	73.3516
1308.75	133.046
1313.02	117.497
1317.29	46.7466
1321.55	83.9735
1325.81	3.05115
1330.06	67.0286
1334.32	15.1406
1338.57	30.288
1342.82	20.9707
1347.06	68.7322
1351.31	33.8961
1355.55	13.9844
1359.79	51.1515
1364.02	19.6862
1368.26	61.2483
1372.49	6.14502
1376.71	14.4325
1380.94	4622.42
1385.16	53.6951
1389.38	55.2549
1393.6	42.3925
1397.81	88.5757
1402.02	139.397
1406.23	137.99
1410.44	351.636
1414.64	961.161
1418.85	2013.08
1423.04	1137.03
1427.24	624.594
1431.43	542.027
1435.62	212.607
1439.81	55.3547
1444	100.756
1448.18	28.0892
1452.36	11.4299
1456.54	86.5876
1460.71	87.7968
1464.89	45.8505
1469.06	57.26
1473.22	82.0524
1477.39	87.1356
1481.55	97.7437
1485.71	113.469
1489.86	78.3359
1494.02	97.1174
1498.17	53.7849
1502.32	69.3308
1506.46	67.5726
1510.61	43.5776
1514.75	67.6672
1518.88	132.75
1523.02	39.1187
1527.15	68.1901
1531.28	47.3435
1535.41	96.0546
1539.53	51.0829
1543.66	78.4695
1547.78	51.6326
1551.89	128.414
1556.01	155.764
1560.12	11.1234
1564.23	84.9571
1568.33	52.3088
