Measurement: Raman, 514 nm, ccw, Raman Data Processed
Mineral: Azurite
Rruff sample: R050638
Ideal chemistry: Cu_3_(CO_3_)_2_(OH)_2_
Locality: Zacatecas, Mexico
Source: University of Arizona Mineral Museum
Description: Blue bladed crystals
Measured chemistry: Cu_3.00_(CO_3_)_2_(OH)_2_
Pin_id: M00381
Orientation: Laser parallel to a* (1 0 0). Fiducial mark perpendicular to laser is parallel to b [0 1 0]
Raman shift (cm-1)	intensity
52.671	0
57.626	130.982
62.579	81.804
67.529	461.165
72.477	5351.36
77.423	29971.2
82.367	60874.2
87.308	20461
92.246	6267.48
97.182	3047.98
102.116	2084.85
107.047	2481.05
111.976	2262.49
116.903	2307.45
121.827	4763.16
126.749	11133.5
131.668	22891.2
136.585	25621
141.5	14102.7
146.412	8811.8
151.321	9327.97
156.229	5659.35
161.134	4786.93
166.036	10176.5
170.936	16680.5
175.834	18693.2
180.729	11314.1
185.622	4928.74
190.512	3607.69
195.4	3070.64
200.286	2028.43
205.169	1153.73
210.049	51.8547
214.928	43.2722
219.803	51.1716
224.677	370.824
229.548	2132.95
234.416	4661.64
239.282	8972.46
244.146	15031
249.007	11574.2
253.866	4800.62
258.722	3667.28
263.576	4100.98
268.427	4225.5
273.276	8036.67
278.123	11882.5
282.967	9281.55
287.809	4556.18
292.648	1646.41
297.485	312.202
302.319	132.485
307.151	341.044
311.98	295.031
316.807	200.839
321.631	1503.29
326.454	3627.79
331.273	3990.58
336.09	2381.43
340.905	1287.35
345.717	1091.83
350.527	1427.18
355.334	2403.05
360.139	4041.47
364.941	5727.58
369.741	7718.98
374.538	10843
379.333	14618.3
384.126	18017.8
388.916	26099.4
393.703	45221
398.488	54381.5
403.271	37568.9
408.051	22309
412.828	15142.8
417.603	10782.4
422.376	6879.49
427.146	4152.21
431.914	2474.47
436.679	1447.24
441.442	800.468
446.202	372.52
450.96	211.823
455.715	102.486
460.467	97.6516
465.218	68.2437
469.965	20.0093
474.711	72.7693
479.454	15.5742
484.194	26.9131
488.932	47.2485
493.667	55.2835
498.4	30.1916
503.13	8.3728
507.858	55.113
512.583	73.1604
517.306	140.648
522.026	340.063
526.744	923.708
531.459	2076.01
536.172	3547.12
540.882	3688.08
545.59	2400.53
550.295	1314.5
554.998	766.621
559.698	471.007
564.396	324.834
569.091	214.081
573.784	245.726
578.474	64.7479
583.162	48.0999
587.847	14.7257
592.529	42.978
597.209	26.1659
601.887	72.6562
606.562	3.48511
611.235	13.9768
615.905	43.49
620.572	22.8519
625.237	8.68188
629.9	10.025
634.56	1.03345
639.217	10.8133
643.872	22.3768
648.524	12.5989
653.174	5.69189
657.821	43.86
662.466	18.7549
667.108	37.3607
671.748	71.0134
676.385	102.765
681.02	97.6931
685.652	129.843
690.281	129.265
694.908	178.992
699.533	180.052
704.155	213.455
708.774	268.216
713.391	347.348
718.005	445.678
722.617	596.037
727.226	899.794
731.833	1501.01
736.437	2278.29
741.039	2811.06
745.638	2888.17
750.234	3061.08
754.828	4038.47
759.419	5557.95
764.008	5248.94
768.595	3578.99
773.178	2097.8
777.759	1430.03
782.338	1034
786.914	863.937
791.488	812.083
796.059	919.406
800.627	1104.05
805.193	1389.21
809.756	1941.44
814.317	2875.31
818.875	4713.46
823.431	8122.97
827.984	13437.2
832.534	13997
837.082	10424.9
841.627	6430.83
846.17	3667.84
850.71	2171.94
855.248	1366.15
859.783	930.646
864.316	558.995
868.846	419.944
873.373	305.039
877.898	284.854
882.42	285.619
886.94	301.018
891.457	255.606
895.971	354.146
900.483	380.82
904.993	399.708
909.5	549.029
914.004	707.782
918.505	1072.95
923.004	1819.54
927.501	3020.53
931.995	4745.01
936.486	5395.94
940.975	4366.26
945.461	2723.93
949.945	1559.94
954.426	976.264
958.904	759.873
963.38	617.747
967.853	483.865
972.324	374.225
976.792	261.819
981.258	204.645
985.72	118.702
990.181	63.0048
994.639	32.5214
999.094	53.1473
1003.55	10.1932
1008	54.4945
1012.44	19.7889
1016.89	43.3152
1021.33	2.64148
1025.77	24.5139
1030.21	1.71545
1034.64	51.4893
1039.07	130.818
1043.5	84.2507
1047.93	111.872
1052.35	201.539
1056.78	149.436
1061.19	219.394
1065.61	366.848
1070.02	505.717
1074.43	711.026
1078.84	1034.3
1083.25	1914.79
1087.65	4531.39
1092.05	12813.9
1096.45	15306
1100.85	5795.8
1105.24	2347.5
1109.63	1284.02
1114.02	745.198
1118.4	493.913
1122.78	374.437
1127.16	266.668
1131.54	182.895
1135.92	112.619
1140.29	73.8435
1144.66	65.9331
1149.02	43.2159
1153.39	2.5614
1157.75	19.645
1162.11	1.86731
1166.46	32.5675
1170.82	26.9454
1175.17	15.8768
1179.52	30.0249
1183.86	29.9503
1188.21	10.3136
1192.55	43.0847
1196.89	1.38855
1201.22	43.3331
1205.55	18.1693
1209.88	17.9952
1214.21	35.2882
1218.54	51.4331
1222.86	4.4292
1227.18	54.4044
1231.5	21.0939
1235.81	22.5941
1240.12	27.4956
1244.43	19.2469
1248.74	19.9031
1253.04	39.2897
1257.34	65.512
1261.64	62.1765
1265.94	77.6674
1270.23	64.152
1274.52	36.1617
1278.81	83.8188
1283.1	56.2643
1287.38	22.8818
1291.66	59.5261
1295.94	84.3097
1300.21	81.5321
1304.48	59.7318
1308.75	43.4091
1313.02	45.0923
1317.29	60.9045
1321.55	20.7544
1325.81	27.4634
1330.06	63.433
1334.32	0.683716
1338.57	33.0706
1342.82	29.3247
1347.06	48.0867
1351.31	19.9856
1355.55	15.6011
1359.79	1.27173
1364.02	12.9047
1368.26	20.9915
1372.49	17.8655
1376.71	24.1893
1380.94	29.7058
1385.16	36.0992
1389.38	0.522339
1393.6	0.258179
1397.81	4.00574
1402.02	29.0885
1406.23	53.1971
1410.44	136.382
1414.64	344.365
1418.85	577.557
1423.04	329.91
1427.24	512.306
1431.43	494.788
1435.62	180.71
1439.81	148.149
1444	129.16
1448.18	152.677
1452.36	303.082
1456.54	1170.99
1460.71	851.353
1464.89	265.058
1469.06	230.623
1473.22	244.846
1477.39	242.107
1481.55	271.735
1485.71	239.006
1489.86	256.833
1494.02	223.246
1498.17	163.685
1502.32	131.121
1506.46	113.499
1510.61	110.758
1514.75	158.045
1518.88	117.342
1523.02	200.952
1527.15	131.928
1531.28	166.532
1535.41	97.4506
1539.53	129.704
1543.66	95.4702
1547.78	43.9994
1551.89	139.502
1556.01	251.208
1560.12	50.6899
1564.23	44.8457
1568.33	0.171143
