Measurement: Raman, 514 nm, ccw, Raman Data Processed
Mineral: Azurite
Rruff sample: R050638
Ideal chemistry: Cu_3_(CO_3_)_2_(OH)_2_
Locality: Zacatecas, Mexico
Source: University of Arizona Mineral Museum
Description: Blue bladed crystals
Measured chemistry: Cu_3.00_(CO_3_)_2_(OH)_2_
Pin_id: M00402
Orientation: Laser parallel to c* (0 0 1). Fiducial mark perpendicular to laser is parallel to -a [-1 0 0]
Raman shift (cm-1)	intensity
52.671	0
57.626	107.455
62.579	0.585449
67.529	32.4492
72.477	1157.93
77.423	3319.4
82.367	4930.45
87.308	3104.45
92.246	2623.79
97.182	2304.47
102.116	5418.33
107.047	11428.8
111.976	10228
116.903	5681.32
121.827	2583.03
126.749	2482.76
131.668	4441.69
136.585	3970.86
141.5	3753.88
146.412	4175.44
151.321	3697.89
156.229	3421.38
161.134	3841
166.036	5304.74
170.936	5330.58
175.834	3629.84
180.729	2562.63
185.622	1597.61
190.512	1348.6
195.4	1634.72
200.286	2011.04
205.169	2458.54
210.049	1913.83
214.928	1542.1
219.803	764.413
224.677	901.176
229.548	3050.87
234.416	5078.19
239.282	14503.7
244.146	14048
249.007	8560.1
253.866	3072.69
258.722	892.678
263.576	548.934
268.427	612.21
273.276	1364.4
278.123	1739.48
282.967	1970.46
287.809	1281.33
292.648	466.092
297.485	180.152
302.319	355.622
307.151	341.846
311.98	55.3167
316.807	1012.61
321.631	3080.04
326.454	4817.15
331.273	4618.06
336.09	3092.89
340.905	1631.48
345.717	1524.04
350.527	2469.8
355.334	4501.93
360.139	7062
364.941	8882.85
369.741	11123.6
374.538	15135
379.333	19342.9
384.126	23169.2
388.916	32426.8
393.703	49186.8
398.488	52439.2
403.271	40615.7
408.051	24843.4
412.828	14688.2
417.603	9386.99
422.376	6098.77
427.146	4158.48
431.914	2707.34
436.679	1641.19
441.442	1078.1
446.202	686.904
450.96	444.681
455.715	261.251
460.467	238.851
465.218	366.788
469.965	294.591
474.711	179.251
479.454	216.579
484.194	197.105
488.932	225.489
493.667	166.153
498.4	92.7056
503.13	64.491
507.858	4.46899
512.583	2.19751
517.306	13.5264
522.026	72.7346
526.744	250.581
531.459	800.554
536.172	1161.53
540.882	1212.1
545.59	807.495
550.295	427.926
554.998	235.94
559.698	208.487
564.396	132.552
569.091	119.103
573.784	76.1042
578.474	34.5793
583.162	68.3054
587.847	43.4573
592.529	71.135
597.209	118.402
601.887	94.5935
606.562	30.1222
611.235	19.4203
615.905	23.7064
620.572	27.4383
625.237	90.3209
629.9	125.154
634.56	126.008
639.217	199.959
643.872	134.033
648.524	174.359
653.174	143.524
657.821	111.975
662.466	120.934
667.108	127.98
671.748	196.998
676.385	116.024
681.02	176.077
685.652	261.212
690.281	261.498
694.908	343.968
699.533	394.631
704.155	432.497
708.774	573.573
713.391	650.607
718.005	1016.23
722.617	1444.91
727.226	2168.74
731.833	3401.4
736.437	3986.13
741.039	3685.83
745.638	3107.82
750.234	3381.58
754.828	5555.54
759.419	8724.02
764.008	9147.58
768.595	6837.58
773.178	4094.37
777.759	2407.14
782.338	1526.47
786.914	1080.96
791.488	999.599
796.059	816.551
800.627	844.158
805.193	1130.74
809.756	1810.75
814.317	2400.96
818.875	2789.55
823.431	3630.72
827.984	4894.5
832.534	5166.27
837.082	4435.98
841.627	3140.67
846.17	1926.36
850.71	1014.06
855.248	509.884
859.783	274.617
864.316	137.544
868.846	139.109
873.373	36.2998
877.898	71.875
882.42	79.2647
886.94	75.1936
891.457	9.69043
895.971	17.4067
900.483	28.2522
904.993	63.2888
909.5	54.9097
914.004	119.214
918.505	221.026
923.004	399.112
927.501	757.478
931.995	1181.16
936.486	1255.21
940.975	998.66
945.461	619.45
949.945	403.581
954.426	167.012
958.904	145.71
963.38	72.6304
967.853	130.778
972.324	49.1543
976.792	134.745
981.258	70.5493
985.72	35.5737
990.181	43.8083
994.639	20.7703
999.094	75.7722
1003.55	34.5454
1008	24.5339
1012.44	35.1687
1016.89	30.2288
1021.33	7.69092
1025.77	23.2966
1030.21	42.3892
1034.64	49.4008
1039.07	142.523
1043.5	139.603
1047.93	145.998
1052.35	193.297
1056.78	241.476
1061.19	278.435
1065.61	383.143
1070.02	545.991
1074.43	766.601
1078.84	1153.7
1083.25	2118.52
1087.65	4998.26
1092.05	11171.7
1096.45	9457.17
1100.85	4082.79
1105.24	1771.03
1109.63	937.274
1114.02	654.604
1118.4	685.138
1122.78	719.493
1127.16	710.46
1131.54	216.334
1135.92	78.9852
1140.29	38.2236
1144.66	24.2614
1149.02	30.9694
1153.39	38.5172
1157.75	20.8248
1162.11	26.2932
1166.46	34.9937
1170.82	17.4199
1175.17	6.2843
1179.52	15.6204
1183.86	36.6245
1188.21	18.384
1192.55	20.073
1196.89	14.1051
1201.22	10.8622
1205.55	14.3335
1209.88	38.5481
1214.21	21.6844
1218.54	37.3951
1222.86	14.187
1227.18	12.9156
1231.5	37.6372
1235.81	23.0757
1240.12	18.9088
1244.43	16.2094
1248.74	26.9742
1253.04	58.1588
1257.34	50.371
1261.64	106.636
1265.94	16.9222
1270.23	74.4581
1274.52	45.6698
1278.81	20.4277
1283.1	60.0172
1287.38	79.3123
1291.66	108.736
1295.94	15.4763
1300.21	67.158
1304.48	82.6124
1308.75	82.0497
1313.02	57.7172
1317.29	71.4182
1321.55	107.845
1325.81	95.809
1330.06	52.9196
1334.32	65.4581
1338.57	51.7159
1342.82	32.0203
1347.06	50.0577
1351.31	66.5466
1355.55	75.9457
1359.79	55.8267
1364.02	139.691
1368.26	134.287
1372.49	217.465
1376.71	336.323
1380.94	505.111
1385.16	593.849
1389.38	561.551
1393.6	721.002
1397.81	912.21
1402.02	1357.44
1406.23	2416.45
1410.44	4866.77
1414.64	12083.2
1418.85	15147.6
1423.04	9354.92
1427.24	10193.3
1431.43	7157.7
1435.62	2878.3
1439.81	1440.59
1444	968.788
1448.18	847.956
1452.36	1647.52
1456.54	4433.4
1460.71	2340.86
1464.89	694.02
1469.06	435.468
1473.22	286.798
1477.39	297.391
1481.55	313.634
1485.71	302.638
1489.86	232.91
1494.02	142.319
1498.17	227.695
1502.32	179.982
1506.46	231.421
1510.61	257.103
1514.75	288.887
1518.88	239.246
1523.02	365.189
1527.15	369.692
1531.28	387.34
1535.41	328.702
1539.53	364.118
1543.66	294.043
1547.78	227.535
1551.89	155.279
1556.01	233.111
1560.12	56.5369
1564.23	29.4536
1568.33	86.4678
