Measurement: Raman, 514 nm, ccw, Raman Data Processed
Mineral: Azurite
Rruff sample: R050497
Ideal chemistry: Cu_3_(CO_3_)_2_(OH)_2_
Locality: Tsumeb mine, Tsumeb, Otavi District, Oshikoto, Namibia
Source: Marcus Origlieri
Description: Blue prismatic single crystal
Measured chemistry: Cu_3.00_(CO_3_)_2_(OH)_2_
Pin_id: L00764
Orientation: Laser parallel to c* (0 0 1). Fiducial mark perpendicular to laser is parallel to -a [-1 0 0]
Raman shift (cm-1)	intensity
52.671	0
57.626	141.091
62.579	33.6953
67.529	672.786
72.477	3394.44
77.423	12722.6
82.367	51187
87.308	11331.2
92.246	4790.91
97.182	3339.71
102.116	2478.65
107.047	3172.65
111.976	3563.35
116.903	2710.78
121.827	2757.31
126.749	5033.24
131.668	12308.5
136.585	22727
141.5	11541.5
146.412	5051.56
151.321	10735.5
156.229	6137.56
161.134	2596.58
166.036	4897.55
170.936	10302.4
175.834	17334.4
180.729	9848.52
185.622	3538.07
190.512	3889.76
195.4	3365.02
200.286	1829.89
205.169	1026.37
210.049	196.473
214.928	112.203
219.803	46.9273
224.677	143.605
229.548	931.422
234.416	4243.73
239.282	3201.01
244.146	6599.94
249.007	5431.27
253.866	1202.8
258.722	1426.37
263.576	2934.83
268.427	1600.9
273.276	2665.44
278.123	6515.41
282.967	5364.83
287.809	2142.68
292.648	695.912
297.485	38.4937
302.319	276.734
307.151	382.39
311.98	157.546
316.807	77.853
321.631	984.637
326.454	2984.31
331.273	5126.79
336.09	2510.96
340.905	1159.53
345.717	684.79
350.527	746.689
355.334	1210.04
360.139	2020.42
364.941	3182.3
369.741	3962.53
374.538	5600.56
379.333	8144.52
384.126	10662.8
388.916	14420.9
393.703	26926
398.488	44439.9
403.271	28387.5
408.051	15424.7
412.828	11428.5
417.603	8603.8
422.376	5174.65
427.146	3085.99
431.914	1955.76
436.679	1103.92
441.442	633.789
446.202	336.228
450.96	134.57
455.715	246.135
460.467	132.816
465.218	64.1479
469.965	49.8799
474.711	34.877
479.454	63.6172
484.194	58.019
488.932	111.46
493.667	1.22266
498.4	66.8027
503.13	23.6226
507.858	7.42334
512.583	54.2197
517.306	128.898
522.026	268.459
526.744	529.252
531.459	1104.51
536.172	2497.62
540.882	3302.24
545.59	2044.3
550.295	1116.84
554.998	505.661
559.698	491.983
564.396	287.084
569.091	264.172
573.784	264.63
578.474	159.665
583.162	57.1738
587.847	16.5796
592.529	66.7915
597.209	51.1499
601.887	33.1899
606.562	59.7549
611.235	28.1304
615.905	104.027
620.572	91.2295
625.237	61.1445
629.9	18.7266
634.56	82.7398
639.217	29.8628
643.872	97.1196
648.524	8.15137
653.174	83.4976
657.821	65.5244
662.466	6.43799
667.108	29.6816
671.748	36.9175
676.385	0.592285
681.02	54.9277
685.652	133.642
690.281	85.5229
694.908	141.942
699.533	32.8984
704.155	158.398
708.774	133.48
713.391	230.153
718.005	161.435
722.617	377.884
727.226	532.144
731.833	979.286
736.437	1673.07
741.039	1994.15
745.638	1975.83
750.234	1795.91
754.828	1794.67
759.419	2474.21
764.008	2515.85
768.595	1661.96
773.178	1008.31
777.759	708.015
782.338	522.245
786.914	477.325
791.488	457.884
796.059	432.094
800.627	622.012
805.193	818.726
809.756	1126.4
814.317	1805.16
818.875	2754.83
823.431	4978.31
827.984	10217.4
832.534	11799.2
837.082	9114.44
841.627	5390.96
846.17	2996.52
850.71	1724.41
855.248	934.44
859.783	622.751
864.316	369.959
868.846	282.07
873.373	244.743
877.898	89.4258
882.42	182.991
886.94	161.116
891.457	220.582
895.971	171.23
900.483	218.315
904.993	296.711
909.5	287.463
914.004	439.589
918.505	655.099
923.004	1269.95
927.501	2170.23
931.995	3968.04
936.486	4981.3
940.975	4157.92
945.461	2433.1
949.945	1388.59
954.426	780.43
958.904	606.524
963.38	451.844
967.853	351.388
972.324	333.163
976.792	168.158
981.258	212.379
985.72	80.8218
990.181	78.4658
994.639	46.3066
999.094	27.3452
1003.55	20.5059
1008	58.3267
1012.44	5.32031
1016.89	15.4219
1021.33	39.5059
1025.77	59.9009
1030.21	43.7007
1034.64	25.3989
1039.07	107.906
1043.5	168.1
1047.93	193.626
1052.35	41.3008
1056.78	257.901
1061.19	220.093
1065.61	192.184
1070.02	338.627
1074.43	471.72
1078.84	754.923
1083.25	1188.46
1087.65	2452.65
1092.05	7047.01
1096.45	10912.1
1100.85	4002.38
1105.24	1615.44
1109.63	963.664
1114.02	520.995
1118.4	393.386
1122.78	353.468
1127.16	240.125
1131.54	280.947
1135.92	118.747
1140.29	15.7515
1144.66	88.4922
1149.02	29.3438
1153.39	84.688
1157.75	55.5352
1162.11	58.8091
1166.46	27.604
1170.82	59.2495
1175.17	67.1045
1179.52	36.478
1183.86	116.829
1188.21	88.9961
1192.55	93.9878
1196.89	116.013
1201.22	71.0039
1205.55	92.4678
1209.88	53.644
1214.21	3.60938
1218.54	19.8359
1222.86	52.7036
1227.18	101.586
1231.5	68.0093
1235.81	89.3315
1240.12	48.3774
1244.43	18.3843
1248.74	67.729
1253.04	82.4688
1257.34	112.169
1261.64	129.504
1265.94	139.843
1270.23	148.927
1274.52	72.875
1278.81	24.2866
1283.1	112.452
1287.38	48.3281
1291.66	146.673
1295.94	79.0967
1300.21	48.7163
1304.48	165.64
1308.75	92.2212
1313.02	114.644
1317.29	88.1294
1321.55	56.0088
1325.81	16.0884
1330.06	83.4048
1334.32	125.192
1338.57	2.2417
1342.82	8.79688
1347.06	45.98
1351.31	52.5767
1355.55	82.7104
1359.79	75.7368
1364.02	80.8897
1368.26	89.728
1372.49	10.9941
1376.71	37.9507
1380.94	100.678
1385.16	104.756
1389.38	52.7295
1393.6	84.2812
1397.81	97.0562
1402.02	5.85449
1406.23	54.2183
1410.44	186.78
1414.64	231.395
1418.85	452.148
1423.04	160.675
1427.24	274.192
1431.43	394.379
1435.62	181.126
1439.81	163.312
1444	126.948
1448.18	188.554
1452.36	361.967
1456.54	785.66
1460.71	841.852
1464.89	318.888
1469.06	177.866
1473.22	215.817
1477.39	138.792
1481.55	226.667
1485.71	309.658
1489.86	214.099
1494.02	234.675
1498.17	160.815
1502.32	119.015
1506.46	201.274
1510.61	48.1611
1514.75	44.4307
1518.88	209.835
1523.02	249.012
1527.15	36.6641
1531.28	224.653
1535.41	195.232
1539.53	233.384
1543.66	252.624
1547.78	56.6533
1551.89	278.576
1556.01	226.319
1560.12	71.3272
1564.23	101.692
1568.33	181.397
