Measurement: Raman, 514 nm, ccw, Raman Data Processed
Mineral: Azurite
Rruff sample: R050497
Ideal chemistry: Cu_3_(CO_3_)_2_(OH)_2_
Locality: Tsumeb mine, Tsumeb, Otavi District, Oshikoto, Namibia
Source: Marcus Origlieri
Description: Blue prismatic single crystal
Measured chemistry: Cu_3.00_(CO_3_)_2_(OH)_2_
Pin_id: L00764
Orientation: Laser parallel to c* (0 0 1). Fiducial mark perpendicular to laser is parallel to -a [-1 0 0]
Raman shift (cm-1)	intensity
78.659	0
83.602	51.7792
88.542	96.0314
93.48	284.841
98.416	367.608
103.349	452.037
108.28	1199.47
113.208	568.716
118.134	782.712
123.058	3791.37
127.979	2745.6
132.898	2217.79
137.814	3654.78
142.728	1044.1
147.639	859.232
152.549	539.763
157.455	598.989
162.359	2714.39
167.261	2558.09
172.161	1197.06
177.058	612.169
181.952	446.32
186.845	825.43
191.734	660.307
196.622	549.865
201.507	623.136
206.389	157.137
211.269	85.1296
216.147	125.825
221.022	96.1443
225.895	49.2556
230.765	233.698
235.633	352.131
240.498	1978.79
245.361	1096.62
250.222	718.243
255.08	1745.49
259.936	2964.25
264.789	1701.24
269.64	2617.4
274.488	4760.79
279.334	3508.47
284.178	1791.47
289.019	826.808
293.857	348.7
298.693	231.461
303.527	100.376
308.358	104.992
313.187	170.242
318.013	252.065
322.837	481.493
327.659	656.45
332.478	729.913
337.294	754.846
342.108	933.245
346.92	1242.11
351.729	1615.41
356.535	2582.06
361.34	3890.01
366.141	6015.47
370.94	9420.21
375.737	13570.9
380.531	16085
385.323	18746.7
390.113	31889.9
394.9	48381.5
399.684	33298.4
404.466	20445.7
409.245	11609.3
414.022	6603.31
418.797	4206.69
423.569	2855.34
428.338	2044.58
433.105	1415.83
437.87	883.324
442.632	625.961
447.391	476.164
452.149	430.138
456.903	280.213
461.655	226.918
466.405	240.236
471.152	216.643
475.897	101.543
480.639	94.145
485.378	98.7495
490.116	41.2463
494.85	61.4302
499.582	35.0425
504.312	23.8467
509.039	52.4971
513.764	24.2952
518.486	157.846
523.206	238.274
527.923	529.849
532.638	940.472
537.35	924.405
542.059	563.956
546.766	184.119
551.471	95.751
556.173	13.5398
560.873	17.3682
565.57	9.86108
570.264	26.3184
574.957	1.41602
579.646	59.9451
584.333	15.3114
589.018	13.3245
593.7	18.7635
598.379	37.4526
603.056	48.5804
607.73	14.9748
612.402	12.6905
617.072	26.0778
621.739	0.792725
626.403	4.20483
631.065	12.1229
635.724	23.781
640.381	55.9703
645.035	17.4854
649.687	8.67053
654.336	44.5251
658.983	13.0087
663.627	18.0758
668.268	17.9885
672.907	23.0065
677.544	42.9779
682.178	26.671
686.809	92.0856
691.438	17.2505
696.065	128.123
700.688	107.69
705.31	105.772
709.929	144.183
714.545	253.812
719.158	362.022
723.77	550.285
728.378	995.521
732.984	1491.67
737.588	1580.62
742.189	1578.09
746.787	1797.07
751.383	2808.09
755.976	4314.58
760.567	4720.02
765.155	3309.1
769.741	1992.39
774.324	1185.04
778.904	698.268
783.482	439.467
788.058	317.397
792.631	194.816
797.201	224.976
801.769	236.119
806.334	161.9
810.897	459.752
815.457	610.512
820.014	596.864
824.569	796.507
829.122	1282.06
833.671	2179.26
838.219	2210.91
842.763	1405.54
847.306	721.165
851.845	368.784
856.382	154.432
860.917	71.5632
865.448	42.124
869.978	9.24927
874.505	16.1054
879.029	3.80896
883.55	54.1636
888.069	40.4226
892.586	40.6616
897.1	23.4318
901.611	57.2866
906.12	80.223
910.626	106.067
915.129	67.3946
919.63	125.617
924.129	213.945
928.625	246.4
933.118	398.004
937.609	373.766
942.097	234.684
946.582	175.76
951.065	119.941
955.546	70.2331
960.023	48.6415
964.499	3.18884
968.971	14.8356
973.441	100.558
977.909	10.3758
982.374	35.2693
986.836	41.7662
991.295	55.2079
995.753	36.2471
1000.21	19.3494
1004.66	32.4838
1009.11	15.3568
1013.55	37.8673
1018	0.431274
1022.44	25.611
1026.88	11.8148
1031.32	22.0038
1035.75	39.7002
1040.18	70.6505
1044.61	1.97083
1049.04	73.3311
1053.46	117.76
1057.88	130.184
1062.3	137.737
1066.71	125.165
1071.13	295.738
1075.54	345.796
1079.94	541.935
1084.35	1028.82
1088.75	2821.97
1093.15	5797.84
1097.55	2895.82
1101.94	1124.55
1106.34	558.265
1110.73	305.583
1115.11	233.278
1119.5	140.951
1123.88	126.37
1128.26	84.5769
1132.63	52.6357
1137.01	31.9965
1141.38	33.1306
1145.75	68.91
1150.12	59.0803
1154.48	70.4208
1158.84	19.1531
1163.2	51.182
1167.55	62.2103
1171.91	45.0855
1176.26	41.92
1180.61	8.30847
1184.95	60.0638
1189.29	46.8329
1193.63	38.6035
1197.97	78.1146
1202.31	17.479
1206.64	23.9842
1210.97	11.3024
1215.29	16.7952
1219.62	17.3523
1223.94	80.3954
1228.26	41.0552
1232.57	76.9908
1236.89	3.31177
1241.2	10.2476
1245.51	26.5579
1249.81	44.8141
1254.12	41.9954
1258.42	10.8992
1262.72	42.106
1267.01	55.5989
1271.3	29.9668
1275.59	10.7408
1279.88	57.1714
1284.17	22.9448
1288.45	94.6532
1292.73	21.016
1297.01	86.4829
1301.28	23.6454
1305.55	54.7899
1309.82	5.70935
1314.09	105.492
1318.35	28.7972
1322.61	38.9149
1326.87	62.0944
1331.13	18.0413
1335.38	26.4959
1339.63	18.7432
1343.88	15.7914
1348.12	12.4428
1352.37	33.9421
1356.61	15.3356
1360.85	1.09192
1365.08	8.31226
1369.31	84.8452
1373.54	32.4907
1377.77	104.136
1381.99	260.273
1386.22	158.004
1390.43	221.417
1394.65	217.007
1398.87	302.537
1403.08	442.023
1407.29	607.533
1411.49	889.88
1415.69	1699.31
1419.89	2894.63
1424.09	7342.11
1428.29	16500.8
1432.48	8024.94
1436.67	2779.53
1440.86	1226.81
1445.04	672.157
1449.23	562.508
1453.4	1248.84
1457.58	3030.2
1461.76	972.351
1465.93	249.764
1470.1	91.8398
1474.26	118.44
1478.43	66.1853
1482.59	7.9856
1486.75	60.8826
1490.9	12.7825
1495.06	30.7307
1499.21	43.7336
1503.35	66.8852
1507.5	89.9998
1511.64	80.2429
1515.78	132.764
1519.92	155.592
1524.05	131.676
1528.18	198.463
1532.31	123.88
1536.44	152.555
1540.56	61.9392
1544.69	81.3135
1548.8	94.446
1552.92	186.287
1557.03	135.093
1561.14	51.9338
1565.25	31.3645
1569.36	41.3726
