Measurement: Raman, 514 nm, ccw, Raman Data Processed
Mineral: Azurite
Rruff sample: R050497
Ideal chemistry: Cu_3_(CO_3_)_2_(OH)_2_
Locality: Tsumeb mine, Tsumeb, Otavi District, Oshikoto, Namibia
Source: Marcus Origlieri
Description: Blue prismatic single crystal
Measured chemistry: Cu_3.00_(CO_3_)_2_(OH)_2_
Pin_id: L01397
Orientation: Laser parallel to (-1 0 -1). Fiducial mark perpendicular to laser is parallel to -b [0 -1 0]
Raman shift (cm-1)	intensity
52.671	0
57.626	27.0425
62.579	9.45407
67.529	8.38449
72.477	195.382
77.423	256.832
82.367	450.206
87.308	347.486
92.246	480.718
97.182	448.36
102.116	396.099
107.047	732.206
111.976	1894.93
116.903	786.428
121.827	512.824
126.749	1072.19
131.668	6544.01
136.585	1710.91
141.5	3291.18
146.412	1849.7
151.321	755.272
156.229	672.764
161.134	273.171
166.036	809.486
170.936	2645.7
175.834	830.771
180.729	546.717
185.622	217.554
190.512	525.291
195.4	879.924
200.286	582.121
205.169	413.342
210.049	21.3226
214.928	13.7135
219.803	87.9141
224.677	99.2722
229.548	61.979
234.416	188.003
239.282	210.729
244.146	316.149
249.007	632.172
253.866	441.787
258.722	1142.99
263.576	3255.78
268.427	2241.15
273.276	1922.08
278.123	4077.58
282.967	4350.65
287.809	1877.88
292.648	666.578
297.485	278.998
302.319	144.152
307.151	107.999
311.98	89.5502
316.807	169.753
321.631	228.574
326.454	466.964
331.273	729.887
336.09	645.353
340.905	616.326
345.717	781.824
350.527	1080.92
355.334	1517.61
360.139	2376.59
364.941	3520.66
369.741	5308.81
374.538	8388.39
379.333	12385.3
384.126	15146.2
388.916	16913.7
393.703	24932.7
398.488	48120.1
403.271	38815.1
408.051	18710.5
412.828	10213.4
417.603	5782.64
422.376	3719.93
427.146	2606.48
431.914	1848.47
436.679	1259.07
441.442	879.143
446.202	563.139
450.96	377.252
455.715	360.56
460.467	266.176
465.218	253.862
469.965	169.055
474.711	155.64
479.454	128.354
484.194	87.2289
488.932	84.5984
493.667	8.87048
498.4	29.5403
503.13	41.7897
507.858	46.1117
512.583	41.6217
517.306	51.9531
522.026	138.619
526.744	256.341
531.459	507.574
536.172	900.904
540.882	1047.45
545.59	609.209
550.295	174.906
554.998	59.3457
559.698	26.1709
564.396	22.9578
569.091	25.5356
573.784	10.8467
578.474	44.471
583.162	36.5372
587.847	2.02063
592.529	29.8888
597.209	12.1829
601.887	48.1466
606.562	14.1691
611.235	62.9453
615.905	11.5087
620.572	57.7464
625.237	6.77051
629.9	19.4869
634.56	30.9158
639.217	43.092
643.872	46.0226
648.524	47.6995
653.174	71.0896
657.821	24.3008
662.466	26.1945
667.108	61.7568
671.748	26.0192
676.385	35.9701
681.02	26.6232
685.652	33.9367
690.281	44.3489
694.908	76.6068
699.533	75.0382
704.155	45.1876
708.774	74.3797
713.391	75.2126
718.005	144.814
722.617	170.48
727.226	330.926
731.833	576.719
736.437	914.088
741.039	1147.79
745.638	1261.67
750.234	1642.39
754.828	2562.39
759.419	4141.55
764.008	4982.99
768.595	3455.23
773.178	1983.4
777.759	1144.12
782.338	666.115
786.914	464.055
791.488	247.059
796.059	193.713
800.627	227.689
805.193	165.127
809.756	132.772
814.317	127.102
818.875	295.698
823.431	521.399
827.984	849.308
832.534	1261.36
837.082	1991.53
841.627	2083.25
846.17	1154.9
850.71	578.66
855.248	270.508
859.783	138.523
864.316	91.4
868.846	45.674
873.373	20.1982
877.898	40.2467
882.42	29.8663
886.94	41.5748
891.457	5.12329
895.971	27.0251
900.483	20.0393
904.993	54.0867
909.5	42.1136
914.004	87.4098
918.505	47.4966
923.004	30.5666
927.501	114.683
931.995	173.858
936.486	268.119
940.975	220.466
945.461	150.892
949.945	71.4275
954.426	48.058
958.904	11.2111
963.38	15.6033
967.853	21.4988
972.324	24.4689
976.792	43.5173
981.258	34.6321
985.72	39.7972
990.181	15.0203
994.639	36.7164
999.094	30.5236
1003.55	14.7965
1008	12.9004
1012.44	0.58905
1016.89	2.7475
1021.33	6.97986
1025.77	14.1094
1030.21	13.7835
1034.64	16.4456
1039.07	19.3282
1043.5	9.11267
1047.93	21.1008
1052.35	74.6237
1056.78	42.0407
1061.19	85.9486
1065.61	77.3137
1070.02	145.734
1074.43	217.45
1078.84	272.74
1083.25	512.37
1087.65	982.824
1092.05	2666.2
1096.45	5239.18
1100.85	2018.31
1105.24	777.99
1109.63	416.34
1114.02	234.76
1118.4	156.118
1122.78	114.441
1127.16	85.0212
1131.54	64.2116
1135.92	64.4455
1140.29	31.165
1144.66	30.4338
1149.02	12.389
1153.39	4.14563
1157.75	11.3557
1162.11	17.4613
1166.46	22.1894
1170.82	22.7782
1175.17	26.0385
1179.52	21.0397
1183.86	25.7391
1188.21	29.7708
1192.55	6.02606
1196.89	19.3001
1201.22	0.578247
1205.55	19.1069
1209.88	10.2238
1214.21	29.0317
1218.54	50.3982
1222.86	9.599
1227.18	4.85425
1231.5	12.0379
1235.81	28.9401
1240.12	19.6721
1244.43	28.2913
1248.74	6.86175
1253.04	16.3758
1257.34	14.8568
1261.64	11.3162
1265.94	7.73004
1270.23	1.09204
1274.52	47.3965
1278.81	12.6317
1283.1	31.3871
1287.38	57.5179
1291.66	16.6405
1295.94	34.7692
1300.21	64.862
1304.48	19.9231
1308.75	25.191
1313.02	33.5985
1317.29	0.308472
1321.55	6.29096
1325.81	39.693
1330.06	3.6499
1334.32	10.8077
1338.57	64.2399
1342.82	2.92438
1347.06	45.6325
1351.31	46.6873
1355.55	36.1005
1359.79	40.4786
1364.02	50.4605
1368.26	76.3821
1372.49	75.9133
1376.71	84.7042
1380.94	173.748
1385.16	173.419
1389.38	188.09
1393.6	232.357
1397.81	305.894
1402.02	421.5
1406.23	662.166
1410.44	1088.62
1414.64	2116.24
1418.85	4207.21
1423.04	4332.61
1427.24	8173.7
1431.43	12444.4
1435.62	4429.62
1439.81	1602.91
1444	800.436
1448.18	472.632
1452.36	468.611
1456.54	1215.51
1460.71	1573.56
1464.89	351.377
1469.06	146.328
1473.22	63.6737
1477.39	51.9514
1481.55	23.0858
1485.71	34.5868
1489.86	28.0516
1494.02	6.06848
1498.17	38.6953
1502.32	24.2803
1506.46	45.7094
1510.61	60.4706
1514.75	84.0709
1518.88	109.763
1523.02	121.884
1527.15	90.4731
1531.28	142.701
1535.41	92.0847
1539.53	95.0496
1543.66	59.6445
1547.78	21.4811
1551.89	29.5928
1556.01	91.1356
1560.12	6.97986
1564.23	32.1593
1568.33	23.4655
