Measurement: Raman, 514 nm, ccw, Raman Data Processed
Mineral: Azurite
Rruff sample: R050497
Ideal chemistry: Cu_3_(CO_3_)_2_(OH)_2_
Locality: Tsumeb mine, Tsumeb, Otavi District, Oshikoto, Namibia
Source: Marcus Origlieri
Description: Blue prismatic single crystal
Measured chemistry: Cu_3.00_(CO_3_)_2_(OH)_2_
Pin_id: L01223
Orientation: Laser parallel to -a* (-1 0 0). Fiducial mark perpendicular to laser is parallel to b [0 1 0]
Raman shift (cm-1)	intensity
52.671	0
57.626	119.963
62.579	20.3289
67.529	86.7008
72.477	974.357
77.423	3130.44
82.367	8068.41
87.308	2544.46
92.246	2417.13
97.182	2231.25
102.116	3142.15
107.047	8964.53
111.976	17512.6
116.903	4359.3
121.827	2170.19
126.749	2155.93
131.668	3179.81
136.585	4492.03
141.5	8536.95
146.412	3290.16
151.321	5151.94
156.229	2263.43
161.134	1433.66
166.036	3268.61
170.936	4134.23
175.834	2732.5
180.729	2002.67
185.622	3003.97
190.512	6436.4
195.4	4918.4
200.286	2641.66
205.169	2487.1
210.049	2894.97
214.928	2235.88
219.803	786.768
224.677	422.504
229.548	1413.8
234.416	4663.26
239.282	4045.59
244.146	8195.4
249.007	4839.46
253.866	534.623
258.722	86.7732
263.576	391.798
268.427	240.503
273.276	1497.79
278.123	3244.62
282.967	2883.02
287.809	2209.01
292.648	937.669
297.485	47.9778
302.319	317.178
307.151	289.33
311.98	120.531
316.807	553.581
321.631	1999.18
326.454	4804.56
331.273	5636.32
336.09	2274.46
340.905	872.906
345.717	680.647
350.527	1144.91
355.334	2533.81
360.139	4803.3
364.941	6489.13
369.741	6166.65
374.538	8343.39
379.333	12144
384.126	14918.6
388.916	20220.3
393.703	34686.1
398.488	49429.8
403.271	30332.4
408.051	16981.8
412.828	10253
417.603	6274.83
422.376	4138.79
427.146	2787.4
431.914	1955.56
436.679	1225.54
441.442	668.428
446.202	480.155
450.96	327.453
455.715	213.438
460.467	255.498
465.218	290.218
469.965	201.254
474.711	194.318
479.454	160.784
484.194	162.995
488.932	176.75
493.667	174.989
498.4	100.127
503.13	69.0456
507.858	24.5964
512.583	66.1321
517.306	74.9839
522.026	76.5732
526.744	39.2412
531.459	356.567
536.172	770.945
540.882	907.771
545.59	501.611
550.295	273.939
554.998	151.878
559.698	51.3728
564.396	46.3265
569.091	37.0638
573.784	19.4898
578.474	26.6144
583.162	1.32886
587.847	23.4667
592.529	71.7144
597.209	5.52918
601.887	32.3055
606.562	31.2203
611.235	20.6252
615.905	2.64526
620.572	13.9802
625.237	56.5527
629.9	62.1639
634.56	68.9703
639.217	43.9373
643.872	94.0592
648.524	71.4459
653.174	74.7261
657.821	54.6377
662.466	44.4631
667.108	11.526
671.748	33.8823
676.385	61.4534
681.02	82.2872
685.652	76.426
690.281	116.906
694.908	115.774
699.533	238.038
704.155	240.2
708.774	298.617
713.391	398.996
718.005	568.889
722.617	850.848
727.226	1426.51
731.833	2297.92
736.437	3198.59
741.039	3039.62
745.638	2506.94
750.234	2418.84
754.828	3943.58
759.419	7353.87
764.008	9159.7
768.595	6595.69
773.178	3744.03
777.759	1959.56
782.338	1649.71
786.914	795.563
791.488	621.062
796.059	508.687
800.627	425.672
805.193	520.095
809.756	722.639
814.317	1463.77
818.875	1735.91
823.431	2383.33
827.984	3241.34
832.534	3833.95
837.082	3000.66
841.627	1738.44
846.17	1041.31
850.71	504.38
855.248	249.725
859.783	103.374
864.316	1.38061
868.846	50.3058
873.373	47.7895
877.898	56.4031
882.42	120.546
886.94	167.624
891.457	218.681
895.971	270.485
900.483	378.398
904.993	466.574
909.5	655.787
914.004	889.295
918.505	1224.08
923.004	2124.12
927.501	3803.46
931.995	6484.1
936.486	7577.02
940.975	6061.28
945.461	3497.89
949.945	1806.84
954.426	1218.08
958.904	874.598
963.38	709.429
967.853	492.488
972.324	449.767
976.792	368.255
981.258	272.945
985.72	180.832
990.181	99.9134
994.639	78.1783
999.094	53.6086
1003.55	27.7953
1008	29.9878
1012.44	45.5164
1016.89	34.5962
1021.33	6.15735
1025.77	16.3701
1030.21	5.49561
1034.64	25.0548
1039.07	40.2985
1043.5	26.126
1047.93	98.9276
1052.35	85.1834
1056.78	107.361
1061.19	171.841
1065.61	273.106
1070.02	362.556
1074.43	602.767
1078.84	862.873
1083.25	1601.79
1087.65	3543.12
1092.05	8952.8
1096.45	10114.4
1100.85	3423.56
1105.24	1421.11
1109.63	771.565
1114.02	495.761
1118.4	362.901
1122.78	266.276
1127.16	202.985
1131.54	113.829
1135.92	100.252
1140.29	37.0342
1144.66	15.2007
1149.02	0.254272
1153.39	7.6167
1157.75	2.7771
1162.11	10.0465
1166.46	16.0514
1170.82	13.6138
1175.17	73.5704
1179.52	4.51355
1183.86	14.1665
1188.21	13.9861
1192.55	6.02576
1196.89	2.02051
1201.22	25.6375
1205.55	12.6671
1209.88	5.01221
1214.21	17.3864
1218.54	2.9314
1222.86	29.7805
1227.18	11.1782
1231.5	17.406
1235.81	0.759277
1240.12	42.615
1244.43	17.4397
1248.74	3.21167
1253.04	54.0747
1257.34	26.3148
1261.64	56.5138
1265.94	32.6819
1270.23	106.71
1274.52	63.6815
1278.81	111.194
1283.1	95.786
1287.38	54.6139
1291.66	68.454
1295.94	79.0205
1300.21	51.705
1304.48	14.9123
1308.75	81.6335
1313.02	41.4232
1317.29	79.8153
1321.55	60.0681
1325.81	105.175
1330.06	41.7675
1334.32	53.104
1338.57	54.1522
1342.82	92.3162
1347.06	20.6655
1351.31	86.5686
1355.55	44.9734
1359.79	100.413
1364.02	148.529
1368.26	118.535
1372.49	221.237
1376.71	317.169
1380.94	408.525
1385.16	567.189
1389.38	550.891
1393.6	617.456
1397.81	863.587
1402.02	1211.16
1406.23	2043.23
1410.44	3895.12
1414.64	9935.35
1418.85	19798.4
1423.04	10696.7
1427.24	10751.6
1431.43	10463.2
1435.62	3655.76
1439.81	1642.35
1444	971.261
1448.18	688.033
1452.36	931.237
1456.54	2934.3
1460.71	2642.67
1464.89	632.851
1469.06	334.227
1473.22	240.629
1477.39	219.373
1481.55	214.501
1485.71	177.916
1489.86	508.386
1494.02	133.321
1498.17	152.103
1502.32	122.881
1506.46	151.155
1510.61	100.32
1514.75	155.078
1518.88	197.187
1523.02	216.653
1527.15	196.065
1531.28	244.706
1535.41	235.999
1539.53	216.114
1543.66	172.566
1547.78	136.11
1551.89	181.212
1556.01	305.603
1560.12	69.6265
1564.23	19.5969
1568.33	125.661
