Measurement: Raman, 514 nm, ccw, Raman Data Processed
Mineral: Azurite
Rruff sample: R050497
Ideal chemistry: Cu_3_(CO_3_)_2_(OH)_2_
Locality: Tsumeb mine, Tsumeb, Otavi District, Oshikoto, Namibia
Source: Marcus Origlieri
Description: Blue prismatic single crystal
Measured chemistry: Cu_3.00_(CO_3_)_2_(OH)_2_
Pin_id: L01223
Orientation: Laser parallel to -a* (-1 0 0). Fiducial mark perpendicular to laser is parallel to b [0 1 0]
Raman shift (cm-1)	intensity
52.671	0
57.626	43.755
62.579	7.68127
67.529	8.86536
72.477	304.35
77.423	551.683
82.367	1250.98
87.308	803.951
92.246	1007.49
97.182	892.73
102.116	890.369
107.047	1672.77
111.976	2475.55
116.903	1134.61
121.827	1104.09
126.749	2526.22
131.668	3567.1
136.585	2326.26
141.5	5338.35
146.412	1696.65
151.321	1064.3
156.229	802.367
161.134	1650.89
166.036	5819.89
170.936	7918.36
175.834	1724.3
180.729	779.342
185.622	960.4
190.512	2007.42
195.4	1488.69
200.286	737.034
205.169	580.604
210.049	268.373
214.928	205.906
219.803	73.5875
224.677	80.2169
229.548	384.573
234.416	1023.49
239.282	2954.83
244.146	10690.5
249.007	6575.4
253.866	1383.51
258.722	1096.71
263.576	1983.98
268.427	2290.24
273.276	3911.51
278.123	8075.77
282.967	6176.07
287.809	2413.39
292.648	893.727
297.485	192.019
302.319	11.6962
307.151	116.523
311.98	105.665
316.807	77.2284
321.631	112.895
326.454	350.772
331.273	516.987
336.09	401.83
340.905	445.485
345.717	702.881
350.527	1074.23
355.334	1893.55
360.139	3177.77
364.941	5072.82
369.741	8170.66
374.538	13247.2
379.333	19255.6
384.126	21515.3
388.916	22098.6
393.703	33092.8
398.488	49763.7
403.271	33721.2
408.051	22080.2
412.828	13415
417.603	7783.12
422.376	5131.77
427.146	3635.39
431.914	2559.23
436.679	1759.08
441.442	1161.76
446.202	776.439
450.96	579.68
455.715	501.369
460.467	503.283
465.218	453.518
469.965	408.938
474.711	298.938
479.454	255.758
484.194	288.836
488.932	256.346
493.667	258.672
498.4	211.97
503.13	188.299
507.858	193.667
512.583	95.459
517.306	87.2941
522.026	28.8962
526.744	29.5421
531.459	9.14416
536.172	63.3496
540.882	62.9127
545.59	46.6069
550.295	8.03455
554.998	11.2057
559.698	27.0267
564.396	21.6785
569.091	33.855
573.784	42.5415
578.474	1.73425
583.162	27.4108
587.847	9.67859
592.529	16.3563
597.209	9.70691
601.887	7.41101
606.562	4.03748
611.235	2.94678
615.905	13.6792
620.572	15.0034
625.237	29.123
629.9	10.7374
634.56	39.7855
639.217	81.3755
643.872	52.5539
648.524	65.6855
653.174	75.6293
657.821	57.5435
662.466	69.9773
667.108	66.356
671.748	89.2122
676.385	110.564
681.02	134.37
685.652	132.801
690.281	187.63
694.908	178.115
699.533	199.312
704.155	218.339
708.774	290.479
713.391	372.695
718.005	561.892
722.617	894.429
727.226	1641.99
731.833	3112.08
736.437	4451.71
741.039	3103.66
745.638	1818.95
750.234	1374.32
754.828	1600.16
759.419	2245.81
764.008	2354.1
768.595	1528.88
773.178	880.253
777.759	494.506
782.338	299.329
786.914	229.593
791.488	170.7
796.059	142.636
800.627	194.548
805.193	207.87
809.756	578.441
814.317	1954.1
818.875	1388.02
823.431	806.574
827.984	652.195
832.534	670.846
837.082	433.578
841.627	287.406
846.17	170.383
850.71	59.4891
855.248	60.7137
859.783	26.0842
864.316	5.61438
868.846	15.4353
873.373	59.0282
877.898	87.218
882.42	102.167
886.94	123.54
891.457	113.11
895.971	119.132
900.483	146.243
904.993	157.292
909.5	192.495
914.004	267.793
918.505	325.179
923.004	502.665
927.501	881.238
931.995	1374.91
936.486	1696.7
940.975	1381.6
945.461	874.598
949.945	509.724
954.426	342.969
958.904	311.299
963.38	165.729
967.853	174.237
972.324	128.816
976.792	117.463
981.258	108.178
985.72	54.9603
990.181	56.8021
994.639	42.6927
999.094	63.0004
1003.55	20.0137
1008	8.30743
1012.44	19.1309
1016.89	34.551
1021.33	11.6637
1025.77	14.8966
1030.21	20.0356
1034.64	18.9809
1039.07	28.7189
1043.5	19.5087
1047.93	36.316
1052.35	74.2615
1056.78	116.999
1061.19	145.701
1065.61	185.385
1070.02	314.218
1074.43	438.532
1078.84	635.307
1083.25	1038.53
1087.65	2382.69
1092.05	6753.01
1096.45	8847.01
1100.85	2993.71
1105.24	1187.25
1109.63	665.061
1114.02	358.895
1118.4	258.489
1122.78	184.204
1127.16	116.705
1131.54	74.6721
1135.92	43.301
1140.29	18.3476
1144.66	9.7027
1149.02	20.5459
1153.39	8.7348
1157.75	15.4349
1162.11	5.92248
1166.46	21.3817
1170.82	31.7165
1175.17	13.9006
1179.52	57.9145
1183.86	54.2283
1188.21	50.4461
1192.55	20.4739
1196.89	26.4962
1201.22	16.4389
1205.55	38.3946
1209.88	1.86523
1214.21	26.8132
1218.54	14.4772
1222.86	19.476
1227.18	40.4674
1231.5	38.453
1235.81	17.9813
1240.12	27.2047
1244.43	7.06122
1248.74	4.57996
1253.04	16.9071
1257.34	17.1754
1261.64	0.622681
1265.94	12.511
1270.23	37.2564
1274.52	52.5688
1278.81	20.2128
1283.1	46.2555
1287.38	27.0053
1291.66	40.5247
1295.94	6.01215
1300.21	8.93921
1304.48	43.7488
1308.75	46.5784
1313.02	0.202454
1317.29	27.952
1321.55	16.4501
1325.81	30.6299
1330.06	26.5093
1334.32	22.6088
1338.57	25.0214
1342.82	20.9316
1347.06	5.07642
1351.31	31.0673
1355.55	22.6289
1359.79	3.08917
1364.02	13.9363
1368.26	23.926
1372.49	80.0401
1376.71	140.481
1380.94	164.4
1385.16	223.691
1389.38	280.047
1393.6	317.076
1397.81	462.558
1402.02	700.829
1406.23	998.709
1410.44	1716.38
1414.64	3673.79
1418.85	7245.51
1423.04	6987.87
1427.24	15735.4
1431.43	17423.3
1435.62	5676.89
1439.81	2128.61
1444	1122.02
1448.18	819.645
1452.36	1114.56
1456.54	3719.26
1460.71	3336.67
1464.89	784.08
1469.06	234.148
1473.22	203.676
1477.39	111.987
1481.55	118.315
1485.71	89.5092
1489.86	65.5841
1494.02	42.5177
1498.17	52.2378
1502.32	87.642
1506.46	50.7219
1510.61	63.2353
1514.75	69.1239
1518.88	149.212
1523.02	177.651
1527.15	163.046
1531.28	194.097
1535.41	151.834
1539.53	135.528
1543.66	63.554
1547.78	48.0278
1551.89	86.2476
1556.01	166.906
1560.12	33.0161
1564.23	119.958
1568.33	38.9988
