Measurement: Raman, 514 nm, ccw, Raman Data Processed
Mineral: Azurite
Rruff sample: R050638
Ideal chemistry: Cu_3_(CO_3_)_2_(OH)_2_
Locality: Zacatecas, Mexico
Source: University of Arizona Mineral Museum
Description: Blue bladed crystals
Measured chemistry: Cu_3.00_(CO_3_)_2_(OH)_2_
Pin_id: M00496
Orientation: Laser parallel to -b* (0 -1 0). Fiducial mark perpendicular to laser is parallel to -c [0 0 -1]
Raman shift (cm-1)	intensity
52.671	0
57.626	98.8675
62.579	19.5001
67.529	42.4779
72.477	1142.76
77.423	2925.27
82.367	17261.5
87.308	8929.57
92.246	3123.1
97.182	1869.94
102.116	1781.43
107.047	3009.2
111.976	10807.4
116.903	4363.69
121.827	1603.52
126.749	1794.1
131.668	5822.41
136.585	4682.58
141.5	7118
146.412	3094.52
151.321	3644.42
156.229	6066.82
161.134	1401.76
166.036	2534.21
170.936	8794.15
175.834	5105.53
180.729	7822.91
185.622	2398.04
190.512	2879.08
195.4	3736.51
200.286	2722.95
205.169	1760.32
210.049	824.908
214.928	1320.21
219.803	627.309
224.677	322.069
229.548	868.004
234.416	3144.76
239.282	6119.03
244.146	11097.6
249.007	30600.3
253.866	4484.96
258.722	1545.52
263.576	2068.83
268.427	1260.72
273.276	1295.09
278.123	4048.89
282.967	4766.13
287.809	2311.81
292.648	901.891
297.485	135.347
302.319	234.873
307.151	250.157
311.98	92.8235
316.807	122.499
321.631	942.559
326.454	2946.7
331.273	5196.63
336.09	2918.18
340.905	1228.32
345.717	776.172
350.527	907.644
355.334	1415.79
360.139	2793.03
364.941	4561.22
369.741	5739.68
374.538	8257.36
379.333	12377.2
384.126	15438.1
388.916	17452.2
393.703	24924.1
398.488	44648.1
403.271	38171.8
408.051	20489.4
412.828	12797.7
417.603	7748.74
422.376	4795.45
427.146	3129.8
431.914	2104.74
436.679	1355.26
441.442	720.828
446.202	301.496
450.96	117.714
455.715	27.8401
460.467	4.82446
465.218	15.3435
469.965	21.8296
474.711	31.9959
479.454	15.6333
484.194	18.863
488.932	25.9622
493.667	99.4846
498.4	12.8323
503.13	46.9749
507.858	59.3499
512.583	75.9072
517.306	169.898
522.026	364.113
526.744	498.488
531.459	1009.46
536.172	2077.75
540.882	2793.19
545.59	1835.8
550.295	1008.74
554.998	656.772
559.698	414.42
564.396	290.677
569.091	309.522
573.784	269.932
578.474	173.888
583.162	54.3628
587.847	26.355
592.529	21.8782
597.209	19.6647
601.887	53.5652
606.562	23.5356
611.235	18.3597
615.905	0.22522
620.572	8.32275
625.237	49.7957
629.9	7.82935
634.56	12.0444
639.217	88.423
643.872	17.2655
648.524	47.2811
653.174	80.4929
657.821	30.8828
662.466	72.433
667.108	55.678
671.748	91.1036
676.385	137.256
681.02	136.704
685.652	100.494
690.281	179.623
694.908	197.141
699.533	246.069
704.155	328.413
708.774	346.182
713.391	487.385
718.005	566.03
722.617	929.315
727.226	1385.5
731.833	2271.82
736.437	3793.73
741.039	4060.22
745.638	3097.4
750.234	2653.21
754.828	3259.68
759.419	5284.02
764.008	7208.82
768.595	6224.1
773.178	4162.03
777.759	2046.29
782.338	1341.08
786.914	882.695
791.488	677
796.059	627.772
800.627	594.973
805.193	670.5
809.756	1014.06
814.317	2012.89
818.875	2237.67
823.431	1700.52
827.984	2863.77
832.534	3655.87
837.082	3886.97
841.627	3491.07
846.17	2222.17
850.71	1249.29
855.248	691.45
859.783	366.672
864.316	190.172
868.846	144.712
873.373	17.6683
877.898	54.9933
882.42	49.9908
886.94	92.9592
891.457	78.471
895.971	72.4431
900.483	119.97
904.993	214.035
909.5	177.27
914.004	243.908
918.505	351.899
923.004	594.145
927.501	997.663
931.995	1768.46
936.486	2232.92
940.975	1959.9
945.461	1312.53
949.945	698.438
954.426	494.6
958.904	336.999
963.38	289.637
967.853	224.495
972.324	156.549
976.792	157.793
981.258	136.238
985.72	28.8616
990.181	70.6659
994.639	9.34827
999.094	37.1914
1003.55	28.899
1008	30.5045
1012.44	56.8418
1016.89	32.1759
1021.33	13.7135
1025.77	15.6465
1030.21	39.39
1034.64	5.25586
1039.07	48.9292
1043.5	41.8991
1047.93	89.02
1052.35	98.9882
1056.78	158.275
1061.19	144.472
1065.61	195.814
1070.02	304.157
1074.43	463.536
1078.84	657.78
1083.25	945.63
1087.65	1919.97
1092.05	4952.94
1096.45	9494.65
1100.85	4164.64
1105.24	1609.32
1109.63	806.866
1114.02	546.188
1118.4	382.221
1122.78	330.66
1127.16	210.824
1131.54	119.476
1135.92	90.1691
1140.29	41.8124
1144.66	33.0409
1149.02	19.1328
1153.39	36.6876
1157.75	12.1569
1162.11	29.1694
1166.46	5.2417
1170.82	6.22266
1175.17	21.2795
1179.52	57.4353
1183.86	46.4225
1188.21	7.53406
1192.55	2.68237
1196.89	12.1139
1201.22	11.6024
1205.55	24.9971
1209.88	16.6623
1214.21	18.5038
1218.54	19.5261
1222.86	19.4854
1227.18	11.6567
1231.5	0.763306
1235.81	58.5452
1240.12	14.5507
1244.43	62.9271
1248.74	20.2358
1253.04	2.1814
1257.34	20.0053
1261.64	3.70264
1265.94	52.2859
1270.23	40.7861
1274.52	33.0347
1278.81	51.1803
1283.1	23.213
1287.38	63.8823
1291.66	93.82
1295.94	52.3092
1300.21	53.679
1304.48	22.6572
1308.75	45.1426
1313.02	17.7665
1317.29	11.7346
1321.55	5.81897
1325.81	59.073
1330.06	28.2471
1334.32	48.3433
1338.57	28.9867
1342.82	46.6937
1347.06	18.4362
1351.31	71.8241
1355.55	0.569824
1359.79	35.1985
1364.02	34.5658
1368.26	82.7419
1372.49	32.7594
1376.71	121.217
1380.94	239.743
1385.16	281.21
1389.38	259.009
1393.6	325.425
1397.81	412.215
1402.02	627.102
1406.23	1007.84
1410.44	1807.36
1414.64	3956.8
1418.85	7964.04
1423.04	6067.44
1427.24	8314.6
1431.43	10324.4
1435.62	3744.01
1439.81	1515.6
1444	836.774
1448.18	544.847
1452.36	709.475
1456.54	2125.8
1460.71	2173.81
1464.89	569.869
1469.06	246.535
1473.22	158.888
1477.39	107.134
1481.55	136.179
1485.71	99.0216
1489.86	83.6279
1494.02	52.9308
1498.17	48.8838
1502.32	62.4512
1506.46	59.7035
1510.61	116.686
1514.75	112.544
1518.88	119.644
1523.02	161.612
1527.15	170.279
1531.28	80.7437
1535.41	168.388
1539.53	187.659
1543.66	65.4108
1547.78	68.5669
1551.89	128.205
1556.01	226.994
1560.12	26.0803
1564.23	62.1304
1568.33	116.495
