Measurement: Raman, 514 nm, ccw, Raman Data Processed
Mineral: Azurite
Rruff sample: R050638
Ideal chemistry: Cu_3_(CO_3_)_2_(OH)_2_
Locality: Zacatecas, Mexico
Source: University of Arizona Mineral Museum
Description: Blue bladed crystals
Measured chemistry: Cu_3.00_(CO_3_)_2_(OH)_2_
Pin_id: M00225
Orientation: Laser parallel to (1 0 1). Fiducial mark perpendicular to laser is parallel to -b [0 -1 0]
Raman shift (cm-1)	intensity
73.714	0
78.659	4930.27
83.602	18760.8
88.542	17622.6
93.48	3137.39
98.416	172.28
103.349	390.007
108.28	1518.68
113.208	424.57
118.134	1022.63
123.058	829.819
127.979	1636.01
132.898	8892.28
137.814	10722.2
142.728	12878.8
147.639	4009.34
152.549	1986.92
157.455	3999.33
162.359	1537.36
167.261	2172.72
172.161	6348.58
177.058	6579.45
181.952	9293.98
186.845	3490.45
191.734	1975.95
196.622	2215.31
201.507	2297.31
206.389	390.276
211.269	257.348
216.147	150.601
221.022	223.424
225.895	19.7922
230.765	534.001
235.633	1948.46
240.498	6483.88
245.361	10146.4
250.222	26408
255.08	10112.4
259.936	3165.3
264.789	2496.3
269.64	3184.58
274.488	2519.3
279.334	4554.56
284.178	6593.32
289.019	3904.34
293.857	1695.78
298.693	560.353
303.527	124.107
308.358	65.2207
313.187	78.9204
318.013	67.1609
322.837	422.363
327.659	993.204
332.478	2030.3
337.294	1908.28
342.108	1212.96
346.92	910.252
351.729	1104.8
356.535	1626.49
361.34	2462.35
366.141	3906.62
370.94	5262.03
375.737	7085.77
380.531	10149.2
385.323	13506.8
390.113	17130.4
394.9	24899.7
399.684	39711.5
404.466	43481.2
409.245	22847.8
414.022	12969.2
418.797	9059.42
423.569	6106.47
428.338	3891.34
433.105	2603.06
437.87	1749.69
442.632	1102.73
447.391	717.812
452.149	503.365
456.903	363.734
461.655	302.163
466.405	312.328
471.152	336.588
475.897	271.716
480.639	247.66
485.378	219.771
490.116	259.498
494.85	280.096
499.582	225.683
504.312	265.947
509.039	230.627
513.764	244.095
518.486	283.403
523.206	450.895
527.923	681.102
532.638	1334.94
537.35	2426.26
542.059	3347.35
546.766	2853.26
551.471	1572.34
556.173	972.445
560.873	647.827
565.57	505.953
570.264	420.728
574.957	314.108
579.646	202.183
584.333	120.829
589.018	23.392
593.7	6.30286
598.379	31.7733
603.056	42.0415
607.73	84.6411
612.402	31.2052
617.072	1.20093
621.739	62.2693
626.403	6.12244
631.065	6.26257
635.724	35.3312
640.381	8.26013
645.035	73.0393
649.687	42.9805
654.336	36.0294
658.983	19.4617
663.627	51.0325
668.268	37.8998
672.907	26.8757
677.544	50.6302
682.178	62.3817
686.809	108.157
691.438	90.4929
696.065	168.225
700.688	159.453
705.31	139.181
709.929	257.953
714.545	296.168
719.158	345.443
723.77	541.249
728.378	715.983
732.984	1192.44
737.588	1740.37
742.189	2167.45
746.787	2265.62
751.383	2546.33
755.976	3487.26
760.567	5094.33
765.155	6158.84
769.741	4935.46
774.324	3052.71
778.904	1862.26
783.482	1234.2
788.058	985.612
792.631	844.952
797.201	733.502
801.769	813.783
806.334	962.81
810.897	1255.79
815.457	1887.8
820.014	2555.24
824.569	3715.61
829.122	5965.2
833.671	7981.8
838.219	7344.45
842.763	5430.97
847.306	3267.7
851.845	1797.4
856.382	973.096
860.917	673.396
865.448	432.691
869.978	261.088
874.505	194.435
879.029	141.658
883.55	118.847
888.069	83.686
892.586	126.879
897.1	39.9853
901.611	29.4011
906.12	32.1531
910.626	46.176
915.129	54.5774
919.63	31.3057
924.129	102.429
928.625	172.943
933.118	325.852
937.609	390.18
942.097	382.863
946.582	371.969
951.065	113.455
955.546	105.197
960.023	54.2096
964.499	42.4497
968.971	33.9039
973.441	24.579
977.909	16.5
982.374	59.6221
986.836	32.9543
991.295	66.5253
995.753	0.711914
1000.21	5.23169
1004.66	17.6584
1009.11	15.4407
1013.55	3.07581
1018	9.42493
1022.44	12.092
1026.88	9.59168
1031.32	42.4569
1035.75	57.2955
1040.18	94.3258
1044.61	168.424
1049.04	187.618
1053.46	213.213
1057.88	252.322
1062.3	223.961
1066.71	334.321
1071.13	415.012
1075.54	661.076
1079.94	1303.29
1084.35	1375.74
1088.75	3042.72
1093.15	7558.56
1097.55	12635.7
1101.94	6254.63
1106.34	2208.02
1110.73	1187.64
1115.11	724.691
1119.5	502.934
1123.88	419.219
1128.26	378.397
1132.63	240.517
1137.01	106.963
1141.38	58.9188
1145.75	81.6669
1150.12	61.0654
1154.48	28.051
1158.84	88.7443
1163.2	15.6709
1167.55	7.3927
1171.91	23.9575
1176.26	66.7566
1180.61	17.7047
1184.95	24.7778
1189.29	11.5854
1193.63	74.7228
1197.97	16.1696
1202.31	31.8456
1206.64	9.4635
1210.97	222.055
1215.29	5.81909
1219.62	19.1075
1223.94	28.8536
1228.26	32.1024
1232.57	2.03613
1236.89	41.7977
1241.2	30.1293
1245.51	19.3854
1249.81	13.4207
1254.12	32.4117
1258.42	26.528
1262.72	74.1538
1267.01	65.7147
1271.3	48.1653
1275.59	57.3933
1279.88	83.4479
1284.17	109.344
1288.45	53.4081
1292.73	96.8107
1297.01	122.703
1301.28	70.3656
1305.55	105.798
1309.82	36.874
1314.09	31.619
1318.35	39.9403
1322.61	103.751
1326.87	63.8472
1331.13	89.9448
1335.38	35.5483
1339.63	48.6919
1343.88	84.7944
1348.12	34.496
1352.37	55.257
1356.61	49.523
1360.85	9.96191
1365.08	21.2051
1369.31	10.6821
1373.54	10.2523
1377.77	15.2286
1381.99	64.6782
1386.22	86.03
1390.43	105.667
1394.65	40.7837
1398.87	99.803
1403.08	193.512
1407.29	279.942
1411.49	605.01
1415.69	1452.76
1419.89	2425.39
1424.09	1632.08
1428.29	1352.46
1432.48	1249.97
1436.67	506.268
1440.86	233.106
1445.04	108.222
1449.23	98.9176
1453.4	173.776
1457.58	627.553
1461.76	531.781
1465.93	186.748
1470.1	96.9751
1474.26	136.513
1478.43	162.057
1482.59	191.695
1486.75	175.913
1490.9	101.257
1495.06	104.589
1499.21	81.7108
1503.35	87.7634
1507.5	109.731
1511.64	56.9238
1515.78	69.4939
1519.92	77.1705
1524.05	21.2726
1528.18	100.688
1532.31	12.2463
1536.44	64.0574
1540.56	55.8467
1544.69	43.6055
1548.8	110.009
1552.92	397.437
1557.03	192.848
1561.14	24.7926
1565.25	99.3431
1569.36	98.2554
