Measurement: Raman, 514 nm, ccw, Raman Data Processed
Mineral: Azurite
Rruff sample: R050497
Ideal chemistry: Cu_3_(CO_3_)_2_(OH)_2_
Locality: Tsumeb mine, Tsumeb, Otavi District, Oshikoto, Namibia
Source: Marcus Origlieri
Description: Blue prismatic single crystal
Measured chemistry: Cu_3.00_(CO_3_)_2_(OH)_2_
Pin_id: L01361
Orientation: Laser parallel to b* (0 1 0). Fiducial mark perpendicular to laser is parallel to c [0 0 1]
Raman shift (cm-1)	intensity
52.671	0
57.626	25.4849
62.579	426.928
67.529	8.58227
72.477	7798.35
77.423	60707.7
82.367	33721.3
87.308	19151
92.246	4757.32
97.182	1695.19
102.116	967.077
107.047	1109.8
111.976	1196.61
116.903	1257.08
121.827	6201.13
126.749	15263.1
131.668	5854.47
136.585	4090.57
141.5	1305.85
146.412	522.976
151.321	386.152
156.229	895.471
161.134	4406.97
166.036	10013.6
170.936	3898.45
175.834	2686.37
180.729	994.751
185.622	796.005
190.512	809.439
195.4	668.588
200.286	735.588
205.169	656.227
210.049	8.37354
214.928	142.336
219.803	250.44
224.677	571.839
229.548	1273.15
234.416	3800.11
239.282	19199.5
244.146	20839.1
249.007	9010.77
253.866	6514.48
258.722	5798.11
263.576	3952.61
268.427	5705.85
273.276	12900.7
278.123	13498.1
282.967	7898.06
287.809	4500.64
292.648	1731.8
297.485	611.539
302.319	113.835
307.151	83.3496
311.98	134.758
316.807	240.086
321.631	137.177
326.454	34.2329
331.273	91.2534
336.09	182.066
340.905	270.396
345.717	537.477
350.527	805.321
355.334	1403.96
360.139	2379.57
364.941	4056.03
369.741	6812.16
374.538	11008.9
379.333	14212.2
384.126	16630.9
388.916	26747.1
393.703	49200.8
398.488	40587.9
403.271	25032.3
408.051	13450.1
412.828	6626.08
417.603	3917.35
422.376	2570.85
427.146	1777.57
431.914	1145.48
436.679	756.58
441.442	582.837
446.202	388.835
450.96	329.908
455.715	264.307
460.467	257.624
465.218	204.302
469.965	282.816
474.711	150.037
479.454	182.519
484.194	193.505
488.932	173.691
493.667	201.827
498.4	213.397
503.13	141.419
507.858	118.231
512.583	138.154
517.306	214.851
522.026	315.757
526.744	761.396
531.459	1516.47
536.172	2214.92
540.882	1874.83
545.59	1235.17
550.295	755.914
554.998	457.662
559.698	326.852
564.396	262.213
569.091	157.047
573.784	171.585
578.474	133.814
583.162	56.7258
587.847	102.273
592.529	26.5166
597.209	28.5552
601.887	47.7922
606.562	6.73144
611.235	14.4961
615.905	68.7896
620.572	23.905
625.237	25.0027
629.9	3.96606
634.56	63.9148
639.217	53.3274
643.872	14.0405
648.524	26.1355
653.174	68.0278
657.821	17.4446
662.466	25.4827
667.108	33.8323
671.748	22.5564
676.385	5.73535
681.02	45.3167
685.652	92.3662
690.281	138.98
694.908	132.177
699.533	145.974
704.155	178.375
708.774	202.112
713.391	335.019
718.005	390.275
722.617	526.165
727.226	866.346
731.833	1378.74
736.437	1737.78
741.039	1706
745.638	1918.54
750.234	2892.22
754.828	4542.39
759.419	5464.14
764.008	4396.33
768.595	2765.04
773.178	1681.54
777.759	1039.28
782.338	836.258
786.914	586.951
791.488	416.496
796.059	383.706
800.627	381.477
805.193	353.059
809.756	528.015
814.317	464.736
818.875	204.604
823.431	294.791
827.984	505.163
832.534	957.091
837.082	1270.06
841.627	879.058
846.17	536.065
850.71	230.089
855.248	102.435
859.783	46.5264
864.316	55.1714
868.846	65.6699
873.373	14.6128
877.898	63.137
882.42	111.703
886.94	96.6106
891.457	140.159
895.971	192.405
900.483	245.467
904.993	245.067
909.5	324.635
914.004	479.784
918.505	686.2
923.004	1276.97
927.501	2321.05
931.995	3758.42
936.486	4070.07
940.975	3153.01
945.461	2006.23
949.945	1174.67
954.426	731.401
958.904	588.343
963.38	473.476
967.853	300.804
972.324	211.331
976.792	133.062
981.258	124.982
985.72	101.093
990.181	39.4258
994.639	26.0029
999.094	29.2253
1003.55	41.6704
1008	35.2417
1012.44	24.6863
1016.89	19.5601
1021.33	11.4031
1025.77	4.97998
1030.21	15.3496
1034.64	66.8662
1039.07	133.753
1043.5	171.198
1047.93	205.05
1052.35	219.885
1056.78	260.301
1061.19	219.415
1065.61	373.439
1070.02	507.304
1074.43	737.987
1078.84	1163.72
1083.25	2145.41
1087.65	5747.29
1092.05	16217.2
1096.45	11194.2
1100.85	4679.82
1105.24	2061.43
1109.63	1017.77
1114.02	637.376
1118.4	500.041
1122.78	289.56
1127.16	248.49
1131.54	196.576
1135.92	130.013
1140.29	120.814
1144.66	67.1899
1149.02	126.03
1153.39	67.8462
1157.75	14.5732
1162.11	4.46729
1166.46	41.3435
1170.82	0.098633
1175.17	25.2812
1179.52	13.5525
1183.86	1.51367
1188.21	75.9316
1192.55	68.8472
1196.89	55.2715
1201.22	49.8892
1205.55	83.6821
1209.88	60.3137
1214.21	52.877
1218.54	61.322
1222.86	27.9851
1227.18	83.9189
1231.5	47.6668
1235.81	26.262
1240.12	11.7957
1244.43	138.196
1248.74	20.0654
1253.04	68.8438
1257.34	84.6267
1261.64	54.7698
1265.94	81.1777
1270.23	73.3267
1274.52	84.9868
1278.81	87.7744
1283.1	69.7251
1287.38	170.123
1291.66	58.9377
1295.94	237.55
1300.21	85.1072
1304.48	146.781
1308.75	121.285
1313.02	49.3765
1317.29	72.7629
1321.55	67.5281
1325.81	123.962
1330.06	11.5247
1334.32	94.229
1338.57	3.82129
1342.82	7.41968
1347.06	102.789
1351.31	45.9907
1355.55	74.1189
1359.79	75.4617
1364.02	59.4758
1368.26	133.425
1372.49	16.9111
1376.71	141.545
1380.94	38.7488
1385.16	28.7144
1389.38	26.7222
1393.6	65.4334
1397.81	63.6121
1402.02	89.7073
1406.23	712.775
1410.44	432.723
1414.64	744.758
1418.85	160.903
1423.04	182.135
1427.24	683.437
1431.43	682.908
1435.62	254.538
1439.81	115.112
1444	132.201
1448.18	102.062
1452.36	287.658
1456.54	1032.52
1460.71	559.695
1464.89	281.226
1469.06	129.688
1473.22	206.285
1477.39	237.571
1481.55	221.503
1485.71	203.767
1489.86	201.972
1494.02	102.359
1498.17	145.777
1502.32	73.2022
1506.46	170.581
1510.61	97.8071
1514.75	181.173
1518.88	155.678
1523.02	60.2969
1527.15	88.239
1531.28	153.269
1535.41	145.882
1539.53	139.01
1543.66	170.901
1547.78	97.8897
1551.89	163.41
1556.01	291.82
1560.12	97.0356
1564.23	75.6255
1568.33	0.359131
