Measurement: Raman, 514 nm, ccw, Raman Data Processed
Mineral: Azurite
Rruff sample: R050497
Ideal chemistry: Cu_3_(CO_3_)_2_(OH)_2_
Locality: Tsumeb mine, Tsumeb, Otavi District, Oshikoto, Namibia
Source: Marcus Origlieri
Description: Blue prismatic single crystal
Measured chemistry: Cu_3.00_(CO_3_)_2_(OH)_2_
Pin_id: L00764
Orientation: Laser parallel to c* (0 0 1). Fiducial mark perpendicular to laser is parallel to -a [-1 0 0]
Raman shift (cm-1)	intensity
52.671	0
57.626	21.2354
62.579	119.932
67.529	523.147
72.477	2291.18
77.423	5459.31
82.367	14844.1
87.308	4837.24
92.246	3566.62
97.182	2942.37
102.116	2782.92
107.047	3211.36
111.976	3600.48
116.903	3209.19
121.827	2704.01
126.749	2430.43
131.668	3055
136.585	5796.17
141.5	9453.29
146.412	3938.95
151.321	2981.42
156.229	1958.81
161.134	1784.17
166.036	2479.45
170.936	3263.59
175.834	3419.93
180.729	2903.58
185.622	4438.78
190.512	10278.4
195.4	8893.1
200.286	4133.9
205.169	2217.92
210.049	1163.81
214.928	843.273
219.803	565.387
224.677	525.195
229.548	532.052
234.416	1024.5
239.282	2098.15
244.146	7333.74
249.007	6407.06
253.866	1512.97
258.722	747.338
263.576	846.043
268.427	609.842
273.276	888.593
278.123	1569.3
282.967	1269.98
287.809	496.642
292.648	14.7373
297.485	160.232
302.319	285.169
307.151	293.859
311.98	202.352
316.807	150.631
321.631	40.7119
326.454	192.856
331.273	533.682
336.09	216.665
340.905	151.522
345.717	216.307
350.527	447.351
355.334	783.665
360.139	1294.06
364.941	2015.38
369.741	3216.06
374.538	5128.62
379.333	7988.27
384.126	10547
388.916	15099.6
393.703	32063.3
398.488	54728.7
403.271	34065.8
408.051	16317.7
412.828	9024.41
417.603	5790.73
422.376	4085.62
427.146	3124.05
431.914	2400.98
436.679	1840
441.442	1282.84
446.202	988.539
450.96	870.891
455.715	856.151
460.467	883.019
465.218	834.778
469.965	721.905
474.711	718.24
479.454	607.951
484.194	638.114
488.932	578.939
493.667	582.436
498.4	509.12
503.13	410.414
507.858	268.686
512.583	245.64
517.306	169.762
522.026	259.47
526.744	316.383
531.459	611.037
536.172	1269.27
540.882	1373.59
545.59	914.193
550.295	549.139
554.998	437.001
559.698	331.804
564.396	254.805
569.091	209.497
573.784	186.365
578.474	206.263
583.162	130.628
587.847	56.145
592.529	11.9102
597.209	31.9785
601.887	72.3765
606.562	6.16211
611.235	92.9351
615.905	20.5171
620.572	5.45264
625.237	37.0537
629.9	147.082
634.56	138.682
639.217	109.906
643.872	50.7319
648.524	25.9902
653.174	89.4375
657.821	66.1431
662.466	79.146
667.108	13.5508
671.748	31.5508
676.385	42.1567
681.02	6.57666
685.652	34.0356
690.281	7.17334
694.908	88.811
699.533	38.271
704.155	109.229
708.774	103.751
713.391	103.822
718.005	186.466
722.617	180.721
727.226	178.584
731.833	321.358
736.437	413.727
741.039	354.024
745.638	501.775
750.234	431.808
754.828	680.412
759.419	893.145
764.008	943.174
768.595	674.644
773.178	523.997
777.759	347.179
782.338	256.227
786.914	257.259
791.488	306.052
796.059	214.44
800.627	288.832
805.193	234.071
809.756	390.334
814.317	458.145
818.875	545.392
823.431	970.903
827.984	1990.56
832.534	2373.46
837.082	2068.07
841.627	1353.97
846.17	805.17
850.71	377.11
855.248	236.052
859.783	172.357
864.316	152.844
868.846	131.088
873.373	98.3555
877.898	160.324
882.42	303.127
886.94	305.431
891.457	494.326
895.971	561.63
900.483	628.188
904.993	752.977
909.5	948.006
914.004	1314.26
918.505	1843.79
923.004	3015.72
927.501	5416.1
931.995	9131.94
936.486	11273.3
940.975	9281.25
945.461	5363.8
949.945	2817.86
954.426	1851.16
958.904	1300
963.38	1001.28
967.853	882.004
972.324	669.127
976.792	511.635
981.258	382.42
985.72	247.488
990.181	261.824
994.639	93.4116
999.094	12.7461
1003.55	63.2168
1008	61.5601
1012.44	27.9746
1016.89	29.4819
1021.33	81.0898
1025.77	6.72021
1030.21	71.8408
1034.64	50.748
1039.07	68.3511
1043.5	35.1245
1047.93	0.925781
1052.35	93.5254
1056.78	31.0254
1061.19	89.0527
1065.61	270.465
1070.02	339.151
1074.43	412.624
1078.84	624.238
1083.25	1025.14
1087.65	2255.26
1092.05	6260.86
1096.45	9541.13
1100.85	3254.85
1105.24	1270.57
1109.63	828.917
1114.02	462.152
1118.4	393.613
1122.78	178.928
1127.16	179.153
1131.54	120.532
1135.92	134.862
1140.29	57.3159
1144.66	52.127
1149.02	109.277
1153.39	55.3648
1157.75	17.9439
1162.11	16.5347
1166.46	45.8281
1170.82	27.0186
1175.17	39.334
1179.52	1.23779
1183.86	21.0811
1188.21	8.38574
1192.55	57.7842
1196.89	24.1611
1201.22	2.3169
1205.55	117.399
1209.88	43.0703
1214.21	157.387
1218.54	102.473
1222.86	78.6118
1227.18	44.3355
1231.5	131.025
1235.81	18.9951
1240.12	157.808
1244.43	77.6479
1248.74	64.6362
1253.04	183.227
1257.34	38.6211
1261.64	72.5977
1265.94	93.7236
1270.23	98.499
1274.52	50.9458
1278.81	71.4263
1283.1	70.332
1287.38	85.1699
1291.66	140.982
1295.94	80.1646
1300.21	147.684
1304.48	106.039
1308.75	146.524
1313.02	132.657
1317.29	154.128
1321.55	103.034
1325.81	123.756
1330.06	0.878906
1334.32	98.1392
1338.57	67.6709
1342.82	98.8838
1347.06	15.7739
1351.31	8.9043
1355.55	57.6055
1359.79	136.747
1364.02	66.832
1368.26	48.0493
1372.49	16.6328
1376.71	6.39453
1380.94	22.9263
1385.16	119.644
1389.38	21.252
1393.6	87.8247
1397.81	50.6836
1402.02	63.3149
1406.23	169.044
1410.44	53.5068
1414.64	145.362
1418.85	211.49
1423.04	188.454
1427.24	132.484
1431.43	134.266
1435.62	125.644
1439.81	86.2026
1444	127.666
1448.18	167.026
1452.36	435.282
1456.54	1133.13
1460.71	1181.92
1464.89	265.731
1469.06	247.299
1473.22	44.9512
1477.39	194.27
1481.55	152.546
1485.71	189.54
1489.86	100.549
1494.02	64.8389
1498.17	10.1548
1502.32	119.491
1506.46	69.8286
1510.61	7.0957
1514.75	97.5713
1518.88	89.2593
1523.02	111.384
1527.15	64.0083
1531.28	47.0947
1535.41	65.1631
1539.53	58.4853
1543.66	125.253
1547.78	30.5884
1551.89	182.867
1556.01	213.105
1560.12	72.8745
1564.23	81.7437
1568.33	107.492
