Measurement: Raman, 514 nm, ccw, Raman Data Processed
Mineral: Azurite
Rruff sample: R050497
Ideal chemistry: Cu_3_(CO_3_)_2_(OH)_2_
Locality: Tsumeb mine, Tsumeb, Otavi District, Oshikoto, Namibia
Source: Marcus Origlieri
Description: Blue prismatic single crystal
Measured chemistry: Cu_3.00_(CO_3_)_2_(OH)_2_
Pin_id: L01397
Orientation: Laser parallel to (-1 0 -1). Fiducial mark perpendicular to laser is parallel to -b [0 -1 0]
Raman shift (cm-1)	intensity
52.671	0
57.626	49.0159
62.579	12.972
67.529	60.046
72.477	834.958
77.423	2270.91
82.367	13048.9
87.308	5753.24
92.246	2720.48
97.182	2136.04
102.116	1993.68
107.047	2491.26
111.976	4878.06
116.903	2700.4
121.827	1895.72
126.749	1871.15
131.668	2472.19
136.585	2992.8
141.5	7757.93
146.412	5298.02
151.321	2580.28
156.229	2393.82
161.134	1439.68
166.036	1865.89
170.936	3615.4
175.834	2360.17
180.729	3006.54
185.622	3067.59
190.512	7614.48
195.4	12344.2
200.286	5316.81
205.169	2782.65
210.049	1314.31
214.928	1056.71
219.803	604.025
224.677	491.75
229.548	543.525
234.416	975.085
239.282	1642.2
244.146	4330.7
249.007	11333.5
253.866	2168.4
258.722	795.44
263.576	705.508
268.427	555.429
273.276	604.11
278.123	1330.55
282.967	1618.78
287.809	715.793
292.648	206.587
297.485	79.8552
302.319	162.742
307.151	192.426
311.98	128.003
316.807	99.3623
321.631	63.6624
326.454	519.606
331.273	957.054
336.09	640.919
340.905	299.693
345.717	296.268
350.527	476.776
355.334	680.26
360.139	1172.65
364.941	1948.87
369.741	2903.92
374.538	4665.8
379.333	7548.53
384.126	10288.1
388.916	13361.6
393.703	24150.8
398.488	53889.8
403.271	47679.4
408.051	21434.7
412.828	11172.3
417.603	6710.99
422.376	4489.97
427.146	3367.47
431.914	2688.43
436.679	2090.82
441.442	1527.28
446.202	1122.03
450.96	1021.13
455.715	898.968
460.467	901.019
465.218	822.561
469.965	828.697
474.711	769.579
479.454	675.458
484.194	658.369
488.932	637.826
493.667	618.883
498.4	511.721
503.13	414.875
507.858	313.107
512.583	208.4
517.306	164.781
522.026	191.126
526.744	231.34
531.459	431.94
536.172	935.823
540.882	1442.22
545.59	1043.42
550.295	555.664
554.998	372.926
559.698	273.436
564.396	136.699
569.091	188.858
573.784	99.7585
578.474	35.8679
583.162	33.2366
587.847	18.3428
592.529	5.36975
597.209	1.62561
601.887	0.526123
606.562	0.403931
611.235	31.1064
615.905	43.2887
620.572	56.2562
625.237	3.00915
629.9	15.7668
634.56	76.0859
639.217	53.9921
643.872	34.4681
648.524	10.4924
653.174	0.077515
657.821	51.2805
662.466	26.3527
667.108	23.7039
671.748	39.0264
676.385	20.5863
681.02	43.1019
685.652	3.88123
690.281	40.4884
694.908	30.29
699.533	16.4779
704.155	54.1472
708.774	34.2517
713.391	57.8878
718.005	125.09
722.617	192.892
727.226	261.151
731.833	328.315
736.437	521.319
741.039	559.058
745.638	657.217
750.234	555.761
754.828	677.196
759.419	1108.75
764.008	1588.71
768.595	1322.05
773.178	853.847
777.759	535.21
782.338	373.993
786.914	307.171
791.488	246.261
796.059	206.532
800.627	208.533
805.193	133.668
809.756	123.188
814.317	114.93
818.875	152.559
823.431	287.945
827.984	557.337
832.534	660.708
837.082	832.262
841.627	716.826
846.17	337.842
850.71	120.585
855.248	30.8226
859.783	2.47607
864.316	0.186157
868.846	26.9571
873.373	82.8452
877.898	109.359
882.42	179.61
886.94	299.202
891.457	341.023
895.971	479.346
900.483	580.085
904.993	714.123
909.5	957.404
914.004	1194.93
918.505	1782.68
923.004	2761.69
927.501	4698.07
931.995	8245.79
936.486	11416
940.975	10089.6
945.461	6222.66
949.945	3321.16
954.426	1980.12
958.904	1397.52
963.38	1117.31
967.853	915.438
972.324	694.892
976.792	547.684
981.258	439.767
985.72	356.112
990.181	211.709
994.639	142.524
999.094	109.46
1003.55	70.7706
1008	0.610352
1012.44	27.8011
1016.89	8.21265
1021.33	6.90552
1025.77	71.2664
1030.21	47.7347
1034.64	70.2947
1039.07	39.1239
1043.5	58.0062
1047.93	76.1277
1052.35	68.1913
1056.78	105.685
1061.19	86.7505
1065.61	205.068
1070.02	277.611
1074.43	418.62
1078.84	553.796
1083.25	954.8
1087.65	1906.78
1092.05	5221.19
1096.45	10981.2
1100.85	4311.61
1105.24	1575.97
1109.63	886.773
1114.02	495.351
1118.4	423.256
1122.78	499.946
1127.16	344.138
1131.54	135.359
1135.92	69.9296
1140.29	10.5896
1144.66	10.313
1149.02	1.76416
1153.39	18.8765
1157.75	16.1508
1162.11	33.3614
1166.46	13.0757
1170.82	19.9926
1175.17	20.0022
1179.52	0.278687
1183.86	3.72119
1188.21	15.324
1192.55	26.9408
1196.89	36.0444
1201.22	71.0817
1205.55	36.3287
1209.88	5.67651
1214.21	4.16943
1218.54	24.7253
1222.86	34.4836
1227.18	16.2744
1231.5	39.5281
1235.81	21.1543
1240.12	73.7074
1244.43	46.7535
1248.74	67.6437
1253.04	40.2371
1257.34	116.598
1261.64	51.8265
1265.94	77.0122
1270.23	10.8954
1274.52	79.0701
1278.81	80.3451
1283.1	75.3769
1287.38	97.6271
1291.66	95.0225
1295.94	102.55
1300.21	84.8554
1304.48	75.0247
1308.75	93.598
1313.02	79.15
1317.29	95.9526
1321.55	70.2585
1325.81	67.5669
1330.06	32.568
1334.32	75.0601
1338.57	88.1172
1342.82	74.0624
1347.06	35.7605
1351.31	52.6292
1355.55	33.0238
1359.79	19.8336
1364.02	67.8119
1368.26	64.4976
1372.49	58.7296
1376.71	69.7925
1380.94	94.7931
1385.16	189.183
1389.38	213.346
1393.6	147.695
1397.81	205.457
1402.02	268.455
1406.23	485.199
1410.44	857.195
1414.64	2002.26
1418.85	5128.74
1423.04	3169.84
1427.24	1189.46
1431.43	650.548
1435.62	408.841
1439.81	231.804
1444	252.142
1448.18	214.005
1452.36	288.003
1456.54	901.588
1460.71	1509.04
1464.89	375.644
1469.06	169.635
1473.22	107.986
1477.39	167.051
1481.55	131.216
1485.71	108.044
1489.86	124.801
1494.02	115.322
1498.17	36.5679
1502.32	42.527
1506.46	74.3707
1510.61	44.714
1514.75	64.3805
1518.88	56.3051
1523.02	25.2993
1527.15	103.383
1531.28	121.706
1535.41	74.0821
1539.53	79.3811
1543.66	50.6055
1547.78	81.048
1551.89	84.6479
1556.01	254.837
1560.12	19.1709
1564.23	80.2286
1568.33	94.9988
