Measurement: Raman, 514 nm, ccw, Raman Data Processed
Mineral: Azurite
Rruff sample: R050497
Ideal chemistry: Cu_3_(CO_3_)_2_(OH)_2_
Locality: Tsumeb mine, Tsumeb, Otavi District, Oshikoto, Namibia
Source: Marcus Origlieri
Description: Blue prismatic single crystal
Measured chemistry: Cu_3.00_(CO_3_)_2_(OH)_2_
Pin_id: L01361
Orientation: Laser parallel to b* (0 1 0). Fiducial mark perpendicular to laser is parallel to c [0 0 1]
Raman shift (cm-1)	intensity
52.671	0
57.626	47.1739
62.579	53.4628
67.529	13.1802
72.477	312.098
77.423	757.475
82.367	693.602
87.308	653.319
92.246	988.693
97.182	934.376
102.116	1016.78
107.047	1798.39
111.976	1536.16
116.903	1551.1
121.827	2697.54
126.749	4569.91
131.668	2542.78
136.585	4364.1
141.5	2015.41
146.412	1187.81
151.321	783.482
156.229	710.466
161.134	1985.77
166.036	3524.4
170.936	1593.34
175.834	890.559
180.729	507.187
185.622	957.04
190.512	876.936
195.4	708.127
200.286	684.436
205.169	635.801
210.049	61.67
214.928	31.6252
219.803	74.9912
224.677	38.8665
229.548	179.609
234.416	310.355
239.282	1377.28
244.146	1468.29
249.007	662.311
253.866	1246.31
258.722	2826.2
263.576	1797.12
268.427	2141.87
273.276	4321.47
278.123	3997.92
282.967	1967.15
287.809	987.938
292.648	308.575
297.485	75.2292
302.319	64.9019
307.151	43.4565
311.98	57.0435
316.807	97.3884
321.631	318.575
326.454	513.562
331.273	492.222
336.09	585.625
340.905	720.735
345.717	918.562
350.527	1384.24
355.334	2146.47
360.139	3357.16
364.941	5145.3
369.741	8429.56
374.538	12761.4
379.333	15564.1
384.126	17361.5
388.916	26834.7
393.703	47472.5
398.488	37804
403.271	22923.1
408.051	13420.9
412.828	7542.19
417.603	4544.27
422.376	3051.63
427.146	2122.74
431.914	1458.18
436.679	1004.02
441.442	652.77
446.202	436.344
450.96	357.959
455.715	280.44
460.467	243.455
465.218	196.755
469.965	121.918
474.711	113.669
479.454	80.8206
484.194	84.2734
488.932	106.672
493.667	23.6238
498.4	12.7332
503.13	17.0669
507.858	19.2393
512.583	28.9226
517.306	80.2083
522.026	182.71
526.744	393.785
531.459	742.639
536.172	923.804
540.882	596.848
545.59	297.318
550.295	98.4297
554.998	57.7253
559.698	6.70898
564.396	43.6588
569.091	35.8545
573.784	32.9145
578.474	47.0111
583.162	20.0096
587.847	27.2985
592.529	29.0961
597.209	23.2947
601.887	23.8479
606.562	42.1517
611.235	27.7982
615.905	44.0971
620.572	22.0812
625.237	41.7399
629.9	53.0571
634.56	43.0261
639.217	42.1677
643.872	96.7654
648.524	38.2405
653.174	68.7333
657.821	33.7332
662.466	47.4301
667.108	15.6785
671.748	41.5081
676.385	126.96
681.02	123.073
685.652	80.8484
690.281	86.3164
694.908	100.448
699.533	150.249
704.155	119.678
708.774	142.756
713.391	235.727
718.005	356.982
722.617	474.529
727.226	786.2
731.833	1499.19
736.437	1670.37
741.039	1504.95
745.638	1648.75
750.234	2457.02
754.828	3938.5
759.419	4863.78
764.008	3705.89
768.595	2245.81
773.178	1350.88
777.759	728.455
782.338	569.573
786.914	325.612
791.488	303.253
796.059	228.747
800.627	192.918
805.193	187.279
809.756	375.441
814.317	611.257
818.875	586.912
823.431	734.857
827.984	1180.79
832.534	2020.49
837.082	2357.78
841.627	1505.07
846.17	856.385
850.71	412.691
855.248	201.947
859.783	151.989
864.316	79.3159
868.846	22.0206
873.373	62.9775
877.898	32.177
882.42	44.7654
886.94	46.3201
891.457	22.6946
895.971	102.828
900.483	37.5852
904.993	74.7861
909.5	107.4
914.004	85.5007
918.505	79.6637
923.004	198.936
927.501	240.337
931.995	301.867
936.486	319.559
940.975	301.401
945.461	144.405
949.945	82.5435
954.426	79.7956
958.904	95.1674
963.38	36.7019
967.853	22.3498
972.324	86.0823
976.792	16.9174
981.258	84.8383
985.72	69.8362
990.181	7.1366
994.639	14.9467
999.094	33.0957
1003.55	9.70984
1008	23.5079
1012.44	15.1151
1016.89	21.5969
1021.33	18.1551
1025.77	14.8766
1030.21	7.37402
1034.64	58.6543
1039.07	67.7484
1043.5	62.5741
1047.93	104.003
1052.35	54.4788
1056.78	138.012
1061.19	142.64
1065.61	200.106
1070.02	280.779
1074.43	342.655
1078.84	481.114
1083.25	869.874
1087.65	2168.34
1092.05	5625.82
1096.45	3746.01
1100.85	1353.18
1105.24	620.728
1109.63	338.414
1114.02	222.169
1118.4	183.857
1122.78	142.261
1127.16	129.641
1131.54	48.8004
1135.92	42.1821
1140.29	41.9392
1144.66	11.816
1149.02	13.4111
1153.39	54.881
1157.75	28.4938
1162.11	22.5321
1166.46	3.302
1170.82	2.38257
1175.17	61.3995
1179.52	39.3207
1183.86	14.6045
1188.21	59.6229
1192.55	31.3636
1196.89	12.0089
1201.22	18.4618
1205.55	29.9539
1209.88	9.42468
1214.21	3.38159
1218.54	14.5403
1222.86	1.27637
1227.18	0.440063
1231.5	14.4116
1235.81	2.15833
1240.12	18.7606
1244.43	12.1105
1248.74	61.3959
1253.04	5.62305
1257.34	44.7636
1261.64	41.8118
1265.94	55.3655
1270.23	37.7288
1274.52	56.5045
1278.81	33.933
1283.1	64.7338
1287.38	41.4658
1291.66	25.1754
1295.94	75.333
1300.21	32.1938
1304.48	6.67017
1308.75	34.0693
1313.02	1.38977
1317.29	39.7135
1321.55	17.8625
1325.81	33.0332
1330.06	65.0437
1334.32	53.4827
1338.57	50.7882
1342.82	49.2965
1347.06	24.4912
1351.31	30.9067
1355.55	32.2623
1359.79	41.8234
1364.02	47.6796
1368.26	58.7478
1372.49	72.4474
1376.71	69.0852
1380.94	248.617
1385.16	169.034
1389.38	158.363
1393.6	196.936
1397.81	264.504
1402.02	404.054
1406.23	595.47
1410.44	793.894
1414.64	1423.17
1418.85	2454.64
1423.04	5448.99
1427.24	15231.4
1431.43	10517.8
1435.62	3556.67
1439.81	1382.4
1444	800.446
1448.18	587.39
1452.36	895.857
1456.54	2973
1460.71	1365.35
1464.89	375.7
1469.06	89.7126
1473.22	89.1968
1477.39	65.9082
1481.55	39.7073
1485.71	36.5596
1489.86	0.559082
1494.02	13.366
1498.17	45.3445
1502.32	63.0852
1506.46	79.5735
1510.61	93.96
1514.75	114.165
1518.88	113.925
1523.02	255.935
1527.15	199.842
1531.28	172.121
1535.41	90.2664
1539.53	54.3701
1543.66	86.7561
1547.78	68.9717
1551.89	157.303
1556.01	204.201
1560.12	37.3328
1564.23	51.7068
1568.33	54.2285
