Measurement: Raman, 514 nm, ccw, Raman Data Processed
Mineral: Azurite
Rruff sample: R050638
Ideal chemistry: Cu_3_(CO_3_)_2_(OH)_2_
Locality: Zacatecas, Mexico
Source: University of Arizona Mineral Museum
Description: Blue bladed crystals
Measured chemistry: Cu_3.00_(CO_3_)_2_(OH)_2_
Pin_id: M00225
Orientation: Laser parallel to (1 0 1). Fiducial mark perpendicular to laser is parallel to -b [0 -1 0]
Raman shift (cm-1)	intensity
73.714	0
78.659	349.863
83.602	2254.86
88.542	1185.76
93.48	697.099
98.416	163.314
103.349	581.19
108.28	2647.59
113.208	2314.28
118.134	2565.12
123.058	1302.47
127.979	1045.13
132.898	3869.8
137.814	3581.53
142.728	2419.69
147.639	2981.72
152.549	1566.81
157.455	1890.18
162.359	1251.7
167.261	2033.33
172.161	4461.92
177.058	3345.25
181.952	2224.14
186.845	1480.25
191.734	1413.27
196.622	1982.25
201.507	2053.23
206.389	361.239
211.269	170.705
216.147	24.1499
221.022	223.01
225.895	176.686
230.765	439.091
235.633	1291.92
240.498	3672.54
245.361	3630.09
250.222	6890.93
255.08	3899.5
259.936	3615.36
264.789	4216.23
269.64	4508.23
274.488	3450.48
279.334	4334.03
284.178	4736.93
289.019	2476.5
293.857	996.971
298.693	386.624
303.527	129.89
308.358	95.145
313.187	262.462
318.013	612.714
322.837	1345.85
327.659	2095.82
332.478	2666.61
337.294	2263.13
342.108	1554.37
346.92	1585.38
351.729	2118.1
356.535	3027.58
361.34	4412.92
366.141	6480.58
370.94	9366.21
375.737	13023.3
380.531	17551.9
385.323	22913
390.113	31759.7
394.9	44755.9
399.684	57918.5
404.466	54061.6
409.245	28615.1
414.022	14982.1
418.797	8555.41
423.569	5571.13
428.338	3690.21
433.105	2503.65
437.87	1758.47
442.632	1067.94
447.391	713.46
452.149	464.542
456.903	338.987
461.655	282.698
466.405	248.061
471.152	215.147
475.897	133.505
480.639	125.618
485.378	15.9172
490.116	74.2407
494.85	67.7786
499.582	50.7617
504.312	28.1792
509.039	75.8008
513.764	170.618
518.486	252.067
523.206	420.341
527.923	892.826
532.638	1435.62
537.35	2126.67
542.059	2190.44
546.766	1486.32
551.471	835.044
556.173	438.146
560.873	297.099
565.57	240.435
570.264	161.997
574.957	146.311
579.646	75.3624
584.333	24.8793
589.018	56.6591
593.7	36.3434
598.379	55.9954
603.056	12.4972
607.73	26.7985
612.402	12.8977
617.072	6.2467
621.739	25.7173
626.403	24.5134
631.065	36.4552
635.724	29.8218
640.381	3.4895
645.035	25.8474
649.687	65.5374
654.336	47.3177
658.983	47.4597
663.627	34.9913
668.268	72.8976
672.907	72.2157
677.544	42.9567
682.178	85.1228
686.809	76.7434
691.438	112.823
696.065	147.366
700.688	166.388
705.31	240.906
709.929	281.928
714.545	349.458
719.158	497.501
723.77	701.906
728.378	1105.88
732.984	1745.5
737.588	2362.18
742.189	2691.46
746.787	2617.36
751.383	3126.19
755.976	4634.95
760.567	6709.89
765.155	7519.27
769.741	5816.79
774.324	3523.47
778.904	2133.43
783.482	1359.85
788.058	1011.93
792.631	712.976
797.201	633.82
801.769	595.32
806.334	772.355
810.897	964.666
815.457	1192.66
820.014	1192.84
824.569	1449.16
829.122	2487.33
833.671	3927.64
838.219	5107.24
842.763	4778.1
847.306	2999.95
851.845	1583.73
856.382	798.483
860.917	509.226
865.448	244.109
869.978	172.319
874.505	62.8351
879.029	95.6069
883.55	61.6376
888.069	7.20752
892.586	10.2722
897.1	30.5591
901.611	49.6913
906.12	15.3706
910.626	31.6508
915.129	26.1134
919.63	20.7732
924.129	41.6637
928.625	44.7639
933.118	105.073
937.609	71.5821
942.097	113.299
946.582	38.2223
951.065	26.3388
955.546	34.3971
960.023	29.9861
964.499	38.1586
968.971	42.3207
973.441	69.2189
977.909	61.2581
982.374	89.4421
986.836	58.7725
991.295	61.2417
995.753	33.8492
1000.21	51.5934
1004.66	66.4712
1009.11	19.4779
1013.55	3.21435
1018	69.5387
1022.44	49.3197
1026.88	39.4531
1031.32	40.9083
1035.75	76.7476
1040.18	53.5294
1044.61	97.4141
1049.04	101.393
1053.46	143.103
1057.88	161.278
1062.3	287.162
1066.71	269.426
1071.13	387.262
1075.54	412.094
1079.94	632.904
1084.35	1111.98
1088.75	2507.25
1093.15	5050.62
1097.55	6509.01
1101.94	3218.72
1106.34	1227.63
1110.73	634.413
1115.11	421.991
1119.5	470.787
1123.88	414.445
1128.26	259.082
1132.63	138.783
1137.01	67.6293
1141.38	28.3065
1145.75	8.42358
1150.12	39.4751
1154.48	6.72375
1158.84	6.05933
1163.2	35.359
1167.55	48.6045
1171.91	14.3934
1176.26	3.03406
1180.61	3.53101
1184.95	10.6182
1189.29	12.2693
1193.63	28.7809
1197.97	10.9402
1202.31	7.8905
1206.64	1.63892
1210.97	11.447
1215.29	0.588501
1219.62	6.88586
1223.94	33.5596
1228.26	34.027
1232.57	3.96521
1236.89	11.3787
1241.2	20.6869
1245.51	42.9811
1249.81	45.9857
1254.12	59.8384
1258.42	33.6278
1262.72	42.3496
1267.01	25.985
1271.3	28.5151
1275.59	78.2974
1279.88	31.579
1284.17	98.2836
1288.45	49.5099
1292.73	89.5271
1297.01	30.4701
1301.28	30.3413
1305.55	44.1321
1309.82	53.3319
1314.09	57.6898
1318.35	49.116
1322.61	0.480225
1326.87	23.1051
1331.13	24.3536
1335.38	16.1145
1339.63	52.1274
1343.88	40.7081
1348.12	43.2029
1352.37	84.3706
1356.61	28.3292
1360.85	61.0486
1365.08	81.8724
1369.31	68.0973
1373.54	86.7184
1377.77	114.067
1381.99	243.107
1386.22	238.217
1390.43	236.502
1394.65	396.028
1398.87	464.112
1403.08	707.318
1407.29	1129.4
1411.49	1934.55
1415.69	4091.56
1419.89	5729.94
1424.09	6523.07
1428.29	11251.1
1432.48	10323.5
1436.67	3779.22
1440.86	1544.92
1445.04	807.67
1449.23	570.052
1453.4	977.376
1457.58	2276.67
1461.76	1621.07
1465.93	429.66
1470.1	121.728
1474.26	70.7183
1478.43	63.0598
1482.59	158.219
1486.75	107.244
1490.9	75.2034
1495.06	69.005
1499.21	68.5157
1503.35	103.948
1507.5	93.1992
1511.64	98.5388
1515.78	172.111
1519.92	181
1524.05	170.715
1528.18	218.619
1532.31	193.12
1536.44	158.19
1540.56	215.893
1544.69	141.019
1548.8	124.575
1552.92	387.828
1557.03	234.376
1561.14	3.68823
1565.25	127.435
1569.36	39.709
