Measurement: Raman, 514 nm, ccw, Raman Data Processed
Mineral: Azurite
Rruff sample: R050497
Ideal chemistry: Cu_3_(CO_3_)_2_(OH)_2_
Locality: Tsumeb mine, Tsumeb, Otavi District, Oshikoto, Namibia
Source: Marcus Origlieri
Description: Blue prismatic single crystal
Measured chemistry: Cu_3.00_(CO_3_)_2_(OH)_2_
Pin_id: L01223
Orientation: Laser parallel to -a* (-1 0 0). Fiducial mark perpendicular to laser is parallel to b [0 1 0]
Raman shift (cm-1)	intensity
52.671	0
57.626	33.2262
62.579	2.43683
67.529	107.231
72.477	1006.53
77.423	4145.01
82.367	10561.1
87.308	2941.5
92.246	2269.75
97.182	1855.53
102.116	1923.78
107.047	3006.45
111.976	3647.9
116.903	2135.85
121.827	1666.83
126.749	1671.13
131.668	2500.03
136.585	4587.44
141.5	7234.29
146.412	2632.96
151.321	1999.64
156.229	1303.43
161.134	1277.37
166.036	2029.47
170.936	2226.7
175.834	1984.89
180.729	2101.04
185.622	4660.31
190.512	9532.15
195.4	7050.02
200.286	3281.01
205.169	1874.71
210.049	991.367
214.928	776.121
219.803	444.18
224.677	383.394
229.548	566.427
234.416	1127.04
239.282	2798.01
244.146	7603.19
249.007	4584.47
253.866	1167.77
258.722	616.019
263.576	617.154
268.427	501.004
273.276	755.495
278.123	1385.63
282.967	955.424
287.809	429.886
292.648	64.0062
297.485	95.2554
302.319	171.164
307.151	148.997
311.98	136.834
316.807	44.5056
321.631	204.253
326.454	580.809
331.273	624.786
336.09	274.19
340.905	271.31
345.717	380.059
350.527	609.578
355.334	1008.94
360.139	1586.11
364.941	2368.01
369.741	3371.62
374.538	5464.96
379.333	7991.1
384.126	10586
388.916	16575.6
393.703	34939.9
398.488	51048
403.271	29976.6
408.051	14460.8
412.828	8057.4
417.603	5081.46
422.376	3588.92
427.146	2803.76
431.914	2163.96
436.679	1670.12
441.442	1223.07
446.202	974.153
450.96	853.585
455.715	786.734
460.467	796.677
465.218	784.416
469.965	721.883
474.711	580.659
479.454	553.931
484.194	548.909
488.932	586.348
493.667	430.132
498.4	407.714
503.13	372.278
507.858	231.915
512.583	206.03
517.306	119.738
522.026	186.216
526.744	236.383
531.459	546.076
536.172	1030.68
540.882	1096.09
545.59	708.909
550.295	353.019
554.998	249.965
559.698	178.428
564.396	130.423
569.091	72.5992
573.784	60.666
578.474	71.4203
583.162	5.98596
587.847	44.7373
592.529	19.1902
597.209	9.81848
601.887	4.46143
606.562	6.42908
611.235	21.1324
615.905	1.83862
620.572	21.2856
625.237	51.7203
629.9	57.3666
634.56	20.6692
639.217	29.5619
643.872	14.0614
648.524	16.0989
653.174	8.40405
657.821	30.5623
662.466	5.54712
667.108	17.2969
671.748	0.094604
676.385	46.2841
681.02	1.47388
685.652	1.71179
690.281	39.3359
694.908	62.0194
699.533	33.301
704.155	80.6711
708.774	111.665
713.391	79.3084
718.005	130.604
722.617	195.116
727.226	277.739
731.833	294.569
736.437	416.024
741.039	521.988
745.638	569.644
750.234	693.915
754.828	1072.87
759.419	1831.02
764.008	2079.86
768.595	1405.07
773.178	814.968
777.759	531.632
782.338	419.174
786.914	315.986
791.488	271.947
796.059	291.094
800.627	281.361
805.193	194.552
809.756	267.998
814.317	265.366
818.875	427.592
823.431	689.697
827.984	1134.28
832.534	1360.11
837.082	1207.59
841.627	792.381
846.17	394.309
850.71	218.146
855.248	104.222
859.783	90.3533
864.316	93.5559
868.846	104.841
873.373	121.732
877.898	212.766
882.42	249.821
886.94	362.181
891.457	398.629
895.971	521.366
900.483	604.398
904.993	762.657
909.5	937.478
914.004	1297.56
918.505	1908.48
923.004	3129.67
927.501	5493.15
931.995	9121.98
936.486	10765.2
940.975	8102.94
945.461	4704.11
949.945	2453.75
954.426	1528.83
958.904	1215.25
963.38	925.962
967.853	758.912
972.324	582.085
976.792	495.49
981.258	372.103
985.72	236.914
990.181	131.924
994.639	123.132
999.094	7.53015
1003.55	18.1172
1008	11.3535
1012.44	66.1904
1016.89	21.6155
1021.33	5.23669
1025.77	53.3025
1030.21	49.0504
1034.64	71.8212
1039.07	38.6102
1043.5	15.2362
1047.93	643.493
1052.35	273.399
1056.78	64.7217
1061.19	115.339
1065.61	164.343
1070.02	244.599
1074.43	441.83
1078.84	618.391
1083.25	1085.8
1087.65	2572.81
1092.05	7308.24
1096.45	8375.48
1100.85	2805.55
1105.24	1140.71
1109.63	620.696
1114.02	385.498
1118.4	285.266
1122.78	239.366
1127.16	143.173
1131.54	86.7529
1135.92	47.4948
1140.29	17.5341
1144.66	3.70447
1149.02	24.3231
1153.39	29.6298
1157.75	2.37647
1162.11	23.2792
1166.46	18.1986
1170.82	10.0742
1175.17	0.575806
1179.52	2.40051
1183.86	11.5198
1188.21	25.2013
1192.55	28.9919
1196.89	5.15454
1201.22	0.404297
1205.55	22.0347
1209.88	1.03497
1214.21	28.8957
1218.54	0.00708
1222.86	5.03271
1227.18	15.9229
1231.5	4.94562
1235.81	39.6593
1240.12	25.8575
1244.43	42.9687
1248.74	27.5237
1253.04	29.8787
1257.34	64.1448
1261.64	44.3333
1265.94	29.4388
1270.23	10.7023
1274.52	67.8625
1278.81	30.5237
1283.1	29.8318
1287.38	25.5979
1291.66	74.285
1295.94	90.2311
1300.21	65.1547
1304.48	57.8956
1308.75	70.3515
1313.02	47.3534
1317.29	36.3873
1321.55	33.8096
1325.81	44.5941
1330.06	48.2154
1334.32	81.1837
1338.57	29.4771
1342.82	16.1337
1347.06	32.3625
1351.31	27.6578
1355.55	2.97699
1359.79	38.2607
1364.02	42.6838
1368.26	60.7516
1372.49	113.673
1376.71	110.493
1380.94	167.615
1385.16	193.005
1389.38	189.414
1393.6	178.433
1397.81	271.615
1402.02	413.54
1406.23	691.296
1410.44	1270.97
1414.64	3492.71
1418.85	6643.58
1423.04	2947.18
1427.24	1236.74
1431.43	674.415
1435.62	400.71
1439.81	301.889
1444	273.62
1448.18	260.248
1452.36	402.096
1456.54	1290.93
1460.71	1053.71
1464.89	298.579
1469.06	175.22
1473.22	160.863
1477.39	163.306
1481.55	163.635
1485.71	154.679
1489.86	150.423
1494.02	126.837
1498.17	72.8634
1502.32	91.4862
1506.46	71.8188
1510.61	54.9067
1514.75	92.0013
1518.88	73.2849
1523.02	111.293
1527.15	113.865
1531.28	140.014
1535.41	117.275
1539.53	108.951
1543.66	141.863
1547.78	51.7766
1551.89	181.386
1556.01	248.714
1560.12	10.458
1564.23	106.134
1568.33	10.5293
