Measurement: Raman, 514 nm, ccw, Raman Data Processed
Mineral: Azurite
Rruff sample: R050497
Ideal chemistry: Cu_3_(CO_3_)_2_(OH)_2_
Locality: Tsumeb mine, Tsumeb, Otavi District, Oshikoto, Namibia
Source: Marcus Origlieri
Description: Blue prismatic single crystal
Measured chemistry: Cu_3.00_(CO_3_)_2_(OH)_2_
Pin_id: L01397
Orientation: Laser parallel to (-1 0 -1). Fiducial mark perpendicular to laser is parallel to -b [0 -1 0]
Raman shift (cm-1)	intensity
52.671	0
57.626	53.3614
62.579	15.4179
67.529	3.61883
72.477	597.109
77.423	1329.2
82.367	6255.03
87.308	2761.76
92.246	1764.11
97.182	1670.97
102.116	1975.28
107.047	4102.07
111.976	22173.7
116.903	5330.71
121.827	1728.89
126.749	1416.13
131.668	4095.98
136.585	2622.46
141.5	5484.72
146.412	3945.26
151.321	6580.31
156.229	8283.94
161.134	1389.17
166.036	1311.99
170.936	3208.33
175.834	5033.79
180.729	7723.3
185.622	1946.65
190.512	3356.24
195.4	4969.18
200.286	2258.82
205.169	1594.37
210.049	1667.46
214.928	2470.63
219.803	1021.32
224.677	326.57
229.548	802.994
234.416	5290.34
239.282	5734.16
244.146	2465.14
249.007	4266.16
253.866	425.096
258.722	49.8435
263.576	926.307
268.427	493.356
273.276	305.911
278.123	1597.93
282.967	2132.41
287.809	1252.34
292.648	714.715
297.485	40.4609
302.319	229.254
307.151	135.939
311.98	36.3625
316.807	738.785
321.631	2252.71
326.454	6211.81
331.273	10942.8
336.09	5996.04
340.905	2042.86
345.717	1033.41
350.527	777.373
355.334	1342.44
360.139	2524.64
364.941	3834.43
369.741	4127.39
374.538	5502.23
379.333	8423.29
384.126	11405.1
388.916	15160.4
393.703	24230.6
398.488	44121.7
403.271	35796.6
408.051	16263.3
412.828	8573.66
417.603	4742.71
422.376	2967.38
427.146	1986.79
431.914	1371.84
436.679	917.289
441.442	448.889
446.202	232.673
450.96	56.509
455.715	29.6721
460.467	2.72876
465.218	98.6633
469.965	102.151
474.711	31.3491
479.454	19.3162
484.194	12.7151
488.932	4.86597
493.667	53.4832
498.4	0.269043
503.13	99.1399
507.858	35.7854
512.583	40.2976
517.306	67.3174
522.026	17.2402
526.744	214.298
531.459	609.457
536.172	1502.66
540.882	2240.18
545.59	1460.98
550.295	693.052
554.998	380.616
559.698	187.26
564.396	151.205
569.091	110.652
573.784	42.577
578.474	50.968
583.162	9.73364
587.847	14.1217
592.529	11.4739
597.209	21.2977
601.887	24.2435
606.562	40.6946
611.235	13.0075
615.905	65.4183
620.572	60.0404
625.237	67.2956
629.9	88.0065
634.56	118.909
639.217	69.8431
643.872	115.524
648.524	91.4034
653.174	94.0162
657.821	19.851
662.466	53.5786
667.108	1.42188
671.748	46.5596
676.385	39.0234
681.02	16.8296
685.652	87.9751
690.281	87.5431
694.908	83.5704
699.533	133.069
704.155	104.072
708.774	146.417
713.391	220.703
718.005	333.038
722.617	490.212
727.226	718.414
731.833	1182.67
736.437	1871.97
741.039	2692.87
745.638	2647.88
750.234	2075.83
754.828	2757.93
759.419	4758.2
764.008	7045.28
768.595	5715.68
773.178	3352.5
777.759	1878.05
782.338	1166.62
786.914	679.741
791.488	480.922
796.059	299.837
800.627	231.273
805.193	247.947
809.756	197.217
814.317	189.024
818.875	264.867
823.431	498.54
827.984	954.946
832.534	959.538
837.082	1391.39
841.627	1305.2
846.17	729.25
850.71	348.378
855.248	154.451
859.783	51.7112
864.316	29.1663
868.846	47.0598
873.373	55.8514
877.898	19.532
882.42	95.3938
886.94	47.7844
891.457	109.064
895.971	186.483
900.483	233.809
904.993	307.359
909.5	403.039
914.004	524.882
918.505	805.889
923.004	1175.05
927.501	2105.39
931.995	3735.89
936.486	4917.61
940.975	4310.55
945.461	2748.73
949.945	1553.17
954.426	907.823
958.904	639.7
963.38	505.781
967.853	376.104
972.324	271.588
976.792	262.212
981.258	170.488
985.72	152.878
990.181	108.907
994.639	99.0693
999.094	1.64685
1003.55	10.7234
1008	7.50732
1012.44	5.00488
1016.89	32.3668
1021.33	28.2412
1025.77	8.39844
1030.21	38.0537
1034.64	34.7789
1039.07	33.7855
1043.5	38.9794
1047.93	64.8464
1052.35	65.7661
1056.78	148.522
1061.19	183.357
1065.61	230.576
1070.02	253.973
1074.43	411.93
1078.84	551.212
1083.25	1018.59
1087.65	1939.76
1092.05	4858.88
1096.45	8250.31
1100.85	3218.82
1105.24	1202.18
1109.63	628.332
1114.02	404.76
1118.4	248.307
1122.78	205.197
1127.16	134.449
1131.54	92.7075
1135.92	70.3992
1140.29	72.4539
1144.66	59.5286
1149.02	5.32495
1153.39	18.6173
1157.75	46.7529
1162.11	14.618
1166.46	66.0802
1170.82	14.2476
1175.17	34.455
1179.52	38.5702
1183.86	41.5061
1188.21	30.3931
1192.55	30.4428
1196.89	10.5819
1201.22	36.1883
1205.55	39.6704
1209.88	22.5551
1214.21	7.71594
1218.54	19.2959
1222.86	1.19922
1227.18	10.2677
1231.5	9.65088
1235.81	31.7707
1240.12	53.1984
1244.43	42.1281
1248.74	24.9954
1253.04	58.8031
1257.34	36.5513
1261.64	19.2447
1265.94	7.85132
1270.23	83.9462
1274.52	44.7858
1278.81	61.8589
1283.1	57.6593
1287.38	31.2916
1291.66	72.8054
1295.94	94.0658
1300.21	61.0468
1304.48	115.858
1308.75	161.898
1313.02	109.846
1317.29	101.817
1321.55	24.2297
1325.81	90.5082
1330.06	116.778
1334.32	76.3013
1338.57	81.6577
1342.82	76.5459
1347.06	32.4976
1351.31	68.9795
1355.55	97.4154
1359.79	79.7061
1364.02	88.6775
1368.26	169.192
1372.49	143.471
1376.71	176.721
1380.94	281.809
1385.16	414.267
1389.38	358.998
1393.6	439.397
1397.81	1611.09
1402.02	3506.99
1406.23	1297.45
1410.44	2301.32
1414.64	5162.61
1418.85	12135.3
1423.04	8078.33
1427.24	7052.08
1431.43	9096.64
1435.62	3551.46
1439.81	1425.88
1444	778.612
1448.18	532.015
1452.36	531.044
1456.54	1197.45
1460.71	1801.36
1464.89	403.491
1469.06	205.884
1473.22	114.788
1477.39	83.4015
1481.55	82.734
1485.71	95.6853
1489.86	90.2092
1494.02	17.285
1498.17	118.823
1502.32	62.752
1506.46	47.3601
1510.61	94.1919
1514.75	110.906
1518.88	122.046
1523.02	120.414
1527.15	168.156
1531.28	170.946
1535.41	153.001
1539.53	153.668
1543.66	75.5317
1547.78	104.761
1551.89	152.806
1556.01	221.375
1560.12	15.4131
1564.23	99.8662
1568.33	96.4773
