Measurement: Raman, 514 nm, ccw, Raman Data Processed
Mineral: Azurite
Rruff sample: R050638
Ideal chemistry: Cu_3_(CO_3_)_2_(OH)_2_
Locality: Zacatecas, Mexico
Source: University of Arizona Mineral Museum
Description: Blue bladed crystals
Measured chemistry: Cu_3.00_(CO_3_)_2_(OH)_2_
Pin_id: M00381
Orientation: Laser parallel to a* (1 0 0). Fiducial mark perpendicular to laser is parallel to b [0 1 0]
Raman shift (cm-1)	intensity
52.671	0
57.626	84.1274
62.579	23.0083
67.529	262.408
72.477	4045.23
77.423	20141.7
82.367	25917.2
87.308	13386.9
92.246	5581.52
97.182	3283.6
102.116	2823.52
107.047	3643.95
111.976	3336.44
116.903	3425.8
121.827	4756.23
126.749	8810.77
131.668	26523
136.585	25085.5
141.5	20495.2
146.412	15976.3
151.321	9577
156.229	7608.61
161.134	5568.2
166.036	7517.77
170.936	18991.3
175.834	17905.8
180.729	15406.2
185.622	11135.3
190.512	8257.87
195.4	7158.36
200.286	5033.41
205.169	2513.6
210.049	613.036
214.928	354.099
219.803	251.396
224.677	669.872
229.548	3223.75
234.416	3926.47
239.282	8849.54
244.146	9381.6
249.007	7874.39
253.866	3998.71
258.722	1932.4
263.576	1579.28
268.427	2147.96
273.276	3947.3
278.123	4904.28
282.967	4260.94
287.809	2355.27
292.648	752.252
297.485	175.159
302.319	413.52
307.151	535.633
311.98	301.521
316.807	402.615
321.631	2403.54
326.454	4632.26
331.273	4547.09
336.09	3112.41
340.905	1726.49
345.717	1226.19
350.527	1529.83
355.334	2732.53
360.139	4155.21
364.941	5508.68
369.741	7158.96
374.538	9422.96
379.333	12340.5
384.126	16796.7
388.916	27966.1
393.703	47835.8
398.488	50635.8
403.271	40055.8
408.051	25952.7
412.828	18343.6
417.603	13180.3
422.376	8864.86
427.146	5572.17
431.914	3362.2
436.679	2120.9
441.442	1193.36
446.202	774.441
450.96	471.374
455.715	338.699
460.467	326.287
465.218	332.731
469.965	267.238
474.711	132.52
479.454	196.422
484.194	194.065
488.932	156.779
493.667	148.417
498.4	156.503
503.13	34.5166
507.858	57.4946
512.583	116.546
517.306	248.204
522.026	542.038
526.744	1190.35
531.459	2721.89
536.172	4209.85
540.882	4065.86
545.59	2789.28
550.295	1520.23
554.998	829.389
559.698	561.417
564.396	480.589
569.091	415.374
573.784	242.6
578.474	138.239
583.162	49.3
587.847	59.5444
592.529	34.1182
597.209	86.7747
601.887	78.7029
606.562	110.846
611.235	63.7615
615.905	59.2246
620.572	27.1765
625.237	32.3208
629.9	16.574
634.56	33.6851
639.217	20.6426
643.872	20.434
648.524	40.046
653.174	25.1256
657.821	7.32275
662.466	5.67444
667.108	15.9346
671.748	44.3136
676.385	50.5521
681.02	68.7103
685.652	144.96
690.281	157.159
694.908	185.584
699.533	237.193
704.155	308.013
708.774	304.057
713.391	361.339
718.005	501.872
722.617	593.669
727.226	881.179
731.833	1373.56
736.437	2146.4
741.039	2709.42
745.638	2719.6
750.234	2928.73
754.828	3665.47
759.419	4832.3
764.008	4734.44
768.595	3411.72
773.178	2129.02
777.759	1357.73
782.338	1058.7
786.914	961.002
791.488	1036.43
796.059	1137.06
800.627	1348.42
805.193	1764.87
809.756	2539.36
814.317	3881.5
818.875	6335.42
823.431	11675.2
827.984	17527.2
832.534	18535.7
837.082	14018.9
841.627	8790.19
846.17	5117.6
850.71	3029.14
855.248	1800.84
859.783	1139.01
864.316	840.07
868.846	556.887
873.373	502.241
877.898	515.916
882.42	444.122
886.94	518.513
891.457	495.421
895.971	552.738
900.483	699.686
904.993	833.029
909.5	1079.85
914.004	1441.21
918.505	2180.1
923.004	3562.65
927.501	6092.95
931.995	9107.87
936.486	9829.48
940.975	7683.69
945.461	4765.47
949.945	2831.78
954.426	1724.64
958.904	1199
963.38	923.78
967.853	709.958
972.324	641.52
976.792	470.472
981.258	349.816
985.72	233.524
990.181	121.575
994.639	15.955
999.094	32.651
1003.55	89.353
1008	36.5756
1012.44	73.6233
1016.89	40.5352
1021.33	27.1488
1025.77	12.2028
1030.21	30.0758
1034.64	35.3512
1039.07	43.2322
1043.5	52.454
1047.93	66.3785
1052.35	107.271
1056.78	159.437
1061.19	232.848
1065.61	273.903
1070.02	1179.69
1074.43	1747.47
1078.84	1040.74
1083.25	1804.83
1087.65	4598.84
1092.05	12084
1096.45	11673.2
1100.85	5473.44
1105.24	2105.51
1109.63	1132.69
1114.02	680.653
1118.4	501.536
1122.78	436.289
1127.16	279.695
1131.54	134.785
1135.92	101.909
1140.29	66.8388
1144.66	12.2216
1149.02	12.6136
1153.39	25.8247
1157.75	16.8658
1162.11	15.9858
1166.46	8.02417
1170.82	7.23901
1175.17	9.83545
1179.52	11.8084
1183.86	6.11084
1188.21	27.3864
1192.55	59.4819
1196.89	35.4179
1201.22	22.9755
1205.55	29.4329
1209.88	35.2795
1214.21	8.1532
1218.54	34.2501
1222.86	0.612061
1227.18	37.3597
1231.5	21.989
1235.81	16.2085
1240.12	18.5631
1244.43	7.0061
1248.74	60.0322
1253.04	96.8547
1257.34	70.4005
1261.64	86.3833
1265.94	115.713
1270.23	113.352
1274.52	114.357
1278.81	95.3016
1283.1	85.5537
1287.38	99.8395
1291.66	115.122
1295.94	71.9578
1300.21	109.927
1304.48	96.2284
1308.75	126.797
1313.02	41.8374
1317.29	73.6436
1321.55	53.858
1325.81	57.941
1330.06	62.9675
1334.32	68.2592
1338.57	75.8035
1342.82	17.661
1347.06	25.4578
1351.31	18.7737
1355.55	18.085
1359.79	43.095
1364.02	11.7445
1368.26	31.3029
1372.49	9.90271
1376.71	30.7058
1380.94	51.5575
1385.16	16.7411
1389.38	7.95764
1393.6	18.3569
1397.81	72.7321
1402.02	70.3025
1406.23	70.8693
1410.44	225.365
1414.64	589.903
1418.85	919.576
1423.04	487.213
1427.24	399.913
1431.43	318.724
1435.62	158.186
1439.81	119.511
1444	146.534
1448.18	198.412
1452.36	532.657
1456.54	1707.8
1460.71	1036.18
1464.89	319.648
1469.06	242.949
1473.22	249.816
1477.39	255.253
1481.55	308.82
1485.71	330.911
1489.86	248.513
1494.02	165.36
1498.17	164.222
1502.32	103.09
1506.46	90.8325
1510.61	123.42
1514.75	106.132
1518.88	170.075
1523.02	98.4138
1527.15	98.0684
1531.28	144.23
1535.41	107.694
1539.53	141.505
1543.66	82.8618
1547.78	91.9634
1551.89	203.954
1556.01	320.057
1560.12	2.62647
1564.23	23.1169
1568.33	18.5199
