Measurement: Raman, 514 nm, ccw, Raman Data Processed
Mineral: Azurite
Rruff sample: R050638
Ideal chemistry: Cu_3_(CO_3_)_2_(OH)_2_
Locality: Zacatecas, Mexico
Source: University of Arizona Mineral Museum
Description: Blue bladed crystals
Measured chemistry: Cu_3.00_(CO_3_)_2_(OH)_2_
Pin_id: M00402
Orientation: Laser parallel to c* (0 0 1). Fiducial mark perpendicular to laser is parallel to -a [-1 0 0]
Raman shift (cm-1)	intensity
52.671	0
57.626	165.727
62.579	60.871
67.529	448.819
72.477	6316.43
77.423	34473.2
82.367	44243.1
87.308	40133.3
92.246	10080.1
97.182	4073.72
102.116	2630.4
107.047	3325.09
111.976	3080.76
116.903	2981.07
121.827	4416.23
126.749	8028.27
131.668	14411.6
136.585	14999.3
141.5	8611.24
146.412	5241.88
151.321	2984.55
156.229	4135.37
161.134	4279.36
166.036	7048.5
170.936	11270.7
175.834	11514.8
180.729	7042.95
185.622	3897.91
190.512	2365.82
195.4	2591.78
200.286	2367.9
205.169	1545.35
210.049	133.166
214.928	8.87842
219.803	70.6604
224.677	271.634
229.548	1136.1
234.416	2556.18
239.282	8388.43
244.146	10889.5
249.007	17284.1
253.866	11546.1
258.722	4720.3
263.576	4738.64
268.427	6586.89
273.276	7923.84
278.123	10467.5
282.967	14231.3
287.809	8113.8
292.648	2931.97
297.485	794.783
302.319	33.2168
307.151	264.729
311.98	381.483
316.807	266.467
321.631	281.592
326.454	1162.11
331.273	1569.31
336.09	1545.56
340.905	797.723
345.717	636.214
350.527	968.663
355.334	1672.5
360.139	2838.78
364.941	4647.14
369.741	7234.78
374.538	11154.2
379.333	15652.7
384.126	20710.1
388.916	29927.5
393.703	47323.1
398.488	57278.9
403.271	57723.7
408.051	32725.5
412.828	16107.2
417.603	9501.8
422.376	5903.26
427.146	3739.52
431.914	2386.53
436.679	1486.25
441.442	874.956
446.202	453.511
450.96	323.747
455.715	166.494
460.467	143.856
465.218	173.119
469.965	129.296
474.711	51.7427
479.454	39.9011
484.194	41.0947
488.932	51.9832
493.667	115.415
498.4	140.113
503.13	40.3076
507.858	96.5183
512.583	23.9915
517.306	58.2253
522.026	176.897
526.744	532.532
531.459	1100.57
536.172	1978.42
540.882	2470.55
545.59	2110.22
550.295	1228.49
554.998	788.754
559.698	511.558
564.396	378.96
569.091	282.836
573.784	263.068
578.474	109.75
583.162	111.854
587.847	21.741
592.529	62.2327
597.209	5.64941
601.887	82.7815
606.562	36.0537
611.235	48.7041
615.905	9.52856
620.572	14.0339
625.237	6.78223
629.9	12.4226
634.56	18.1221
639.217	21.5422
643.872	70.8743
648.524	17.761
653.174	14.6462
657.821	68.2878
662.466	60.8191
667.108	57.3032
671.748	77.7361
676.385	60.1533
681.02	114.587
685.652	88.1128
690.281	149.703
694.908	214.43
699.533	190.328
704.155	204.395
708.774	313.714
713.391	398.752
718.005	454.94
722.617	694.923
727.226	962.018
731.833	1577.79
736.437	2305.55
741.039	2612.52
745.638	2613.91
750.234	2643.5
754.828	3465.95
759.419	4424.76
764.008	4952.93
768.595	3835.72
773.178	2325.52
777.759	1441.04
782.338	998.611
786.914	769.089
791.488	651.272
796.059	580.681
800.627	677.725
805.193	673.482
809.756	936.878
814.317	1342.3
818.875	1837.18
823.431	2729.8
827.984	4094.52
832.534	4947.43
837.082	4452.64
841.627	3235
846.17	2043.38
850.71	1103.74
855.248	631.099
859.783	311.485
864.316	189.423
868.846	196.37
873.373	125.067
877.898	11.2141
882.42	85.3279
886.94	111.054
891.457	105.764
895.971	120.543
900.483	84.6526
904.993	136.218
909.5	243.239
914.004	277.794
918.505	490.781
923.004	838.112
927.501	1548.81
931.995	2470.92
936.486	3076.41
940.975	2729.27
945.461	1920.5
949.945	1117.1
954.426	752.094
958.904	494.445
963.38	302.126
967.853	237.079
972.324	191.322
976.792	171.874
981.258	73.7153
985.72	110.855
990.181	25.2669
994.639	33.9302
999.094	2.17114
1003.55	56.0735
1008	42.8899
1012.44	32.6282
1016.89	25.2197
1021.33	10.9956
1025.77	1.71899
1030.21	6.24463
1034.64	36.6963
1039.07	89.2102
1043.5	121.133
1047.93	140.424
1052.35	196.02
1056.78	262.5
1061.19	328.209
1065.61	375.733
1070.02	561.509
1074.43	760.579
1078.84	1165.64
1083.25	2060.21
1087.65	4875.21
1092.05	12265.5
1096.45	16178.8
1100.85	9219.66
1105.24	3469.98
1109.63	1762.21
1114.02	991.02
1118.4	705.163
1122.78	544.36
1127.16	445.391
1131.54	222.79
1135.92	178.37
1140.29	126.878
1144.66	73.1243
1149.02	36.3716
1153.39	3.65478
1157.75	16.7918
1162.11	62.5967
1166.46	24.6838
1170.82	6.38354
1175.17	43.5986
1179.52	22.3355
1183.86	67.8166
1188.21	53.3477
1192.55	9.33081
1196.89	72.4299
1201.22	36.2983
1205.55	46.948
1209.88	22.8586
1214.21	21.0859
1218.54	60.4495
1222.86	46.3909
1227.18	49.8867
1231.5	14.7747
1235.81	3.99292
1240.12	42.9502
1244.43	14.5305
1248.74	97.8975
1253.04	39.8171
1257.34	74.4636
1261.64	49.1033
1265.94	65.1543
1270.23	116.473
1274.52	88.4792
1278.81	108.166
1283.1	88.6216
1287.38	42.342
1291.66	119.447
1295.94	91.2244
1300.21	121.311
1304.48	130.113
1308.75	147.162
1313.02	82.0142
1317.29	97.8677
1321.55	118.872
1325.81	73.1968
1330.06	90.6941
1334.32	75.1924
1338.57	85.6301
1342.82	57.5637
1347.06	16.3352
1351.31	29.2288
1355.55	52.0684
1359.79	39.4607
1364.02	60.3716
1368.26	34.7371
1372.49	12.2747
1376.71	26.5552
1380.94	36.2217
1385.16	16.3596
1389.38	30.064
1393.6	32.7058
1397.81	44.7078
1402.02	82.551
1406.23	80.3049
1410.44	119.929
1414.64	438.397
1418.85	813.085
1423.04	621.783
1427.24	796.749
1431.43	903.587
1435.62	365.924
1439.81	170.619
1444	120.19
1448.18	39.6394
1452.36	188.288
1456.54	523.323
1460.71	670.819
1464.89	271.79
1469.06	142.841
1473.22	120.463
1477.39	132.654
1481.55	223.188
1485.71	172.173
1489.86	92.8699
1494.02	126.557
1498.17	118.284
1502.32	101.983
1506.46	88.5542
1510.61	80.5627
1514.75	92.9939
1518.88	144.617
1523.02	53.4756
1527.15	89.7495
1531.28	119.622
1535.41	166.806
1539.53	98.314
1543.66	89.1682
1547.78	50.8582
1551.89	237.192
1556.01	417.744
1560.12	7.90112
1564.23	27.5488
1568.33	32.5037
