Measurement: Raman, 514 nm, ccw, Raman Data Processed
Mineral: Azurite
Rruff sample: R050638
Ideal chemistry: Cu_3_(CO_3_)_2_(OH)_2_
Locality: Zacatecas, Mexico
Source: University of Arizona Mineral Museum
Description: Blue bladed crystals
Measured chemistry: Cu_3.00_(CO_3_)_2_(OH)_2_
Pin_id: M00496
Orientation: Laser parallel to -b* (0 -1 0). Fiducial mark perpendicular to laser is parallel to -c [0 0 -1]
Raman shift (cm-1)	intensity
52.671	0
57.626	44.0857
62.579	52.9109
67.529	9.61145
72.477	677.966
77.423	1095.26
82.367	2835.09
87.308	1954.85
92.246	1714.95
97.182	1329.2
102.116	1294.46
107.047	2238.68
111.976	8645.24
116.903	3437.24
121.827	1363.17
126.749	1472.73
131.668	4240.31
136.585	2050.18
141.5	3689.33
146.412	3276.29
151.321	1791.32
156.229	2270.53
161.134	1267
166.036	3408.73
170.936	14759.7
175.834	4004.92
180.729	1796.38
185.622	1092.41
190.512	2186.16
195.4	2827.21
200.286	1977.92
205.169	1266.48
210.049	697.145
214.928	966.925
219.803	391.541
224.677	99.1223
229.548	347.033
234.416	1478.44
239.282	3101.16
244.146	7632.98
249.007	20824.8
253.866	3357.39
258.722	1148.79
263.576	2144.45
268.427	1645.52
273.276	2506.59
278.123	6488.09
282.967	7615.01
287.809	3670.36
292.648	1479.12
297.485	298.28
302.319	107.035
307.151	236.927
311.98	272.672
316.807	85.4504
321.631	382.069
326.454	1319.88
331.273	2223.12
336.09	1339.55
340.905	732.429
345.717	781.723
350.527	1336.53
355.334	2379.95
360.139	4245.94
364.941	6818.36
369.741	9457.11
374.538	14298.1
379.333	20827.4
384.126	24728.8
388.916	25360.7
393.703	32773.4
398.488	55738.1
403.271	49517.8
408.051	29530.4
412.828	19170.9
417.603	11438.3
422.376	7283.43
427.146	5150.37
431.914	3591.11
436.679	2494.65
441.442	1499.66
446.202	1029.4
450.96	761.375
455.715	476.815
460.467	524.024
465.218	446.46
469.965	469.622
474.711	346.236
479.454	341.998
484.194	276.143
488.932	307.659
493.667	267.596
498.4	249.269
503.13	153.613
507.858	150.604
512.583	67.8232
517.306	3.67407
522.026	8.86401
526.744	0.319336
531.459	65.6987
536.172	218.54
540.882	387.125
545.59	306.6
550.295	152.483
554.998	110.223
559.698	118.163
564.396	63.8008
569.091	30.1115
573.784	59.0643
578.474	69.6361
583.162	71.2617
587.847	39.0332
592.529	51.6072
597.209	22.7747
601.887	17.5585
606.562	52.0328
611.235	50.8562
615.905	31.8391
620.572	2.00476
625.237	10.3337
629.9	29.2484
634.56	26.9982
639.217	63.8925
643.872	84.9717
648.524	51.3102
653.174	117.872
657.821	83.5406
662.466	82.0356
667.108	106.665
671.748	117.135
676.385	142.878
681.02	155.915
685.652	183.263
690.281	155.956
694.908	254.009
699.533	306.445
704.155	357.27
708.774	408.438
713.391	519.057
718.005	767.935
722.617	1122.83
727.226	1672.52
731.833	2831.98
736.437	4677.64
741.039	4517.81
745.638	2919.82
750.234	2052.24
754.828	2288.35
759.419	3410.02
764.008	4409.98
768.595	3708.05
773.178	2256.45
777.759	1258.34
782.338	777.729
786.914	537.021
791.488	437.115
796.059	342.334
800.627	359.334
805.193	522.45
809.756	693.498
814.317	1598.64
818.875	2163.53
823.431	1220.33
827.984	1194.85
832.534	1290.92
837.082	1315.99
841.627	1085.98
846.17	658.911
850.71	387.803
855.248	221.668
859.783	142.115
864.316	47.5326
868.846	20.0922
873.373	37.249
877.898	73.1667
882.42	28.2047
886.94	78.7544
891.457	94.3029
895.971	77.9111
900.483	112.28
904.993	154.467
909.5	182.153
914.004	161.077
918.505	320.195
923.004	373.481
927.501	712.975
931.995	1082.61
936.486	1360.47
940.975	1158.56
945.461	825.844
949.945	513.375
954.426	300.532
958.904	227.026
963.38	235.097
967.853	101.304
972.324	100.688
976.792	103.245
981.258	92.941
985.72	41.7841
990.181	69.77
994.639	11.1104
999.094	15.8804
1003.55	13.5598
1008	11.1614
1012.44	20.7175
1016.89	1.40027
1021.33	14.9144
1025.77	16.9413
1030.21	12.0485
1034.64	1.75977
1039.07	51.6583
1043.5	43.2228
1047.93	71.9191
1052.35	104.622
1056.78	114.257
1061.19	158.925
1065.61	286.679
1070.02	302.234
1074.43	439.269
1078.84	703.54
1083.25	1082.25
1087.65	2093.47
1092.05	5396.32
1096.45	10402.2
1100.85	4436.15
1105.24	1680.36
1109.63	870.815
1114.02	553.698
1118.4	346.317
1122.78	292.984
1127.16	217.518
1131.54	118.209
1135.92	78.4887
1140.29	36.1255
1144.66	43.9377
1149.02	4.41748
1153.39	23.0699
1157.75	36.334
1162.11	11.517
1166.46	14.906
1170.82	17.2804
1175.17	1.17847
1179.52	64.4122
1183.86	45.9563
1188.21	42.9454
1192.55	11.5137
1196.89	30.0117
1201.22	0.997803
1205.55	8.9779
1209.88	21.0888
1214.21	1.85632
1218.54	8.34106
1222.86	6.25391
1227.18	48.9695
1231.5	1.65515
1235.81	23.8651
1240.12	0.39209
1244.43	31.4692
1248.74	18.3303
1253.04	19.0763
1257.34	39.7341
1261.64	29.3081
1265.94	49.8173
1270.23	71.2585
1274.52	62.6692
1278.81	65.3711
1283.1	84.1467
1287.38	75.4669
1291.66	57.8649
1295.94	58.9968
1300.21	76.7802
1304.48	31.1551
1308.75	59.2122
1313.02	2.73657
1317.29	35.5875
1321.55	6.00598
1325.81	38.0603
1330.06	39.5741
1334.32	13.4122
1338.57	6.01892
1342.82	2.8584
1347.06	31.9387
1351.31	6.30347
1355.55	6.77002
1359.79	46.9816
1364.02	38.9966
1368.26	60.6582
1372.49	80.7267
1376.71	128.656
1380.94	245.63
1385.16	270.452
1389.38	311.983
1393.6	330.996
1397.81	490.433
1402.02	737.189
1406.23	1207.56
1410.44	1942.39
1414.64	4407.3
1418.85	8275.15
1423.04	7257.48
1427.24	12856.2
1431.43	15787.2
1435.62	5641.7
1439.81	2262.51
1444	1159.46
1448.18	918.971
1452.36	1254.31
1456.54	3836.34
1460.71	3627.34
1464.89	886.753
1469.06	369.776
1473.22	192.737
1477.39	83.2963
1481.55	142.533
1485.71	148.768
1489.86	55.8768
1494.02	76.8445
1498.17	78.5898
1502.32	90.0245
1506.46	74.1044
1510.61	119.146
1514.75	68.1509
1518.88	138.764
1523.02	166.561
1527.15	193.6
1531.28	189.696
1535.41	192.663
1539.53	192.976
1543.66	131.253
1547.78	52.056
1551.89	138.084
1556.01	211.274
1560.12	0.703369
1564.23	70.0493
1568.33	126.062
