Measurement: Raman, 514 nm, ccw, Raman Data Processed
Mineral: Baddeleyite
Rruff sample: R060078
Ideal chemistry: ZrO_2_
Locality: Wetloo mine, Mogok, Burma
Source: Marcus Origlieri
Description: Dark brown fragment
Measured chemistry: (Zr_0.99_Hf_0.01_)_Î£=1_O_2_
Pin_id: L01430
Orientation: Laser parallel to c* (0 0 1). Fiducial mark perpendicular to laser is parallel to a [1 0 0]
Raman shift (cm-1)	intensity
51.431	0
56.387	169.655
61.341	71.0131
66.292	31.7202
71.241	717.755
76.187	655.973
81.131	1954.98
86.072	2598.6
91.012	4702.14
95.948	4589.4
100.883	5231.65
105.815	15665
110.744	8877.77
115.671	6121.89
120.596	4395.63
125.519	3891.78
130.439	3661.03
135.356	2985.65
140.271	3377.71
145.184	2471.02
150.094	2474.9
155.002	2683.47
159.908	2492.39
164.811	3902.82
169.711	4969.47
174.61	7042.87
179.505	24772.2
184.399	10747.1
189.29	20811.2
194.178	50426.3
199.064	10466.6
203.948	7066.45
208.829	3406.97
213.708	3084.86
218.585	2627.98
223.459	2798.02
228.33	2032.67
233.199	1765
238.066	1604.62
242.93	1665.05
247.792	1869.99
252.651	1899.4
257.508	2028.55
262.363	2314.88
267.215	1840.99
272.064	1856.36
276.912	2064.09
281.756	2378.08
286.598	2985.9
291.438	3849.39
296.276	4751.47
301.111	6654.8
305.943	12716.6
310.773	14125.6
315.601	7187.46
320.426	5110.81
325.248	4720.56
330.068	4775.63
334.886	5238.98
339.701	5995.56
344.514	14128.4
349.324	33339.1
354.132	13687.8
358.938	5865.65
363.741	2564.4
368.541	1912.86
373.339	2067.98
378.135	4951.65
382.928	5065.63
387.718	2782.1
392.506	1025.84
397.292	248.832
402.075	95.9575
406.856	194.059
411.634	38.459
416.41	109.235
421.183	350.934
425.954	351.966
430.722	211.763
435.488	38.1987
440.251	55.4575
445.012	81.5283
449.77	92.7222
454.526	161.725
459.28	305.521
464.03	940.113
468.779	2492.48
473.525	5723.61
478.268	5236.48
483.009	1608.08
487.747	632.386
492.483	348.374
497.217	421.014
501.948	514.271
506.676	235.112
511.402	192.52
516.125	61.4658
520.846	63.7144
525.565	152.295
530.281	304.541
534.994	784.57
539.705	896.402
544.413	974.793
549.119	1484.83
553.822	2500.79
558.523	4007.19
563.222	2779.41
567.917	1465.75
572.611	801.924
577.302	485.53
581.99	157.2
586.676	147.526
591.359	211.865
596.04	324.457
600.718	797.348
605.394	1909.72
610.067	3132.55
614.737	3832.84
619.406	3144.54
624.071	2709.66
628.734	3320.18
633.395	6384.08
638.053	9593.33
642.708	6202.94
647.361	2812.95
652.012	2205.95
656.66	967.744
661.305	688.438
665.948	526.401
670.588	524.946
675.226	570.757
679.861	692.833
684.494	748.612
689.124	959.84
693.752	1029.7
698.377	1592.52
702.999	2103.4
707.619	2308.19
712.237	2238.48
716.852	1706.92
721.464	1278.17
726.074	901.978
730.681	666.347
735.286	582.352
739.888	415.069
744.488	452.183
749.085	569.441
753.68	564.675
758.272	398.85
762.861	391.671
767.448	310.364
772.033	295.649
776.614	160.667
781.194	114.116
785.77	89.9233
790.345	54.0952
794.916	83.0293
799.485	3.40576
804.052	58.5703
808.616	3.44873
813.177	4.31934
817.736	13.6523
822.292	69.3149
826.846	39.2964
831.397	9.88428
835.945	38.7178
840.491	104.538
845.035	18.8779
849.576	82.8731
854.114	50.939
858.65	119.346
863.183	114.137
867.713	49.3418
872.241	284.979
876.767	205.115
881.29	308.741
885.81	196.859
890.328	292.48
894.843	200.603
899.356	215.235
903.866	196.376
908.373	271.035
912.878	367.65
917.38	270.082
921.88	314.284
926.377	400.098
930.872	564.574
935.364	402.655
939.853	611.558
944.34	365.938
948.824	338.5
953.306	365.503
957.785	292.014
962.261	330.628
966.735	418.139
971.207	358.476
975.675	241.933
980.141	386.061
984.605	402.787
989.066	441.434
993.524	489.211
997.98	435.671
1002.43	478.228
1006.88	447.172
1011.33	480.827
1015.78	450.84
1020.22	373.454
1024.66	406.913
1029.1	413.129
1033.53	360.47
1037.97	314.607
1042.4	396.186
1046.82	304.464
1051.25	341.97
1055.67	399.487
1060.09	373.641
1064.51	356.779
1068.92	330.162
1073.33	335.156
1077.74	252.274
1082.15	332.562
1086.55	349.307
1090.95	329.764
1095.35	252.194
1099.75	310.867
1104.14	217.921
1108.53	233.125
1112.92	270.732
1117.31	225.593
1121.69	397.616
1126.07	366.802
1130.45	168.131
1134.82	70.6001
1139.19	137.381
1143.57	152.353
1147.93	184.103
1152.3	92.6465
1156.66	54.1216
1161.02	66.1826
1165.38	52.311
1169.73	95.4263
1174.08	17.2793
1178.43	43.9922
1182.78	15.2656
1187.12	21.6025
1191.46	30.9761
1195.8	10.876
1200.14	20.0166
1204.47	21.9653
1208.8	36.4893
1213.13	50.981
1217.46	136.47
1221.78	17.0356
1226.1	152.796
1230.42	76.5571
1234.73	12.4702
1239.04	121.132
1243.35	120.754
1247.66	132.404
1251.97	97.1323
1256.27	33.7358
1260.57	23.7124
1264.86	158.379
1269.16	104.037
1273.45	80.6753
1277.74	22.6987
1282.03	164.824
1286.31	55.313
1290.59	104.866
1294.87	14.479
1299.14	114.971
1303.42	81.6597
1307.69	80.4731
1311.95	52.5698
1316.22	149.686
1320.48	417.918
1324.74	127.734
1329	25.9458
1333.26	29.4175
1337.51	142.752
1341.76	107.773
1346	128.759
1350.25	40.3135
1354.49	41.311
1358.73	96.1626
1362.96	105.203
1367.2	138.956
1371.43	65.6929
1375.66	187.465
1379.88	155.891
1384.11	10.4976
1388.33	219.833
1392.54	93.1357
1396.76	121.136
1400.97	75.5493
1405.18	72.8242
1409.39	137.002
1413.59	88.2134
1417.8	128.572
1421.99	124.121
1426.19	143.978
1430.38	144.958
1434.58	137.924
1438.77	239.795
1442.95	91.9839
1447.13	48.0474
1451.32	124.852
1455.49	40.9014
1459.67	151.809
1463.84	87.4492
1468.01	102.944
1472.18	704.449
1476.35	83.0054
1480.51	159.711
1484.67	45.6748
1488.83	131.322
1492.98	57.9775
1497.13	5.15625
1501.28	104.658
1505.43	63.332
1509.57	115.902
1513.71	107.889
1517.85	54.6831
1521.99	32.6377
1526.12	104.891
1530.25	103.673
1534.38	67.4878
1538.5	47.3809
1542.62	4.3999
