Measurement: Raman, 514 nm, ccw, Raman Data Processed
Mineral: Baddeleyite
Rruff sample: R060078
Ideal chemistry: ZrO_2_
Locality: Wetloo mine, Mogok, Burma
Source: Marcus Origlieri
Description: Dark brown fragment
Measured chemistry: (Zr_0.99_Hf_0.01_)_Î£=1_O_2_
Pin_id: L01430
Orientation: Laser parallel to c* (0 0 1). Fiducial mark perpendicular to laser is parallel to a [1 0 0]
Raman shift (cm-1)	intensity
51.431	0
56.387	351.046
61.341	177.78
66.292	124.873
71.241	2975.36
76.187	2820.59
81.131	3836.38
86.072	5656.96
91.012	10269.7
95.948	10896.8
100.883	14701.8
105.815	47849.3
110.744	22101.9
115.671	13488.2
120.596	9951.27
125.519	8674.85
130.439	8155.17
135.356	6685.21
140.271	7600.41
145.184	5711.58
150.094	5731.39
155.002	6179.07
159.908	5288.26
164.811	7934
169.711	10215.9
174.61	13844.6
179.505	44379.8
184.399	18993.7
189.29	24408.3
194.178	51330.3
199.064	17855.5
203.948	13957.2
208.829	7194.03
213.708	6820.91
218.585	6379.99
223.459	9399.66
228.33	6198.37
233.199	5373.88
238.066	4470.18
242.93	3756.48
247.792	4499.17
252.651	4217.74
257.508	4966.75
262.363	5797.56
267.215	4061.7
272.064	4041
276.912	4598.44
281.756	5290.06
286.598	6532.24
291.438	7969.7
296.276	12720.2
301.111	11206.8
305.943	16738
310.773	18914.4
315.601	11434.5
320.426	9414.08
325.248	10196
330.068	13195.1
334.886	19411.4
339.701	10877.8
344.514	13658.2
349.324	27076.1
354.132	12220.9
358.938	4679.76
363.741	2860.2
368.541	2953.79
373.339	5361.33
378.135	14385.6
382.928	15705.6
387.718	8885.02
392.506	3045.82
397.292	923.869
402.075	92.0811
406.856	508.444
411.634	670.768
416.41	965.941
421.183	914.586
425.954	544.564
430.722	204.634
435.488	142.805
440.251	376.21
445.012	584.144
449.77	957.672
454.526	1835.76
459.28	3031.37
464.03	10955.5
468.779	13737.1
473.525	33860.2
478.268	37968.7
483.009	13955.8
487.747	5377.02
492.483	3368.79
497.217	3232.89
501.948	4583.27
506.676	2768.88
511.402	1252.67
516.125	804.76
520.846	702.202
525.565	969.023
530.281	1601.41
534.994	2895.35
539.705	5013.66
544.413	4224.29
549.119	4267.2
553.822	7361.17
558.523	12456
563.222	8704.25
567.917	3862.39
572.611	1778.98
577.302	992.96
581.99	443.735
586.676	232.347
591.359	161.668
596.04	1096.66
600.718	2266.28
605.394	5061.45
610.067	9204.17
614.737	13941.4
619.406	12147.1
624.071	8859.15
628.734	10791.6
633.395	19128.4
638.053	28175.8
642.708	20045.8
647.361	9297.39
652.012	4764.38
656.66	2758.56
661.305	1789.24
665.948	1024.84
670.588	895.019
675.226	822.713
679.861	828.58
684.494	1208.16
689.124	1552.91
693.752	1931.91
698.377	2771.67
702.999	3869.09
707.619	4251.15
712.237	3926.62
716.852	2953.35
721.464	2065.32
726.074	1064.54
730.681	816.326
735.286	782.939
739.888	739.305
744.488	738.257
749.085	843.149
753.68	1012.87
758.272	1108.98
762.861	868.805
767.448	616.976
772.033	459.957
776.614	350.318
781.194	189.644
785.77	171.004
790.345	15.29
794.916	31.6133
799.485	53.5635
804.052	99.0566
808.616	43.1103
813.177	34.2471
817.736	141.165
822.292	106.487
826.846	82.1689
831.397	115.331
835.945	92.6416
840.491	9.93164
845.035	50.8867
849.576	64.7793
854.114	179.568
858.65	291.714
863.183	234.368
867.713	268.49
872.241	288.097
876.767	391.234
881.29	421.773
885.81	440.519
890.328	338.681
894.843	561.472
899.356	653.552
903.866	757.966
908.373	541.886
912.878	853.838
917.38	703.252
921.88	810.66
926.377	845.33
930.872	683.014
935.364	709.24
939.853	945.005
944.34	1008.24
948.824	939.62
953.306	720.093
957.785	760.807
962.261	749.686
966.735	710.643
971.207	724.275
975.675	827.703
980.141	693.368
984.605	845.435
989.066	862.987
993.524	864.436
997.98	936.898
1002.43	915.222
1006.88	841.283
1011.33	832.952
1015.78	865.561
1020.22	677.93
1024.66	756.902
1029.1	667.021
1033.53	797.949
1037.97	744.575
1042.4	753.165
1046.82	681.983
1051.25	768.301
1055.67	790.96
1060.09	683.755
1064.51	733.96
1068.92	741.736
1073.33	732.825
1077.74	682.536
1082.15	750.429
1086.55	615.084
1090.95	769.438
1095.35	566.626
1099.75	749.754
1104.14	443.718
1108.53	372.29
1112.92	489.627
1117.31	526.841
1121.69	588.327
1126.07	545.303
1130.45	329.127
1134.82	235.649
1139.19	223.91
1143.57	163.359
1147.93	285.002
1152.3	189.837
1156.66	167.424
1161.02	182.707
1165.38	123.243
1169.73	60.8066
1174.08	108.533
1178.43	6.7832
1182.78	49.2246
1187.12	65.29
1191.46	48.4277
1195.8	36.7217
1200.14	73.126
1204.47	50.707
1208.8	199.696
1213.13	45.7549
1217.46	135.044
1221.78	132.144
1226.1	218.392
1230.42	83.6113
1234.73	93.2773
1239.04	63.0166
1243.35	43.1445
1247.66	10.6211
1251.97	0.290039
1256.27	77.3701
1260.57	60.0586
1264.86	74.7461
1269.16	35.3897
1273.45	116.053
1277.74	185.926
1282.03	104.708
1286.31	112.508
1290.59	9.75684
1294.87	72.6846
1299.14	181.106
1303.42	33.1709
1307.69	207.572
1311.95	60.4609
1316.22	129.675
1320.48	80.5947
1324.74	112.094
1329	111.113
1333.26	269.12
1337.51	30.7314
1341.76	43.8418
1346	199.508
1350.25	0.639648
1354.49	561.088
1358.73	61.9629
1362.96	133.67
1367.2	21.3799
1371.43	105.996
1375.66	172.699
1379.88	214.889
1384.11	190.58
1388.33	158.279
1392.54	97.541
1396.76	320.257
1400.97	24.0566
1405.18	210.129
1409.39	191.331
1413.59	243.425
1417.8	234.867
1421.99	180.544
1426.19	237.914
1430.38	229.559
1434.58	283.139
1438.77	230.737
1442.95	222.381
1447.13	72.7207
1451.32	138.891
1455.49	99.3125
1459.67	220.217
1463.84	237.366
1468.01	370.457
1472.18	147.668
1476.35	171.364
1480.51	85.0889
1484.67	59.5244
1488.83	203.473
1492.98	176.894
1497.13	164.219
1501.28	110.356
1505.43	370.969
1509.57	139.952
1513.71	108.556
1517.85	167.356
1521.99	165.227
1526.12	31.1455
1530.25	242.371
1534.38	250.907
1538.5	137.765
1542.62	0.396484
