Measurement: Raman, 514 nm, ccw, Raman Data Processed
Mineral: Baddeleyite
Rruff sample: R060016
Ideal chemistry: ZrO_2_
Locality: Wet Loo, Myanmar
Source: American Museum of Natural History
Description: Brown crystal fragment
Measured chemistry: (Zr_0.99_Ti_0.01_)_Î£=1_O_2_
Pin_id: M01376
Orientation: Laser parallel to c* (0 0 1). Fiducial mark perpendicular to laser is parallel to -a [-1 0 0]
Raman shift (cm-1)	intensity
135.707	0
140.633	0.244141
145.556	164.373
150.476	285.134
155.395	404.94
160.31	943.797
165.223	2379.25
170.134	5756.71
175.042	13057.9
179.947	15101.9
184.85	13078.4
189.751	21129.5
194.649	10544
199.544	1938.97
204.437	847.744
209.327	429.091
214.215	1043.38
219.1	1924.27
223.982	1898.29
228.862	388.701
233.74	5.41113
238.615	1.97168
243.487	36.8232
248.357	34.1416
253.224	64.9043
258.089	64.8242
262.951	189.64
267.811	181.89
272.668	181.205
277.523	490.053
282.375	472.293
287.224	606.19
292.071	1099.06
296.916	1693.32
301.758	2348.38
306.597	2875.98
311.434	2223.86
316.268	1956.48
321.099	3227.75
325.928	6325.55
330.755	11011.8
335.579	9843.43
340.4	6876.99
345.219	8387.91
350.035	6666.17
354.849	2496.68
359.66	1071.37
364.469	641.251
369.275	579.336
374.078	883.618
378.879	1484.03
383.678	1496.65
388.473	851.128
393.267	186.477
398.057	118.418
402.845	33.2988
407.631	64.1533
412.414	190.18
417.194	45.0049
421.972	26.8818
426.748	118.644
431.52	232.426
436.29	516.553
441.058	806.998
445.823	1361.72
450.586	2307.5
455.345	4103.7
460.103	8770.11
464.858	20069.7
469.61	39603.5
474.359	52144.5
479.106	33627.7
483.851	13097.1
488.593	6279.69
493.332	4330.5
498.069	3975.51
502.803	3460.74
507.535	1935.18
512.264	1102.84
516.99	839.725
521.714	748.83
526.435	1360.16
531.154	2399.82
535.87	4082.78
540.584	3935.51
545.295	3082.35
550.004	4565.9
554.709	6787.06
559.413	6225.81
564.113	2702
568.812	1023.37
573.507	456.482
578.2	83.7353
582.891	36.4961
587.578	10.251
592.264	63.7471
596.946	156.156
601.626	637.899
606.304	1313.98
610.979	2415.47
615.651	3150.17
620.321	2088.28
624.988	1007.3
629.653	613.689
634.315	637.446
638.974	734.579
643.631	491.183
648.285	223.12
652.937	87.4297
657.586	189.05
662.233	291.962
666.877	110.161
671.518	154.655
676.157	351.179
680.793	433.345
685.427	480.312
690.058	393.286
694.686	464.457
699.312	574.708
703.935	822.751
708.556	811.466
713.174	990.585
717.789	696.697
722.402	434.063
727.013	456.548
731.62	276.14
736.225	497.695
740.828	428.874
745.428	467.356
750.025	563.753
754.62	672.615
759.212	467.108
763.802	459.989
768.389	479.735
772.973	293.442
777.555	327.619
782.134	187.213
786.711	157.483
791.285	61.626
795.856	149.982
800.425	192.052
804.992	120.558
809.555	108.505
814.116	138.897
818.675	2.77734
823.231	37.7588
827.784	80.9062
832.335	78.0752
836.883	44.3887
841.428	26.9316
845.971	108.991
850.512	277.593
855.049	2.44727
859.584	93.3799
864.117	177.858
868.647	150.415
873.174	152.801
877.699	139.904
882.221	34.7695
886.741	70.4062
891.258	11.168
895.772	123.879
900.284	3.11816
904.793	68.1133
909.3	69.9707
913.803	283.272
918.305	119.032
922.804	117.367
927.3	106.459
931.793	234.998
936.284	173.939
940.773	73.1816
945.258	88.1309
949.742	243.584
954.222	100.031
958.7	151.307
963.176	121.682
967.648	143.525
972.119	82.0117
976.586	244.752
981.051	160.963
985.513	178.803
989.973	315.947
994.43	257.566
998.885	253.891
1003.34	221.92
1007.79	204.629
1012.23	137.557
1016.68	97.2734
1021.12	182.881
1025.56	172.252
1029.99	44.8691
1034.43	111.303
1038.86	243.58
1043.29	324.676
1047.71	201.594
1052.14	206.281
1056.56	38.1406
1060.98	119.039
1065.39	157.332
1069.8	206.676
1074.21	82.0977
1078.62	231.066
1083.03	184.731
1087.43	173.824
1091.83	29.1934
1096.23	47.5586
1100.62	290.848
1105.01	148.953
1109.4	90.2109
1113.79	138.107
1118.17	203.041
1122.56	202.701
1126.93	75.4805
1131.31	325.123
1135.69	97.125
1140.06	189.01
1144.42	167.836
1148.79	287.447
1153.15	317.908
1157.52	67.5879
1161.87	131.981
1166.23	104.539
1170.58	188.144
1174.93	73.4238
1179.28	206.188
1183.63	51.0059
1187.97	178.723
1192.31	45.6348
1196.65	115.592
1200.98	151.566
1205.31	273.4
1209.64	353.894
1213.97	171.82
1218.29	154.889
1222.62	37.9688
1226.93	226.178
1231.25	205.453
1235.57	279.816
1239.88	221.246
1244.18	104.037
1248.49	259.176
1252.8	115.672
1257.1	357.121
1261.39	241.609
1265.69	173.191
1269.98	271.879
1274.27	203.67
1278.56	163.578
1282.85	41.6074
1287.13	298.738
1291.41	287.531
1295.69	259.938
1299.96	67.4922
1304.23	106.141
1308.5	216.938
1312.77	191.906
1317.03	98.0195
1321.3	291.242
1325.56	145.588
1329.81	177.06
1334.07	192.685
1338.32	120.133
1342.57	148.049
1346.81	108.053
1351.06	281.215
1355.3	227.545
1359.54	117.043
1363.77	50.7129
1368	191.565
1372.23	69.3594
1376.46	211.975
1380.69	132.102
1384.91	208.826
1389.13	300.096
1393.35	62.3965
1397.56	51.9219
1401.77	243.361
1405.98	163.32
1410.19	94.5625
1414.39	105.617
1418.6	72.4394
1422.8	60.1367
1426.99	148.594
1431.19	186.117
1435.38	275.975
1439.57	118.578
1443.75	71.6094
1447.94	289.897
1452.12	255.625
1456.3	164.668
1460.47	168.01
1464.64	214.652
1468.82	194.519
1472.98	265.492
1477.15	309.639
1481.31	149.828
1485.47	17.5332
1489.63	131.596
1493.78	209.955
1497.94	151.617
1502.09	83.4883
1506.23	39.8594
1510.38	78.8906
1514.52	98.3379
1518.66	46.4004
1522.8	136.144
1526.93	280.873
1531.06	216.787
1535.19	311.248
1539.32	95.7461
1543.44	35.2656
1547.56	308.256
1551.68	286.211
1555.79	83.9434
1559.91	0.929688
