Measurement: Raman, 514 nm, ccw, Raman Data Processed
Mineral: Baddeleyite
Rruff sample: R060016
Ideal chemistry: ZrO_2_
Locality: Wet Loo, Myanmar
Source: American Museum of Natural History
Description: Brown crystal fragment
Measured chemistry: (Zr_0.99_Ti_0.01_)_Î£=1_O_2_
Pin_id: M00083
Orientation: Laser parallel to (1 0 -1). Fiducial mark perpendicular to laser is parallel to b [0 1 0]
Raman shift (cm-1)	intensity
40.393	0
45.367	14.4946
50.339	22.7264
55.309	40.7322
60.276	79.4516
65.24	55.3982
70.202	11.28
75.161	23.2566
80.118	10.283
85.072	24.8161
90.024	358.555
94.973	1804.62
99.919	5944.07
104.863	4924.29
109.805	1556.21
114.744	865.517
119.681	691.713
124.615	664.435
129.546	680.484
134.475	645.63
139.401	718.95
144.325	717.799
149.247	738.326
154.165	846.651
159.082	1119.34
163.995	2158.19
168.906	5610.93
173.815	10664.8
178.721	12696.7
183.625	6490.66
188.526	6584.11
193.424	4184.68
198.32	1260.74
203.214	724.336
208.105	778.035
212.993	1200.8
217.879	2026.18
222.762	1995.02
227.643	759.78
232.521	380.292
237.396	341.589
242.269	358.288
247.14	336.363
252.008	277.788
256.873	330.036
261.736	318.022
266.596	303.33
271.454	382.353
276.309	465.455
281.162	563.763
286.012	685.018
290.86	968.035
295.705	1463.45
300.547	2153.99
305.387	2795.62
310.225	2474.31
315.059	2274.03
319.892	3802.77
324.721	8215.55
329.549	13666.4
334.373	11793.2
339.195	5437.14
344.015	3762.18
348.832	2791.33
353.646	1184.62
358.458	583.05
363.267	404.637
368.074	445.406
372.878	640.402
377.679	856.584
382.478	680.896
387.275	325.336
392.069	157.902
396.86	10.5939
401.649	67.7941
406.435	49.6051
411.219	79.9424
416	102.917
420.778	104.696
425.554	51.1426
430.327	26.0497
435.098	37.8888
439.866	138.886
444.632	271.078
449.395	492.474
454.156	949.085
458.914	2054.92
463.669	4746.99
468.422	9347.3
473.172	12476.9
477.92	8443.69
482.665	3569.8
487.408	2390.18
492.148	3109.85
496.885	4904.81
501.62	5177.08
506.352	2454.65
511.082	963.542
515.809	547.752
520.533	627.288
525.255	1161.16
529.975	2592.36
534.692	4277.93
539.406	3685.41
544.118	2030.81
548.827	1652.2
553.533	1955.06
558.237	1698.47
562.938	862.908
567.637	368.2
572.333	189.643
577.027	161.512
581.718	180.899
586.407	318.959
591.093	673.638
595.776	1323.89
600.457	2607.72
605.135	5326.12
609.81	9564.07
614.483	12358.6
619.154	9821.61
623.822	7333.2
628.487	8619.33
633.15	11573
637.81	11773.2
642.467	7292.87
647.122	3773.08
651.774	2060.8
656.424	1269.02
661.071	780.715
665.716	538.929
670.358	380.591
674.997	342.272
679.634	222.47
684.268	192.337
688.9	222.131
693.529	261.808
698.156	269.619
702.78	315.442
707.401	337.186
712.02	285.565
716.636	261.744
721.249	206.447
725.86	197.296
730.469	245.783
735.074	298.361
739.678	439.393
744.278	634.688
748.876	881.51
753.472	1017.3
758.064	893.91
762.655	692.882
767.242	501.706
771.827	303.986
776.41	216.611
780.99	154.512
785.567	85.5476
790.142	28.0572
794.714	55.6453
799.283	21.3101
803.85	3.85132
808.415	22.1821
812.976	4.49634
817.535	21.1199
822.092	32.0591
826.646	15.3457
831.197	27.0398
835.746	27.2693
840.292	16.5104
844.836	21.7974
849.377	6.71704
853.915	7.24793
858.451	11.2114
862.984	34.0865
867.515	52.2996
872.043	15.9338
876.568	47.8652
881.091	34.7808
885.611	65.4535
890.129	45.7253
894.644	72.6479
899.156	74.3925
903.666	68.9359
908.173	110.763
912.678	103.644
917.18	86.095
921.679	120.234
926.176	104.86
930.67	111.145
935.162	134.904
939.651	101.199
944.137	130.668
948.621	109.517
953.102	97.3141
957.581	106.66
962.057	73.0997
966.53	68.2982
971.001	38.9355
975.469	81.4341
979.935	55.4158
984.398	71.4673
988.859	59.8657
993.316	64.5868
997.772	51.564
1002.22	84.0822
1006.67	47.3193
1011.12	35.9446
1015.57	44.0172
1020.01	47.4341
1024.45	26.902
1028.88	71.2852
1033.32	10.8097
1037.75	79.3029
1042.18	13.6287
1046.61	23.2288
1051.03	4.27136
1055.45	62.4037
1059.87	45.6788
1064.29	16.8483
1068.7	27.8076
1073.11	14.5181
1077.52	3.01428
1081.93	47.2495
1086.33	40.663
1090.73	39.7698
1095.13	9.53278
1099.52	6.93848
1103.92	24.392
1108.31	31.4711
1112.69	9.25336
1117.08	67.4534
1121.46	34.7152
1125.84	36.0794
1130.22	47.6754
1134.59	62.0376
1138.96	67.5883
1143.33	97.473
1147.7	97.1219
1152.06	76.6618
1156.43	46.181
1160.79	18.8764
1165.14	36.1332
1169.49	46.65
1173.85	30.2535
1178.19	26.6513
1182.54	27.1261
1186.88	31.7183
1191.22	27.2864
1195.56	41.853
1199.9	23.726
1204.23	32.6191
1208.56	28.0987
1212.89	48.1555
1217.21	21.2359
1221.54	30.6019
1225.86	40.7861
1230.17	30.7878
1234.49	16.0147
1238.8	32.2946
1243.11	46.5879
1247.41	16.923
1251.72	9.28381
1256.02	1.32733
1260.32	38.0814
1264.62	10.1116
1268.91	15.5686
1273.2	30.0662
1277.49	22.6122
1281.78	34.1621
1286.06	4.74292
1290.34	39.3521
1294.62	14.9838
1298.89	1.3584
1303.16	30.3149
1307.44	15.0066
1311.7	36.713
1315.97	17.4301
1320.23	38.1484
1324.49	8.87726
1328.75	24.6146
1333	0.656555
1337.25	0.092896
1341.5	23.8566
1345.75	8.78192
1349.99	44.004
1354.24	23.8023
1358.47	29.0889
1362.71	27.2916
1366.94	53.7054
1371.18	45.4233
1375.4	6.14264
1379.63	17.0174
1383.85	41.8694
1388.08	10.3228
1392.29	39.5405
1396.51	36.5878
1400.72	4.29602
1404.93	64.1049
1409.14	31.0511
1413.35	63.7293
1417.55	55.5586
1421.75	59.2916
1425.94	46.0511
1430.14	41.5109
1434.33	80.8539
1438.52	45.7194
1442.71	52.7786
1446.89	38.822
1451.07	15.9572
1455.25	51.4103
1459.43	7.15082
1463.6	30.074
1467.77	25.0188
1471.94	70.9736
1476.11	6.07446
1480.27	19.9874
1484.43	43.0701
1488.59	42.6464
1492.74	37.4224
1496.9	37.4438
1501.05	25.0004
1505.2	17.879
1509.34	49.8087
1513.48	17.8613
1517.62	18.2612
1521.76	0.01416
1525.9	28.0588
1530.03	43.1703
1534.16	16.1206
1538.28	33.8901
1542.41	49.754
1546.53	32.5523
1550.65	19.2561
1554.77	39.8878
1558.88	0.193787
