Measurement: Raman, 514 nm, ccw, Raman Data Processed
Mineral: Baddeleyite
Rruff sample: R060016
Ideal chemistry: ZrO_2_
Locality: Wet Loo, Myanmar
Source: American Museum of Natural History
Description: Brown crystal fragment
Measured chemistry: (Zr_0.99_Ti_0.01_)_Î£=1_O_2_
Pin_id: M00302
Orientation: Laser parallel to a* (1 0 0). Fiducial mark perpendicular to laser is parallel to b [0 1 0]
Raman shift (cm-1)	intensity
40.393	0
45.367	21.4219
50.339	30.6733
55.309	54.7363
60.276	87.5887
65.24	67.9674
70.202	17.7553
75.161	0.760956
80.118	24.6225
85.072	1.03009
90.024	151.711
94.973	829.377
99.919	3555.03
104.863	3475.89
109.805	1119.87
114.744	696.83
119.681	501.55
124.615	518.768
129.546	518.273
134.475	530.908
139.401	625.572
144.325	667.677
149.247	761.319
154.165	894.273
159.082	1219.94
163.995	2041.75
168.906	4881.86
173.815	13263.2
178.721	19318.9
183.625	12461.9
188.526	25044.1
193.424	18757.6
198.32	3406.67
203.214	1121.18
208.105	568.085
212.993	500.4
217.879	670.279
222.762	693.945
227.643	296.98
232.521	78.9672
237.396	70.738
242.269	34.9125
247.14	49.4783
252.008	34.42
256.873	13.2749
261.736	77.056
266.596	38.5415
271.454	57.1135
276.309	149.807
281.162	239.267
286.012	377.803
290.86	562.056
295.705	1000.65
300.547	1929.68
305.387	3062.08
310.225	2493.86
315.059	1396.88
319.892	1133.12
324.721	1650.6
329.549	2906.31
334.373	3652.25
339.195	4364.44
344.015	8105.9
348.832	8892.63
353.646	3772.66
358.458	1227.01
363.267	621.677
368.074	541.684
372.878	668.065
377.679	1169.84
382.478	1622.93
387.275	1039.34
392.069	333.045
396.86	12.0576
401.649	36.7112
406.435	56.5183
411.219	32.5177
416	96.6952
420.778	50.1897
425.554	21.2645
430.327	169.993
435.098	360.05
439.866	680.44
444.632	1159.66
449.395	1962.52
454.156	3642.58
458.914	7149.31
463.669	16077.4
468.422	36278.8
473.172	63240.5
477.92	49481.6
482.665	18992.1
487.408	8164.85
492.148	4762.01
496.885	3610.51
501.62	3070.38
506.352	1873.61
511.082	1080.2
515.809	823.151
520.533	599.463
525.255	591.136
529.975	709.172
534.692	1159.58
539.406	1445.1
544.118	1847.28
548.827	3618.69
553.533	6760.53
558.237	7933.24
562.938	4050.67
567.637	1505.04
572.333	523.203
577.027	184.899
581.718	18.9002
586.407	71.2484
591.093	41.4196
595.776	38.6642
600.457	297.153
605.135	951.056
609.81	2083.37
614.483	3029.11
619.154	2312.32
623.822	1257.92
628.487	1167.94
633.15	1450.37
637.81	1444.19
642.467	904.403
647.122	404.01
651.774	254.994
656.424	153.338
661.071	90.0399
665.716	125.088
670.358	130.751
674.997	186.48
679.634	160.533
684.268	181.302
688.9	305.782
693.529	317.482
698.156	381.401
702.78	485.385
707.401	467.97
712.02	491.579
716.636	451.373
721.249	391.784
725.86	324.996
730.469	281.808
735.074	343.56
739.678	359.013
744.278	417.671
748.876	480.341
753.472	491.344
758.064	412.326
762.655	364.143
767.242	305.354
771.827	185.481
776.41	195.063
780.99	106.644
785.567	107.421
790.142	117.357
794.714	25.2201
799.283	83.8366
803.85	78.5284
808.415	61.5773
812.976	18.912
817.535	23.217
822.092	43.6345
826.646	13.2554
831.197	12.5513
835.746	38.3479
840.292	34.806
844.836	44.6672
849.377	6.60657
853.915	17.3133
858.451	14.3301
862.984	28.257
867.515	1.82312
872.043	50.9802
876.568	36.8225
881.091	41.3212
885.611	36.9365
890.129	47.3124
894.644	30.4042
899.156	39.3464
903.666	50.9838
908.173	50.1371
912.678	23.2801
917.18	39.9158
921.679	39.2097
926.176	66.0901
930.67	59.8951
935.162	95.4526
939.651	89.7019
944.137	60.189
948.621	56.4689
953.102	69.0623
957.581	79.2568
962.057	42.1926
966.53	23.4094
971.001	50.6491
975.469	27.4412
979.935	92.6111
984.398	33.0938
988.859	66.6681
993.316	56.5692
997.772	68.4722
1002.22	66.4373
1006.67	55.0398
1011.12	65.4183
1015.57	65.6188
1020.01	62.615
1024.45	71.3742
1028.88	27.6823
1033.32	23.1009
1037.75	42.3043
1042.18	68.302
1046.61	33.2624
1051.03	47.4518
1055.45	66.9799
1059.87	20.9102
1064.29	48.4539
1068.7	14.4253
1073.11	42.1063
1077.52	9.8609
1081.93	38.0907
1086.33	45.7816
1090.73	48.5076
1095.13	6.13751
1099.52	37.1043
1103.92	33.8787
1108.31	33.1489
1112.69	7.03638
1117.08	20.4257
1121.46	36.5337
1125.84	14.8097
1130.22	34.2231
1134.59	21.6514
1138.96	29.0764
1143.33	26.3679
1147.7	26.5319
1152.06	15.1883
1156.43	24.4041
1160.79	29.5955
1165.14	31.3135
1169.49	13.3848
1173.85	37.5601
1178.19	2.05969
1182.54	34.7301
1186.88	33.7925
1191.22	7.15247
1195.56	13.8786
1199.9	8.37799
1204.23	8.65234
1208.56	13.5896
1212.89	30.0075
1217.21	39.1317
1221.54	67.2994
1225.86	72.2338
1230.17	37.3237
1234.49	38.6659
1238.8	16.4848
1243.11	35.5463
1247.41	27.4127
1251.72	25.5679
1256.02	16.2419
1260.32	76.8722
1264.62	69.1515
1268.91	45.5226
1273.2	31.9086
1277.49	2.31103
1281.78	42.7197
1286.06	27.1317
1290.34	30.8762
1294.62	9.3194
1298.89	31.8156
1303.16	27.3357
1307.44	40.757
1311.7	43.2975
1315.97	48.819
1320.23	52.1231
1324.49	31.2839
1328.75	14.9467
1333	38.6398
1337.25	20.1739
1341.5	11.929
1345.75	36.7144
1349.99	19.518
1354.24	21.7197
1358.47	29.5421
1362.71	13.9484
1366.94	45.8743
1371.18	33.8342
1375.4	8.2923
1379.63	0.673828
1383.85	38.3711
1388.08	43.4442
1392.29	22.5523
1396.51	64.6866
1400.72	47.8371
1404.93	31.0379
1409.14	47.8614
1413.35	38.1393
1417.55	19.4963
1421.75	48.0307
1425.94	46.4594
1430.14	61.9338
1434.33	36.6245
1438.52	10.7457
1442.71	32.052
1446.89	33.4293
1451.07	13.1365
1455.25	57.4951
1459.43	20.8818
1463.6	40.3256
1467.77	11.9249
1471.94	41.5693
1476.11	9.34515
1480.27	49.4053
1484.43	50.2109
1488.59	26.0929
1492.74	17.1481
1496.9	48.0106
1501.05	64.0375
1505.2	28.1565
1509.34	77.4473
1513.48	39.6
1517.62	85.8436
1521.76	48.1193
1525.9	69.8973
1530.03	11.1538
1534.16	37.4335
1538.28	56.0088
1542.41	12.7708
1546.53	27.9247
1550.65	28.5414
1554.77	19.0356
1558.88	29.2326
