Measurement: Raman, 514 nm, ccw, Raman Data Processed
Mineral: Baddeleyite
Rruff sample: R060016
Ideal chemistry: ZrO_2_
Locality: Wet Loo, Myanmar
Source: American Museum of Natural History
Description: Brown crystal fragment
Measured chemistry: (Zr_0.99_Ti_0.01_)_Î£=1_O_2_
Pin_id: M01376
Orientation: Laser parallel to c* (0 0 1). Fiducial mark perpendicular to laser is parallel to -a [-1 0 0]
Raman shift (cm-1)	intensity
162.767	0
167.679	219.117
172.588	782.017
177.495	1803.29
182.399	2849.96
187.301	4296.85
192.2	4559.64
197.097	1222.34
201.991	671.018
206.882	387.312
211.771	483.704
216.657	634.63
221.541	816.742
226.423	294.885
231.301	151.484
236.178	63.5195
241.051	225.336
245.923	356.428
250.791	663.927
255.657	726.014
260.521	779.277
265.382	658.416
270.24	629.697
275.096	919.651
279.949	1273.35
284.8	2002.98
289.648	2759.43
294.494	3031.25
299.337	3295.58
304.177	3665.63
309.015	3477.06
313.851	3102.19
318.684	3326.93
323.514	3820.61
328.342	4660.03
333.167	4459.66
337.99	2835.08
342.81	2144.91
347.628	2295.59
352.443	1117.28
357.255	485.9
362.065	479.353
366.872	737.573
371.677	1702.43
376.479	2920.53
381.279	3100.07
386.076	2030.82
390.87	703.972
395.662	112.544
400.452	130.542
405.239	112.971
410.023	261.17
414.805	213.411
419.584	1.47754
424.36	42.3174
429.134	108.455
433.906	301.007
438.675	225.991
443.441	591.477
448.205	690.567
452.966	1062.62
457.724	1656.13
462.481	2970.42
467.234	6264.96
471.985	9171.2
476.733	8086.11
481.479	3689.68
486.222	1870.9
490.963	1482.78
495.701	1213.32
500.436	1261.53
505.169	860.415
509.9	754.014
514.627	621.423
519.353	598.643
524.075	896.742
528.795	1273.85
533.513	1805.19
538.228	2048.09
542.94	2300.86
547.65	3157.3
552.357	4864.58
557.061	5554.78
561.763	3808.78
566.463	2017.67
571.16	1258.82
575.854	659.657
580.546	676.742
585.235	590.054
589.921	610.601
594.605	960.382
599.287	1773.4
603.965	2749.65
608.642	3606.17
613.315	3362
617.986	2487.12
622.655	1528.54
627.321	1383.24
631.984	1717.25
636.645	1911.55
641.303	1343.2
645.959	653.009
650.612	358.258
655.262	353.675
659.91	323.889
664.555	230.844
669.198	120.501
673.838	313.847
678.475	553.276
683.11	617.166
687.742	843.725
692.372	1106.54
696.999	1591.16
701.624	1970.68
706.246	2036.59
710.865	1821.51
715.482	1381.94
720.096	853.904
724.708	504.736
729.317	440.691
733.923	308.095
738.527	100.35
743.128	151.938
747.727	354.648
752.323	220.083
756.916	367.798
761.507	263.765
766.096	173.933
770.681	153.867
775.264	187.965
779.845	145.918
784.423	50.7568
788.998	36.623
793.571	60.2119
798.141	63.9941
802.709	73.6875
807.274	134.425
811.836	34.8565
816.396	4.88965
820.953	5.26269
825.508	1.53613
830.06	124.202
834.609	76.4736
839.156	64.0469
843.7	25.2344
848.242	59.7422
852.781	152.756
857.317	127.292
861.851	199.88
866.382	111.835
870.911	182.862
875.437	217.115
879.96	57.8838
884.481	24.3135
888.999	141.575
893.515	104.124
898.028	83.7578
902.539	254.577
907.047	107.192
911.552	135.077
916.054	228.505
920.555	189.603
925.052	206.059
929.547	183.365
934.039	163.483
938.529	269.291
943.016	214.216
947.5	251.663
951.982	239.668
956.462	171.297
960.938	21.2578
965.412	181.628
969.884	218.024
974.353	119.391
978.819	206.373
983.283	80.1269
987.744	201.209
992.202	156.503
996.658	14.3418
1001.11	35.1953
1005.56	308.509
1010.01	249.307
1014.46	116.96
1018.9	248.299
1023.34	227.144
1027.78	163.412
1032.21	206.893
1036.64	28.5508
1041.07	118.519
1045.5	129.471
1049.92	176.407
1054.35	193.057
1058.77	54.6631
1063.18	116.042
1067.6	184.367
1072.01	47.5049
1076.42	284.856
1080.83	50.3525
1085.23	125.691
1089.63	156.9
1094.03	194.644
1098.42	189.304
1102.82	132.155
1107.21	0.995117
1111.6	34.5185
1115.98	129.619
1120.37	148.292
1124.75	127.635
1129.12	130.38
1133.5	248.004
1137.87	122.426
1142.24	128.11
1146.61	143.015
1150.97	34.3486
1155.34	50.8906
1159.69	88.6426
1164.05	113.955
1168.41	202.081
1172.76	118.897
1177.11	45.5586
1181.45	174.202
1185.8	163.834
1190.14	93.2939
1194.48	30.5078
1198.81	44.9121
1203.15	44.25
1207.48	233.808
1211.81	185.138
1216.13	133.713
1220.45	27.3037
1224.78	91.8389
1229.09	229.885
1233.41	280.702
1237.72	252.046
1242.03	4.80762
1246.34	116.602
1250.64	1.27637
1254.94	123.958
1259.24	262.216
1263.54	21.8594
1267.84	86.2812
1272.13	185.471
1276.42	58.6562
1280.7	52.8496
1284.99	193.622
1289.27	6.72168
1293.55	118.257
1297.82	181.902
1302.1	154.682
1306.37	110.586
1310.64	138.61
1314.9	158.748
1319.16	90.9736
1323.43	119.378
1327.68	233.734
1331.94	177.078
1336.19	100.814
1340.44	214.722
1344.69	212.755
1348.93	172.921
1353.18	283.159
1357.42	167.599
1361.65	240.18
1365.89	126.916
1370.12	194.958
1374.35	158.288
1378.58	71.6436
1382.8	107.348
1387.02	163.103
1391.24	108.057
1395.45	115.502
1399.67	126.513
1403.88	117.257
1408.09	207.778
1412.29	105.986
1416.5	201.473
1420.7	116.585
1424.89	166.32
1429.09	247.776
1433.28	225.341
1437.47	208.538
1441.66	97.1689
1445.85	81.0449
1450.03	265.236
1454.21	121.686
1458.38	167.394
1462.56	120.935
1466.73	169.171
1470.9	175.715
1475.07	122.645
1479.23	133.619
1483.39	322
1487.55	98.5615
1491.71	59.4697
1495.86	220.623
1500.01	109.033
1504.16	168.789
1508.31	38.9326
1512.45	16.1055
1516.59	9.33594
1520.73	176.413
1524.86	113.218
1528.99	100.847
1533.12	103.489
1537.25	312.489
1541.38	68.5654
1545.5	157.836
1549.62	289.177
1553.74	171.943
1557.85	197.593
1561.96	0
