Measurement: Raman, 514 nm, ccw, Raman Data Processed
Mineral: Baddeleyite
Rruff sample: R060078
Ideal chemistry: ZrO_2_
Locality: Wetloo mine, Mogok, Burma
Source: Marcus Origlieri
Description: Dark brown fragment
Measured chemistry: (Zr_0.99_Hf_0.01_)_Î£=1_O_2_
Pin_id: L00545
Orientation: Laser parallel to b* (0 1 0). Fiducial mark perpendicular to laser is parallel to c [0 0 1]
Raman shift (cm-1)	intensity
51.431	0
56.387	277.24
61.341	191.565
66.292	98.8496
71.241	224.092
76.187	717.029
81.131	1797.39
86.072	2786.78
91.012	5058.35
95.948	12349.8
100.883	8467.75
105.815	6345.74
110.744	5612.29
115.671	4936
120.596	4401.71
125.519	3934.54
130.439	3631.16
135.356	3561.43
140.271	3500.54
145.184	3495.21
150.094	3975.16
155.002	4605.96
159.908	5673.2
164.811	9088.31
169.711	25207.1
174.61	18865
179.505	26933.9
184.399	53585
189.29	25357
194.178	14701.9
199.064	9519.26
203.948	7683.02
208.829	6409.84
213.708	6698.09
218.585	5682.58
223.459	4774.52
228.33	4688.72
233.199	4325.43
238.066	4593.01
242.93	4795.97
247.792	5000.93
252.651	5386.6
257.508	4999.02
262.363	4921.46
267.215	5054.56
272.064	5561.77
276.912	6890.47
281.756	8107.91
286.598	9290.84
291.438	11740.8
296.276	16928.3
301.111	20586.6
305.943	15898.4
310.773	12032.6
315.601	10382.8
320.426	10316
325.248	10590.2
330.068	10100.1
334.886	16037
339.701	34421.5
344.514	27190.9
349.324	13885.9
354.132	7222.76
358.938	4208.68
363.741	3937.48
368.541	6450.8
373.339	9297.55
378.135	7697.56
382.928	4312.77
387.718	2108.1
392.506	555.505
397.292	47.9092
402.075	238.276
406.856	753.078
411.634	668.82
416.41	593.699
421.183	352.866
425.954	41.2725
430.722	9.30664
435.488	276.725
440.251	311.78
445.012	590.481
449.77	897.802
454.526	1510.07
459.28	2715.24
464.03	6823.32
468.779	10838
473.525	6807.15
478.268	2963.88
483.009	1512.13
487.747	1101.9
492.483	1349.16
497.217	1096.89
501.948	681.034
506.676	289.567
511.402	99.4658
516.125	232.886
520.846	619.108
525.565	992.172
530.281	1633.06
534.994	1938.9
539.705	2497.58
544.413	4511.23
549.119	8247.01
553.822	8462.58
558.523	5291.75
563.222	3044.51
567.917	1803.82
572.611	919.943
577.302	477.425
581.99	572.758
586.676	818.195
591.359	1538.04
596.04	3038.22
600.718	5685.69
605.394	8048.6
610.067	8491.95
614.737	6667.71
619.406	5694.81
624.071	7831.2
628.734	13183.9
633.395	14264.8
638.053	9239.85
642.708	4865.11
647.361	2652.51
652.012	1622.57
656.66	1275.71
661.305	984.059
665.948	999.975
670.588	1090.61
675.226	1259.91
679.861	1784.96
684.494	2055.87
689.124	2619.07
693.752	3720.87
698.377	4475.38
702.999	4940.21
707.619	4372.04
712.237	3303.67
716.852	2348.36
721.464	1654.91
726.074	1222.65
730.681	1018
735.286	903.76
739.888	866.084
744.488	814.881
749.085	812.837
753.68	636.037
758.272	658.785
762.861	379.635
767.448	287.94
772.033	310.107
776.614	126.147
781.194	146.523
785.77	98.5249
790.345	63.8433
794.916	191.955
799.485	2.0669
804.052	95.6968
808.616	131.185
813.177	101.668
817.736	54.9453
822.292	68.2305
826.846	34.1631
831.397	41.2183
835.945	14.6904
840.491	84.6577
845.035	48.5767
849.576	160.967
854.114	178.035
858.65	220.877
863.183	269.535
867.713	281.081
872.241	332.514
876.767	382.869
881.29	250.368
885.81	344.17
890.328	423.103
894.843	416.96
899.356	431.739
903.866	449.434
908.373	514.05
912.878	537.615
917.38	544.166
921.88	470.759
926.377	552.395
930.872	472.756
935.364	572.107
939.853	446.272
944.34	495.294
948.824	447.24
953.306	365.511
957.785	419.385
962.261	330.714
966.735	244.171
971.207	357.798
975.675	308.895
980.141	316.693
984.605	297.153
989.066	401.664
993.524	397.288
997.98	392.176
1002.43	368.106
1006.88	230.245
1011.33	237.199
1015.78	254.035
1020.22	238.184
1024.66	373.273
1029.1	338.566
1033.53	194.299
1037.97	323.845
1042.4	267.867
1046.82	148.478
1051.25	269.966
1055.67	218.46
1060.09	159.875
1064.51	170.177
1068.92	152.346
1073.33	110.195
1077.74	142.905
1082.15	140.505
1086.55	93.6021
1090.95	32.1089
1095.35	156.461
1099.75	101.792
1104.14	86.417
1108.53	11.4121
1112.92	1.57275
1117.31	116.849
1121.69	269.215
1126.07	161.627
1130.45	99.0669
1134.82	46.5029
1139.19	106.952
1143.57	14.4043
1147.93	114.895
1152.3	46.5347
1156.66	17.0039
1161.02	41.5723
1165.38	63.1787
1169.73	101.832
1174.08	63.4595
1178.43	8.79395
1182.78	99.2222
1187.12	145.192
1191.46	104.586
1195.8	47.689
1200.14	66.3115
1204.47	4.98731
1208.8	149.287
1213.13	222.147
1217.46	269.808
1221.78	309.395
1226.1	222.352
1230.42	139.43
1234.73	157.074
1239.04	180.135
1243.35	158.672
1247.66	161.439
1251.97	83.5288
1256.27	32.6504
1260.57	107.058
1264.86	41.0215
1269.16	108.293
1273.45	105.523
1277.74	103.858
1282.03	159.881
1286.31	36.1914
1290.59	21.6987
1294.87	109.111
1299.14	53.6733
1303.42	186.153
1307.69	129.326
1311.95	52.0903
1316.22	84.7588
1320.48	139.922
1324.74	142.037
1329	6.70703
1333.26	191.184
1337.51	189.572
1341.76	15.1572
1346	24.8628
1350.25	128.677
1354.49	43.5356
1358.73	101.601
1362.96	154.75
1367.2	195.998
1371.43	44.6084
1375.66	90.9043
1379.88	96.1773
1384.11	42.4605
1388.33	160.136
1392.54	142.426
1396.76	238.269
1400.97	229.723
1405.18	116.244
1409.39	117.647
1413.59	114.538
1417.8	43.0591
1421.99	77.146
1426.19	134.134
1430.38	145.06
1434.58	95.8589
1438.77	132.474
1442.95	72.2993
1447.13	81.7344
1451.32	129.103
1455.49	76.605
1459.67	101.178
1463.84	28.4595
1468.01	119.917
1472.18	36.3921
1476.35	24.9502
1480.51	174.528
1484.67	156.948
1488.83	665.407
1492.98	145.929
1497.13	202.509
1501.28	81.2256
1505.43	50.106
1509.57	131.178
1513.71	1.51318
1517.85	108.997
1521.99	16.6929
1526.12	54.3447
1530.25	46.0337
1534.38	145.116
1538.5	42.478
1542.62	85.2983
1546.74	153.401
1550.86	160.627
1554.98	270.792
1559.09	51.0713
1563.2	121.969
1567.31	110.745
