Measurement: Raman, 514 nm, ccw, Raman Data Processed
Mineral: Baddeleyite
Rruff sample: R060078
Ideal chemistry: ZrO_2_
Locality: Wetloo mine, Mogok, Burma
Source: Marcus Origlieri
Description: Dark brown fragment
Measured chemistry: (Zr_0.99_Hf_0.01_)_Î£=1_O_2_
Pin_id: L00612
Orientation: Laser parallel to (1 0 1). Fiducial mark perpendicular to laser is parallel to b [0 1 0]
Raman shift (cm-1)	intensity
51.431	0
56.387	46.7443
61.341	58.5612
66.292	16.7621
71.241	378.631
76.187	377.444
81.131	550.156
86.072	736.483
91.012	1560.96
95.948	2746.73
100.883	4408.44
105.815	7048.39
110.744	3452.56
115.671	1739.21
120.596	1107.81
125.519	957.805
130.439	1008.3
135.356	866.236
140.271	1022.36
145.184	858.943
150.094	926.106
155.002	1129.89
159.908	1233.72
164.811	2205.92
169.711	5129.98
174.61	9648.16
179.505	19220.3
184.399	15137.3
189.29	16805.2
194.178	24876.1
199.064	5853.1
203.948	2369.49
208.829	1091.89
213.708	1559.53
218.585	2639.26
223.459	4688.03
228.33	2363.62
233.199	515.834
238.066	223.512
242.93	128.536
247.792	83.8135
252.651	34.2685
257.508	84.8325
262.363	191.061
267.215	68.9375
272.064	133.861
276.912	148.805
281.756	372.758
286.598	697.167
291.438	913.19
296.276	1394.46
301.111	2198.43
305.943	3342.1
310.773	3483.42
315.601	2696.26
320.426	3349.58
325.248	6782.92
330.068	12828.5
334.886	19103.2
339.701	11171.3
344.514	8228.77
349.324	9424.93
354.132	4968.82
358.938	1899.51
363.741	1030.88
368.541	1158.88
373.339	1985.5
378.135	3961.69
382.928	5872.45
387.718	5048.75
392.506	1934.57
397.292	566.91
402.075	158.749
406.856	4.03418
411.634	108.745
416.41	147.222
421.183	156.679
425.954	71.292
430.722	4.50806
435.488	233.35
440.251	514.63
445.012	971.853
449.77	1687.3
454.526	3269.07
459.28	6458.19
464.03	14024.8
468.779	30949.8
473.525	53505.3
478.268	56620.3
483.009	24872.7
487.747	10282.6
492.483	5943.95
497.217	4857.78
501.948	4573.88
506.676	3298.79
511.402	1690.96
516.125	1252.58
520.846	1074.64
525.565	1352.14
530.281	2676.08
534.994	5046.49
539.705	7004.46
544.413	4733.98
549.119	4415.73
553.822	6709.91
558.523	8873.39
563.222	5744.27
567.917	2261.37
572.611	912.241
577.302	333
581.99	4.8396
586.676	54.7146
591.359	5.7146
596.04	171.853
600.718	510.067
605.394	1534.85
610.067	3064.2
614.737	4869.15
619.406	4167.63
624.071	2238.64
628.734	1362.19
633.395	1307.28
638.053	1335.88
642.708	798.987
647.361	283.564
652.012	177.612
656.66	76.1218
661.305	106.073
665.948	45.4612
670.588	88.3977
675.226	77.2913
679.861	152.776
684.494	260.926
689.124	254.208
693.752	374.866
698.377	591.135
702.999	686.74
707.619	712.227
712.237	770.043
716.852	643.344
721.464	550.848
726.074	420.653
730.681	413.128
735.286	436.177
739.888	521.334
744.488	658.653
749.085	659.264
753.68	797.538
758.272	771.33
762.861	642.15
767.448	494.063
772.033	383.184
776.614	254.293
781.194	225.974
785.77	114.379
790.345	190.655
794.916	64.9622
799.485	106.163
804.052	58.343
808.616	13.8152
813.177	44.1245
817.736	9.66309
822.292	7.77026
826.846	2.50708
831.397	20.489
835.945	22.9775
840.491	43.9404
845.035	13.2019
849.576	16.6985
854.114	3.81616
858.65	47.7539
863.183	2.21606
867.713	0.203613
872.241	34.6794
876.767	99.6506
881.29	50.2202
885.81	22.3391
890.328	143.97
894.843	81.2151
899.356	102.053
903.866	61.4436
908.373	57.4072
912.878	118.944
917.38	139.136
921.88	75.9658
926.377	129.382
930.872	175.387
935.364	151.998
939.853	162.2
944.34	135.567
948.824	185.388
953.306	123.443
957.785	169.749
962.261	126.756
966.735	162.601
971.207	85.5649
975.675	92.9001
980.141	117.998
984.605	124.756
989.066	173.093
993.524	181.151
997.98	128.305
1002.43	200.088
1006.88	140.488
1011.33	98.0762
1015.78	173.019
1020.22	119.394
1024.66	175.693
1029.1	119.377
1033.53	90.8069
1037.97	143.432
1042.4	162.129
1046.82	136.737
1051.25	211.882
1055.67	167.32
1060.09	171.585
1064.51	177.198
1068.92	117.642
1073.33	76.8159
1077.74	172.175
1082.15	129.246
1086.55	163.55
1090.95	82.114
1095.35	115.073
1099.75	110.641
1104.14	69.8919
1108.53	0.871582
1112.92	43.4905
1117.31	86.2541
1121.69	115.089
1126.07	173.736
1130.45	0.968018
1134.82	29.9907
1139.19	87.999
1143.57	78.0205
1147.93	141.036
1152.3	64.0688
1156.66	37.1113
1161.02	10.1294
1165.38	12.1082
1169.73	53.1697
1174.08	52.0781
1178.43	6.03174
1182.78	15.2964
1187.12	19.3728
1191.46	34.1643
1195.8	4.29712
1200.14	219.358
1204.47	6.0647
1208.8	41.7185
1213.13	7.36841
1217.46	134.545
1221.78	144.407
1226.1	177.074
1230.42	87.7437
1234.73	81.8857
1239.04	59.5068
1243.35	54.5757
1247.66	80.8933
1251.97	41.5481
1256.27	57.252
1260.57	106.679
1264.86	80.2075
1269.16	101.097
1273.45	94.2954
1277.74	143.921
1282.03	67.4238
1286.31	41.8208
1290.59	55.0957
1294.87	6.05713
1299.14	55.1672
1303.42	55.7659
1307.69	78.4019
1311.95	23.0669
1316.22	75.8787
1320.48	48.2283
1324.74	63.2881
1329	11.7918
1333.26	47.7754
1337.51	54.7253
1341.76	30.0847
1346	35.1426
1350.25	32.0217
1354.49	38.3975
1358.73	75.1958
1362.96	3.33813
1367.2	118.757
1371.43	86.8516
1375.66	43.9338
1379.88	60.9739
1384.11	82.0071
1388.33	46.8992
1392.54	6.09473
1396.76	104.913
1400.97	4.74292
1405.18	53.9658
1409.39	31.792
1413.59	78.7896
1417.8	107.156
1421.99	72.0422
1426.19	64.0403
1430.38	93.103
1434.58	83.1916
1438.77	55.3494
1442.95	49.7241
1447.13	55.6672
1451.32	84.103
1455.49	70.5559
1459.67	97.7769
1463.84	51.0825
1468.01	38.4685
1472.18	103.733
1476.35	3.07104
1480.51	61.0659
1484.67	80.7854
1488.83	43.8867
1492.98	72.1594
1497.13	81.0149
1501.28	33.4241
1505.43	7.52344
1509.57	34.5674
1513.71	139.557
1517.85	45.804
1521.99	72.3662
1526.12	9.01196
1530.25	30.2695
1534.38	5.56543
1538.5	47.0276
1542.62	53.6528
1546.74	87.4065
1550.86	113.566
1554.98	339.834
1559.09	10.6123
1563.2	13.2336
1567.31	55.1765
