Measurement: Raman, 514 nm, ccw, Raman Data Processed
Mineral: Baddeleyite
Rruff sample: R060078
Ideal chemistry: ZrO_2_
Locality: Wetloo mine, Mogok, Burma
Source: Marcus Origlieri
Description: Dark brown fragment
Measured chemistry: (Zr_0.99_Hf_0.01_)_Î£=1_O_2_
Pin_id: L01430
Orientation: Laser parallel to c* (0 0 1). Fiducial mark perpendicular to laser is parallel to a [1 0 0]
Raman shift (cm-1)	intensity
51.431	0
56.387	177.424
61.341	60.9849
66.292	46.3225
71.241	1522.74
76.187	1375.41
81.131	1882.26
86.072	2820.75
91.012	5532.53
95.948	7419.34
100.883	17126.4
105.815	62748.9
110.744	16157.8
115.671	7426.3
120.596	4980.92
125.519	5310.13
130.439	3718.83
135.356	3150.49
140.271	3605.07
145.184	2596.3
150.094	2640.44
155.002	2661.84
159.908	2624.75
164.811	3963.01
169.711	5688.19
174.61	10772
179.505	44928.3
184.399	11297.5
189.29	15264.5
194.178	13094.3
199.064	5505.89
203.948	5117.3
208.829	2306.25
213.708	2252
218.585	2387.88
223.459	4499.99
228.33	2079.61
233.199	1378.21
238.066	1230.33
242.93	1181.61
247.792	1364.77
252.651	1356.61
257.508	1936.97
262.363	1896.72
267.215	1342.45
272.064	1453.71
276.912	1673.7
281.756	1795.74
286.598	2398.02
291.438	2906.39
296.276	3560.88
301.111	4644.73
305.943	7832.68
310.773	7970.55
315.601	4818.17
320.426	4042.42
325.248	5233.23
330.068	9749.58
334.886	17279.4
339.701	6180.74
344.514	4231.56
349.324	5187.45
354.132	1988.59
358.938	840.078
363.741	599.662
368.541	618.181
373.339	1347.55
378.135	4457.69
382.928	3659.53
387.718	1510.03
392.506	440.128
397.292	40.2222
402.075	148.444
406.856	235.465
411.634	379.368
416.41	359.784
421.183	288.682
425.954	137.895
430.722	118.706
435.488	5.81982
440.251	77.2412
445.012	191.815
449.77	241.77
454.526	435.103
459.28	1058.81
464.03	2277.9
468.779	5341.37
473.525	13867.2
478.268	14720.5
483.009	5488.14
487.747	2609.2
492.483	2082.66
497.217	2937.52
501.948	5426.77
506.676	2915.38
511.402	1127.37
516.125	717.719
520.846	662.437
525.565	757.53
530.281	1278.01
534.994	3043.92
539.705	5016.56
544.413	2451.49
549.119	1696.17
553.822	2244.13
558.523	3117.86
563.222	2042.72
567.917	980.662
572.611	699.608
577.302	423.637
581.99	452.526
586.676	396.978
591.359	607.354
596.04	1164.61
600.718	2188.72
605.394	4010.75
610.067	7567.53
614.737	12534.5
619.406	12582.1
624.071	10994.5
628.734	15503.8
633.395	28599
638.053	41203.9
642.708	27297.6
647.361	13200.1
652.012	7000.4
656.66	4265.68
661.305	2791.4
665.948	1953.76
670.588	1616.22
675.226	1383.35
679.861	1207.12
684.494	1267.17
689.124	1306.3
693.752	1478.46
698.377	1833.47
702.999	2301.43
707.619	2430.71
712.237	2321.44
716.852	1812.28
721.464	1272.54
726.074	844.591
730.681	734.592
735.286	657.934
739.888	747.108
744.488	840.448
749.085	998.467
753.68	1113.88
758.272	1191.25
762.861	843.3
767.448	632.31
772.033	505.714
776.614	383.95
781.194	294.208
785.77	229.465
790.345	268.694
794.916	84.8711
799.485	47.23
804.052	61.938
808.616	21.2578
813.177	5.33887
817.736	34.8179
822.292	169.875
826.846	48.2353
831.397	95.6191
835.945	189.13
840.491	18.1108
845.035	71.2129
849.576	29.3418
854.114	42.7544
858.65	35.0337
863.183	103.08
867.713	88.499
872.241	121.33
876.767	177.561
881.29	161.103
885.81	168.014
890.328	191.304
894.843	199.981
899.356	164.071
903.866	363.566
908.373	308.468
912.878	306.786
917.38	429.523
921.88	263.678
926.377	258.252
930.872	398.292
935.364	399.757
939.853	371.973
944.34	391.399
948.824	464.062
953.306	278.299
957.785	347.423
962.261	256.129
966.735	289.686
971.207	308.933
975.675	177.415
980.141	221.023
984.605	268.248
989.066	332.515
993.524	277.058
997.98	317.871
1002.43	369.286
1006.88	345.955
1011.33	339.519
1015.78	293.943
1020.22	275.545
1024.66	214.774
1029.1	298.902
1033.53	279.127
1037.97	275.617
1042.4	244.44
1046.82	168.328
1051.25	255.254
1055.67	309.341
1060.09	246.06
1064.51	364.027
1068.92	196.969
1073.33	172.026
1077.74	241.007
1082.15	201.247
1086.55	253.459
1090.95	330.998
1095.35	195.956
1099.75	146.275
1104.14	136.955
1108.53	167.492
1112.92	229.019
1117.31	232.257
1121.69	250.617
1126.07	239.827
1130.45	130.113
1134.82	80.4248
1139.19	152.753
1143.57	99.1177
1147.93	212.548
1152.3	44.0732
1156.66	118.485
1161.02	66.4409
1165.38	66.2666
1169.73	108.631
1174.08	54.4966
1178.43	23.1802
1182.78	42.7168
1187.12	102.339
1191.46	92.189
1195.8	39.3276
1200.14	69.0176
1204.47	67.3843
1208.8	28.1851
1213.13	82.6294
1217.46	129.156
1221.78	93.4434
1226.1	160.855
1230.42	95.167
1234.73	57.5493
1239.04	34.8325
1243.35	116.498
1247.66	46.4141
1251.97	53.4688
1256.27	77.2939
1260.57	93.1768
1264.86	168.516
1269.16	114.596
1273.45	124.087
1277.74	75.353
1282.03	10.5523
1286.31	41.7178
1290.59	75.834
1294.87	19.1138
1299.14	35.8276
1303.42	48.9722
1307.69	97.48
1311.95	89.042
1316.22	49.2056
1320.48	103.527
1324.74	62.293
1329	86.1304
1333.26	74.5986
1337.51	35.9898
1341.76	12.0464
1346	96.4053
1350.25	5.72314
1354.49	79.0127
1358.73	43.123
1362.96	83.3213
1367.2	43.2944
1371.43	122.52
1375.66	61.2822
1379.88	60.3472
1384.11	135.446
1388.33	90.7383
1392.54	136.072
1396.76	28.2109
1400.97	140.815
1405.18	88.9609
1409.39	114.913
1413.59	104.793
1417.8	190.461
1421.99	148.445
1426.19	134.486
1430.38	241.266
1434.58	106.656
1438.77	40.604
1442.95	64.8848
1447.13	96.6401
1451.32	55.9551
1455.49	22.6152
1459.67	102.456
1463.84	132.045
1468.01	72.7896
1472.18	84.5469
1476.35	60.2534
1480.51	142.994
1484.67	207.133
1488.83	18.376
1492.98	93.0156
1497.13	49.2183
1501.28	70.3623
1505.43	111.87
1509.57	94.7075
1513.71	67.5762
1517.85	136.076
1521.99	73.9971
1526.12	119.693
1530.25	138.928
1534.38	122.933
1538.5	60.3516
1542.62	0.015625
