Measurement: Raman, 514 nm, ccw, Raman Data Processed
Mineral: Baddeleyite
Rruff sample: R060078
Ideal chemistry: ZrO_2_
Locality: Wetloo mine, Mogok, Burma
Source: Marcus Origlieri
Description: Dark brown fragment
Measured chemistry: (Zr_0.99_Hf_0.01_)_Î£=1_O_2_
Pin_id: L00545
Orientation: Laser parallel to b* (0 1 0). Fiducial mark perpendicular to laser is parallel to c [0 0 1]
Raman shift (cm-1)	intensity
51.431	0
56.387	683.089
61.341	213.576
66.292	109.153
71.241	262.996
76.187	923.023
81.131	2031.38
86.072	3385.75
91.012	7287.53
95.948	22222.3
100.883	13870
105.815	9024.92
110.744	7283.16
115.671	5614.17
120.596	4919.2
125.519	4244.89
130.439	3987.89
135.356	3719.84
140.271	3823.59
145.184	3593.66
150.094	3899.57
155.002	4774.69
159.908	5926.77
164.811	9416.17
169.711	26734.9
174.61	19442.3
179.505	24122.6
184.399	46818.8
189.29	22297.8
194.178	13828.4
199.064	9468.56
203.948	7908.32
208.829	6451.3
213.708	6405.4
218.585	5555.19
223.459	4895.98
228.33	4657.76
233.199	4460.68
238.066	4862.98
242.93	5057.24
247.792	5441.9
252.651	5725.11
257.508	5210.12
262.363	5108.48
267.215	5255.64
272.064	5760.51
276.912	7287.63
281.756	8491.75
286.598	9826.29
291.438	11682.3
296.276	16081.2
301.111	20174
305.943	15589.3
310.773	12081.9
315.601	10829.8
320.426	10820.7
325.248	11041.9
330.068	10026.8
334.886	13722.4
339.701	27985.7
344.514	22498.7
349.324	11398.4
354.132	5874.1
358.938	3997.88
363.741	4439.6
368.541	10468.9
373.339	15186.6
378.135	9566.57
382.928	5046.79
387.718	2258.16
392.506	546.693
397.292	89.9629
402.075	546.131
406.856	744.695
411.634	858.485
416.41	617.72
421.183	309.308
425.954	34.6855
430.722	258.433
435.488	413.905
440.251	884.15
445.012	1351.15
449.77	2363.9
454.526	4392.39
459.28	8941.6
464.03	21606.6
468.779	37328.3
473.525	23130.7
478.268	10572.9
483.009	4969.79
487.747	2999.46
492.483	2825.86
497.217	2544.97
501.948	1499.76
506.676	893.215
511.402	519.475
516.125	551.23
520.846	851.032
525.565	1255.04
530.281	2182.35
534.994	2726.21
539.705	4074.49
544.413	7571.06
549.119	15642.8
553.822	16926.7
558.523	10341.3
563.222	5415.57
567.917	2708.07
572.611	1615.81
577.302	1031.43
581.99	812.295
586.676	1070.37
591.359	2078.61
596.04	3978.99
600.718	7135.48
605.394	10643
610.067	11800.6
614.737	10171.2
619.406	9441.76
624.071	13880.2
628.734	24048.5
633.395	26346.7
638.053	17294.7
642.708	9310.39
647.361	4818.84
652.012	2921.74
656.66	1887.99
661.305	1339.13
665.948	1239.85
670.588	1228.24
675.226	1495.88
679.861	1822.64
684.494	2258.68
689.124	3089.86
693.752	4168.8
698.377	5001.13
702.999	5451.3
707.619	4915.34
712.237	3585.57
716.852	2561.3
721.464	1643.19
726.074	1091.26
730.681	869.814
735.286	768.938
739.888	663.832
744.488	763.497
749.085	794.91
753.68	738.361
758.272	594.882
762.861	417.045
767.448	337.475
772.033	296.734
776.614	286.514
781.194	49.0605
785.77	51.3223
790.345	55.2051
794.916	65.0166
799.485	239.083
804.052	122.064
808.616	180.869
813.177	70.1006
817.736	102.834
822.292	70.3999
826.846	63.0117
831.397	32.5107
835.945	24.8013
840.491	20.9019
845.035	68.3745
849.576	117.981
854.114	241.76
858.65	280.139
863.183	302.125
867.713	377.705
872.241	349.551
876.767	336.683
881.29	416.079
885.81	394.166
890.328	521.806
894.843	593.954
899.356	514.738
903.866	665.159
908.373	660.238
912.878	696.934
917.38	773.448
921.88	665.663
926.377	710.826
930.872	709.407
935.364	695.568
939.853	713.784
944.34	648.518
948.824	522.807
953.306	521.89
957.785	444.47
962.261	426.061
966.735	396.174
971.207	426.386
975.675	318.594
980.141	266.095
984.605	459.387
989.066	473.939
993.524	363.313
997.98	537.066
1002.43	533.552
1006.88	410.242
1011.33	354.008
1015.78	346.326
1020.22	214.54
1024.66	400.714
1029.1	417.152
1033.53	240.026
1037.97	329.066
1042.4	295.874
1046.82	307.219
1051.25	287.198
1055.67	233.547
1060.09	229.084
1064.51	195.134
1068.92	122.258
1073.33	68.5757
1077.74	115.591
1082.15	89.603
1086.55	37.543
1090.95	1.46094
1095.35	161.955
1099.75	116.655
1104.14	3.7832
1108.53	111.361
1112.92	66.7437
1117.31	76.5293
1121.69	237.316
1126.07	90.0767
1130.45	3.1709
1134.82	87.5474
1139.19	7.24414
1143.57	149.231
1147.93	139.476
1152.3	19.0435
1156.66	192.449
1161.02	34.5102
1165.38	155.878
1169.73	107.623
1174.08	63.2002
1178.43	100.2
1182.78	24.8965
1187.12	41.669
1191.46	6.91992
1195.8	92.2788
1200.14	71.7007
1204.47	48.3364
1208.8	131
1213.13	117.001
1217.46	196.955
1221.78	299.254
1226.1	186.792
1230.42	158.234
1234.73	76.064
1239.04	85.9414
1243.35	50.582
1247.66	164.686
1251.97	82.5644
1256.27	68.6553
1260.57	43.6992
1264.86	121.049
1269.16	98.4946
1273.45	8.61328
1277.74	147.149
1282.03	14.2197
1286.31	144.088
1290.59	93.6934
1294.87	33.5972
1299.14	28.7949
1303.42	112.527
1307.69	191.911
1311.95	35.2315
1316.22	109.525
1320.48	87.3398
1324.74	68.2295
1329	63.1128
1333.26	104.718
1337.51	30.727
1341.76	22.8042
1346	92.8691
1350.25	124.178
1354.49	54.4937
1358.73	11.6582
1362.96	36.9688
1367.2	29.9575
1371.43	52.2485
1375.66	141.144
1379.88	155.694
1384.11	72.1152
1388.33	106.563
1392.54	68.0679
1396.76	139.624
1400.97	58.3086
1405.18	101.915
1409.39	154.869
1413.59	177.934
1417.8	93.457
1421.99	169.082
1426.19	142.391
1430.38	87.6538
1434.58	26.2051
1438.77	109.61
1442.95	169.221
1447.13	25.6909
1451.32	43.877
1455.49	64.1865
1459.67	31.582
1463.84	90.7412
1468.01	70.4214
1472.18	93.8242
1476.35	66.0298
1480.51	52.1587
1484.67	136.611
1488.83	88.2153
1492.98	76.916
1497.13	59.666
1501.28	11.5283
1505.43	119.469
1509.57	105.508
1513.71	106.648
1517.85	107.109
1521.99	99.168
1526.12	130.308
1530.25	55.0986
1534.38	57.4331
1538.5	230.545
1542.62	103.58
1546.74	200.702
1550.86	242.379
1554.98	348.352
1559.09	185.918
1563.2	156.618
1567.31	116.914
