Measurement: Raman, 514 nm, ccw, Raman Data Processed
Mineral: Baddeleyite
Rruff sample: R060078
Ideal chemistry: ZrO_2_
Locality: Wetloo mine, Mogok, Burma
Source: Marcus Origlieri
Description: Dark brown fragment
Measured chemistry: (Zr_0.99_Hf_0.01_)_Î£=1_O_2_
Pin_id: L00612
Orientation: Laser parallel to (1 0 1). Fiducial mark perpendicular to laser is parallel to b [0 1 0]
Raman shift (cm-1)	intensity
51.431	0
56.387	176.297
61.341	196.921
66.292	94.6595
71.241	80.1931
76.187	117.756
81.131	612.061
86.072	1098.7
91.012	2580.97
95.948	5369.15
100.883	9288.89
105.815	18985.1
110.744	9569.95
115.671	4764.37
120.596	3746.49
125.519	3522.51
130.439	3199.38
135.356	2808.76
140.271	2896.57
145.184	2477.95
150.094	2509.27
155.002	2715.7
159.908	2915.48
164.811	3887.34
169.711	5561.09
174.61	7160.94
179.505	12020.5
184.399	9263.67
189.29	8480.51
194.178	12476.9
199.064	6631.3
203.948	6065.6
208.829	4957.6
213.708	5064.56
218.585	6000.77
223.459	8788.62
228.33	6277.19
233.199	3794.88
238.066	3186.22
242.93	3285.92
247.792	3626.33
252.651	3630.56
257.508	3920.27
262.363	4018.97
267.215	3516.85
272.064	3398.77
276.912	3780.14
281.756	4359.48
286.598	5487.69
291.438	6465.54
296.276	7164.63
301.111	7969.76
305.943	9057.83
310.773	9558.62
315.601	7806.86
320.426	8235.39
325.248	11313.2
330.068	17008.2
334.886	24766.3
339.701	14172.7
344.514	6716.23
349.324	5574.64
354.132	3101.16
358.938	1799.89
363.741	1842.75
368.541	3122.44
373.339	6244.88
378.135	12923
382.928	15323.6
387.718	8589.82
392.506	3345.48
397.292	1010.58
402.075	223.339
406.856	233.499
411.634	592.237
416.41	665.693
421.183	512.656
425.954	367.266
430.722	49.8525
435.488	242.766
440.251	315.629
445.012	669.763
449.77	1266.16
454.526	2196.82
459.28	4381.74
464.03	8985.92
468.779	19365.4
473.525	37783.1
478.268	46246.1
483.009	21688.4
487.747	9207.01
492.483	5174.9
497.217	4314.06
501.948	4128.47
506.676	3054.14
511.402	1712.04
516.125	1243.16
520.846	1264.52
525.565	1663.24
530.281	3041.2
534.994	5684.73
539.705	8830.1
544.413	7037.29
549.119	7571.51
553.822	12531.3
558.523	18567.4
563.222	14022
567.917	6600.56
572.611	3179.44
577.302	1564.36
581.99	907.455
586.676	644.453
591.359	651.24
596.04	1207.73
600.718	2348.9
605.394	4613.74
610.067	6883.26
614.737	7907.39
619.406	6349.15
624.071	4223.47
628.734	3993.36
633.395	5495.79
638.053	6556.73
642.708	4628.13
647.361	2022.98
652.012	910.256
656.66	471.922
661.305	104.513
665.948	32.0625
670.588	26.3018
675.226	203.562
679.861	382.934
684.494	850.368
689.124	1188.86
693.752	1756.27
698.377	2410.77
702.999	3319.87
707.619	3724.34
712.237	3480.82
716.852	2613.86
721.464	1728.64
726.074	1034.55
730.681	758.274
735.286	618.642
739.888	653.454
744.488	648.273
749.085	612.911
753.68	778.8
758.272	745.757
762.861	631.912
767.448	591.504
772.033	327.743
776.614	289.322
781.194	263.626
785.77	162.85
790.345	35.9761
794.916	7.0874
799.485	72.4346
804.052	644.684
808.616	75.6382
813.177	72.8838
817.736	81.2188
822.292	71.1436
826.846	38.2959
831.397	153.361
835.945	14.7935
840.491	69.8086
845.035	18.4814
849.576	14.9521
854.114	87.1592
858.65	108.041
863.183	216.679
867.713	285.259
872.241	302.875
876.767	327.516
881.29	286.112
885.81	292.634
890.328	350.097
894.843	434.485
899.356	373.805
903.866	420.122
908.373	428.76
912.878	466.44
917.38	595.732
921.88	469.104
926.377	588.442
930.872	603.733
935.364	551.065
939.853	559.213
944.34	537.547
948.824	537.58
953.306	479.905
957.785	481.168
962.261	390.971
966.735	373.044
971.207	318.816
975.675	362.319
980.141	279.565
984.605	289.854
989.066	351.091
993.524	287.066
997.98	244.761
1002.43	277.047
1006.88	837.04
1011.33	1049.88
1015.78	346.58
1020.22	245.541
1024.66	331.34
1029.1	229.713
1033.53	183.957
1037.97	213.684
1042.4	176.203
1046.82	200.747
1051.25	141.655
1055.67	216.059
1060.09	108.627
1064.51	101.818
1068.92	130.656
1073.33	98.1201
1077.74	115.384
1082.15	142.714
1086.55	93.6646
1090.95	31.7935
1095.35	196.811
1099.75	68.4429
1104.14	156.437
1108.53	7.61572
1112.92	5.46289
1117.31	12.5317
1121.69	59.4609
1126.07	0.943359
1130.45	1.92481
1134.82	27.8066
1139.19	67.5347
1143.57	110.141
1147.93	95.6992
1152.3	72.2158
1156.66	21.6948
1161.02	134.14
1165.38	87.4785
1169.73	78.8882
1174.08	35.7705
1178.43	13.4331
1182.78	14.2217
1187.12	61.4522
1191.46	20.936
1195.8	17.5474
1200.14	184.963
1204.47	67.9394
1208.8	45.873
1213.13	45.7808
1217.46	157.887
1221.78	201.341
1226.1	269.854
1230.42	141.549
1234.73	71.7319
1239.04	105.43
1243.35	74.7666
1247.66	60.6367
1251.97	11.4658
1256.27	46.8525
1260.57	66.3374
1264.86	54.2217
1269.16	107.085
1273.45	204.327
1277.74	118.961
1282.03	79.5078
1286.31	24.9658
1290.59	68.2661
1294.87	148.185
1299.14	60.8916
1303.42	22.9199
1307.69	76.7271
1311.95	40.4316
1316.22	12.8232
1320.48	140.406
1324.74	124.159
1329	105.569
1333.26	22.6274
1337.51	48.2485
1341.76	76.8037
1346	77.5107
1350.25	13.2998
1354.49	29.9106
1358.73	74.8931
1362.96	37.6773
1367.2	102.633
1371.43	58.169
1375.66	100.611
1379.88	27.1943
1384.11	61.3765
1388.33	91.4678
1392.54	111.572
1396.76	108.74
1400.97	111.863
1405.18	83.8042
1409.39	121.804
1413.59	141.948
1417.8	71.9458
1421.99	168.803
1426.19	121.54
1430.38	148.26
1434.58	74.8325
1438.77	104.945
1442.95	173.347
1447.13	16.0234
1451.32	19.1958
1455.49	118.876
1459.67	83.9141
1463.84	132.657
1468.01	74.6352
1472.18	116.112
1476.35	83.4951
1480.51	138.06
1484.67	100.655
1488.83	85.2715
1492.98	150.919
1497.13	4.55078
1501.28	149.213
1505.43	155.985
1509.57	86.6777
1513.71	127.95
1517.85	144.957
1521.99	103.319
1526.12	42.8296
1530.25	121.207
1534.38	114.327
1538.5	28.6143
1542.62	80.8354
1546.74	73.665
1550.86	235.517
1554.98	437.98
1559.09	87.9692
1563.2	110.364
1567.31	65.0454
