Measurement: Raman, 514 nm, ccw, Raman Data Processed
Mineral: Baddeleyite
Rruff sample: R060016
Ideal chemistry: ZrO_2_
Locality: Wet Loo, Myanmar
Source: American Museum of Natural History
Description: Brown crystal fragment
Measured chemistry: (Zr_0.99_Ti_0.01_)_Î£=1_O_2_
Pin_id: M00268
Orientation: Laser parallel to b* (0 1 0). Fiducial mark perpendicular to laser is parallel to -c [0 0 -1]
Raman shift (cm-1)	intensity
129.546	0
134.475	2.80029
139.401	94.1733
144.325	105.835
149.247	140.349
154.165	484.717
159.082	1388.4
163.995	3984.61
168.906	12053.8
173.815	29448.2
178.721	35178.2
183.625	13194.1
188.526	10476
193.424	7180.8
198.32	2182.18
203.214	1609.52
208.105	1412.69
212.993	1570.18
217.879	2475.47
222.762	2541.22
227.643	1296.9
232.521	805.767
237.396	1013.02
242.269	1140.78
247.14	1353.07
252.008	1467.93
256.873	1661.39
261.736	1569.49
266.596	1387.74
271.454	1653.58
276.309	2059.33
281.162	2686.89
286.012	3711.32
290.86	4740.47
295.705	6291.7
300.547	9087.19
305.387	11467.5
310.225	9426.26
315.059	6604.27
319.892	6802.26
324.721	10048.1
329.549	15096.5
334.373	13906.6
339.195	7939.32
344.015	7219.53
348.832	5752.04
353.646	2368.57
358.458	1095.1
363.267	911.696
368.074	1736.41
372.878	3617.28
377.679	5476.35
382.478	3312.65
387.275	1064.22
392.069	337.079
396.86	86.7847
401.649	200.893
406.435	353.843
411.219	280.434
416	324.613
420.778	291.632
425.554	62.9815
430.327	97.1758
435.098	138.848
439.866	196.182
444.632	303.269
449.395	649.113
454.156	1157.73
458.914	2191.13
463.669	4710.34
468.422	10215.4
473.172	16006.3
477.92	11787.1
482.665	5323.82
487.408	3174.5
492.148	3294.17
496.885	4548.86
501.62	4765.63
506.352	2732.51
511.082	1277.53
515.809	923.741
520.533	1047.18
525.255	1477.88
529.975	2582.91
534.692	4270.32
539.406	4377.11
544.118	2809.14
548.827	2751.68
553.533	3634.36
558.237	3593.09
562.938	2298.42
567.637	1488.01
572.333	1117.71
577.027	928.438
581.718	963.34
586.407	1261.59
591.093	1750.16
595.776	2732
600.457	4818.09
605.135	8428.49
609.81	13044.2
614.483	16837.2
619.154	17921.5
623.822	22099
628.487	36013.8
633.15	55562.9
637.81	58178.2
642.467	37083.8
647.122	19069.7
651.774	10413.8
656.424	6636.15
661.071	4315.79
665.716	3312.72
670.358	2753.29
674.997	2389.24
679.634	2282.85
684.268	2258.92
688.9	2459.26
693.529	2796.88
698.156	3326.75
702.78	3686.4
707.401	3767.11
712.02	3501.04
716.636	2577.9
721.249	1983.86
725.86	1337.16
730.469	1262.99
735.074	1035.02
739.678	1040.94
744.278	1136.33
748.876	1292.86
753.472	1338.19
758.064	1237.84
762.655	1018.7
767.242	741.568
771.827	645.106
776.41	488.993
780.99	252.182
785.567	207.636
790.142	224.379
794.714	112.285
799.283	89.5229
803.85	30
808.415	75.5649
812.976	105.453
817.535	124.245
822.092	139.29
826.646	106.533
831.197	53.9121
835.746	100.019
840.292	170.236
844.836	113.819
849.377	60.2566
853.915	49.9863
858.451	80.6135
862.984	10.1296
867.515	89.0217
872.043	65.3496
876.568	36.7634
881.091	143.783
885.611	105.051
890.129	193.225
894.644	192.33
899.156	134.668
903.666	270.834
908.173	274.611
912.678	362.68
917.18	358.324
921.679	282.769
926.176	362.475
930.67	318.403
935.162	360.194
939.651	371.166
944.137	299.033
948.621	366.499
953.102	328.371
957.581	286.316
962.057	206.914
966.53	310.216
971.001	228.504
975.469	198.492
979.935	191.434
984.398	154.41
988.859	147.589
993.316	158.395
997.772	180.008
1002.22	191.543
1006.67	195.792
1011.12	179.668
1015.57	124.072
1020.01	138.907
1024.45	209.575
1028.88	128.34
1033.32	93.5772
1037.75	67.5369
1042.18	142.175
1046.61	108.31
1051.03	123.956
1055.45	42.072
1059.87	29.748
1064.29	80.9062
1068.7	118.438
1073.11	77.4121
1077.52	31.874
1081.93	74.6482
1086.33	58.4331
1090.73	70.6726
1095.13	110.622
1099.52	45.904
1103.92	99.2017
1108.31	11.3203
1112.69	46.3015
1117.08	20.8018
1121.46	42.874
1125.84	132.285
1130.22	103.339
1134.59	71.5132
1138.96	131.389
1143.33	140.345
1147.7	175.65
1152.06	165.804
1156.43	69.4111
1160.79	35.0488
1165.14	152.587
1169.49	113.322
1173.85	84.7449
1178.19	61.9036
1182.54	91.6929
1186.88	135.422
1191.22	48.4902
1195.56	60.3076
1199.9	96.9326
1204.23	63.1484
1208.56	122.636
1212.89	70.0456
1217.21	122.035
1221.54	157.179
1225.86	147.346
1230.17	102.832
1234.49	76.8682
1238.8	54.6543
1243.11	45.7461
1247.41	20.3496
1251.72	61.0007
1256.02	45.0044
1260.32	19.0889
1264.62	46.218
1268.91	212.384
1273.2	76.5898
1277.49	29.21
1281.78	40.001
1286.06	33.2634
1290.34	17.5395
1294.62	34.8926
1298.89	26.2998
1303.16	61.769
1307.44	91.2886
1311.7	79.8667
1315.97	89.4954
1320.23	70.2095
1324.49	47.0142
1328.75	37.8923
1333	39.092
1337.25	14.084
1341.5	34.1511
1345.75	44.3384
1349.99	31.6155
1354.24	7.97021
1358.47	70.6262
1362.71	8.94287
1366.94	96.7368
1371.18	7.5105
1375.4	73.4944
1379.63	92.9006
1383.85	117.747
1388.08	64.8018
1392.29	92.925
1396.51	226.126
1400.72	75.4885
1404.93	201.046
1409.14	155.386
1413.35	115.972
1417.55	155.224
1421.75	149.48
1425.94	166.657
1430.14	69.7708
1434.33	75.9959
1438.52	53.97
1442.71	77.4473
1446.89	77.0344
1451.07	57.0496
1455.25	56.0642
1459.43	32.7244
1463.6	122.837
1467.77	30.6848
1471.94	135.61
1476.11	42.5727
1480.27	84.605
1484.43	91.7605
1488.59	61.0601
1492.74	27.2783
1496.9	39.9282
1501.05	4.54712
1505.2	1.68311
1509.34	62.2742
1513.48	32.8137
1517.62	56.1938
1521.76	52.792
1525.9	46.6418
1530.03	16.7752
1534.16	3.13428
1538.28	73.0757
1542.41	11.3997
1546.53	60.1355
1550.65	31.6448
1554.77	87.9133
1558.88	5.59155
