Measurement: Raman, 514 nm, ccw, Raman Data Processed
Mineral: Baddeleyite
Rruff sample: R060078
Ideal chemistry: ZrO_2_
Locality: Wetloo mine, Mogok, Burma
Source: Marcus Origlieri
Description: Dark brown fragment
Measured chemistry: (Zr_0.99_Hf_0.01_)_Î£=1_O_2_
Pin_id: L01986
Orientation: Laser parallel to a* (1 0 0). Fiducial mark perpendicular to laser is parallel to -b [0 -1 0]
Raman shift (cm-1)	intensity
72.477	0
77.423	249.665
82.367	260.25
87.308	102.893
92.246	1311.62
97.182	3623.81
102.116	5166.55
107.047	11373.4
111.976	3819.33
116.903	1897.67
121.827	1021.47
126.749	389.421
131.668	350.334
136.585	282.243
141.5	186.993
146.412	3.21435
151.321	317.642
156.229	286.054
161.134	745.856
166.036	2292.45
170.936	6297.01
175.834	9503.96
180.729	24259.9
185.622	19730
190.512	27827.2
195.4	47128.2
200.286	7869.8
205.169	2734.65
210.049	1367.94
214.928	972.051
219.803	782.579
224.677	753.292
229.548	489.338
234.416	279.465
239.282	209.608
244.146	262.74
249.007	299.197
253.866	519.515
258.722	731.335
263.576	561.39
268.427	598.295
273.276	747.2
278.123	1052.43
282.967	1443.74
287.809	2184.23
292.648	3629.44
297.485	6677.48
302.319	11408.4
307.151	18581.5
311.98	19767.6
316.807	9242.64
321.631	5522.62
326.454	4674.41
331.273	5352.9
336.09	8080.03
340.905	15630.8
345.717	26998.1
350.527	43506.9
355.334	20524.3
360.139	7546.24
364.941	4267.69
369.741	4120.26
374.538	5592.1
379.333	9705.12
384.126	9067.93
388.916	4389.45
393.703	1845.18
398.488	840.833
403.271	436.118
408.051	104
412.828	59.623
417.603	238.557
422.376	176.693
427.146	140.711
431.914	85.2227
436.679	44.1133
441.442	31.583
446.202	156.916
450.96	323.821
455.715	619.136
460.467	1178.85
465.218	2612.95
469.965	5269.44
474.711	8823.29
479.454	8341.51
484.194	2826.1
488.932	924.042
493.667	691.339
498.4	478.986
503.13	736.98
507.858	842.316
512.583	273.984
517.306	53.9883
522.026	83.9522
526.744	193.821
531.459	342.658
536.172	474.983
540.882	777.776
545.59	724.045
550.295	1067.69
554.998	1350.62
559.698	1463.22
564.396	1097.78
569.091	652.874
573.784	389.929
578.474	272.206
583.162	6.74707
587.847	151.325
592.529	352.384
597.209	581.901
601.887	1084.65
606.562	2054.14
611.235	3246.85
615.905	4362.96
620.572	4160.46
625.237	3229.32
629.9	3746.55
634.56	5323.14
639.217	6154.07
643.872	3944.37
648.524	1867.99
653.174	1076.93
657.821	795.551
662.466	610.114
667.108	617.901
671.748	556.861
676.385	705.895
681.02	591.184
685.652	734.151
690.281	855.816
694.908	999.501
699.533	1173.83
704.155	1571.38
708.774	1656.09
713.391	1592.24
718.005	1538.38
722.617	1262.18
727.226	954.941
731.833	647.639
736.437	621.101
741.039	600.261
745.638	629.293
750.234	698.039
754.828	700.24
759.419	716.972
764.008	433.339
768.595	468.789
773.178	317.192
777.759	370.115
782.338	190.295
786.914	170.73
791.488	58.0825
796.059	16.4399
800.627	14.2041
805.193	104.596
809.756	39.7095
814.317	126.116
818.875	37.0591
823.431	13.8462
827.984	0.105957
832.534	20.7988
837.082	37.4878
841.627	46.751
846.17	48.7246
850.71	0.480469
855.248	35.1611
859.783	145.347
864.316	21.1104
868.846	119.428
873.373	170.381
877.898	248.978
882.42	207.213
886.94	46.0684
891.457	158.528
895.971	149.623
900.483	195.339
904.993	185.71
909.5	127.715
914.004	125.318
918.505	206.519
923.004	166.357
927.501	140.79
931.995	161.902
936.486	65.5776
940.975	238.102
945.461	241.049
949.945	304.656
954.426	194.205
958.904	206.67
963.38	79.7588
967.853	157.666
972.324	179.016
976.792	144.69
981.258	91.7485
985.72	79.1064
990.181	158.952
994.639	218.431
999.094	209.404
1003.55	236.065
1008	236.854
1012.44	173.739
1016.89	152.434
1021.33	239.794
1025.77	226.217
1030.21	313.65
1034.64	105.322
1039.07	212.308
1043.5	343.319
1047.93	241.776
1052.35	252.324
1056.78	112.058
1061.19	241.383
1065.61	197.667
1070.02	164.548
1074.43	246.668
1078.84	192.773
1083.25	132.621
1087.65	218.594
1092.05	265.666
1096.45	68.6514
1100.85	93.0166
1105.24	206.655
1109.63	132.37
1114.02	53.3623
1118.4	145.471
1122.78	35.7529
1127.16	138.091
1131.54	45.4712
1135.92	2.11719
1140.29	128.073
1144.66	116.733
1149.02	116.169
1153.39	130.618
1157.75	20.9194
1162.11	154.545
1166.46	62.9502
1170.82	91.4805
1175.17	102.961
1179.52	38.5039
1183.86	101.539
1188.21	1.146
1192.55	119.746
1196.89	94.3765
1201.22	52.4194
1205.55	14.8862
1209.88	2.48438
1214.21	154.025
1218.54	43.5337
1222.86	155.185
1227.18	284.36
1231.5	264.12
1235.81	48.9233
1240.12	139.774
1244.43	100.612
1248.74	187.47
1253.04	126.365
1257.34	65.8325
1261.64	137.572
1265.94	163.511
1270.23	196.569
1274.52	110.514
1278.81	165.655
1283.1	111.291
1287.38	102.3
1291.66	87.5869
1295.94	124.322
1300.21	104.265
1304.48	126.181
1308.75	99.6924
1313.02	127.963
1317.29	76.0933
1321.55	70.1177
1325.81	105.731
1330.06	56.4126
1334.32	91.4492
1338.57	93.4956
1342.82	156.633
1347.06	59.5801
1351.31	15.1841
1355.55	144.832
1359.79	178.053
1364.02	96.5928
1368.26	26.8828
1372.49	82.2407
1376.71	93.6758
1380.94	147.186
1385.16	103.772
1389.38	168.053
1393.6	157.822
1397.81	75.6831
1402.02	95.5488
1406.23	99.5059
1410.44	113.783
1414.64	159.087
1418.85	44.4477
1423.04	203.895
1427.24	117.402
1431.43	88.0005
1435.62	95.6006
1439.81	110.728
1444	4.37744
1448.18	40.1538
1452.36	93.0552
1456.54	97.7246
1460.71	17.5337
1464.89	12.8481
1469.06	120.283
1473.22	46.1597
1477.39	204.282
1481.55	138.648
1485.71	73.187
1489.86	73.8696
1494.02	128.687
1498.17	142.581
1502.32	154.599
1506.46	176.747
1510.61	148.882
1514.75	147.508
1518.88	63.3603
1523.02	74.9209
1527.15	47.9175
1531.28	1.8584
1535.41	114.478
1539.53	112.043
1543.66	27.1143
1547.78	175.843
1551.89	329.241
1556.01	267.775
1560.12	5.81543
1564.23	137.44
1568.33	140.622
