Measurement: Raman, 514 nm, ccw, Raman Data Processed
Mineral: Baddeleyite
Rruff sample: R060078
Ideal chemistry: ZrO_2_
Locality: Wetloo mine, Mogok, Burma
Source: Marcus Origlieri
Description: Dark brown fragment
Measured chemistry: (Zr_0.99_Hf_0.01_)_Î£=1_O_2_
Pin_id: L00545
Orientation: Laser parallel to b* (0 1 0). Fiducial mark perpendicular to laser is parallel to c [0 0 1]
Raman shift (cm-1)	intensity
51.431	0
56.387	107.393
61.341	63.7381
66.292	58.3533
71.241	276.098
76.187	661.582
81.131	1792.11
86.072	3942.21
91.012	14758.7
95.948	62279.7
100.883	28050.4
105.815	13681.5
110.744	6899.61
115.671	3436.36
120.596	2409.54
125.519	1966.94
130.439	1798.37
135.356	1676.35
140.271	1775.86
145.184	1586.94
150.094	1944.8
155.002	2428.91
159.908	3476.96
164.811	8097.99
169.711	34681.5
174.61	17018.6
179.505	11053.2
184.399	11444.9
189.29	4645.68
194.178	3442.45
199.064	2529.06
203.948	2149.63
208.829	1773.74
213.708	2297.34
218.585	1887.59
223.459	1518.83
228.33	1332.32
233.199	1234.68
238.066	1336.56
242.93	1432.69
247.792	1512.88
252.651	1546.16
257.508	1392.98
262.363	1475.75
267.215	1489.06
272.064	1617.05
276.912	2181.93
281.756	2694.59
286.598	3300.93
291.438	4229.26
296.276	7164.65
301.111	9152.53
305.943	6340.45
310.773	4794.86
315.601	4135.64
320.426	4918.73
325.248	7117.91
330.068	5916.72
334.886	5679.58
339.701	7211.66
344.514	4452.99
349.324	2284.98
354.132	1159.78
358.938	715.116
363.741	1182.78
368.541	3465.73
373.339	4553.19
378.135	2406.13
382.928	1190.48
387.718	457.226
392.506	90.3164
397.292	174.603
402.075	240.571
406.856	257.297
411.634	272.127
416.41	232.985
421.183	178.68
425.954	112.735
430.722	11.5369
435.488	28.5679
440.251	21.5361
445.012	156.682
449.77	464.098
454.526	1000.79
459.28	2171.77
464.03	6184.05
468.779	11012.6
473.525	7395.54
478.268	4078.77
483.009	2051.35
487.747	1523.28
492.483	2092.57
497.217	2068.22
501.948	1330.23
506.676	808.599
511.402	429.331
516.125	410.432
520.846	552.906
525.565	929.762
530.281	1753.03
534.994	1878.78
539.705	1607.17
544.413	1946.19
549.119	3137.55
553.822	3331.76
558.523	2214.62
563.222	1482.37
567.917	881.58
572.611	667.9
577.302	676.186
581.99	584.298
586.676	993.429
591.359	1578.56
596.04	2606.63
600.718	4325.62
605.394	6957.55
610.067	9556.37
614.737	10958.1
619.406	14694.8
624.071	25405.3
628.734	45727.7
633.395	49831.9
638.053	33056.1
642.708	18612
647.361	9996.88
652.012	5692.56
656.66	3965.08
661.305	2689.44
665.948	2143.18
670.588	1837.21
675.226	1645.5
679.861	1618.7
684.494	1696.82
689.124	1799.25
693.752	2197.14
698.377	2408.95
702.999	2635.3
707.619	2352.39
712.237	1967.81
716.852	1440.91
721.464	992.669
726.074	739.516
730.681	706.734
735.286	690.784
739.888	604.839
744.488	643.526
749.085	672.895
753.68	627.557
758.272	597.387
762.861	411.883
767.448	304.64
772.033	299.442
776.614	209.394
781.194	143.483
785.77	128.729
790.345	34.3535
794.916	53.6721
799.485	2.49414
804.052	0.135254
808.616	41.5989
813.177	42.3477
817.736	79.2859
822.292	90.7422
826.846	31.3928
831.397	56.2932
835.945	68.5117
840.491	33.1267
845.035	51.959
849.576	0.736084
854.114	103.718
858.65	43.4558
863.183	92.5229
867.713	65.9023
872.241	75.6877
876.767	66.8921
881.29	142.489
885.81	201.901
890.328	128.346
894.843	172.351
899.356	178.663
903.866	237.505
908.373	259.677
912.878	216.534
917.38	325.548
921.88	182.029
926.377	300.221
930.872	204.106
935.364	246.251
939.853	238.116
944.34	213.738
948.824	221.123
953.306	224.157
957.785	199.277
962.261	171.172
966.735	144.065
971.207	186.951
975.675	113.526
980.141	181.278
984.605	199.328
989.066	148.337
993.524	196.63
997.98	147.515
1002.43	130.767
1006.88	162.838
1011.33	158.389
1015.78	103.723
1020.22	184.439
1024.66	77.3079
1029.1	187.757
1033.53	120.025
1037.97	109.039
1042.4	110.809
1046.82	96.8691
1051.25	91.5376
1055.67	69.2856
1060.09	83.1741
1064.51	61.1746
1068.92	54.9829
1073.33	43.0215
1077.74	67.074
1082.15	26.405
1086.55	116.389
1090.95	28.0369
1095.35	7.0874
1099.75	10.2759
1104.14	1.38867
1108.53	8.79761
1112.92	70.6987
1117.31	45.2549
1121.69	141.76
1126.07	115.302
1130.45	89.8769
1134.82	111.478
1139.19	112.003
1143.57	139.561
1147.93	119.063
1152.3	45.4824
1156.66	15.9168
1161.02	86.3975
1165.38	59.8423
1169.73	30.1794
1174.08	64.604
1178.43	34.7576
1182.78	16.8369
1187.12	7.61084
1191.46	58.4451
1195.8	43.0942
1200.14	66.9368
1204.47	26.8604
1208.8	54.8701
1213.13	26.5901
1217.46	101.632
1221.78	142.726
1226.1	59.5398
1230.42	149.283
1234.73	87.529
1239.04	51.1985
1243.35	2.47046
1247.66	58.9312
1251.97	33.5293
1256.27	62.1411
1260.57	6.73731
1264.86	66.3835
1269.16	29.9834
1273.45	44.6487
1277.74	15.3411
1282.03	23.9695
1286.31	22.49
1290.59	29.0918
1294.87	48.7144
1299.14	73.5022
1303.42	60.1106
1307.69	65.6528
1311.95	22.4849
1316.22	20.3452
1320.48	28.2346
1324.74	62.0266
1329	17.8525
1333.26	23.5207
1337.51	12.4316
1341.76	92.46
1346	6.43823
1350.25	82.4504
1354.49	33.4995
1358.73	80.7007
1362.96	23.8755
1367.2	50.0977
1371.43	71.2688
1375.66	68.5569
1379.88	83.8755
1384.11	77.4412
1388.33	78.7939
1392.54	115.13
1396.76	67.6643
1400.97	106.702
1405.18	111.713
1409.39	143.618
1413.59	141.057
1417.8	119.684
1421.99	159.293
1426.19	148.703
1430.38	62.075
1434.58	113.424
1438.77	19.7669
1442.95	103.734
1447.13	19.7322
1451.32	36.4705
1455.49	54.2739
1459.67	50.0928
1463.84	20.0339
1468.01	41.771
1472.18	85.7415
1476.35	33.7654
1480.51	2.83203
1484.67	62.896
1488.83	62.99
1492.98	96.2913
1497.13	75.719
1501.28	54.1274
1505.43	14.6365
1509.57	25.9939
1513.71	110.57
1517.85	50.3477
1521.99	49.7637
1526.12	6.40576
1530.25	65.6814
1534.38	40.3337
1538.5	87.0588
1542.62	19.4712
1546.74	68.5474
1550.86	94.471
1554.98	195.296
1559.09	35.9089
1563.2	68.7903
1567.31	49.8369
