Measurement: Raman, 514 nm, ccw, Raman Data Processed
Mineral: Baddeleyite
Rruff sample: R060016
Ideal chemistry: ZrO_2_
Locality: Wet Loo, Myanmar
Source: American Museum of Natural History
Description: Brown crystal fragment
Measured chemistry: (Zr_0.99_Ti_0.01_)_Î£=1_O_2_
Pin_id: M00302
Orientation: Laser parallel to a* (1 0 0). Fiducial mark perpendicular to laser is parallel to b [0 1 0]
Raman shift (cm-1)	intensity
40.393	0
45.367	28.3235
50.339	62.9582
55.309	82.5275
60.276	143.664
65.24	135.89
70.202	64.0724
75.161	6.27112
80.118	33.6843
85.072	37.224
90.024	144.02
94.973	1120.59
99.919	4406.42
104.863	4352.58
109.805	1514.12
114.744	1005.94
119.681	886.514
124.615	824.279
129.546	760.885
134.475	733.064
139.401	746.51
144.325	826.165
149.247	841.196
154.165	974.611
159.082	1209.59
163.995	1951.79
168.906	4774.7
173.815	8969.86
178.721	13078.2
183.625	13334.8
188.526	22465.9
193.424	17022.9
198.32	3736.16
203.214	1785.77
208.105	1244.66
212.993	1077.47
217.879	986.598
222.762	912.854
227.643	737.4
232.521	629.373
237.396	636.764
242.269	618.645
247.14	584.61
252.008	669.547
256.873	717.415
261.736	686.181
266.596	697.035
271.454	805.506
276.309	1065.98
281.162	1334.5
286.012	1798.03
290.86	2755.8
295.705	5074.41
300.547	9173.77
305.387	12663.9
310.225	9858.74
315.059	4979.27
319.892	3257.48
324.721	2958.35
329.549	3360.86
334.373	5291.01
339.195	11438.8
344.015	20601.3
348.832	21090.6
353.646	9295.56
358.458	3673.3
363.267	2412.8
368.074	2877.07
372.878	4770.93
377.679	7039.63
382.478	5115.38
387.275	2392.93
392.069	1029.67
396.86	485.163
401.649	273.217
406.435	51.8257
411.219	38.9727
416	91.3999
420.778	84.4648
425.554	86.2937
430.327	3.32715
435.098	3.10498
439.866	43.9597
444.632	83.2751
449.395	263.04
454.156	535.244
458.914	1121.88
463.669	2738.93
468.422	5450.38
473.172	7541.24
477.92	5279.48
482.665	1882.1
487.408	769.092
492.148	433.438
496.885	379.127
501.62	403.148
506.352	181.487
511.082	5.91382
515.809	95.3889
520.533	76.2817
525.255	11.6177
529.975	15.8215
534.692	121.534
539.406	161.576
544.118	102.957
548.827	283.664
553.533	433.377
558.237	406.308
562.938	287.788
567.637	177.96
572.333	62.6345
577.027	60.9751
581.718	79.3906
586.407	65.9968
591.093	183.785
595.776	365.742
600.457	776.853
605.135	1323.12
609.81	2173.53
614.483	2602.09
619.154	2045.79
623.822	1512.63
628.487	1826.63
633.15	2285.75
637.81	2280.98
642.467	1441.29
647.122	712.687
651.774	438.784
656.424	291.367
661.071	240.2
665.716	247.255
670.358	254.01
674.997	327.308
679.634	301.483
684.268	369.624
688.9	467.455
693.529	591.167
698.156	646.266
702.78	832.584
707.401	864.463
712.02	780.534
716.636	672.342
721.249	596.54
725.86	430.43
730.469	427.652
735.074	409.606
739.678	367.53
744.278	390.253
748.876	460.592
753.472	336.271
758.064	405.783
762.655	287.901
767.242	218.354
771.827	159.701
776.41	140.588
780.99	92.5644
785.567	27.6549
790.142	91.033
794.714	20.7797
799.283	5.77478
803.85	33.1675
808.415	42.4834
812.976	3.89697
817.535	13.5292
822.092	13.5753
826.646	12.4291
831.197	5.79529
835.746	10.1899
840.292	18.3964
844.836	26.9781
849.377	14.4414
853.915	43.5214
858.451	38.4692
862.984	49.2432
867.515	96.8186
872.043	68.2228
876.568	37.4586
881.091	49.5128
885.611	73.3731
890.129	29.0239
894.644	29.4569
899.156	13.6905
903.666	39.5861
908.173	55.346
912.678	88.9662
917.18	62.5674
921.679	84.668
926.176	68.5073
930.67	102.496
935.162	80.9114
939.651	40.7379
944.137	80.9882
948.621	53.9731
953.102	88.1389
957.581	30.7398
962.057	66.7253
966.53	20.3914
971.001	30.3273
975.469	34.5731
979.935	71.2191
984.398	64.6423
988.859	38.0957
993.316	42.9092
997.772	96.7639
1002.22	75.7259
1006.67	76.8758
1011.12	69.5928
1015.57	50.9576
1020.01	50.6744
1024.45	86.2842
1028.88	75.4358
1033.32	32.7105
1037.75	75.505
1042.18	70.0159
1046.61	80.277
1051.03	46.3107
1055.45	24.5051
1059.87	76.1775
1064.29	28.5657
1068.7	46.3524
1073.11	8.18347
1077.52	38.6005
1081.93	28.136
1086.33	19.6986
1090.73	4.89648
1095.13	56.7736
1099.52	5.36169
1103.92	58.9305
1108.31	12.5706
1112.69	24.2684
1117.08	9.09558
1121.46	11.3447
1125.84	23.3511
1130.22	40.009
1134.59	1.34155
1138.96	16.2873
1143.33	87.901
1147.7	81.5078
1152.06	28.1495
1156.43	54.9916
1160.79	3.83398
1165.14	40.2924
1169.49	33.9982
1173.85	10.3195
1178.19	2.59204
1182.54	22.056
1186.88	32.8101
1191.22	46.545
1195.56	10.2841
1199.9	20.9963
1204.23	36.6725
1208.56	47.4312
1212.89	78.2181
1217.21	57.0237
1221.54	123.626
1225.86	129.184
1230.17	38.9962
1234.49	88.5673
1238.8	9.80774
1243.11	61.5303
1247.41	22.9762
1251.72	50.3549
1256.02	31.2788
1260.32	47.8666
1264.62	100.806
1268.91	52.0085
1273.2	74.1322
1277.49	54.2963
1281.78	6.48682
1286.06	21.7003
1290.34	36.9099
1294.62	31.1637
1298.89	7.44861
1303.16	47.2801
1307.44	34.5952
1311.7	54.236
1315.97	52.596
1320.23	13.9862
1324.49	53.4589
1328.75	14.4467
1333	49.0687
1337.25	5.55981
1341.5	36.1337
1345.75	31.6836
1349.99	57.2673
1354.24	49.9242
1358.47	5.97852
1362.71	10.6855
1366.94	39.3842
1371.18	30.1377
1375.4	53.971
1379.63	5.82422
1383.85	38.7388
1388.08	18.554
1392.29	5.12097
1396.51	32.619
1400.72	9.6908
1404.93	13.939
1409.14	68.8098
1413.35	56.0418
1417.55	29.1092
1421.75	55.9646
1425.94	41.7042
1430.14	98.2816
1434.33	63.4665
1438.52	38.8943
1442.71	6.06213
1446.89	42.3195
1451.07	32.6417
1455.25	38.0173
1459.43	29.5906
1463.6	0.153931
1467.77	38.335
1471.94	31.8795
1476.11	2.46704
1480.27	61.8192
1484.43	28.3175
1488.59	58.8259
1492.74	54.3706
1496.9	23.9961
1501.05	24.769
1505.2	59.6576
1509.34	63.619
1513.48	46.2025
1517.62	56.3717
1521.76	22.4949
1525.9	9.6748
1530.03	72.7031
1534.16	45.1
1538.28	59.3734
1542.41	62.5986
1546.53	31.4014
1550.65	14.7609
1554.77	18.0984
1558.88	36.0984
