Measurement: Raman, 514 nm, ccw, Raman Data Processed
Mineral: Baddeleyite
Rruff sample: R060016
Ideal chemistry: ZrO_2_
Locality: Wet Loo, Myanmar
Source: American Museum of Natural History
Description: Brown crystal fragment
Measured chemistry: (Zr_0.99_Ti_0.01_)_Î£=1_O_2_
Pin_id: M01376
Orientation: Laser parallel to c* (0 0 1). Fiducial mark perpendicular to laser is parallel to -a [-1 0 0]
Raman shift (cm-1)	intensity
135.707	0
140.633	76.9028
145.556	71.8311
150.476	21.7895
155.395	325.576
160.31	482.914
165.223	1620.29
170.134	4276.87
175.042	9364.77
179.947	9695.6
184.85	7750.01
189.751	11732.7
194.649	5256.82
199.544	1140.85
204.437	704.687
209.327	713.227
214.215	1682.15
219.1	3649.66
223.982	3304.36
228.862	844.625
233.74	348.637
238.615	258.509
243.487	266.309
248.357	347.066
253.224	314.772
258.089	366.427
262.951	393.028
267.811	374.831
272.668	295.637
277.523	619.467
282.375	796.568
287.224	1209.51
292.071	1451.16
296.916	1965.56
301.758	2636.58
306.597	2997.82
311.434	2779.97
316.268	2988.85
321.099	5040.28
325.928	10236.1
330.755	17722.3
335.579	14541.7
340.4	6843.28
345.219	5726.03
350.035	4283.9
354.849	1616.74
359.66	803.467
364.469	670.082
369.275	1153.61
374.078	2343.06
378.879	3573.45
383.678	3384.77
388.473	1720.05
393.267	502.267
398.057	47.4434
402.845	79.5298
407.631	99.0703
412.414	219.252
417.194	94.7764
421.972	44.3882
426.748	142.492
431.52	157.835
436.29	252.291
441.058	376.96
445.823	797.582
450.586	1453.77
455.345	2552.79
460.103	5356.92
464.858	12620.2
469.61	24749.5
474.359	33611
479.106	19974.6
483.851	7858.28
488.593	4158.12
493.332	3507.09
498.069	3769.2
502.803	3556.47
507.535	1722.89
512.264	1099.5
516.99	788.278
521.714	854.278
526.435	1624.5
531.154	3472.93
535.87	6199.68
540.584	5326.56
545.295	3247.92
550.004	3725.24
554.709	5083.7
559.413	4604.33
564.113	2121.14
568.812	828.65
573.507	355.244
578.2	103.47
582.891	11.1807
587.578	0.606445
592.264	207.14
596.946	416.378
601.626	1157.13
606.304	2511.43
610.979	4271.26
615.651	4828.63
620.321	3293.54
624.988	1991.99
629.653	1802.96
634.315	2144.45
638.974	1791.41
643.631	1089.83
648.285	481.711
652.937	300.067
657.586	243.885
662.233	136.519
666.877	48.2178
671.518	177.409
676.157	241.426
680.793	234.606
685.427	275.491
690.058	496.384
694.686	747.554
699.312	830.493
703.935	941.706
708.556	1146.6
713.174	902.467
717.789	838.544
722.402	471.874
727.013	369.428
731.62	419.382
736.225	444.944
740.828	424.902
745.428	656.313
750.025	704.27
754.62	694.173
759.212	588.704
763.802	493.258
768.389	425.051
772.973	187.167
777.555	295.505
782.134	184.581
786.711	31.5273
791.285	121.557
795.856	35.3643
800.425	86.4795
804.992	101.255
809.555	42.9443
814.116	83.0986
818.675	10.8584
823.231	102.526
827.784	98.708
832.335	34.7315
836.883	75.5772
841.428	29.3467
845.971	94.2227
850.512	90.1367
855.049	139.87
859.584	139.019
864.117	115.561
868.647	14.3779
873.174	13.7695
877.699	127.533
882.221	110.619
886.741	8.34863
891.258	49.416
895.772	99.9873
900.284	54.0693
904.793	63.626
909.3	163.923
913.803	188.721
918.305	257.16
922.804	44.9551
927.3	202.892
931.793	200.719
936.284	287.231
940.773	180.36
945.258	243.423
949.742	189.266
954.222	189.79
958.7	208.902
963.176	225.001
967.648	176.137
972.119	99.3203
976.586	225.495
981.051	172.467
985.513	203.31
989.973	53.2324
994.43	133.827
998.885	64.1543
1003.34	131.755
1007.79	187.554
1012.23	251.899
1016.68	100.592
1021.12	187.137
1025.56	218.658
1029.99	127.647
1034.43	185.987
1038.86	65.4648
1043.29	142.605
1047.71	127.182
1052.14	139.787
1056.56	67.4658
1060.98	142.538
1065.39	117.814
1069.8	145.003
1074.21	165.027
1078.62	159.412
1083.03	119.106
1087.43	148.315
1091.83	14.5156
1096.23	39.7881
1100.62	61.3203
1105.01	138.074
1109.4	2.44434
1113.79	47.1582
1118.17	107.356
1122.56	24.1855
1126.93	213.102
1131.31	126.329
1135.69	146.453
1140.06	21.209
1144.42	75.1211
1148.79	154.148
1153.15	235.233
1157.52	157.384
1161.87	66.5312
1166.23	158.689
1170.58	23.2783
1174.93	26.3994
1179.28	116.459
1183.63	89.4531
1187.97	68.6387
1192.31	37.3555
1196.65	20.3252
1200.98	1.47852
1205.31	105.65
1209.64	91.4287
1213.97	97.3731
1218.29	3.00488
1222.62	65.0586
1226.93	166.119
1231.25	154.538
1235.57	30.876
1239.88	161.669
1244.18	21.958
1248.49	29.7842
1252.8	74.3711
1257.1	31.2568
1261.39	69.084
1265.69	101.163
1269.98	125.829
1274.27	180.685
1278.56	80.6006
1282.85	28.8691
1287.13	72.624
1291.41	102.699
1295.69	19.1221
1299.96	133.124
1304.23	57.2676
1308.5	82.6875
1312.77	85.1719
1317.03	140.737
1321.3	77.251
1325.56	116.537
1329.81	126.341
1334.07	153.268
1338.32	199.221
1342.57	107.231
1346.81	25.3281
1351.06	89.4932
1355.3	63.915
1359.54	65.2353
1363.77	143.613
1368	57.0801
1372.23	64.6397
1376.46	149.402
1380.69	42.917
1384.91	104.87
1389.13	185.917
1393.35	213.075
1397.56	94.4121
1401.77	202.8
1405.98	63.3086
1410.19	21.918
1414.39	171.394
1418.6	200.264
1422.8	115.753
1426.99	243.545
1431.19	161.863
1435.38	142.977
1439.57	161.894
1443.75	232.476
1447.94	164.308
1452.12	187.287
1456.3	121.412
1460.47	217.714
1464.64	81.543
1468.82	187.234
1472.98	171.917
1477.15	155.611
1481.31	75.0205
1485.47	123.957
1489.63	62.9922
1493.78	210.12
1497.94	216.269
1502.09	30.5176
1506.23	43.9922
1510.38	69.6592
1514.52	100.751
1518.66	79.2812
1522.8	42.2227
1526.93	142.56
1531.06	234.371
1535.19	69.1602
1539.32	171.757
1543.44	106.583
1547.56	135.434
1551.68	76.667
1555.79	215.359
1559.91	2.63281
