Measurement: Raman, 514 nm, ccw, Raman Data Processed
Mineral: Baddeleyite
Rruff sample: R060078
Ideal chemistry: ZrO_2_
Locality: Wetloo mine, Mogok, Burma
Source: Marcus Origlieri
Description: Dark brown fragment
Measured chemistry: (Zr_0.99_Hf_0.01_)_Î£=1_O_2_
Pin_id: L01986
Orientation: Laser parallel to a* (1 0 0). Fiducial mark perpendicular to laser is parallel to -b [0 -1 0]
Raman shift (cm-1)	intensity
72.477	0
77.423	309.786
82.367	321.121
87.308	318.775
92.246	925.151
97.182	2056.72
102.116	2924.27
107.047	6871.17
111.976	2426.92
116.903	1559.83
121.827	577.629
126.749	205.79
131.668	257.188
136.585	202.346
141.5	302.427
146.412	214.473
151.321	467.191
156.229	513.849
161.134	946.169
166.036	3145.01
170.936	9877.65
175.834	13995.2
180.729	35412.2
185.622	19372.6
190.512	19488.9
195.4	30384.8
200.286	5219.02
205.169	1714.52
210.049	928.336
214.928	1837.46
219.803	1987.59
224.677	3857.36
229.548	1078.39
234.416	198.934
239.282	36.5674
244.146	197.131
249.007	106.672
253.866	122.622
258.722	218.88
263.576	86.9951
268.427	162.866
273.276	29.8613
278.123	192.727
282.967	470.553
287.809	732.616
292.648	1197.25
297.485	2425.27
302.319	4189.96
307.151	6914.92
311.98	8402.6
316.807	3699.78
321.631	2674.28
326.454	3522.07
331.273	4183.13
336.09	5821.45
340.905	7723.02
345.717	12247.9
350.527	19070
355.334	8849.35
360.139	3687.03
364.941	3036.03
369.741	4553.61
374.538	9258.69
379.333	16240.2
384.126	23192.6
388.916	18658.3
393.703	7342.1
398.488	2809.86
403.271	1417.61
408.051	774.644
412.828	179.284
417.603	9.28516
422.376	141.826
427.146	55.3232
431.914	132.713
436.679	22.375
441.442	167.06
446.202	538.552
450.96	1011.95
455.715	2152.94
460.467	4698.57
465.218	10748.9
469.965	22846.8
474.711	42508.5
479.454	41652.9
484.194	15072
488.932	6249.78
493.667	4382.34
498.4	4304.64
503.13	5447.69
507.858	2921.52
512.583	1144.17
517.306	411.752
522.026	291.157
526.744	163.745
531.459	599.828
536.172	948.948
540.882	1483.62
545.59	1529.6
550.295	2497.61
554.998	4715.22
559.698	6261.13
564.396	3357.78
569.091	1243.16
573.784	372.816
578.474	133.45
583.162	93.3398
587.847	159.971
592.529	456.56
597.209	1231.18
601.887	2747.74
606.562	5957.2
611.235	11164.6
615.905	16316.9
620.572	13438
625.237	6430.06
629.9	3448.93
634.56	2535.62
639.217	2130.12
643.872	1219.41
648.524	570.606
653.174	337.833
657.821	153.736
662.466	144.591
667.108	153.411
671.748	148.305
676.385	176.879
681.02	290.607
685.652	359.902
690.281	402.943
694.908	434.913
699.533	671.093
704.155	707.149
708.774	790.128
713.391	1136.12
718.005	1025.37
722.617	770.602
727.226	734.398
731.833	806.495
736.437	505.575
741.039	548.144
745.638	738.999
750.234	1085.97
754.828	1101.16
759.419	1103.67
764.008	784.735
768.595	532.488
773.178	438.197
777.759	254.944
782.338	106.794
786.914	25.5049
791.488	96.1123
796.059	74.1299
800.627	87.7627
805.193	74.8848
809.756	86.3584
814.317	53.6582
818.875	0.699219
823.431	11.623
827.984	4.1084
832.534	30.4512
837.082	5.77148
841.627	9.1709
846.17	111.891
850.71	91.208
855.248	34.1621
859.783	90.6631
864.316	70.9522
868.846	75.6231
873.373	39.6113
877.898	212.064
882.42	136.966
886.94	193.307
891.457	190.073
895.971	243.259
900.483	243.909
904.993	264.077
909.5	186.712
914.004	224.83
918.505	286.474
923.004	352.555
927.501	149.458
931.995	338.667
936.486	227.789
940.975	413.242
945.461	225.704
949.945	201.441
954.426	314.359
958.904	163.31
963.38	256.048
967.853	178.113
972.324	193.008
976.792	248.135
981.258	176.077
985.72	142.685
990.181	225.732
994.639	243.533
999.094	231.206
1003.55	189.862
1008	193.24
1012.44	307.896
1016.89	231.149
1021.33	272.91
1025.77	351.036
1030.21	355.042
1034.64	232.741
1039.07	276.039
1043.5	168.162
1047.93	292.094
1052.35	350.18
1056.78	402.546
1061.19	213.274
1065.61	348.389
1070.02	304.153
1074.43	346.144
1078.84	269.999
1083.25	321.631
1087.65	300.88
1092.05	238.543
1096.45	178.737
1100.85	203.711
1105.24	189.92
1109.63	191.965
1114.02	282.688
1118.4	195.554
1122.78	276.554
1127.16	148.689
1131.54	204.858
1135.92	151.138
1140.29	36.4912
1144.66	87.8603
1149.02	180.868
1153.39	114.342
1157.75	189.889
1162.11	131.774
1166.46	6.02734
1170.82	78.1035
1175.17	66.75
1179.52	120.4
1183.86	33.0478
1188.21	58.5957
1192.55	124.415
1196.89	4.61719
1201.22	107.174
1205.55	48.7119
1209.88	32.832
1214.21	64.4316
1218.54	295.056
1222.86	274.703
1227.18	186.409
1231.5	82.1728
1235.81	65.9863
1240.12	21.834
1244.43	122.736
1248.74	45.0459
1253.04	149.664
1257.34	185.697
1261.64	75.7725
1265.94	149.888
1270.23	148.297
1274.52	183.488
1278.81	86.7148
1283.1	161.968
1287.38	200.462
1291.66	44.5293
1295.94	129.823
1300.21	118.107
1304.48	192.178
1308.75	122.885
1313.02	50.9228
1317.29	62.1602
1321.55	200.712
1325.81	166.318
1330.06	39.2119
1334.32	191.036
1338.57	71.8496
1342.82	204.378
1347.06	38.5098
1351.31	44.3926
1355.55	172.332
1359.79	23.3379
1364.02	129.412
1368.26	32.9883
1372.49	11.0713
1376.71	122.207
1380.94	180.557
1385.16	72.4248
1389.38	187.941
1393.6	126.529
1397.81	113.166
1402.02	164.928
1406.23	107.211
1410.44	5.85352
1414.64	113.359
1418.85	170.935
1423.04	155.866
1427.24	28.7705
1431.43	77.1768
1435.62	147.557
1439.81	184.079
1444	142.762
1448.18	145.769
1452.36	682.17
1456.54	230.161
1460.71	12.082
1464.89	94.8496
1469.06	64.9209
1473.22	141.667
1477.39	206.144
1481.55	122.542
1485.71	117.347
1489.86	204.826
1494.02	36.6162
1498.17	312.404
1502.32	93.6592
1506.46	218.177
1510.61	63.96
1514.75	149.096
1518.88	263.521
1523.02	42.7793
1527.15	175.776
1531.28	68.1992
1535.41	31.8301
1539.53	115.222
1543.66	211.178
1547.78	198.066
1551.89	421.051
1556.01	458.331
1560.12	118.551
1564.23	69.168
1568.33	149.312
