Measurement: Raman, 514 nm, ccw, Raman Data Processed
Mineral: Baddeleyite
Rruff sample: R060016
Ideal chemistry: ZrO_2_
Locality: Wet Loo, Myanmar
Source: American Museum of Natural History
Description: Brown crystal fragment
Measured chemistry: (Zr_0.99_Ti_0.01_)_Î£=1_O_2_
Pin_id: M00083
Orientation: Laser parallel to (1 0 -1). Fiducial mark perpendicular to laser is parallel to b [0 1 0]
Raman shift (cm-1)	intensity
40.393	0
45.367	16.5178
50.339	23.8602
55.309	32.3761
60.276	53.655
65.24	48.0967
70.202	26.2471
75.161	4.55469
80.118	2.34955
85.072	6.72687
90.024	135.486
94.973	756.798
99.919	1577.68
104.863	1539.27
109.805	613.537
114.744	421.372
119.681	351.633
124.615	365.168
129.546	339.866
134.475	386.613
139.401	426.403
144.325	429.454
149.247	417.828
154.165	520.778
159.082	691.822
163.995	1410.66
168.906	4109.73
173.815	5512.93
178.721	7872.24
183.625	6237.69
188.526	7802.18
193.424	5425.16
198.32	1086.89
203.214	496.347
208.105	351.445
212.993	531.297
217.879	627.154
222.762	582.725
227.643	181.615
232.521	92.3832
237.396	40.5384
242.269	50.9083
247.14	30.4849
252.008	4.74164
256.873	29.3739
261.736	44.6849
266.596	25.1423
271.454	73.6321
276.309	121.441
281.162	144.841
286.012	179.201
290.86	343.247
295.705	604.43
300.547	967.749
305.387	1122.19
310.225	896.739
315.059	734.386
319.892	1122.13
324.721	2298.98
329.549	3035.93
334.373	3097.99
339.195	2877.15
344.015	3312.45
348.832	2858.87
353.646	1142.43
358.458	456.146
363.267	285.013
368.074	335.046
372.878	650.271
377.679	889.677
382.478	939.234
387.275	511.937
392.069	158.776
396.86	30.7257
401.649	0.871765
406.435	33.9795
411.219	36.7392
416	38.943
420.778	12.6077
425.554	41.8478
430.327	76.2925
435.098	164.88
439.866	307.625
444.632	569.778
449.395	958.937
454.156	1853.17
458.914	3865.57
463.669	9210.14
468.422	16821.9
473.172	20787.8
477.92	13973.9
482.665	5556.17
487.408	2747.62
492.148	1952.27
496.885	1827.09
501.62	1585.11
506.352	885.307
511.082	427.695
515.809	372.27
520.533	302.033
525.255	354.011
529.975	764.164
534.692	1171.65
539.406	1135.19
544.118	1174.5
548.827	1849.47
553.533	2693.53
558.237	2588.94
562.938	1235.97
567.637	448.537
572.333	163.401
577.027	59.9811
581.718	16.8391
586.407	7.05689
591.093	97.2771
595.776	183.388
600.457	465.67
605.135	1153.75
609.81	2067.09
614.483	2606.69
619.154	1838.54
623.822	1171.63
628.487	1010.94
633.15	1234.47
637.81	1070.21
642.467	628.151
647.122	309.296
651.774	118.636
656.424	89.1705
661.071	3.89172
665.716	3.79297
670.358	11.1313
674.997	20.1056
679.634	22.5863
684.268	30.1278
688.9	11.9546
693.529	30.854
698.156	76.2556
702.78	61.7474
707.401	107.207
712.02	61.462
716.636	73.778
721.249	110.491
725.86	76.2073
730.469	81.9778
735.074	129.789
739.678	153.644
744.278	231.508
748.876	322.456
753.472	317.435
758.064	292.394
762.655	212.5
767.242	173.308
771.827	107.976
776.41	105.221
780.99	26.6409
785.567	31.6485
790.142	39.0209
794.714	26.2039
799.283	33.195
803.85	8.99664
808.415	24.994
812.976	3.26288
817.535	25.6248
822.092	13.1459
826.646	22.9019
831.197	2.60138
835.746	14.7206
840.292	17.8879
844.836	9.97888
849.377	23.5558
853.915	4.44727
858.451	15.187
862.984	31.0518
867.515	34.7537
872.043	4.30151
876.568	1.75354
881.091	21.2513
885.611	7.73602
890.129	33.1503
894.644	29.9959
899.156	18.3228
903.666	32.5677
908.173	29.6376
912.678	53.439
917.18	51.0488
921.679	38.5966
926.176	42.9028
930.67	63.0184
935.162	60.0202
939.651	68.8225
944.137	61.4607
948.621	31.7502
953.102	55.4246
957.581	6.10516
962.057	54.5992
966.53	33.0986
971.001	48.0436
975.469	62.7754
979.935	20.748
984.398	23.1515
988.859	29.2918
993.316	39.7529
997.772	40.6595
1002.22	47.6322
1006.67	46.4896
1011.12	32.6608
1015.57	22.5379
1020.01	44.4211
1024.45	22.8276
1028.88	23.7889
1033.32	29.3835
1037.75	11.6055
1042.18	41.6426
1046.61	37.2318
1051.03	0.424866
1055.45	12.8592
1059.87	35.9547
1064.29	38.1805
1068.7	15.4465
1073.11	22.4297
1077.52	26.671
1081.93	14.3386
1086.33	22.1038
1090.73	35.6073
1095.13	25.4354
1099.52	32.1281
1103.92	20.2964
1108.31	4.01325
1112.69	5.15008
1117.08	27.1429
1121.46	11.9914
1125.84	40.3348
1130.22	6.6709
1134.59	10.0209
1138.96	40.3837
1143.33	74.6658
1147.7	96.6997
1152.06	42.1095
1156.43	11.9784
1160.79	40.162
1165.14	34.6723
1169.49	53.056
1173.85	54.3257
1178.19	11.976
1182.54	23.485
1186.88	37.0817
1191.22	13.7183
1195.56	27.369
1199.9	33.984
1204.23	12.6536
1208.56	23.3433
1212.89	23.6074
1217.21	27.2908
1221.54	10.9435
1225.86	24.5941
1230.17	27.9889
1234.49	11.8171
1238.8	16.46
1243.11	16.2434
1247.41	17.1196
1251.72	28.9918
1256.02	23.8624
1260.32	38.7439
1264.62	30.6343
1268.91	16.6111
1273.2	22.52
1277.49	29.4411
1281.78	45.3749
1286.06	20.3058
1290.34	35.2412
1294.62	9.24219
1298.89	5.19458
1303.16	26.142
1307.44	4.73486
1311.7	19.6879
1315.97	4.64996
1320.23	35.6771
1324.49	41.6262
1328.75	24.5518
1333	14.4725
1337.25	12.3965
1341.5	0.680115
1345.75	4.22241
1349.99	34.108
1354.24	0.988892
1358.47	25.8613
1362.71	23.7376
1366.94	19.5721
1371.18	34.3873
1375.4	13.1144
1379.63	20.1295
1383.85	13.1085
1388.08	40.9299
1392.29	10.7535
1396.51	7.57221
1400.72	4.39356
1404.93	2.21088
1409.14	30.1528
1413.35	37.3257
1417.55	0.258789
1421.75	10.3096
1425.94	28.4725
1430.14	38.4933
1434.33	37.5119
1438.52	24.5311
1442.71	0.125183
1446.89	38.432
1451.07	13.847
1455.25	26.6351
1459.43	64.4664
1463.6	50.3538
1467.77	11.2492
1471.94	8.2923
1476.11	25.0712
1480.27	44.8617
1484.43	7.51562
1488.59	41.8487
1492.74	30.4603
1496.9	19.8878
1501.05	25.6362
1505.2	31.402
1509.34	2.25806
1513.48	45.207
1517.62	20.145
1521.76	22.5303
1525.9	19.0941
1530.03	1.81934
1534.16	0.97821
1538.28	5.35376
1542.41	0.113708
