Measurement: Raman, 514 nm, ccw, Raman Data Processed
Mineral: Baddeleyite
Rruff sample: R060016
Ideal chemistry: ZrO_2_
Locality: Wet Loo, Myanmar
Source: American Museum of Natural History
Description: Brown crystal fragment
Measured chemistry: (Zr_0.99_Ti_0.01_)_Î£=1_O_2_
Pin_id: M00268
Orientation: Laser parallel to b* (0 1 0). Fiducial mark perpendicular to laser is parallel to -c [0 0 -1]
Raman shift (cm-1)	intensity
129.546	0
134.475	83.0093
139.401	123.512
144.325	46.3545
149.247	63.2544
154.165	425.843
159.082	861.615
163.995	1899.63
168.906	4188.14
173.815	9981.2
178.721	13308.6
183.625	9233.9
188.526	18306.6
193.424	13163.8
198.32	4267.88
203.214	3219.14
208.105	2710.22
212.993	2683.97
217.879	2984
222.762	2760.04
227.643	1949.51
232.521	1578.65
237.396	1719.62
242.269	1980.52
247.14	2120.36
252.008	2219.16
256.873	2610.93
261.736	2538.7
266.596	2121.49
271.454	2423.73
276.309	2939.95
281.162	3559.35
286.012	4534.77
290.86	5289.72
295.705	6642.05
300.547	8120.56
305.387	10096.8
310.225	8467.37
315.059	6429.07
319.892	6132.65
324.721	7035.92
329.549	7868.75
334.373	7391.06
339.195	7417.78
344.015	11684.9
348.832	11574.1
353.646	5142.31
358.458	2414.39
363.267	1955.43
368.074	2507.44
372.878	5062.46
377.679	8736.49
382.478	6370.56
387.275	2900.66
392.069	1101.83
396.86	393.073
401.649	8.36768
406.435	266.671
411.219	459.926
416	345.511
420.778	207.78
425.554	72.2939
430.327	204.934
435.098	388.681
439.866	590.892
444.632	679.516
449.395	930.533
454.156	1604.93
458.914	2989.71
463.669	5796.86
468.422	12031.4
473.172	20247.3
477.92	14806.6
482.665	5730.29
487.408	2699.4
492.148	2000.92
496.885	1938.87
501.62	1647.28
506.352	897.157
511.082	592.516
515.809	423.401
520.533	469.867
525.255	804.063
529.975	1292.11
534.692	1897.01
539.406	2217.8
544.118	2342.91
548.827	3551.87
553.533	5907.75
558.237	6708.31
562.938	4164.67
567.637	2101.22
572.333	1239.3
577.027	686.515
581.718	566.317
586.407	649.671
591.093	718.027
595.776	1387.86
600.457	2529.65
605.135	4617.41
609.81	6635.17
614.483	6843.9
619.154	5692.59
623.822	5391.14
628.487	8082.82
633.15	12656.3
637.81	13720.8
642.467	8639.06
647.122	4322.27
651.774	2432.11
656.424	1560.65
661.071	950.479
665.716	909.716
670.358	763.069
674.997	742.708
679.634	929.835
684.268	1122.1
688.9	1414.93
693.529	1803.57
698.156	2383.25
702.78	2766.91
707.401	3087.29
712.02	2382.91
716.636	1958.49
721.249	1244.47
725.86	794.172
730.469	669.827
735.074	450.191
739.678	459.194
744.278	479.543
748.876	515.717
753.472	499.306
758.064	504.719
762.655	389.743
767.242	292.002
771.827	168.29
776.41	222.564
780.99	78.7881
785.567	82.9356
790.142	3.83398
794.714	45.9839
799.283	48.523
803.85	45.6226
808.415	49.523
812.976	77.4004
817.535	84.2969
822.092	64.0649
826.646	50.8989
831.197	71.23
835.746	79.4741
840.292	37.1558
844.836	39.8882
849.377	93.5122
853.915	15.5049
858.451	102.384
862.984	74.3936
867.515	188.7
872.043	190.368
876.568	228.456
881.091	241.022
885.611	219.719
890.129	242.673
894.644	256.906
899.156	267.412
903.666	361.345
908.173	356.604
912.678	312.101
917.18	320.918
921.679	373.976
926.176	432.273
930.67	367.529
935.162	314.789
939.651	379.795
944.137	318.871
948.621	313.644
953.102	255.393
957.581	259.437
962.057	158.794
966.53	148.584
971.001	184.785
975.469	223.851
979.935	155.546
984.398	130.077
988.859	122.435
993.316	246.306
997.772	200.887
1002.22	175.835
1006.67	195.557
1011.12	222.268
1015.57	197.384
1020.01	175.31
1024.45	171.888
1028.88	215.164
1033.32	178.525
1037.75	244.364
1042.18	150.808
1046.61	115.918
1051.03	109.713
1055.45	126.201
1059.87	133.278
1064.29	147.223
1068.7	132.036
1073.11	45.7935
1077.52	95.5566
1081.93	123.525
1086.33	28.657
1090.73	91.8206
1095.13	54.7043
1099.52	5.61377
1103.92	42.5508
1108.31	102.449
1112.69	68.5283
1117.08	26.198
1121.46	41.7893
1125.84	64.1706
1130.22	35.0962
1134.59	102.967
1138.96	146.736
1143.33	41.1399
1147.7	193.648
1152.06	161.072
1156.43	82.4888
1160.79	40.8875
1165.14	141.276
1169.49	123.455
1173.85	134.581
1178.19	65.0977
1182.54	45.2217
1186.88	10.4619
1191.22	35.833
1195.56	51.5408
1199.9	49.231
1204.23	79.4358
1208.56	135.628
1212.89	40.158
1217.21	103.395
1221.54	87.2495
1225.86	100.504
1230.17	75.7415
1234.49	12.7434
1238.8	106.502
1243.11	102.588
1247.41	132.696
1251.72	14.8877
1256.02	118.265
1260.32	94.1199
1264.62	39.127
1268.91	28.1299
1273.2	57.9009
1277.49	62.01
1281.78	30.1545
1286.06	31.1904
1290.34	50.4429
1294.62	10.7476
1298.89	39.1038
1303.16	67.511
1307.44	146.957
1311.7	129.452
1315.97	10.9277
1320.23	69.5266
1324.49	60.1877
1328.75	45.9075
1333	24.6885
1337.25	30.5432
1341.5	89.4636
1345.75	22.5481
1349.99	106.632
1354.24	42.7539
1358.47	97.948
1362.71	4.24414
1366.94	60.6489
1371.18	110.755
1375.4	64.4895
1379.63	65.6287
1383.85	74.5708
1388.08	100.56
1392.29	111.623
1396.51	162.232
1400.72	85.6365
1404.93	163.977
1409.14	191.492
1413.35	105.948
1417.55	204.196
1421.75	138.45
1425.94	96.4783
1430.14	129.398
1434.33	95.8713
1438.52	137.654
1442.71	83.199
1446.89	133.463
1451.07	91.2463
1455.25	45.5059
1459.43	50.4204
1463.6	229.572
1467.77	98.8254
1471.94	95.1604
1476.11	63.5063
1480.27	94.8545
1484.43	75.3325
1488.59	40.8796
1492.74	23.4653
1496.9	23.3435
1501.05	87.3875
1505.2	20.6597
1509.34	54.8457
1513.48	73.9121
1517.62	30.8921
1521.76	84.7468
1525.9	69.2666
1530.03	2.66602
1534.16	52.1499
1538.28	37.8137
1542.41	34.8438
1546.53	59.3596
1550.65	33.304
1554.77	102.195
1558.88	26.0132
