Measurement: Raman, 514 nm, ccw, Raman Data Processed
Mineral: Baddeleyite
Rruff sample: R060016
Ideal chemistry: ZrO_2_
Locality: Wet Loo, Myanmar
Source: American Museum of Natural History
Description: Brown crystal fragment
Measured chemistry: (Zr_0.99_Ti_0.01_)_Î£=1_O_2_
Pin_id: M00083
Orientation: Laser parallel to (1 0 -1). Fiducial mark perpendicular to laser is parallel to b [0 1 0]
Raman shift (cm-1)	intensity
40.393	0
45.367	20.033
50.339	48.3014
55.309	69.1857
60.276	138.943
65.24	61.0489
70.202	9.59674
75.161	35.3146
80.118	23.8798
85.072	149.258
90.024	1276.28
94.973	6525.69
99.919	27418.4
104.863	27127.8
109.805	6477.9
114.744	2875.5
119.681	1891.64
124.615	1539.69
129.546	1371.34
134.475	1421.22
139.401	1432.68
144.325	1399.13
149.247	1506.59
154.165	1752.53
159.082	2294.52
163.995	3964.72
168.906	9020.89
173.815	23150.5
178.721	32680.8
183.625	10644.5
188.526	8218.18
193.424	5953.05
198.32	2036.19
203.214	1408.68
208.105	1185.17
212.993	1231.51
217.879	1403.07
222.762	1394.04
227.643	953.143
232.521	858.438
237.396	941.027
242.269	921.854
247.14	850.599
252.008	888.975
256.873	941.258
261.736	896.247
266.596	806.116
271.454	847.439
276.309	993.338
281.162	1238.22
286.012	1604.41
290.86	2324.68
295.705	3657.69
300.547	6157.04
305.387	8881.4
310.225	6657.47
315.059	3598.68
319.892	2911
324.721	3637.42
329.549	5193.92
334.373	5385.52
339.195	4437.3
344.015	6048.29
348.832	5532.51
353.646	2029.98
358.458	819.71
363.267	610.716
368.074	808.045
372.878	1633.74
377.679	2990.68
382.478	1736.83
387.275	546.173
392.069	233.703
396.86	120.414
401.649	17.293
406.435	36.8148
411.219	115.177
416	134.333
420.778	198.39
425.554	80.3787
430.327	72.054
435.098	77.0811
439.866	39.4753
444.632	35.1324
449.395	33.9436
454.156	113.306
458.914	248.801
463.669	839.553
468.422	2008.57
473.172	3733.87
477.92	3325.46
482.665	1509.73
487.408	838.554
492.148	809.074
496.885	1374.92
501.62	1522.1
506.352	744.619
511.082	266.485
515.809	182.704
520.533	96.6143
525.255	337.223
529.975	673.54
534.692	1272.24
539.406	1322.34
544.118	741.408
548.827	803.163
553.533	1170.33
558.237	1241.52
562.938	823.596
567.637	611.587
572.333	514.06
577.027	563.856
581.718	621.373
586.407	820.859
591.093	1167.23
595.776	1714.68
600.457	2663.82
605.135	4445.66
609.81	6817.19
614.483	9792.46
619.154	12305.5
623.822	18594.2
628.487	33314.6
633.15	54276.6
637.81	58995.3
642.467	36859.7
647.122	18460.7
651.774	10162.4
656.424	6238.71
661.071	4214.68
665.716	3012.29
670.358	2275.54
674.997	1898.49
679.634	1544.76
684.268	1378.24
688.9	1256.7
693.529	1244.51
698.156	1182.53
702.78	1261.21
707.401	1211.23
712.02	1075.15
716.636	944.658
721.249	724.854
725.86	637.008
730.469	612.175
735.074	518.524
739.678	552.147
744.278	576.8
748.876	686.824
753.472	663.822
758.064	657.666
762.655	545.876
767.242	407.693
771.827	291.269
776.41	191.857
780.99	225.618
785.567	145.55
790.142	147.581
794.714	104.716
799.283	81.9358
803.85	85.6757
808.415	41.9974
812.976	17.8242
817.535	48.6771
822.092	25.0448
826.646	12.6699
831.197	47.6511
835.746	36.1725
840.292	93.9152
844.836	19.4979
849.377	23.5418
853.915	44.4525
858.451	11.8464
862.984	21.3668
867.515	2.95862
872.043	26.7732
876.568	35.3618
881.091	44.7583
885.611	11.5852
890.129	24.9365
894.644	75.1383
899.156	69.0961
903.666	99.9828
908.173	111.597
912.678	124.572
917.18	114.669
921.679	151.29
926.176	156.566
930.67	153.287
935.162	141.715
939.651	120.982
944.137	159.586
948.621	110.141
953.102	129.682
957.581	120.203
962.057	163.426
966.53	78.6381
971.001	92.3606
975.469	65.2289
979.935	113.192
984.398	96.9888
988.859	82.2849
993.316	60.5983
997.772	102.593
1002.22	70.9506
1006.67	86.7582
1011.12	62.548
1015.57	62.3032
1020.01	76.1375
1024.45	32.8794
1028.88	47.4545
1033.32	45.2649
1037.75	92.7795
1042.18	27.2548
1046.61	71.6132
1051.03	22.4088
1055.45	36.2328
1059.87	73.8164
1064.29	39.1616
1068.7	15.2681
1073.11	28.512
1077.52	30.8826
1081.93	17.5947
1086.33	61.2393
1090.73	65.8585
1095.13	54.773
1099.52	40.7048
1103.92	42.8928
1108.31	8.26904
1112.69	12.8752
1117.08	38.6733
1121.46	65.8125
1125.84	22.8446
1130.22	27.9983
1134.59	90.2444
1138.96	62.7424
1143.33	156.846
1147.7	148.919
1152.06	117.134
1156.43	80.0469
1160.79	77.0859
1165.14	22.7366
1169.49	49.4312
1173.85	61.4801
1178.19	28.1161
1182.54	53.0306
1186.88	24.8081
1191.22	52.8986
1195.56	81.7936
1199.9	67.588
1204.23	46.384
1208.56	22.6641
1212.89	55.8976
1217.21	61.0674
1221.54	65.1583
1225.86	53.715
1230.17	41.7972
1234.49	66.1921
1238.8	22.3713
1243.11	16.7395
1247.41	39.2714
1251.72	42.9742
1256.02	6.31885
1260.32	50.4183
1264.62	28.2107
1268.91	39.0242
1273.2	38.8629
1277.49	13.7291
1281.78	23.6206
1286.06	6.53711
1290.34	19.4829
1294.62	40.4601
1298.89	5.4906
1303.16	44.5175
1307.44	31.5569
1311.7	3.88513
1315.97	17.9508
1320.23	37.0348
1324.49	32.1415
1328.75	2.72705
1333	11.5254
1337.25	7.33936
1341.5	47.0789
1345.75	6.43811
1349.99	42.8462
1354.24	0.841797
1358.47	9.50989
1362.71	6.92053
1366.94	4.43335
1371.18	50.9252
1375.4	25.391
1379.63	49.9513
1383.85	35.3204
1388.08	52.8353
1392.29	62.3864
1396.51	23.2192
1400.72	55.929
1404.93	67.6313
1409.14	64.2313
1413.35	61.8347
1417.55	65.3705
1421.75	31.0989
1425.94	43.3878
1430.14	52.6697
1434.33	67.3124
1438.52	52.8441
1442.71	38.7393
1446.89	34.3582
1451.07	45.4259
1455.25	41.8834
1459.43	17.6748
1463.6	1.46277
1467.77	45.2461
1471.94	28.1107
1476.11	23.9886
1480.27	17.8435
1484.43	36.6997
1488.59	38.5649
1492.74	25.446
1496.9	30.3914
1501.05	23.4406
1505.2	27.6446
1509.34	10.9592
1513.48	38.9299
1517.62	31.6487
1521.76	47.1183
1525.9	31.5824
1530.03	59.6265
1534.16	68.6536
1538.28	12.7688
1542.41	8.24536
1546.53	48.9531
1550.65	47.0685
1554.77	30.5575
1558.88	46.0192
