Measurement: Raman, 514 nm, ccw, Raman Data Processed
Mineral: Baddeleyite
Rruff sample: R060078
Ideal chemistry: ZrO_2_
Locality: Wetloo mine, Mogok, Burma
Source: Marcus Origlieri
Description: Dark brown fragment
Measured chemistry: (Zr_0.99_Hf_0.01_)_Î£=1_O_2_
Pin_id: L01986
Orientation: Laser parallel to a* (1 0 0). Fiducial mark perpendicular to laser is parallel to -b [0 -1 0]
Raman shift (cm-1)	intensity
51.431	0
56.387	24.6115
61.341	11.1163
66.292	46.2023
71.241	376.381
76.187	944.448
81.131	762.921
86.072	806.16
91.012	1412.73
95.948	2168.55
100.883	2700.75
105.815	4632.24
110.744	2975.43
115.671	1879.08
120.596	1294.99
125.519	884.554
130.439	819.393
135.356	745.869
140.271	875.841
145.184	781.44
150.094	833.82
155.002	994.568
159.908	1080.31
164.811	2003.24
169.711	5210.3
174.61	7482.93
179.505	16269.1
184.399	16940.7
189.29	14041.9
194.178	26873.5
199.064	6281.96
203.948	1890.02
208.829	658.244
213.708	567.406
218.585	463.827
223.459	531.288
228.33	255.634
233.199	111.749
238.066	89.5431
242.93	59.053
247.792	8.87134
252.651	30.741
257.508	6.36768
262.363	59.5706
267.215	22.4504
272.064	32.468
276.912	8.69312
281.756	89.7402
286.598	154.702
291.438	297.029
296.276	759.638
301.111	1344.45
305.943	2223.56
310.773	2626.89
315.601	1416.58
320.426	965.584
325.248	1291.89
330.068	1901.5
334.886	2877.41
339.701	4062.62
344.514	5961.13
349.324	9515.05
354.132	5416.43
358.938	1690.23
363.741	698.45
368.541	449.051
373.339	487.019
378.135	742.268
382.928	996.018
387.718	1012.33
392.506	324.287
397.292	93.9458
402.075	32.7039
406.856	17.7471
411.634	82.217
416.41	17.8064
421.183	46.9199
425.954	75.9477
430.722	188.277
435.488	320.953
440.251	676.98
445.012	1060.24
449.77	1816.65
454.526	3219.51
459.28	6569
464.03	14926.8
468.779	31808
473.525	51809.5
478.268	60989.4
483.009	26640.6
487.747	10122.2
492.483	5433.19
497.217	3658.58
501.948	2881.34
506.676	2034.42
511.402	1317.88
516.125	906.598
520.846	777.267
525.565	608.061
530.281	764.826
534.994	917.989
539.705	1210.59
544.413	1835.36
549.119	3478.8
553.822	5788.81
558.523	8084.7
563.222	5527.32
567.917	2011.11
572.611	784.769
577.302	289.906
581.99	124.528
586.676	9.59692
591.359	38.9697
596.04	52.3015
600.718	170.606
605.394	506.861
610.067	1113.51
614.737	1767.5
619.406	1700.82
624.071	843.48
628.734	232.471
633.395	20.7783
638.053	56.4004
642.708	1.68726
647.361	0.477051
652.012	15.9141
656.66	35.6399
661.305	14.6357
665.948	68.8943
670.588	35.4016
675.226	158.529
679.861	122.686
684.494	215.618
689.124	206.484
693.752	230.936
698.377	244.085
702.999	249.791
707.619	332.413
712.237	340.066
716.852	341.098
721.464	267.959
726.074	310.864
730.681	319.849
735.286	245.443
739.888	303.178
744.488	330.285
749.085	379.513
753.68	388.733
758.272	415.737
762.861	306.746
767.448	244.826
772.033	184.31
776.614	169.743
781.194	80.9941
785.77	19.8704
790.345	84.0432
794.916	51.7285
799.485	111.357
804.052	62.0679
808.616	31.085
813.177	30.908
817.736	24.7881
822.292	29.4084
826.846	24.665
831.397	2.57495
835.945	16.3579
840.491	15.8845
845.035	7.73462
849.576	39.2947
854.114	48.0662
858.65	29.6799
863.183	11.1013
867.713	39.2776
872.241	17.3027
876.767	19.1538
881.29	4.22607
885.81	78.0869
890.328	37.1863
894.843	22.0771
899.356	47.7126
903.866	5.12427
908.373	13.3201
912.878	45.3059
917.38	62.0776
921.88	49.6506
926.377	36.1472
930.872	57.1404
935.364	78.0854
939.853	48.8101
944.34	87.3447
948.824	77.3562
953.306	81.3767
957.785	109.661
962.261	66.1103
966.735	24.884
971.207	90.3655
975.675	86.9944
980.141	67.1846
984.605	74.6221
989.066	77.9067
993.524	107.645
997.98	75.3452
1002.43	118.427
1006.88	79.8164
1011.33	104.909
1015.78	102.334
1020.22	73.8748
1024.66	121.49
1029.1	87.6291
1033.53	124.667
1037.97	108.917
1042.4	98.2466
1046.82	109.337
1051.25	112.046
1055.67	123.639
1060.09	91.1934
1064.51	101.042
1068.92	82.8569
1073.33	129.975
1077.74	53.9331
1082.15	91.8962
1086.55	156.103
1090.95	155.267
1095.35	87.0364
1099.75	68.6531
1104.14	90.6716
1108.53	93.779
1112.92	88.0017
1117.31	136.948
1121.69	73.2532
1126.07	115.684
1130.45	70.1506
1134.82	48.6267
1139.19	82.0842
1143.57	73.5244
1147.93	62.9805
1152.3	38.458
1156.66	5.91016
1161.02	7.33325
1165.38	39.7539
1169.73	78.1567
1174.08	3.52563
1178.43	1.15064
1182.78	30.1314
1187.12	85.4036
1191.46	13.8879
1195.8	19.0576
1200.14	28.3203
1204.47	10.5518
1208.8	15.5173
1213.13	100.417
1217.46	82.3552
1221.78	64.2898
1226.1	75.2268
1230.42	75.1763
1234.73	82.1201
1239.04	75.0615
1243.35	11.9922
1247.66	68.9297
1251.97	47.8616
1256.27	52.1121
1260.57	98.0286
1264.86	62.9373
1269.16	62.8477
1273.45	43.7666
1277.74	82.7944
1282.03	32.5024
1286.31	55.8074
1290.59	74.5913
1294.87	96.0005
1299.14	82.8633
1303.42	1.13037
1307.69	23.167
1311.95	60.4351
1316.22	1.71875
1320.48	64.8062
1324.74	50.4556
1329	47.2554
1333.26	61.3535
1337.51	34.0745
1341.76	60.262
1346	91.1133
1350.25	12.9768
1354.49	44.956
1358.73	97.8379
1362.96	33.7163
1367.2	1.59253
1371.43	3.44604
1375.66	48.3503
1379.88	48.24
1384.11	57.1384
1388.33	67.051
1392.54	54.5603
1396.76	2.54004
1400.97	28.3662
1405.18	32.2681
1409.39	101.225
1413.59	9.24756
1417.8	29.2312
1421.99	77.3037
1426.19	51.3142
1430.38	27.3335
1434.58	10.4702
1438.77	102.817
1442.95	31.1081
1447.13	48.2883
1451.32	50.3457
1455.49	54.6323
1459.67	46.0579
1463.84	17.5115
1468.01	34.9895
1472.18	65.5134
1476.35	1.90625
1480.51	32.2832
1484.67	46.7429
1488.83	28.7495
1492.98	59.4243
1497.13	62.1592
1501.28	56.4048
1505.43	69.6924
1509.57	69.4458
1513.71	82.2327
1517.85	74.8035
1521.99	49.6633
1526.12	91.1667
1530.25	75.0371
1534.38	14.0496
1538.5	62.2214
1542.62	59.6106
1546.74	56.4634
1550.86	137.33
1554.98	241.781
1559.09	69.8704
1563.2	46.1802
1567.31	13.1587
