Measurement: Raman, 514 nm, ccw, Raman Data Processed
Mineral: Baddeleyite
Rruff sample: R060078
Ideal chemistry: ZrO_2_
Locality: Wetloo mine, Mogok, Burma
Source: Marcus Origlieri
Description: Dark brown fragment
Measured chemistry: (Zr_0.99_Hf_0.01_)_Î£=1_O_2_
Pin_id: L00612
Orientation: Laser parallel to (1 0 1). Fiducial mark perpendicular to laser is parallel to b [0 1 0]
Raman shift (cm-1)	intensity
51.431	0
56.387	20.2567
61.341	29.7186
66.292	11.9883
71.241	129.015
76.187	310.74
81.131	457.976
86.072	550.228
91.012	1154.51
95.948	2094.82
100.883	3519.59
105.815	5783.92
110.744	2585.57
115.671	1327.08
120.596	792.213
125.519	733.779
130.439	739.937
135.356	665.249
140.271	779.091
145.184	745.615
150.094	804.975
155.002	931.231
159.908	1128.06
164.811	1869.14
169.711	4427.03
174.61	8756.48
179.505	17858.4
184.399	13793.9
189.29	17507.8
194.178	26324.2
199.064	5521.45
203.948	1898.19
208.829	769.763
213.708	850.189
218.585	1149.41
223.459	1872.66
228.33	786.812
233.199	180.767
238.066	87.4462
242.93	31.2105
247.792	3.27466
252.651	34.7814
257.508	16.5747
262.363	13.8368
267.215	25.0312
272.064	7.36487
276.912	44.3906
281.756	129.974
286.598	352.135
291.438	534.095
296.276	858.406
301.111	1548.02
305.943	2600.07
310.773	2670.53
315.601	1647.41
320.426	1683.6
325.248	2879.08
330.068	5171.87
334.886	7794.94
339.701	5814.31
344.514	7200.97
349.324	9841.02
354.132	5070.52
358.938	1725.47
363.741	822.832
368.541	620.587
373.339	811.719
378.135	1462.22
382.928	2263.08
387.718	1955.72
392.506	711.757
397.292	222.462
402.075	8.77979
406.856	62.98
411.634	33.5569
416.41	46.7598
421.183	69.2271
425.954	23.1985
430.722	131.896
435.488	314.934
440.251	623.319
445.012	1083.54
449.77	1857.14
454.526	3374.65
459.28	6391.59
464.03	13821.7
468.779	30751.1
473.525	55851.9
478.268	59479
483.009	25384.5
487.747	10451.2
492.483	5658.38
497.217	4071.86
501.948	3301.69
506.676	2255.85
511.402	1438.35
516.125	1116.2
520.846	883.374
525.565	918.876
530.281	1410.71
534.994	2435.92
539.705	3328.48
544.413	2721.57
549.119	3600.97
553.822	6206.98
558.523	8456.31
563.222	5303.93
567.917	2044.39
572.611	832.849
577.302	310.179
581.99	57.9665
586.676	43.8804
591.359	50.5562
596.04	8.13379
600.718	125.526
605.394	477.571
610.067	1137.99
614.737	1710.79
619.406	1267.97
624.071	553.569
628.734	236.569
633.395	250.915
638.053	233.602
642.708	190.273
647.361	75.364
652.012	54.636
656.66	22.614
661.305	122.492
665.948	152.762
670.588	54.3508
675.226	194.677
679.861	179.629
684.494	186.047
689.124	318.338
693.752	341.141
698.377	390.656
702.999	465.065
707.619	533.508
712.237	459.762
716.852	454.394
721.464	436.679
726.074	373.686
730.681	381.935
735.286	340.035
739.888	473.676
744.488	478.806
749.085	489.581
753.68	532.622
758.272	491.477
762.861	439.451
767.448	338.22
772.033	282.14
776.614	233.105
781.194	235.978
785.77	123.886
790.345	53.5117
794.916	91.9597
799.485	83.7218
804.052	61.2181
808.616	67.7825
813.177	73.097
817.736	39.1965
822.292	10.1998
826.846	9.85657
831.397	38.3691
835.945	42.5409
840.491	17.2048
845.035	15.6967
849.576	8.76502
854.114	22.781
858.65	24.4949
863.183	6.02307
867.713	2.56885
872.241	44.7535
876.767	7.96997
881.29	50.8419
885.81	11.4507
890.328	0.209595
894.843	49.7991
899.356	0.46106
903.866	31.7554
908.373	63.7782
912.878	22.5333
917.38	77.0096
921.88	119.221
926.377	30.2007
930.872	46.9091
935.364	58.337
939.853	81.5007
944.34	79.4048
948.824	75.9508
953.306	76.033
957.785	57.031
962.261	85.6479
966.735	96.3734
971.207	35.0101
975.675	73.9034
980.141	93.8373
984.605	125.804
989.066	85.2375
993.524	114.744
997.98	134.57
1002.43	83.6738
1006.88	108.971
1011.33	83.1633
1015.78	112.113
1020.22	120.008
1024.66	112.648
1029.1	149.058
1033.53	154.062
1037.97	119.318
1042.4	99.6335
1046.82	124.781
1051.25	109.972
1055.67	64.7489
1060.09	65.359
1064.51	77.9121
1068.92	79.1367
1073.33	63.5347
1077.74	98.4812
1082.15	88.733
1086.55	111.831
1090.95	102.726
1095.35	93.8834
1099.75	59.0022
1104.14	5.90832
1108.53	112.363
1112.92	80.7808
1117.31	68.4337
1121.69	155.127
1126.07	76.8366
1130.45	24.5155
1134.82	72.2404
1139.19	25.7878
1143.57	142.215
1147.93	88.7056
1152.3	45.1948
1156.66	16.327
1161.02	25.1681
1165.38	3.31006
1169.73	27.2765
1174.08	37.3412
1178.43	11.1058
1182.78	43.4249
1187.12	19.0532
1191.46	12.3893
1195.8	18.8185
1200.14	61.2567
1204.47	44.6997
1208.8	39.1488
1213.13	30.3529
1217.46	6.42615
1221.78	114.889
1226.1	105.371
1230.42	12.139
1234.73	45.2969
1239.04	86.7122
1243.35	75.2217
1247.66	28.7314
1251.97	30.6398
1256.27	26.7994
1260.57	82.2935
1264.86	74.0819
1269.16	50.5096
1273.45	49.0088
1277.74	71.496
1282.03	61.0107
1286.31	50.2406
1290.59	13.5745
1294.87	28.7319
1299.14	79.1593
1303.42	90.5312
1307.69	72.4401
1311.95	30.5408
1316.22	49.6799
1320.48	77.3431
1324.74	57.8848
1329	59.4058
1333.26	86.9208
1337.51	41.4132
1341.76	28.2261
1346	11.2189
1350.25	38.6691
1354.49	21.8942
1358.73	19.4973
1362.96	29.9021
1367.2	29.6893
1371.43	33.0983
1375.66	40.4992
1379.88	4.23718
1384.11	4.63794
1388.33	48.0308
1392.54	58.3633
1396.76	5.83044
1400.97	18.3104
1405.18	1.85193
1409.39	105.353
1413.59	59.8597
1417.8	60.3886
1421.99	32.9487
1426.19	1.51453
1430.38	4.64404
1434.58	65.3463
1438.77	64.2638
1442.95	17.6456
1447.13	8.27124
1451.32	17.1794
1455.49	37.108
1459.67	18.335
1463.84	70.8207
1468.01	36.6208
1472.18	16.5056
1476.35	46.5582
1480.51	28.5207
1484.67	51.3595
1488.83	91.2001
1492.98	42.1061
1497.13	56.9969
1501.28	8.1792
1505.43	80.7804
1509.57	31.5798
1513.71	70.5406
1517.85	97.5381
1521.99	78.2373
1526.12	33.4778
1530.25	63.9053
1534.38	27.3145
1538.5	53.8033
1542.62	53.5884
1546.74	60.7178
1550.86	119.923
1554.98	192.137
1559.09	49.4227
1563.2	64.3912
1567.31	39.603
