Measurement: Raman, 514 nm, ccw, Raman Data Processed
Mineral: Baddeleyite
Rruff sample: R060016
Ideal chemistry: ZrO_2_
Locality: Wet Loo, Myanmar
Source: American Museum of Natural History
Description: Brown crystal fragment
Measured chemistry: (Zr_0.99_Ti_0.01_)_Î£=1_O_2_
Pin_id: M00302
Orientation: Laser parallel to a* (1 0 0). Fiducial mark perpendicular to laser is parallel to b [0 1 0]
Raman shift (cm-1)	intensity
40.393	0
45.367	8.25693
50.339	28.7585
55.309	64.9339
60.276	83.4174
65.24	93.8838
70.202	44.8976
75.161	6.18564
80.118	15.2988
85.072	22.7866
90.024	87.3407
94.973	498.779
99.919	2032.45
104.863	2330.49
109.805	836.07
114.744	557.059
119.681	438.123
124.615	437.914
129.546	395.178
134.475	409.743
139.401	465.341
144.325	515.533
149.247	516.423
154.165	660.021
159.082	822.482
163.995	1393.87
168.906	3748.25
173.815	9367.39
178.721	17763
183.625	8533.14
188.526	12218.4
193.424	9566.56
198.32	2012.21
203.214	858.331
208.105	662.896
212.993	733.53
217.879	1458.34
222.762	2124.59
227.643	789.121
232.521	298.614
237.396	186.745
242.269	163.223
247.14	98.2468
252.008	146.798
256.873	104.855
261.736	146.397
266.596	132.408
271.454	95.1317
276.309	182.1
281.162	395.086
286.012	432.253
290.86	760.924
295.705	1282.72
300.547	2314.82
305.387	3711.3
310.225	2996.15
315.059	1579.35
319.892	1290.86
324.721	1450.69
329.549	2114.84
334.373	2655.31
339.195	3346.11
344.015	6348.28
348.832	7451.82
353.646	3232.75
358.458	1499.1
363.267	1210.86
368.074	1790.05
372.878	3677.71
377.679	7653.89
382.478	12130.4
387.275	8830.43
392.069	3385.82
396.86	1335.59
401.649	631.734
406.435	315.253
411.219	132.146
416	16.6034
420.778	67.2109
425.554	69.0439
430.327	68.1705
435.098	82.4959
439.866	31.5328
444.632	221.383
449.395	473.586
454.156	1025.15
458.914	2065.08
463.669	5042.38
468.422	11371
473.172	19894
477.92	15358.4
482.665	5696.16
487.408	2497.26
492.148	1895.72
496.885	2332.53
501.62	2707.7
506.352	1353.21
511.082	395.082
515.809	106.306
520.533	27.8793
525.255	16.7936
529.975	176.033
534.692	370.663
539.406	577.739
544.118	554.228
548.827	1032.14
553.533	2118.47
558.237	2395.7
562.938	1219.21
567.637	415.065
572.333	141.764
577.027	7.00598
581.718	1.35327
586.407	77.4954
591.093	232.993
595.776	600.84
600.457	1311.03
605.135	2800.54
609.81	5759.38
614.483	8612.55
619.154	6771.02
623.822	3311.81
628.487	1953.9
633.15	1804.28
637.81	1611.95
642.467	1004.89
647.122	437.095
651.774	249.821
656.424	98.1074
661.071	88.006
665.716	90.7554
670.358	71.6013
674.997	100.17
679.634	132.06
684.268	153.938
688.9	223.459
693.529	239.506
698.156	319.653
702.78	421.1
707.401	513.851
712.02	467.881
716.636	404.456
721.249	325.545
725.86	225.615
730.469	302.021
735.074	249.777
739.678	308.432
744.278	440.37
748.876	507.188
753.472	607.06
758.064	544.505
762.655	407.529
767.242	285.392
771.827	158.372
776.41	73.0339
780.99	15.3563
785.567	55.8208
790.142	6.00293
794.714	10.2655
799.283	14.5122
803.85	53.1174
808.415	10.5185
812.976	48.0889
817.535	11.0192
822.092	20.9793
826.646	0.412231
831.197	1.53027
835.746	0.000977
840.292	13.7914
844.836	11.7194
849.377	5.0033
853.915	69.0083
858.451	20.7953
862.984	71.2598
867.515	56.4819
872.043	52.4605
876.568	40.219
881.091	68.7843
885.611	60.0306
890.129	62.0232
894.644	45.7502
899.156	75.2299
903.666	83.4536
908.173	115.494
912.678	89.2065
917.18	84.6808
921.679	46.9355
926.176	104.384
930.67	79.0869
935.162	72.5209
939.651	59.5468
944.137	81.2054
948.621	90.4422
953.102	62.0913
957.581	85.7305
962.057	64.8178
966.53	78.139
971.001	80.5768
975.469	28.309
979.935	20.0466
984.398	49.5615
988.859	57.9616
993.316	64.5184
997.772	82.1063
1002.22	80.3184
1006.67	53.0636
1011.12	83.6556
1015.57	54.2965
1020.01	97.5674
1024.45	69.6993
1028.88	94.1342
1033.32	93.1344
1037.75	81.8638
1042.18	50.2855
1046.61	56.9024
1051.03	111.487
1055.45	64.5212
1059.87	54.8395
1064.29	69.8588
1068.7	20.8115
1073.11	37.3046
1077.52	68.9371
1081.93	37.1002
1086.33	22.0401
1090.73	34.0427
1095.13	63.1188
1099.52	8.66602
1103.92	34.7145
1108.31	9.8252
1112.69	34.8888
1117.08	35.0053
1121.46	31.5026
1125.84	32.0914
1130.22	49.5209
1134.59	31.925
1138.96	51.2929
1143.33	64.6409
1147.7	54.9065
1152.06	20.2316
1156.43	61.5468
1160.79	49.2505
1165.14	31.5206
1169.49	54.7878
1173.85	17.024
1178.19	15.7886
1182.54	0.415283
1186.88	4.59326
1191.22	19.6234
1195.56	13.6929
1199.9	37.8348
1204.23	13.9761
1208.56	9.18347
1212.89	62.7329
1217.21	98.9504
1221.54	65.2974
1225.86	77.4518
1230.17	73.9425
1234.49	46.3032
1238.8	70.8508
1243.11	25.2756
1247.41	57.7095
1251.72	5.1731
1256.02	22.4473
1260.32	49.5699
1264.62	9.03076
1268.91	78.5068
1273.2	40.0164
1277.49	39.5454
1281.78	15.0645
1286.06	14.6376
1290.34	32.9862
1294.62	60.566
1298.89	21.1986
1303.16	11.8987
1307.44	70.5732
1311.7	44.1953
1315.97	31.9663
1320.23	36.359
1324.49	72.3131
1328.75	17.48
1333	14.0783
1337.25	16.9567
1341.5	33.8545
1345.75	23.324
1349.99	33.8181
1354.24	56.6956
1358.47	25.7206
1362.71	7.78674
1366.94	38.8935
1371.18	25.3066
1375.4	34.4535
1379.63	24.8531
1383.85	39.7894
1388.08	38.1127
1392.29	30.4711
1396.51	34.8386
1400.72	14.233
1404.93	37.6653
1409.14	23.1364
1413.35	12.9214
1417.55	0.089478
1421.75	42.7605
1425.94	13.4877
1430.14	57.4199
1434.33	52.1785
1438.52	40.8597
1442.71	10.4429
1446.89	38.08
1451.07	10.2302
1455.25	25.1244
1459.43	5.88196
1463.6	1.55786
1467.77	40.1498
1471.94	48.0793
1476.11	10.9231
1480.27	34.1307
1484.43	27.2438
1488.59	16.4117
1492.74	25.6499
1496.9	51.9391
1501.05	24.2637
1505.2	52.5427
1509.34	37.9033
1513.48	10.4456
1517.62	43.6288
1521.76	20.9666
1525.9	30.5508
1530.03	22.146
1534.16	17.8254
1538.28	40.6929
1542.41	32.9674
1546.53	31.7869
1550.65	17.3835
1554.77	33.7177
1558.88	0.459595
