Measurement: Raman, 514 nm, ccw, Raman Data Processed
Mineral: Baddeleyite
Rruff sample: R060016
Ideal chemistry: ZrO_2_
Locality: Wet Loo, Myanmar
Source: American Museum of Natural History
Description: Brown crystal fragment
Measured chemistry: (Zr_0.99_Ti_0.01_)_Î£=1_O_2_
Pin_id: M00268
Orientation: Laser parallel to b* (0 1 0). Fiducial mark perpendicular to laser is parallel to -c [0 0 -1]
Raman shift (cm-1)	intensity
151.706	0
156.624	6.4082
161.539	179.156
166.451	454.457
171.361	1128.62
176.269	3430.44
181.173	3826.17
186.076	3531.4
190.975	10424.7
195.873	3842.55
200.767	1163.06
205.659	754.201
210.549	590.309
215.436	381.08
220.321	530.787
225.203	419.486
230.082	161.47
234.959	230.242
239.833	151.407
244.705	349.245
249.574	400.9
254.441	434.444
259.305	701.911
264.167	483.303
269.026	470.601
273.882	630.794
278.736	674.264
283.588	1024.69
288.436	1374.86
293.283	1700.58
298.126	2100.05
302.968	2990.85
307.806	3902.67
312.642	2748.49
317.476	1974.69
322.307	1834.9
327.135	1929.83
331.961	2035.31
336.784	2092.16
341.605	3141.27
346.423	6083.56
351.239	4958.95
356.052	1799.41
360.863	833.902
365.671	549.334
370.476	684.562
375.279	1205.59
380.079	1930.44
384.877	1404.13
389.672	704.673
394.465	264.068
399.255	105.319
404.042	90.6006
408.827	117.992
413.609	137.097
418.389	129.007
423.166	84.7956
427.941	58.96
432.713	77.0606
437.483	71.3897
442.25	137.637
447.014	193.944
451.776	240.305
456.535	337.11
461.292	548.971
466.046	949.227
470.797	1684.41
475.546	2387.51
480.293	1307.53
485.037	586.456
489.778	433.287
494.517	366.025
499.253	488.671
503.986	354.271
508.717	294.84
513.446	236.411
518.171	205.057
522.895	233.713
527.615	326.424
532.334	495.3
537.049	598.227
541.762	616.195
546.472	625.208
551.18	873.872
555.885	1383.82
560.588	1413.94
565.288	795.814
569.986	471.334
574.681	345.796
579.373	152.141
584.063	177.629
588.75	260.26
593.435	309.034
598.117	552.952
602.796	868.014
607.473	1450.22
612.147	1924.58
616.819	1819.09
621.488	1391.75
626.155	1234.57
630.819	1636.54
635.48	2526.68
640.139	2371.97
644.795	1310.62
649.449	722.916
654.1	440.043
658.748	304.929
663.394	278.437
668.037	267.275
672.678	256.509
677.316	265.634
681.952	274.141
686.585	295.797
691.215	386.443
695.843	647.558
700.468	877.509
705.09	980.194
709.711	925.326
714.328	804.716
718.943	532.235
723.555	267.859
728.165	277.571
732.772	188.36
737.376	159.222
741.978	156.152
746.577	189.146
751.174	91.2817
755.768	182.478
760.36	180.624
764.949	138.97
769.535	95.2903
774.119	30.5381
778.7	62.179
783.279	8.1145
787.855	9.21435
792.428	87.8386
796.999	14.7624
801.567	27.7788
806.133	69.624
810.696	10.2651
815.256	51.7517
819.814	68.0593
824.369	50.0576
828.922	32.6694
833.472	33.676
838.019	49.5901
842.564	85.6743
847.107	114.966
851.646	176.629
856.183	245.497
860.718	265.543
865.25	245.803
869.779	103.936
874.306	160.964
878.83	169.957
883.351	93.6897
887.87	90.2798
892.386	187.709
896.9	88.9959
901.411	61.1963
905.92	196.195
910.426	140.03
914.929	172.415
919.43	79.4116
923.928	126.807
928.423	174.795
932.916	106.656
937.407	153.036
941.894	105.507
946.38	71.8098
950.862	49.5915
955.342	84.9714
959.819	3.77368
964.294	8.00488
968.766	16.1655
973.236	37.2881
977.703	1.3418
982.167	37.5508
986.629	0.534424
991.088	22.3484
995.544	161.084
999.998	240.614
1004.45	163.505
1008.9	57.4568
1013.34	125.611
1017.79	138.027
1022.23	123.115
1026.67	123.816
1031.1	72.665
1035.54	45.2629
1039.97	42.7222
1044.39	34.074
1048.82	40.3223
1053.24	0.626465
1057.66	42.1985
1062.08	99.0557
1066.49	38.3438
1070.91	126.109
1075.32	157.447
1079.72	94.55
1084.13	109.862
1088.53	51.1506
1092.93	79.5085
1097.33	8.77685
1101.72	136.504
1106.11	54.4441
1110.5	4.2959
1114.89	65.5354
1119.27	57.5073
1123.65	120.641
1128.03	51.875
1132.4	27.5645
1136.78	9.82593
1141.15	81.6963
1145.52	66.0894
1149.88	4.57007
1154.24	3.01587
1158.61	17.5464
1162.96	44.8184
1167.32	100.081
1171.67	58.377
1176.02	81.6462
1180.37	1.95508
1184.71	9.90039
1189.05	67.4387
1193.39	23.7517
1197.73	18.9722
1202.06	21.6382
1206.4	35.6201
1210.72	43.8926
1215.05	62.186
1219.37	70.5017
1223.7	1.87866
1228.01	117.025
1232.33	43.5203
1236.64	44.0957
1240.95	65.6055
1245.26	66.6572
1249.57	107.446
1253.87	75.3074
1258.17	126.181
1262.47	174.221
1266.76	165.168
1271.06	140.908
1275.35	141.581
1279.63	145.268
1283.92	109.67
1288.2	122.196
1292.48	238.522
1296.76	195.848
1301.03	119.531
1305.3	214.28
1309.57	252.097
1313.84	255.267
1318.1	259.008
1322.36	182.026
1326.62	170.921
1330.88	149.433
1335.13	133.382
1339.38	78.8149
1343.63	138.341
1347.87	128.961
1352.12	48.6768
1356.36	23.5078
1360.59	103.435
1364.83	103.458
1369.06	135.655
1373.29	62.8132
1377.52	125.77
1381.74	167.31
1385.96	181.715
1390.18	119.543
1394.4	143.204
1398.62	68.3987
1402.83	124.728
1407.04	155.942
1411.24	94.2463
1415.45	104.642
1419.65	64.6792
1423.85	55.7236
1428.04	95.501
1432.23	150.14
1436.43	244.197
1440.61	339.457
1444.8	358.746
1448.98	491.259
1453.16	459.967
1457.34	435.841
1461.52	410.882
1465.69	230.091
1469.86	232.451
1474.03	173.884
1478.19	212.368
1482.35	156.839
1486.51	44.4075
1490.67	0.909668
1494.82	60.9253
1498.97	24.0212
1503.12	12.3086
1507.27	11.084
1511.41	87.7749
1515.55	50.8838
1519.69	73.2519
1523.83	13.9312
1527.96	96.7178
1532.09	36.3293
1536.22	46.727
1540.35	65.3948
1544.47	35.0642
1548.59	69.3279
1552.71	70.9253
1556.82	45.2805
1560.93	8.96387
