Measurement: Raman, 514 nm, ccw, Raman Data Processed
Mineral: Barrerite
Rruff sample: R050135
Ideal chemistry: Na_2_(Al_2_Si_7_)O_18_6H_2_O
Locality: Kuiu Island, Alaska, USA
Source: Ben Norton
Description: Colorless laminar crystals
Measured chemistry: (Na_4.49_K_1.30_Ca_1.23_[box]_0.98_)_Σ=8_(Si_27.75_Al_8.25_)O_72_·19H_2_O
Pin_id: M00182
Orientation: Laser parallel to c* (0 0 1). Fiducial mark perpendicular to laser is parallel to -a [-1 0 0]
Raman shift (cm-1)	intensity
141.323	0
145.48	105.593
149.635	21.248
153.788	83.943
157.939	95.465
162.088	199.723
166.235	244.596
170.38	402.569
174.523	216.486
178.664	475.016
182.803	557.969
186.94	351.373
191.076	238.61
195.209	105.342
199.34	98.631
203.47	17.532
207.597	19.062
211.722	105.838
215.846	13.574
219.967	110.736
224.087	3.267
228.204	120.356
232.32	19.41
236.434	202.418
240.545	344.551
244.655	117.004
248.763	118.423
252.869	198.598
256.973	307.313
261.075	194.229
265.175	109.396
269.273	173.812
273.369	18.126
277.463	52.661
281.556	127.411
285.646	262.266
289.734	306.833
293.821	360.712
297.905	434.148
301.988	757.296
306.069	1071.15
310.147	1360.18
314.224	1878.9
318.299	2139.6
322.372	2421.59
326.443	2060.36
330.512	1953.34
334.579	1892.09
338.645	1795.16
342.708	1475.03
346.769	1689.84
350.829	1782.35
354.887	1831.24
358.942	1844.06
362.996	2147.25
367.048	2805.83
371.098	3382.7
375.146	4200.94
379.192	5203.88
383.236	6393
387.279	7376.64
391.319	8703.02
395.358	10673.4
399.394	13306.2
403.429	16736.4
407.462	20130.9
411.493	23033.5
415.522	23559.7
419.549	20946.8
423.575	16782.1
427.598	13504.7
431.619	10753.8
435.639	9047.56
439.657	7297.52
443.673	6271.86
447.687	5938.64
451.699	6375.67
455.709	7184.06
459.717	9033.75
463.724	10035.2
467.728	9566.83
471.731	7557.71
475.732	5737.92
479.731	4837.56
483.728	4696.75
487.723	4925.52
491.716	5963.96
495.708	8382.12
499.697	11460.1
503.685	10907.8
507.671	7105.48
511.655	3693.06
515.637	2280.61
519.617	1508.19
523.596	876.206
527.572	525.739
531.547	444.586
535.52	312.785
539.491	282.58
543.46	72.266
547.427	1.878
551.393	27.634
555.356	65.672
559.318	34.062
563.278	9.377
567.236	91.731
571.192	43.618
575.147	64.335
579.099	42.394
583.05	39.922
586.999	137.276
590.946	184.594
594.891	351.768
598.834	248.896
602.776	436.158
606.715	683.239
610.653	910.288
614.589	1029.7
618.523	1184.37
622.456	1391.27
626.386	1248.05
630.315	1444.71
634.242	1031.24
638.167	947.648
642.09	773.939
646.012	830.115
649.931	806.185
653.849	522.145
657.765	437.991
661.679	213.744
665.592	499.428
669.502	375.871
673.411	271.731
677.318	207.336
681.223	203.993
685.126	166.369
689.028	198.479
692.927	68.221
696.825	161.988
700.721	240.783
704.616	313.401
708.508	177.127
712.399	338.39
716.288	296.407
720.175	165.863
724.06	360.519
727.944	303.609
731.825	376.195
735.705	124.812
739.584	250.625
743.46	315.42
747.334	375.652
751.207	297.734
755.078	150.369
758.947	242.517
762.815	414.597
766.68	1125.2
770.544	436.339
774.406	471.192
778.267	492.013
782.125	473.646
785.982	763.919
789.837	593.931
793.69	593.831
797.542	603.456
801.391	592.923
805.239	622.933
809.085	461.982
812.93	401.233
816.772	402.841
820.613	85.774
824.452	94.05
828.29	177.999
832.125	40.086
835.959	117.362
839.791	67.151
843.621	41.042
847.45	24.962
851.277	9.623
855.102	155.527
858.925	100.408
862.746	115.928
866.566	8.822
870.384	73.363
874.2	187.98
878.015	27.85
881.828	93.566
885.639	89.6
889.448	36.383
893.256	137.395
897.061	101.051
900.865	154.35
904.668	77.615
908.468	70.707
912.267	13.801
916.064	336.779
919.86	239.518
923.653	67.959
927.445	44.361
931.236	23.406
935.024	278.705
938.811	250.74
942.596	142.707
946.379	114.605
950.161	86.447
953.94	21.77
957.719	129.934
961.495	201.586
965.27	243.186
969.043	264.68
972.814	115.65
976.583	56.139
980.351	7.352
984.117	127.732
987.882	337.941
991.644	265.891
995.405	371.676
999.165	279.221
1002.92	322.283
1006.68	340.121
1010.43	561.193
1014.18	571.207
1017.93	471.717
1021.68	493.1
1025.43	729.451
1029.18	615.094
1032.92	630.061
1036.66	695.699
1040.4	675.004
1044.14	647.592
1047.88	744.924
1051.62	687.803
1055.35	770.662
1059.08	573.449
1062.81	836.406
1066.54	909.902
1070.27	704.402
1073.99	765.416
1077.72	768.125
1081.44	641.039
1085.16	1035.58
1088.88	1270.05
1092.59	1204.83
1096.31	1319.6
1100.02	1344.87
1103.73	1439.17
1107.44	1894.09
1111.15	2099.09
1114.86	2144.07
1118.57	2226.07
1122.27	2417.57
1125.97	2343.17
1129.67	2338.49
1133.37	2505.64
1137.07	2673.51
1140.76	3091.76
1144.45	3351.07
1148.15	3258.08
1151.84	3033.56
1155.53	2640.02
1159.21	2899.62
1162.9	2773.82
1166.58	3026.95
1170.26	3215.84
1173.94	3236.65
1177.62	2942.95
1181.3	2562.15
1184.97	2470.24
1188.65	2352.95
1192.32	1892.59
1195.99	1921.85
1199.66	2454.57
1203.33	1636.41
1206.99	1235.21
1210.65	783.314
1214.32	641.225
1217.98	727.461
1221.64	644.715
1225.29	603.398
1228.95	666.57
1232.6	619.09
1236.26	522.229
1239.91	219.334
1243.56	75.232
1247.2	141.502
1250.85	207.209
1254.49	322.514
1258.13	607.83
1261.78	553.438
1265.41	487.766
1269.05	172.98
1272.69	228.064
1276.32	2.17
1279.95	12.365
1283.59	19.725
1287.21	404.943
1290.84	275.67
1294.47	326.18
1298.09	328.703
1301.72	98.193
1305.34	233.156
1308.96	25.059
1312.58	137.734
1316.19	180.615
1319.81	5.459
1323.42	230.965
1327.03	426.162
1330.64	210.453
1334.25	214.074
1337.86	77.088
1341.46	190.469
1345.07	38.633
1348.67	32.57
1352.27	143.281
1355.87	373.678
1359.46	293.523
1363.06	414.811
1366.65	424.014
1370.25	72.955
1373.84	82.559
1377.43	62.783
1381.02	37.404
1384.6	136.746
1388.18	296.477
1391.77	344.971
1395.35	683.367
1398.93	729.676
1402.51	641.508
1406.08	330.193
1409.66	330.43
1413.23	56.652
1416.8	63.279
1420.37	9.814
1423.94	244.697
1427.51	320.227
1431.08	347.895
1434.64	581.244
1438.2	640.26
1441.76	577.318
1445.32	335.672
1448.88	167.064
1452.43	410.346
1455.99	132.32
1459.54	323.607
1463.09	412.35
1466.64	545.328
1470.19	693.982
1473.74	921.953
1477.28	781.928
1480.83	620.053
1484.37	608.188
1487.91	375.342
1491.45	163.926
1494.98	101.85
1498.52	164.934
1502.05	29.127
1505.59	241.975
1509.12	108.336
1512.65	288.467
1516.17	0
