Measurement: Raman, 514 nm, ccw, Raman Data Processed
Mineral: Barrerite
Rruff sample: R050135
Ideal chemistry: Na_2_(Al_2_Si_7_)O_18_6H_2_O
Locality: Kuiu Island, Alaska, USA
Source: Ben Norton
Description: Colorless laminar crystals
Measured chemistry: (Na_4.49_K_1.30_Ca_1.23_[box]_0.98_)_Σ=8_(Si_27.75_Al_8.25_)O_72_·19H_2_O
Pin_id: L00222
Orientation: Laser parallel to b* (0 1 0). Fiducial mark perpendicular to laser is parallel to c [0 0 1]
Raman shift (cm-1)	intensity
110.777	0
114.949	637.037
119.119	489.87
123.286	965.472
127.452	1264.92
131.615	1507.41
135.777	1634.82
139.937	1405.35
144.094	1402.35
148.25	1788.39
152.403	1560.87
156.555	1518.08
160.705	1252.88
164.853	1349.51
168.998	1294.73
173.142	640.363
177.284	480.269
181.424	452.254
185.562	324.901
189.698	129.17
193.831	164.189
197.963	23.816
202.093	38.547
206.221	116.671
210.347	105.519
214.472	7.931
218.594	60.925
222.714	52.504
226.832	18.624
230.948	54.688
235.063	37.3
239.175	80.795
243.286	15.319
247.394	38.752
251.501	33.105
255.605	112.525
259.708	77.951
263.808	63.393
267.907	27.025
272.004	94.074
276.099	48.385
280.192	146.139
284.283	167.268
288.372	0.244
292.459	42.766
296.544	4.127
300.627	1.225
304.709	101.232
308.788	63.168
312.865	114.609
316.941	295.588
321.015	286.002
325.086	205.584
329.156	174.414
333.224	322.312
337.29	299.588
341.354	6.15
345.416	322.391
349.476	328.406
353.534	294.207
357.591	79.824
361.645	294.572
365.698	466.215
369.748	574.133
373.797	605.498
377.844	882.131
381.889	1155.65
385.932	1400.58
389.973	1669.03
394.012	1983.67
398.049	2862.42
402.084	3557.21
406.118	4443.35
410.15	5306.59
414.179	5254.74
418.207	4418.98
422.233	3233.84
426.257	2735.59
430.279	2150.65
434.299	1631.74
438.318	1265.29
442.334	996.666
446.349	989.857
450.361	1201.3
454.372	1153.54
458.381	1380.97
462.388	1328.05
466.394	1069.81
470.397	870.709
474.398	621.389
478.398	681.557
482.396	781.521
486.391	1171.4
490.385	1749.92
494.377	2639.4
498.368	3388.86
502.356	2785.43
506.342	1752.73
510.327	802.393
514.31	612.434
518.291	306.99
522.27	206.336
526.247	245.975
530.222	196.889
534.196	86.338
538.167	292.107
542.137	178.928
546.105	86.721
550.071	65.961
554.035	203.779
557.998	191.732
561.958	70.174
565.917	120.24
569.874	34.801
573.829	209.67
577.782	263.021
581.733	66.953
585.683	349.893
589.63	302.756
593.576	334.85
597.52	166.221
601.462	247.188
605.402	388.111
609.341	439.094
613.277	540.949
617.212	508.32
621.145	597.527
625.076	656.521
629.006	685.195
632.933	383.543
636.859	451.561
640.783	259.254
644.705	396.611
648.625	453.641
652.543	240.33
656.46	156.676
660.375	87.252
664.288	278.459
668.199	234.254
672.108	50.488
676.016	134.541
679.921	168.783
683.825	34.539
687.727	98.457
691.628	110.926
695.526	20.717
699.423	48.955
703.318	212.535
707.211	81.537
711.102	224.486
714.992	96.428
718.879	23.217
722.765	267.566
726.649	257.195
730.532	305.848
734.412	283.826
738.291	168.27
742.168	167.361
746.043	252.568
749.916	203.123
753.788	218.768
757.658	245.07
761.526	471.059
765.392	597.102
769.257	712.502
773.119	558.547
776.98	443.404
780.839	458.16
784.697	813.258
788.552	917.318
792.406	782.383
796.258	1035.69
800.108	738.982
803.957	691.906
807.804	864.143
811.649	605.879
815.492	465.799
819.333	143.375
823.173	194.527
827.011	245.447
830.847	157.51
834.681	426.326
838.514	107.764
842.345	164.959
846.174	32.746
850.001	160.875
853.827	512.688
857.651	294.988
861.473	117.062
865.293	214.717
869.112	350.59
872.928	505.604
876.744	210.201
880.557	21.922
884.369	13.977
888.178	164.516
891.987	401.527
895.793	339.512
899.598	447.459
903.401	375.158
907.202	73.326
911.001	351.568
914.799	429.457
918.595	596.773
922.389	214.881
926.182	212.881
929.972	130.785
933.761	338.604
937.549	296.336
941.334	413.977
945.118	221.521
948.9	358.988
952.681	146.395
956.459	173.74
960.236	191.033
964.012	408.289
967.785	415.279
971.557	91.67
975.327	121.812
979.095	225.301
982.862	139.748
986.627	315.131
990.39	229.881
994.152	225.105
997.912	110.287
1001.67	325.398
1005.43	281.76
1009.18	626.795
1012.93	663.135
1016.68	359.93
1020.43	306.926
1024.18	563.576
1027.93	620.127
1031.67	497.502
1035.42	732.99
1039.16	580.486
1042.9	607.783
1046.63	752.881
1050.37	540.158
1054.11	509.898
1057.84	398.117
1061.57	767.047
1065.3	784.484
1069.03	511.799
1072.75	229.281
1076.47	435.986
1080.2	443.299
1083.92	741.232
1087.64	997.912
1091.36	875.645
1095.07	611.924
1098.79	509.656
1102.5	347.516
1106.21	885.23
1109.92	833.746
1113.62	1012.16
1117.33	1054.66
1121.04	796.465
1124.74	837.039
1128.44	582.02
1132.14	603.125
1135.83	650.805
1139.53	1216.2
1143.22	1302.79
1146.92	1061.69
1150.61	912.355
1154.3	666.254
1157.98	646.031
1161.67	546.652
1165.35	807.969
1169.04	838.441
1172.72	887.773
1176.4	577.211
1180.07	376.992
1183.75	76.473
1187.42	175.637
1191.1	58.629
1194.77	37.488
1198.44	273.496
1202.1	672.871
1205.77	551.09
1209.43	198.484
1213.1	233.312
1216.76	436.855
1220.42	170.254
1224.07	439.57
1227.73	539.266
1231.38	559.078
1235.04	549.043
1238.69	219.113
1242.34	179.289
1245.99	170.125
1249.63	371.441
1253.28	383.523
1256.92	795.969
1260.56	898.398
1264.2	960.539
1267.84	482.668
1271.48	394.883
1275.11	137.262
1278.74	129.359
1282.38	200.441
1286.01	458.645
1289.63	248.504
1293.26	560.234
1296.89	772.637
1300.51	104.77
1304.13	107.922
1307.75	71.051
1311.37	95.207
1314.99	305.758
1318.6	317.836
1322.22	719.789
1325.83	819.223
1329.44	992.277
1333.05	655.777
1336.66	279.391
1340.26	61.824
1343.87	90.32
1347.47	175.602
1351.07	527.383
1354.67	811.887
1358.27	571.918
1361.86	656.457
1365.46	381.402
