Measurement: Raman, 514 nm, ccw, Raman Data Processed
Mineral: Barrerite
Rruff sample: R050135
Ideal chemistry: Na_2_(Al_2_Si_7_)O_18_6H_2_O
Locality: Kuiu Island, Alaska, USA
Source: Ben Norton
Description: Colorless laminar crystals
Measured chemistry: (Na_4.49_K_1.30_Ca_1.23_[box]_0.98_)_Σ=8_(Si_27.75_Al_8.25_)O_72_·19H_2_O
Pin_id: M00182
Orientation: Laser parallel to c* (0 0 1). Fiducial mark perpendicular to laser is parallel to -a [-1 0 0]
Raman shift (cm-1)	intensity
145.48	0
149.635	163.666
153.788	390.687
157.939	563.69
162.088	656.012
166.235	541.514
170.38	421.281
174.523	279.803
178.664	241.945
182.803	192.886
186.94	226.579
191.076	265.347
195.209	243.63
199.34	158.964
203.47	126.536
207.597	60.938
211.722	91.534
215.846	44.737
219.967	33.332
224.087	97.122
228.204	33.505
232.32	47.499
236.434	26.084
240.545	81.389
244.655	88.646
248.763	44.181
252.869	91.427
256.973	170.926
261.075	105.427
265.175	135.629
269.273	36.564
273.369	62.17
277.463	23.354
281.556	6.533
285.646	99.841
289.734	101.673
293.821	1.382
297.905	118.474
301.988	306.618
306.069	459.277
310.147	511.019
314.224	725.157
318.299	924.111
322.372	960.201
326.443	893.183
330.512	862.855
334.579	909.188
338.645	842.16
342.708	722.018
346.769	847.454
350.829	899.788
354.887	918.973
358.942	874.838
362.996	1096.52
367.048	1297.14
371.098	1515.12
375.146	1861.2
379.192	2300.89
383.236	2752.97
387.279	3257.16
391.319	3794.74
395.358	4502.07
399.394	5750.17
403.429	6910.59
407.462	8387.13
411.493	9711.78
415.522	9912.45
419.549	8859.87
423.575	7015.5
427.598	5812.74
431.619	4754.91
435.639	3924.11
439.657	3092.64
443.673	2737.22
447.687	2450.57
451.699	2497.34
455.709	2689.45
459.717	3292.48
463.724	3627.18
467.728	3453.41
471.731	2870.88
475.732	2198.66
479.731	1945.82
483.728	2062.41
487.723	2208.45
491.716	2933.98
495.708	4359.05
499.697	6193.69
503.685	6067.94
507.671	3912.61
511.655	2126.9
515.637	1401.03
519.617	925.746
523.596	673.566
527.572	439.307
531.547	397.41
535.52	263.995
539.491	220.852
543.46	70.665
547.427	55.329
551.393	20.227
555.356	171.327
559.318	46.907
563.278	29.801
567.236	24.085
571.192	42.848
575.147	111.763
579.099	15.757
583.05	23.512
586.999	38.781
590.946	100.164
594.891	161.53
598.834	112.993
602.776	94.443
606.715	355.688
610.653	556.894
614.589	558.018
618.523	579.058
622.456	709.987
626.386	620.808
630.315	751.446
634.242	541.946
638.167	422.248
642.09	392.35
646.012	372.255
649.931	421.97
653.849	291.494
657.765	250.844
661.679	160.013
665.592	218.995
669.502	167.781
673.411	66.692
677.318	14.759
681.223	3.907
685.126	17.751
689.028	17.727
692.927	0.532
696.825	42.142
700.721	36.847
704.616	136.562
708.508	51.808
712.399	167.367
716.288	191.655
720.175	138.852
724.06	170.305
727.944	147.003
731.825	278.263
735.705	137.415
739.584	141.545
743.46	253.927
747.334	271.623
751.207	182.369
755.078	163.887
758.947	247.703
762.815	420.928
766.68	495.328
770.544	441.487
774.406	424.761
778.267	483.671
782.125	546.5
785.982	656.879
789.837	754.752
793.69	725.802
797.542	856.639
801.391	977.256
805.239	997.662
809.085	927.855
812.93	778.741
816.772	608.696
820.613	409.44
824.452	246.427
828.29	194.386
832.125	210.372
835.959	175.209
839.791	109.645
843.621	22.481
847.45	27.566
851.277	31.335
855.102	82.091
858.925	28.363
862.746	67.642
866.566	69.047
870.384	44.691
874.2	150.238
878.015	25.102
881.828	69.763
885.639	83.789
889.448	11.273
893.256	63.803
897.061	68.728
900.865	134.029
904.668	529.138
908.468	24.025
912.267	1.007
916.064	133.845
919.86	148.579
923.653	16.87
927.445	37.534
931.236	11.735
935.024	95.786
938.811	79.705
942.596	123.461
946.379	77.155
950.161	120.793
953.94	154.378
957.719	127.913
961.495	28.594
965.27	234.831
969.043	228.215
972.814	11.583
976.583	174.934
980.351	127.947
984.117	51.12
987.882	343.972
991.644	246.761
995.405	307.362
999.165	330.155
1002.92	390.441
1006.68	482.143
1010.43	448.687
1014.18	611.293
1017.93	425.207
1021.68	399.02
1025.43	547.804
1029.18	542.772
1032.92	456.974
1036.66	490.788
1040.4	553.839
1044.14	517.429
1047.88	540.708
1051.62	499.513
1055.35	454.895
1059.08	380.096
1062.81	593.609
1066.54	619.199
1070.27	363.01
1073.99	454.005
1077.72	389.558
1081.44	348.398
1085.16	603.537
1088.88	854.655
1092.59	710.678
1096.31	757.091
1100.02	763.537
1103.73	810.04
1107.44	1066.62
1111.15	1102.31
1114.86	1189.42
1118.57	1457.04
1122.27	1233.97
1125.97	1290.92
1129.67	1248.27
1133.37	1386.1
1137.07	1448.16
1140.76	1767.36
1144.45	1701.86
1148.15	1650.03
1151.84	1448.81
1155.53	1282.32
1159.21	1321.41
1162.9	1229.37
1166.58	1465.76
1170.26	1489.43
1173.94	1563.33
1177.62	1455.82
1181.3	1115.56
1184.97	1115.02
1188.65	1094.71
1192.32	977.648
1195.99	716.418
1199.66	741.658
1203.33	669.109
1206.99	452.451
1210.65	440.635
1214.32	437.646
1217.98	449.227
1221.64	530.129
1225.29	409.422
1228.95	438.709
1232.6	455.455
1236.26	341.959
1239.91	191.242
1243.56	176.703
1247.2	203.549
1250.85	209.17
1254.49	255.416
1258.13	490.787
1261.78	407.631
1265.41	542.312
1269.05	317.475
1272.69	132.098
1276.32	36.533
1279.95	60.35
1283.59	2.432
1287.21	271.875
1290.84	84.033
1294.47	216.141
1298.09	367.436
1301.72	78.203
1305.34	121.535
1308.96	92.17
1312.58	53.369
1316.19	65.053
1319.81	17.221
1323.42	300.146
1327.03	47.064
1330.64	353.545
1334.25	329.443
1337.86	94.75
1341.46	80.402
1345.07	123.955
1348.67	42.064
1352.27	81.482
1355.87	394.662
1359.46	98.695
1363.06	331.322
1366.65	223.705
1370.25	36.018
1373.84	128.066
1377.43	109.527
1381.02	8.203
1384.6	272.848
1388.18	333.547
1391.77	343.426
1395.35	611.566
1398.93	609.371
1402.51	530.383
1406.08	377.756
1409.66	432.691
1413.23	125.664
1416.8	46.201
1420.37	204.916
1423.94	240.846
1427.51	208.398
1431.08	386.09
1434.64	466.512
1438.2	572.406
1441.76	511.889
1445.32	303.279
1448.88	115.795
1452.43	291.324
1455.99	211.291
1459.54	309.197
1463.09	172.857
1466.64	447.424
1470.19	602.207
1473.74	719.777
1477.28	593.006
1480.83	485.393
1484.37	460.391
1487.91	457.777
1491.45	255.049
1494.98	83.064
1498.52	36.445
1502.05	58.906
1505.59	268.566
1509.12	10.537
1512.65	180.055
1516.17	290.438
