Measurement: Raman, 514 nm, ccw, Raman Data Processed
Mineral: Barrerite
Rruff sample: R050135
Ideal chemistry: Na_2_(Al_2_Si_7_)O_18_6H_2_O
Locality: Kuiu Island, Alaska, USA
Source: Ben Norton
Description: Colorless laminar crystals
Measured chemistry: (Na_4.49_K_1.30_Ca_1.23_[box]_0.98_)_Σ=8_(Si_27.75_Al_8.25_)O_72_·19H_2_O
Pin_id: L00222
Orientation: Laser parallel to b* (0 1 0). Fiducial mark perpendicular to laser is parallel to c [0 0 1]
Raman shift (cm-1)	intensity
114.949	0
119.119	364.648
123.286	365.416
127.452	625.012
131.615	1111.75
135.777	1275.43
139.937	1486.01
144.094	1838.18
148.25	2341.81
152.403	2586.7
156.555	2526.34
160.705	2282.49
164.853	1820.77
168.998	1218.64
173.142	795.166
177.284	606.416
181.424	433
185.562	290.787
189.698	155.834
193.831	238.836
197.963	134.957
202.093	216.738
206.221	130.713
210.347	101.477
214.472	112.572
218.594	38.824
222.714	65.65
226.832	72.84
230.948	89.629
235.063	92.295
239.175	75.09
243.286	31.84
247.394	48.396
251.501	4.592
255.605	0.406
259.708	74.475
263.808	10.035
267.907	93.998
272.004	42.592
276.099	80.055
280.192	66.529
284.283	126.107
288.372	108.121
292.459	221.396
296.544	35.447
300.627	145.549
304.709	178.443
308.788	394.217
312.865	299.295
316.941	643.615
321.015	687.125
325.086	529.74
329.156	481.434
333.224	502.266
337.29	461.875
341.354	480.199
345.416	717.578
349.476	594.266
353.534	490.01
357.591	444.691
361.645	488.242
365.698	930.43
369.748	1201.56
373.797	1422.01
377.844	1592.94
381.889	1783.64
385.932	2082.1
389.973	2213.61
394.012	2660.1
398.049	3498.78
402.084	4141.78
406.118	5376.66
410.15	6055.94
414.179	5983.12
418.207	5003.94
422.233	4008.78
426.257	3276.99
430.279	2594.35
434.299	2044.99
438.318	1527.26
442.334	1356.27
446.349	1190.63
450.361	1244.86
454.372	965.588
458.381	1052.65
462.388	886.705
466.394	1041.4
470.397	936.834
474.398	793.164
478.398	939.199
482.396	1224.94
486.391	1800.41
490.385	2785.61
494.377	4260.56
498.368	5465.26
502.356	4369.73
506.342	2533.86
510.327	1487.91
514.31	893.027
518.291	647.979
522.27	424.604
526.247	294.93
530.222	276.424
534.196	108.475
538.167	413.234
542.137	142.369
546.105	93.275
550.071	242.547
554.035	182.084
557.998	317.764
561.958	232.209
565.917	88.463
569.874	23.32
573.829	305.07
577.782	417.66
581.733	309.225
585.683	270.781
589.63	332.328
593.576	493.904
597.52	305.539
601.462	317.271
605.402	519.107
609.341	641.168
613.277	743.408
617.212	785.746
621.145	868.037
625.076	1100.25
629.006	1162.36
632.933	594.348
636.859	706.211
640.783	806.859
644.705	759.592
648.625	691.117
652.543	572.533
656.46	493.844
660.375	339.611
664.288	276.344
668.199	277.562
672.108	28.668
676.016	20.285
679.921	10.725
683.825	68.314
687.727	142.252
691.628	82.355
695.526	127.957
699.423	130.686
703.318	38.891
707.211	39.09
711.102	252.783
714.992	190.213
718.879	11.895
722.765	225.693
726.649	382.199
730.532	360.031
734.412	297.27
738.291	201.787
742.168	158.895
746.043	376.225
749.916	253.031
753.788	410.309
757.658	467.543
761.526	634.73
765.392	721.947
769.257	929.045
773.119	986.104
776.98	833.117
780.839	782.309
784.697	1429.24
788.552	1296.14
792.406	1543.01
796.258	1769.86
800.108	1666.96
803.957	1493.76
807.804	1360.54
811.649	1147.31
815.492	852.832
819.333	326.23
823.173	283.811
827.011	458.557
830.847	339.803
834.681	483.691
838.514	258.57
842.345	343.139
846.174	222.064
850.001	107.355
853.827	567.635
857.651	412.553
861.473	454.004
865.293	297.785
869.112	421.455
872.928	464.416
876.744	309.574
880.557	114.1
884.369	401.67
888.178	158.441
891.987	466.246
895.793	354.164
899.598	372.191
903.401	540.334
907.202	438.611
911.001	27.049
914.799	425.693
918.595	554.457
922.389	123.342
926.182	372.352
929.972	58.51
933.761	430.701
937.549	320.049
941.334	229.537
945.118	289.172
948.9	268.957
952.681	208.883
956.459	98.957
960.236	299.191
964.012	349.592
967.785	130.002
971.557	30.393
975.327	10.879
979.095	188.453
982.862	277.793
986.627	92.699
990.39	323.369
994.152	434.342
997.912	105.615
1001.67	567.307
1005.43	599.377
1009.18	511.76
1012.93	464.389
1016.68	457.297
1020.43	320.607
1024.18	675.232
1027.93	759.012
1031.67	563
1035.42	557.164
1039.16	731.652
1042.9	556.324
1046.63	622.055
1050.37	597.094
1054.11	574.098
1057.84	449.512
1061.57	855.82
1065.3	961.621
1069.03	687.547
1072.75	543.738
1076.47	370.137
1080.2	424.527
1083.92	681.352
1087.64	958.406
1091.36	965.695
1095.07	653.215
1098.79	670.973
1102.5	218.664
1106.21	926.871
1109.92	981.637
1113.62	953.996
1117.33	1294.69
1121.04	1166.94
1124.74	1175.16
1128.44	706.297
1132.14	603.086
1135.83	868.145
1139.53	1218.31
1143.22	1373.34
1146.92	1302.78
1150.61	963.848
1154.3	582.133
1157.98	623.887
1161.67	454.766
1165.35	657.836
1169.04	720.664
1172.72	821.328
1176.4	571.848
1180.07	329.398
1183.75	170.051
1187.42	50.984
1191.1	37.812
1194.77	193.457
1198.44	134.914
1202.1	796.66
1205.77	518.762
1209.43	231.152
1213.1	273.824
1216.76	416.773
1220.42	190.105
1224.07	524.133
1227.73	788.703
1231.38	804.438
1235.04	650.539
1238.69	446.906
1242.34	383.352
1245.99	300.105
1249.63	485.129
1253.28	582.828
1256.92	971.215
1260.56	918.285
1264.2	1033.69
1267.84	515.93
1271.48	395.188
1275.11	65.098
1278.74	75.578
1282.38	276.562
1286.01	468.125
1289.63	600.453
1293.26	670.938
1296.89	908.055
1300.51	305.211
1304.13	293.836
1307.75	334.68
1311.37	13.902
1314.99	180.047
1318.6	261.406
1322.22	0
