Measurement: Raman, 514 nm, ccw, Raman Data Processed
Mineral: Barrerite
Rruff sample: R050135
Ideal chemistry: Na_2_(Al_2_Si_7_)O_18_6H_2_O
Locality: Kuiu Island, Alaska, USA
Source: Ben Norton
Description: Colorless laminar crystals
Measured chemistry: (Na_4.49_K_1.30_Ca_1.23_[box]_0.98_)_Σ=8_(Si_27.75_Al_8.25_)O_72_·19H_2_O
Pin_id: M00182
Orientation: Laser parallel to c* (0 0 1). Fiducial mark perpendicular to laser is parallel to -a [-1 0 0]
Raman shift (cm-1)	intensity
133.003	0
137.164	413.6
141.323	1220.81
145.48	2453.21
149.635	5257.36
153.788	7661.53
157.939	9053.62
162.088	8838.22
166.235	7360.1
170.38	5298.01
174.523	3359.28
178.664	2543.93
182.803	2033.67
186.94	1274.67
191.076	1083.29
195.209	897.369
199.34	697.021
203.47	430.08
207.597	396.742
211.722	799.303
215.846	225.971
219.967	18.572
224.087	86.375
228.204	86.455
232.32	160.998
236.434	62.984
240.545	12.5
244.655	68.262
248.763	5.047
252.869	266.789
256.973	226.484
261.075	43.873
265.175	88.373
269.273	60.207
273.369	161.176
277.463	616.33
281.556	572.283
285.646	146.15
289.734	97.641
293.821	37.625
297.905	279.061
301.988	664.65
306.069	1040.95
310.147	1104.91
314.224	1575.54
318.299	2172.29
322.372	2064.85
326.443	1692.94
330.512	1566.46
334.579	1655.23
338.645	1449.21
342.708	1238.55
346.769	1522.65
350.829	1641.66
354.887	1556.42
358.942	1466.48
362.996	1780.74
367.048	2409.55
371.098	2982.97
375.146	3483
379.192	4741.18
383.236	5941.88
387.279	6420.28
391.319	7381.15
395.358	8423.91
399.394	10739.6
403.429	13183.8
407.462	15719.7
411.493	18734.2
415.522	19983.3
419.549	18205.8
423.575	14782
427.598	12013.1
431.619	10016.1
435.639	7758.63
439.657	5784.53
443.673	4593.41
447.687	3937.44
451.699	3668.32
455.709	3165.86
459.717	3228.17
463.724	3453.61
467.728	3551.9
471.731	3211.76
475.732	2841.33
479.731	3099.94
483.728	3867.64
487.723	5244.48
491.716	7800.51
495.708	12675.8
499.697	19910.4
503.685	20154.4
507.671	12799
511.655	6883.09
515.637	4243.3
519.617	2836.7
523.596	1690.3
527.572	1006.19
531.547	917.354
535.52	564.713
539.491	518.398
543.46	287.635
547.427	32.809
551.393	48.064
555.356	160.85
559.318	52.945
563.278	95.32
567.236	49.502
571.192	167.232
575.147	204.611
579.099	166.549
583.05	41.281
586.999	59.73
590.946	310.891
594.891	512.34
598.834	174.062
602.776	375.609
606.715	737.176
610.653	1028.95
614.589	1540.78
618.523	1522.52
622.456	1764.14
626.386	1755.7
630.315	1917.12
634.242	1548.31
638.167	1229.31
642.09	920.146
646.012	950.789
649.931	825.045
653.849	561.529
657.765	381.609
661.679	211.545
665.592	311.381
669.502	371.088
673.411	170.48
677.318	132.025
681.223	48.518
685.126	52.758
689.028	45.555
692.927	5.367
696.825	22.922
700.721	143.129
704.616	273.248
708.508	67.279
712.399	408.932
716.288	281.02
720.175	126.729
724.06	491.898
727.944	373.492
731.825	358.803
735.705	110.977
739.584	327.092
743.46	508.998
747.334	640.93
751.207	599.404
755.078	652.611
758.947	735.176
762.815	1098.58
766.68	1527.16
770.544	1810.04
774.406	1675.3
778.267	1747.18
782.125	2296.16
785.982	3157.97
789.837	3599.09
793.69	3776.46
797.542	4277.45
801.391	4270.93
805.239	4741.08
809.085	4980.98
812.93	4031.31
816.772	3167.13
820.613	1744.15
824.452	1082.19
828.29	953.564
832.125	760.529
835.959	741.285
839.791	291.328
843.621	52.744
847.45	172.93
851.277	21.383
855.102	307.834
858.925	160.854
862.746	393.248
866.566	252.787
870.384	253.443
874.2	215.934
878.015	140.889
881.828	104.258
885.639	9.531
889.448	55.699
893.256	238.773
897.061	163.541
900.865	178.023
904.668	192.451
908.468	156.762
912.267	20.965
916.064	235.059
919.86	219.002
923.653	37.271
927.445	196.275
931.236	270.266
935.024	312.676
938.811	145.537
942.596	158.34
946.379	21
950.161	303.537
953.94	105.969
957.719	168.326
961.495	150.639
965.27	252.895
969.043	495
972.814	6.887
976.583	21.326
980.351	140.52
984.117	52.373
987.882	394.275
991.644	416.203
995.405	427.143
999.165	309.098
1002.92	496.072
1006.68	427.477
1010.43	743.865
1014.18	866.928
1017.93	850.338
1021.68	573.568
1025.43	926.084
1029.18	932.104
1032.92	1060.02
1036.66	1294.84
1040.4	1254.2
1044.14	1147.39
1047.88	1300.86
1051.62	1285.22
1055.35	1199.93
1059.08	1114.35
1062.81	1340.27
1066.54	1575.65
1070.27	1295.18
1073.99	1077.25
1077.72	1002.72
1081.44	941.475
1085.16	1467.69
1088.88	1873.57
1092.59	1693.07
1096.31	2013.18
1100.02	1899.63
1103.73	1893.95
1107.44	2440.46
1111.15	2726.98
1114.86	2824.38
1118.57	3005.84
1122.27	2803.39
1125.97	3089.9
1129.67	2757.23
1133.37	2575.22
1137.07	2587.06
1140.76	3196.26
1144.45	3295.49
1148.15	2863.57
1151.84	2439.49
1155.53	1746.83
1159.21	1904.9
1162.9	1547.41
1166.58	1811.52
1170.26	1647.9
1173.94	1952.77
1177.62	1352.65
1181.3	1084.27
1184.97	726.398
1188.65	947.191
1192.32	517.184
1195.99	635.496
1199.66	914.547
1203.33	1044.88
1206.99	792.027
1210.65	498.988
1214.32	396.961
1217.98	462.711
1221.64	442.844
1225.29	617.875
1228.95	877.164
1232.6	932.621
1236.26	759.691
1239.91	294.77
1243.56	457.875
1247.2	152.539
1250.85	445.688
1254.49	477.59
1258.13	1071.09
1261.78	987.953
1265.41	1019.34
1269.05	469.953
1272.69	512.602
1276.32	172.977
1279.95	97.336
1283.59	100.176
1287.21	319.133
1290.84	375.414
1294.47	571.344
1298.09	706.59
1301.72	190.742
1305.34	6.18
1308.96	174.676
1312.58	224.215
1316.19	214.656
1319.81	44.023
1323.42	351.832
1327.03	338.867
1330.64	515.094
1334.25	380.57
1337.86	35.117
1341.46	151.133
1345.07	38.148
1348.67	34.746
1352.27	236.668
1355.87	627.16
1359.46	268.363
1363.06	710.586
1366.65	701.59
1370.25	242.836
1373.84	45.082
1377.43	165.605
1381.02	5.934
1384.6	310.07
1388.18	233.234
1391.77	505.188
1395.35	1026.38
1398.93	1237.07
1402.51	1145.29
1406.08	639.68
1409.66	835.926
1413.23	175.703
1416.8	113.719
1420.37	74.047
1423.94	963.172
1427.51	478.305
1431.08	526.438
1434.64	884.141
1438.2	1003.24
1441.76	889.855
1445.32	680.469
1448.88	1928.84
1452.43	313.199
1455.99	571.414
1459.54	550.492
1463.09	350.652
1466.64	784.688
1470.19	1088.74
1473.74	1210.56
1477.28	1199.38
1480.83	1171.73
1484.37	1026.83
1487.91	819.566
1491.45	523.922
1494.98	303.34
1498.52	349.227
1502.05	4.391
1505.59	387.301
1509.12	601.523
1512.65	862.094
1516.17	1063.96
1519.7	0
