Measurement: Raman, 514 nm, ccw, Raman Data Processed
Mineral: Barrerite
Rruff sample: R050135
Ideal chemistry: Na_2_(Al_2_Si_7_)O_18_6H_2_O
Locality: Kuiu Island, Alaska, USA
Source: Ben Norton
Description: Colorless laminar crystals
Measured chemistry: (Na_4.49_K_1.30_Ca_1.23_[box]_0.98_)_Σ=8_(Si_27.75_Al_8.25_)O_72_·19H_2_O
Pin_id: M00229
Orientation: Laser parallel to -a* (-1 0 0). Fiducial mark perpendicular to laser is parallel to b [0 1 0]
Raman shift (cm-1)	intensity
151.019	0
155.171	20.179
159.322	156.764
163.47	409.071
167.617	281.768
171.761	336.406
175.904	373.652
180.044	439.553
184.183	517.797
188.319	427.71
192.454	154.378
196.586	105.412
200.717	50.266
204.846	102.909
208.972	83.479
213.097	31.892
217.22	15.257
221.341	130.632
225.46	198.916
229.577	303.439
233.692	510.791
237.805	300.857
241.916	503.366
246.025	547.085
250.132	800.973
254.237	614.341
258.34	976.829
262.442	1097.78
266.541	1237.03
270.639	1445.68
274.734	1604.85
278.828	1915.49
282.919	2337.28
287.009	2109.86
291.097	2102.88
295.183	1985.95
299.266	1709.03
303.348	1272.09
307.428	1075.13
311.507	918.156
315.583	893.541
319.657	750.559
323.729	762.49
327.8	1019.25
331.868	920.478
335.935	916.688
339.999	857.12
344.062	981.985
348.123	832.527
352.182	690.133
356.239	864.252
360.294	956.76
364.347	1125.03
368.398	1416.86
372.448	1925.77
376.495	2390.25
380.54	2937.62
384.584	3759.61
388.626	4797.99
392.666	6222.63
396.704	8024.97
400.74	10707.1
404.774	14380.4
408.806	18523.3
412.836	21036.2
416.865	20529.1
420.891	17129.6
424.916	13190.5
428.939	10045.2
432.959	7829.26
436.978	6302.99
440.996	5445.97
445.011	4858.91
449.024	4891.8
453.036	5454.61
457.045	6157.34
461.053	6929.98
465.059	6812.53
469.063	5414.99
473.065	3977.35
477.065	3119.57
481.063	2761.29
485.06	2662.54
489.054	3403.36
493.047	5293.83
497.038	8514
501.027	10203.9
505.014	8223.73
508.999	4773.62
512.982	2523.25
516.964	1693.9
520.944	943.715
524.921	574.035
528.897	375.244
532.871	146.32
536.844	67.424
540.814	70.598
544.783	62.439
548.749	183.902
552.714	143.115
556.677	182.748
560.638	268.244
564.597	118.658
568.555	10.252
572.511	51.09
576.464	63.852
580.416	76.201
584.366	120.973
588.315	227.688
592.261	123.656
596.206	449.801
600.148	495.461
604.089	782.055
608.028	1077.35
611.965	1382.28
615.901	1546.99
619.834	1575.56
623.766	1535.77
627.696	1499.86
631.624	1393.77
635.551	1197.47
639.475	1090.96
643.398	874.25
647.318	697.322
651.237	490.184
655.155	532.836
659.07	325.283
662.984	327.521
666.895	279.607
670.805	91.877
674.713	254.131
678.62	187.377
682.524	149.238
686.427	152.613
690.328	245.355
694.227	14.031
698.124	244.387
702.02	148.863
705.913	222.393
709.805	142.475
713.695	34.719
717.584	75.791
721.47	228.891
725.355	211.486
729.238	637.867
733.119	75.672
736.998	76.619
740.876	201.711
744.752	327.656
748.626	173.043
752.498	299.648
756.368	66.035
760.237	132.57
764.104	338.525
767.969	274.285
771.832	239.852
775.693	295.229
779.553	382.684
783.411	417.689
787.267	405.893
791.122	470.531
794.974	436.152
798.825	550.434
802.674	454.539
806.522	358.477
810.367	352.242
814.211	425.85
818.053	319.49
821.893	139.48
825.732	64.621
829.568	118.494
833.403	55.5
837.236	77.283
841.068	288.303
844.898	99.836
848.726	159.131
852.552	169.596
856.376	81.051
860.199	109.072
864.02	36.906
867.839	172.475
871.656	242.531
875.472	97.102
879.286	177.229
883.098	2.332
886.909	132.408
890.717	32.197
894.524	142.512
898.33	202.531
902.133	33.014
905.935	468.738
909.735	293.006
913.533	292.463
917.33	102.855
921.124	83.232
924.918	193.596
928.709	103.953
932.499	244.287
936.286	75.422
940.073	134.785
943.857	34.99
947.64	245.217
951.421	135.459
955.2	315.73
958.978	206.029
962.753	356.361
966.527	13.268
970.3	152.869
974.071	27.406
977.84	37.26
981.607	147.023
985.372	415.303
989.136	125.164
992.898	103.475
996.659	191.389
1000.42	92.271
1004.17	420.066
1007.93	356.859
1011.68	278.025
1015.43	315.441
1019.18	525.824
1022.93	398
1026.68	646.9
1030.42	536.869
1034.17	668.963
1037.91	351.684
1041.65	752.996
1045.39	556.27
1049.12	779.885
1052.86	1003.94
1056.59	918.277
1060.33	872.844
1064.06	677.143
1067.78	511.924
1071.51	766.811
1075.23	691.859
1078.96	827.004
1082.68	1040.08
1086.4	1122.31
1090.12	928.25
1093.83	1203.52
1097.55	1360.35
1101.26	1276.99
1104.97	1733.19
1108.68	1929.43
1112.39	1805.74
1116.1	1862
1119.8	2142.86
1123.5	2239.31
1127.2	1962.35
1130.9	2559.5
1134.6	2552.78
1138.3	2770.53
1141.99	2442.55
1145.69	2234.67
1149.38	2153.42
1153.07	2692.72
1156.76	2758.61
1160.44	2609.95
1164.13	2919.57
1167.81	2379.3
1171.49	2139.35
1175.17	1708.92
1178.85	1469.79
1182.52	1339.5
1186.2	1428.05
1189.87	1215.71
1193.54	1081.32
1197.21	626.852
1200.88	572.777
1204.55	489.953
1208.21	436.145
1211.88	413.922
1215.54	500.873
1219.2	520.939
1222.86	661.199
1226.51	519.453
1230.17	575.633
1233.82	671.939
1237.47	187.379
1241.12	401.264
1244.77	524.785
1248.42	568.629
1252.06	541.865
1255.71	544.961
1259.35	368.857
1262.99	572.156
1266.63	374.416
1270.26	367.879
1273.9	322.594
1277.53	613.479
1281.16	623.564
1284.8	423.217
1288.42	348.268
1292.05	215.938
1295.68	106.922
1299.3	40.273
1302.92	45.424
1306.55	189.92
1310.16	36.695
1313.78	185.979
1317.4	427.955
1321.01	259.125
1324.62	169.605
1328.24	319.305
1331.85	61.691
1335.45	193.709
1339.06	73.367
1342.66	349.629
1346.27	485.166
1349.87	460.371
1353.47	396.727
1357.07	130.57
1360.66	404.078
1364.26	12.654
1367.85	230.248
1371.44	86.814
1375.04	86.668
1378.62	445.969
1382.21	472.043
1385.8	796.781
1389.38	832.379
1392.96	495.832
1396.54	370.414
1400.12	142.41
1403.7	177.135
1407.28	510.623
1410.85	186.373
1414.42	354.686
1417.99	569.344
1421.56	707.996
1425.13	507.979
1428.7	660.115
1432.26	463.764
1435.83	358.988
1439.39	51.738
1442.95	260.879
1446.51	451.434
1450.06	496.051
1453.62	472.742
1457.17	778.367
1460.73	909.23
1464.28	1047.61
1467.83	841.762
1471.37	529.27
1474.92	435.746
1478.46	174.086
1482.01	160.754
1485.55	152.195
1489.09	125.992
1492.63	230.402
1496.16	388.465
1499.7	704.23
1503.23	658.328
1506.76	829.977
1510.29	530.23
1513.82	658.621
1517.35	671.719
