Measurement: Raman, 514 nm, ccw, Raman Data Processed
Mineral: Barrerite
Rruff sample: R050135
Ideal chemistry: Na_2_(Al_2_Si_7_)O_18_6H_2_O
Locality: Kuiu Island, Alaska, USA
Source: Ben Norton
Description: Colorless laminar crystals
Measured chemistry: (Na_4.49_K_1.30_Ca_1.23_[box]_0.98_)_Σ=8_(Si_27.75_Al_8.25_)O_72_·19H_2_O
Pin_id: L00222
Orientation: Laser parallel to b* (0 1 0). Fiducial mark perpendicular to laser is parallel to c [0 0 1]
Raman shift (cm-1)	intensity
112.168	0
116.339	513.852
120.508	1021.21
124.675	1847.65
128.84	2008.03
133.003	2153.23
137.164	1964.2
141.323	1693.86
145.48	1515.5
149.635	1276.5
153.788	1152.01
157.939	1167.46
162.088	1168.35
166.235	936.732
170.38	840.16
174.523	738.889
178.664	528.213
182.803	456.623
186.94	425.812
191.076	65.73
195.209	6.348
199.34	57.137
203.47	47.953
207.597	222.404
211.722	65.473
215.846	102.475
219.967	21.129
224.087	249.93
228.204	9.053
232.32	48.031
236.434	23.006
240.545	14.492
244.655	182.5
248.763	258.373
252.869	354.062
256.973	439.973
261.075	446.156
265.175	642.809
269.273	954.799
273.369	976.945
277.463	1225.33
281.556	1323.19
285.646	1105.17
289.734	1058.4
293.821	1041.73
297.905	744.609
301.988	566.732
306.069	497.625
310.147	487.244
314.224	415.818
318.299	453.527
322.372	429.857
326.443	473.443
330.512	514.779
334.579	374.613
338.645	383.623
342.708	402.359
346.769	321.201
350.829	490.18
354.887	538.922
358.942	485.775
362.996	555.17
367.048	771.389
371.098	970.045
375.146	1116.69
379.192	1497.52
383.236	1938.79
387.279	2582.14
391.319	3434.3
395.358	4639.56
399.394	6366.53
403.429	8553.95
407.462	11117
411.493	12639.4
415.522	11190.4
419.549	8991.46
423.575	6774.28
427.598	5025.31
431.619	3836.35
435.639	3517.36
439.657	3238.36
443.673	2819.23
447.687	3039.89
451.699	3300.32
455.709	3910.52
459.717	4270.46
463.724	3750.15
467.728	2749.61
471.731	1928.83
475.732	1667.85
479.731	1526.66
483.728	1315.29
487.723	2083.74
491.716	3542.07
495.708	5290.28
499.697	5468.4
503.685	3826.41
507.671	2164.33
511.655	1142.38
515.637	671.068
519.617	460.75
523.596	268.432
527.572	248.816
531.547	171.441
535.52	111.414
539.491	62.801
543.46	172.422
547.427	155.666
551.393	134.033
555.356	91.172
559.318	19.756
563.278	71.938
567.236	123.254
571.192	321.25
575.147	287.768
579.099	32.451
583.05	261.064
586.999	342.285
590.946	421.068
594.891	451.752
598.834	546.076
602.776	530.17
606.715	944.123
610.653	1169.72
614.589	1093.12
618.523	1436.27
622.456	1529.39
626.386	1532.08
630.315	1294.55
634.242	1096.77
638.167	898.766
642.09	1100.53
646.012	812.066
649.931	793.369
653.849	724.676
657.765	645.312
661.679	526.021
665.592	196.633
669.502	207.061
673.411	287.291
677.318	187.324
681.223	137.172
685.126	186.639
689.028	155.65
692.927	73.338
696.825	140.838
700.721	26.014
704.616	35.467
708.508	49.801
712.399	145.691
716.288	27.799
720.175	179.369
724.06	157.9
727.944	71.477
731.825	114.162
735.705	21.738
739.584	68.322
743.46	375.129
747.334	128.381
751.207	167.58
755.078	324.312
758.947	297.004
762.815	329.516
766.68	242.787
770.544	284.9
774.406	56.848
778.267	388.627
782.125	620.252
785.982	471.721
789.837	513.045
793.69	284.225
797.542	495.268
801.391	466.174
805.239	516.951
809.085	467.602
812.93	533.801
816.772	456.91
820.613	300.377
824.452	413.701
828.29	509.131
832.125	377.625
835.959	63.611
839.791	580.82
843.621	495.535
847.45	416.73
851.277	316.021
855.102	317.129
858.925	745.438
862.746	770.268
866.566	576.189
870.384	751.699
874.2	234.752
878.015	196.031
881.828	243.922
885.639	381.092
889.448	321.713
893.256	355.809
897.061	296.037
900.865	276.385
904.668	416.754
908.468	477.277
912.267	547.93
916.064	238.574
919.86	207.406
923.653	198.268
927.445	179.006
931.236	360.014
935.024	21.135
938.811	272.406
942.596	349.268
946.379	255.221
950.161	210.422
953.94	348.428
957.719	300.189
961.495	392.061
965.27	66.053
969.043	264.154
972.814	7.551
976.583	159.355
980.351	91.188
984.117	502.984
987.882	274.715
991.644	176.605
995.405	101.266
999.165	240.973
1002.92	943.52
1006.68	536.332
1010.43	269.359
1014.18	332.676
1017.93	206.379
1021.68	420.414
1025.43	534.066
1029.18	499.336
1032.92	624.156
1036.66	299.195
1040.4	474.512
1044.14	480.117
1047.88	525.988
1051.62	702.043
1055.35	650.336
1059.08	681.879
1062.81	601.727
1066.54	101.473
1070.27	507.5
1073.99	324.668
1077.72	712.016
1081.44	819.566
1085.16	974.766
1088.88	602.656
1092.59	1020.73
1096.31	528.973
1100.02	757.402
1103.73	1116.02
1107.44	1214.83
1111.15	1393.85
1114.86	1224.71
1118.57	1314.08
1122.27	1013.75
1125.97	1150.31
1129.67	1424.28
1133.37	1513.76
1137.07	1707.93
1140.76	1538.78
1144.45	919.047
1148.15	1000.1
1151.84	1384.72
1155.53	1616.23
1159.21	1437.93
1162.9	1607.79
1166.58	1309.49
1170.26	1241.77
1173.94	764.258
1177.62	586.922
1181.3	589.836
1184.97	283.004
1188.65	486.27
1192.32	825.961
1195.99	149.672
1199.66	224.652
1203.33	78.262
1206.99	88.059
1210.65	64.652
1214.32	28.582
1217.98	261.906
1221.64	415.297
1225.29	219.234
1228.95	193.895
1232.6	437.547
1236.26	11.484
1239.91	355.707
1243.56	280.254
1247.2	485.383
1250.85	411.113
1254.49	467.633
1258.13	434.852
1261.78	612.43
1265.41	270.32
1269.05	358.605
1272.69	447.02
1276.32	835.828
1279.95	795.047
1283.59	234.512
1287.21	320.836
1290.84	426.133
1294.47	59.449
1298.09	190.727
1301.72	206.109
1305.34	66.586
1308.96	152.316
1312.58	379.383
1316.19	811.613
1319.81	635.195
1323.42	887.715
1327.03	760.609
1330.64	242.316
1334.25	85.836
1337.86	298.996
1341.46	298.773
1345.07	389.984
1348.67	741.848
1352.27	653.367
1355.87	681.121
1359.46	678.98
1363.06	548.48
1366.65	386.91
1370.25	3.176
