Measurement: Raman, 514 nm, ccw, Raman Data Processed
Mineral: Barrerite
Rruff sample: R050135
Ideal chemistry: Na_2_(Al_2_Si_7_)O_18_6H_2_O
Locality: Kuiu Island, Alaska, USA
Source: Ben Norton
Description: Colorless laminar crystals
Measured chemistry: (Na_4.49_K_1.30_Ca_1.23_[box]_0.98_)_Σ=8_(Si_27.75_Al_8.25_)O_72_·19H_2_O
Pin_id: M00229
Orientation: Laser parallel to -a* (-1 0 0). Fiducial mark perpendicular to laser is parallel to b [0 1 0]
Raman shift (cm-1)	intensity
148.25	0
152.403	71.717
156.555	62.787
160.705	182.049
164.853	328.785
168.998	248.504
173.142	339.414
177.284	500.983
181.424	336.032
185.562	340.656
189.698	298.231
193.831	130.443
197.963	23.124
202.093	182.132
206.221	127.536
210.347	28.34
214.472	230.5
218.594	237.979
222.714	495.385
226.832	480.664
230.948	463.828
235.063	430.717
239.175	341.042
243.286	393.061
247.394	385.469
251.501	167.397
255.605	288.289
259.708	447.416
263.808	324.643
267.907	60.841
272.004	133.33
276.099	37.118
280.192	50.814
284.283	15.082
288.372	90.548
292.459	285.261
296.544	248.277
300.627	390.026
304.709	831.034
308.788	1221.56
312.865	1524.27
316.941	1945.47
321.015	2196.88
325.086	2250.45
329.156	2006.41
333.224	1864.76
337.29	1936.49
341.354	1832.56
345.416	1663.16
349.476	1848.9
353.534	2101.13
357.591	2290.11
361.645	2609.5
365.698	2961.55
369.748	3865.16
373.797	4841.19
377.844	6004.27
381.889	7048.25
385.932	8274.44
389.973	9921.14
394.012	11673.6
398.049	14218
402.084	17953.5
406.118	22858.2
410.15	26745.1
414.179	29018.8
418.207	26677.2
422.233	22348.8
426.257	17062.9
430.279	13804.2
434.299	10874.4
438.318	9292.63
442.334	7761.32
446.349	6734.34
450.361	6691.14
454.372	8170.52
458.381	9850.67
462.388	11203.2
466.394	10368.4
470.397	9064.69
474.398	6770.77
478.398	5286.01
482.396	4870.41
486.391	5194.09
490.385	6247.13
494.377	8519.62
498.368	11571.7
502.356	12603.3
506.342	9314.66
510.327	5435.74
514.31	2926.61
518.291	1677.33
522.27	1188.49
526.247	879.193
530.222	440.217
534.196	212.707
538.167	100.588
542.137	82.107
546.105	174.215
550.071	13.969
554.035	192.273
557.998	158.004
561.958	17.215
565.917	5.99
569.874	5.117
573.829	43.438
577.782	2.266
581.733	140.062
585.683	48.385
589.63	26.193
593.576	123.734
597.52	281.42
601.462	589.203
605.402	627.008
609.341	1174.74
613.277	1472.41
617.212	1559.98
621.145	1497.41
625.076	1624.67
629.006	1521.77
632.933	1408.68
636.859	1305.42
640.783	982.061
644.705	998.496
648.625	904.736
652.543	950.785
656.46	716.646
660.375	732.318
664.288	407.805
668.199	433.471
672.108	358.953
676.016	394.656
679.921	233.127
683.825	312.568
687.727	130.021
691.628	70.115
695.526	233.227
699.423	101.596
703.318	69.543
707.211	81.93
711.102	274.578
714.992	238.893
718.879	379.988
722.765	85.129
726.649	287.436
730.532	279.393
734.412	593.822
738.291	192.381
742.168	181.619
746.043	425.955
749.916	734.895
753.788	394.666
757.658	407.869
761.526	237.719
765.392	287.699
769.257	470.91
773.119	541.203
776.98	660.162
780.839	754.127
784.697	712.893
788.552	1136.66
792.406	1172.05
796.258	1029.87
800.108	777.373
803.957	924.781
807.804	761.828
811.649	728.646
815.492	495.369
819.333	505.543
823.173	261.691
827.011	77.611
830.847	143.299
834.681	138.137
838.514	113.227
842.345	257.084
846.174	23.926
850.001	62.781
853.827	89.604
857.651	61.451
861.473	213.393
865.293	24.428
869.112	87.699
872.928	79.627
876.744	212.213
880.557	284.367
884.369	96.189
888.178	27.203
891.987	31.322
895.793	70.83
899.598	20.082
903.401	150.873
907.202	101.566
911.001	102.078
914.799	82.488
918.595	67.197
922.389	202.918
926.182	262.928
929.972	412.85
933.761	12.605
937.549	57.754
941.334	191.725
945.118	451.031
948.9	310.164
952.681	199.26
956.459	48.314
960.236	217.346
964.012	116.35
967.785	105.336
971.557	374.271
975.327	272.822
979.095	260.844
982.862	349.279
986.627	4.484
990.39	235.559
994.152	384.748
997.912	616.145
1001.67	499.01
1005.43	316.109
1009.18	548.096
1012.93	455.266
1016.68	953.924
1020.43	647.658
1024.18	922.266
1027.93	604.977
1031.67	900.803
1035.42	657.482
1039.16	747.941
1042.9	931.689
1046.63	819.637
1050.37	949.9
1054.11	831.967
1057.84	914.389
1061.57	983.793
1065.3	916.6
1069.03	955.418
1072.75	988.557
1076.47	910.709
1080.2	874.08
1083.92	1372.35
1087.64	1173.56
1091.36	1334.89
1095.07	1621.77
1098.79	1946.51
1102.5	2041.05
1106.21	1815.58
1109.92	2030.71
1113.62	2335.61
1117.33	2450.52
1121.04	2633.11
1124.74	3068.45
1128.44	3354.14
1132.14	2980.8
1135.83	3089.56
1139.53	2886.66
1143.22	3045.79
1146.92	3788.64
1150.61	3792.97
1154.3	3646.83
1157.98	3701.67
1161.67	3762.52
1165.35	3194.09
1169.04	3083.64
1172.72	3036.29
1176.4	3295.48
1180.07	3348.55
1183.75	3029.22
1187.42	2683.86
1191.1	2472.95
1194.77	1862.52
1198.44	1838.47
1202.1	1233.4
1205.77	1142.74
1209.43	1301.2
1213.1	1253.77
1216.76	820.965
1220.42	294.051
1224.07	411.379
1227.73	558.059
1231.38	415.27
1235.04	623.803
1238.69	811.217
1242.34	917.232
1245.99	564.107
1249.63	351.297
1253.28	187.486
1256.92	354.252
1260.56	321.922
1264.2	147.102
1267.84	533.867
1271.48	768.854
1275.11	582.666
1278.74	207.182
1282.38	180.523
1286.01	11.883
1289.63	64.67
1293.26	265.707
1296.89	157.539
1300.51	346.648
1304.13	654.572
1307.75	351.629
1311.37	427.92
1314.99	193.498
1318.6	168.078
1322.22	28.096
1325.83	44.592
1329.44	66.832
1333.05	148.133
1336.66	589.416
1340.26	428.939
1343.87	317.625
1347.47	385.484
1351.07	92.641
1354.67	10.549
1358.27	215.254
1361.86	112.758
1365.46	407.561
1369.05	452.902
1372.64	569.412
1376.23	480.311
1379.82	420.143
1383.41	540.057
1386.99	329.146
1390.57	247.375
1394.16	364.748
1397.74	517.334
1401.32	630.568
1404.89	616.324
1408.47	747.432
1412.04	805.504
1415.61	907.312
1419.18	545.086
1422.75	444.816
1426.32	512.734
1429.89	30.648
1433.45	336.805
1437.01	177.02
1440.58	345.125
1444.13	839.199
1447.69	973
1451.25	741.621
1454.81	924.734
1458.36	595.988
1461.91	800.234
1465.46	460.117
1469.01	178.793
1472.56	197.453
1476.1	779.09
1479.64	847.668
1483.19	562.328
1486.73	734.352
1490.27	1077.78
1493.81	1042.24
1497.34	1023.7
1500.88	544.715
1504.41	354.832
1507.94	26.547
1511.47	25.031
