Measurement: Raman, 514 nm, ccw, Raman Data Processed
Mineral: Barrerite
Rruff sample: R050135
Ideal chemistry: Na_2_(Al_2_Si_7_)O_18_6H_2_O
Locality: Kuiu Island, Alaska, USA
Source: Ben Norton
Description: Colorless laminar crystals
Measured chemistry: (Na_4.49_K_1.30_Ca_1.23_[box]_0.98_)_Σ=8_(Si_27.75_Al_8.25_)O_72_·19H_2_O
Pin_id: M00229
Orientation: Laser parallel to -a* (-1 0 0). Fiducial mark perpendicular to laser is parallel to b [0 1 0]
Raman shift (cm-1)	intensity
141.323	0
145.48	5.082
149.635	244.719
153.788	435.924
157.939	822.738
162.088	1258.88
166.235	1329.96
170.38	1665.57
174.523	1386.07
178.664	1150.62
182.803	780.566
186.94	380.377
191.076	186.248
195.209	22.869
199.34	83.402
203.47	54.02
207.597	190.441
211.722	679.492
215.846	1429.65
219.967	2356.74
224.087	3412
228.204	4305.07
232.32	4299.5
236.434	4223.16
240.545	3428.03
244.655	2412.34
248.763	1665.19
252.869	975.096
256.973	601.396
261.075	196.635
265.175	182.311
269.273	82.236
273.369	215.795
277.463	505.836
281.556	880.252
285.646	1176.65
289.734	1121.97
293.821	616.303
297.905	429.945
301.988	232.859
306.069	258.139
310.147	203.633
314.224	362.203
318.299	633.824
322.372	958.014
326.443	754.773
330.512	1124.41
334.579	1395.59
338.645	1438.11
342.708	1435.36
346.769	1756.31
350.829	1679.99
354.887	1635.01
358.942	1274.24
362.996	1236.94
367.048	1486.28
371.098	1667.2
375.146	2103
379.192	2910.09
383.236	3628.41
387.279	4421.83
391.319	5415.02
395.358	7159.83
399.394	9508.86
403.429	12360.7
407.462	15754.1
411.493	18676.5
415.522	19512.3
419.549	17148
423.575	13358.4
427.598	10947.8
431.619	8623.22
435.639	6857.86
439.657	5625.63
443.673	4836.2
447.687	4388.57
451.699	4580.3
455.709	4958.51
459.717	6143.11
463.724	6615.65
467.728	5933.3
471.731	4450.35
475.732	3200.26
479.731	2680.81
483.728	2727.91
487.723	3034.93
491.716	3929.12
495.708	6213.57
499.697	9067.39
503.685	8340.69
507.671	5074.6
511.655	2788.23
515.637	1449.41
519.617	965.408
523.596	450.684
527.572	224.553
531.547	218.719
535.52	106.117
539.491	137.65
543.46	79.781
547.427	167.398
551.393	14.074
555.356	84.387
559.318	112.885
563.278	191.102
567.236	59.395
571.192	81.492
575.147	53.469
579.099	88.977
583.05	26.262
586.999	16.83
590.946	129.045
594.891	441.068
598.834	322.955
602.776	463.893
606.715	715.498
610.653	1105.61
614.589	1304.93
618.523	1273.44
622.456	1531.53
626.386	1339.26
630.315	1456.62
634.242	793.582
638.167	890.125
642.09	806.227
646.012	871.879
649.931	647.057
653.849	441.744
657.765	425.936
661.679	349.668
665.592	442.965
669.502	356.17
673.411	629.957
677.318	82.205
681.223	226.043
685.126	225.959
689.028	142.658
692.927	187.758
696.825	275.893
700.721	195.727
704.616	389.027
708.508	93.424
712.399	404.908
716.288	73.248
720.175	109.371
724.06	282.672
727.944	347.59
731.825	266.279
735.705	107.254
739.584	195.992
743.46	333.721
747.334	299.918
751.207	152.236
755.078	224.551
758.947	144.535
762.815	405.551
766.68	410.23
770.544	629.717
774.406	503.887
778.267	562.553
782.125	521.32
785.982	879.195
789.837	606.701
793.69	763.797
797.542	960.506
801.391	816.84
805.239	642.803
809.085	518.4
812.93	423.598
816.772	454.195
820.613	457.359
824.452	83.553
828.29	195.756
832.125	66.609
835.959	247.082
839.791	151.889
843.621	92.203
847.45	33.676
851.277	174.621
855.102	103.738
858.925	112.58
862.746	130.982
866.566	1.59
870.384	226.053
874.2	264.297
878.015	120.812
881.828	242.496
885.639	75.266
889.448	11.48
893.256	138.783
897.061	97.164
900.865	24.863
904.668	222.182
908.468	169.664
912.267	116.828
916.064	343.785
919.86	350.762
923.653	92.078
927.445	185.254
931.236	122.5
935.024	399.67
938.811	176.77
942.596	253.816
946.379	160.83
950.161	387.805
953.94	204.752
957.719	181.68
961.495	168.602
965.27	215.508
969.043	232.309
972.814	129.02
976.583	24.627
980.351	220.363
984.117	66.154
987.882	440.467
991.644	372.215
995.405	441.227
999.165	184.004
1002.92	501.357
1006.68	228.553
1010.43	703.01
1014.18	840.84
1017.93	648
1021.68	376.76
1025.43	852.559
1029.18	784.312
1032.92	961.834
1036.66	957.057
1040.4	733.965
1044.14	901.01
1047.88	980.572
1051.62	1009.19
1055.35	827.762
1059.08	904.828
1062.81	1006.77
1066.54	1108.2
1070.27	675.68
1073.99	703.258
1077.72	725.475
1081.44	978.25
1085.16	1180.85
1088.88	1664.32
1092.59	1298.27
1096.31	1362.11
1100.02	1316.4
1103.73	1400.45
1107.44	2005.23
1111.15	1969.45
1114.86	2323.77
1118.57	2463.04
1122.27	2294.56
1125.97	2579.73
1129.67	2274.41
1133.37	2360.68
1137.07	2644.3
1140.76	3021.51
1144.45	3344.92
1148.15	3232.8
1151.84	2900.99
1155.53	2638.43
1159.21	2944.77
1162.9	2737.62
1166.58	3131.25
1170.26	2846.55
1173.94	2810.27
1177.62	2159.24
1181.3	2096.83
1184.97	1615.07
1188.65	1724.23
1192.32	1050.99
1195.99	960.238
1199.66	1157.89
1203.33	1295.87
1206.99	1124.1
1210.65	511.988
1214.32	509.992
1217.98	715.168
1221.64	800.539
1225.29	806.656
1228.95	914.355
1232.6	707.867
1236.26	694.102
1239.91	328.836
1243.56	250.949
1247.2	344.727
1250.85	526.961
1254.49	589.539
1258.13	1201.95
1261.78	855.211
1265.41	865.953
1269.05	307.148
1272.69	406.711
1276.32	196.789
1279.95	84.113
1283.59	363.121
1287.21	609.508
1290.84	314.789
1294.47	479.477
1298.09	586.758
1301.72	70.281
1305.34	338.32
1308.96	157.957
1312.58	49
1316.19	40.863
1319.81	66.473
1323.42	543.012
1327.03	248.793
1330.64	453.77
1334.25	297.988
1337.86	61.477
1341.46	436.059
1345.07	25.297
1348.67	115.996
1352.27	316.082
1355.87	765.582
1359.46	564.832
1363.06	693.906
1366.65	262.117
1370.25	79.855
1373.84	47.887
1377.43	270.645
1381.02	69.477
1384.6	552.57
1388.18	645.52
1391.77	757.133
1395.35	1257.81
1398.93	1188.15
1402.51	1096.82
1406.08	601.523
1409.66	598.32
1413.23	423.965
1416.8	50.324
1420.37	238.199
1423.94	360.656
1427.51	578.164
1431.08	650.285
1434.64	1038.49
1438.2	884.59
1441.76	1035.18
1445.32	376.332
1448.88	268.992
1452.43	380.312
1455.99	311.059
1459.54	440.699
1463.09	595.637
1466.64	682.613
1470.19	1187.37
1473.74	1473.63
1477.28	1273.72
1480.83	1021.61
1484.37	759.711
1487.91	793.18
1491.45	288.891
1494.98	216.559
1498.52	67.652
1502.05	12.984
1505.59	377.07
1509.12	340.355
1512.65	375.066
1516.17	1090
1519.7	1125.35
