Measurement: Raman, 514 nm, ccw, Raman Data Processed
Mineral: Baryte
Rruff sample: R040036
Ideal chemistry: BaSO_4_
Locality: Cumbria County, England
Source: University of Arizona Mineral Museum
Description: Golden brown tabular crystal
Measured chemistry: Ba_1.00_S_1.00_O_4_; trace amounts of Pb
Pin_id: M00021
Orientation: Laser parallel to c* (0 0 1). Fiducial mark perpendicular to laser is parallel to -a [-1 0 0]
Raman shift (cm-1)	intensity
26.288	0
30.504	41.499
34.717	58.762
38.929	52.206
43.138	85.133
47.345	100.81
51.551	66.917
55.754	89.172
59.955	109.062
64.154	99.657
68.351	66.22
72.546	48.683
76.739	12.835
80.93	16.042
85.119	18.087
89.306	22.667
93.49	26.394
97.673	12.269
101.854	16.862
106.032	60.211
110.209	67.872
114.384	142.667
118.556	237.639
122.727	127.399
126.895	111.758
131.062	154.731
135.226	108.6
139.388	117.941
143.549	139.478
147.707	221.855
151.863	365.096
156.018	314.445
160.17	192.2
164.32	110.579
168.469	67.338
172.615	100.673
176.759	97.886
180.901	134.691
185.041	230.547
189.18	450.229
193.316	329.999
197.45	171.934
201.582	118.541
205.712	121.189
209.84	91.833
213.967	70.757
218.091	79.924
222.213	72.799
226.333	58.635
230.451	62.884
234.567	51.289
238.682	42.415
242.794	44.175
246.904	51.032
251.012	53.391
255.118	52.325
259.223	51.914
263.325	36.889
267.425	58.057
271.523	67.081
275.62	32.91
279.714	26.781
283.806	34.367
287.897	13.955
291.985	23.574
296.072	18.125
300.156	24.609
304.239	14.024
308.319	22.37
312.398	34.635
316.474	45.614
320.549	36.606
324.622	30.546
328.692	14.464
332.761	20.261
336.828	21.924
340.893	16.467
344.956	15.901
349.017	55.242
353.076	40.497
357.133	38.558
361.188	37.327
365.241	24.007
369.292	22.784
373.341	13.327
377.388	32.011
381.434	38.541
385.477	38.05
389.519	30.48
393.558	34.018
397.596	28.489
401.631	13.473
405.665	34.817
409.697	27.422
413.727	48.011
417.755	63.728
421.781	63.083
425.805	90.453
429.827	127.826
433.847	177.112
437.865	280.477
441.882	456.784
445.896	941.164
449.909	2198.41
453.919	3551.76
457.928	4574.19
461.935	10108.6
465.94	5150.01
469.943	1600.41
473.944	639.617
477.943	337.931
481.94	255.342
485.935	176.704
489.929	123.997
493.92	101.529
497.91	84.097
501.898	57.628
505.883	53.135
509.867	40.708
513.849	54.24
517.829	63.809
521.808	47.444
525.784	19.04
529.758	29.733
533.731	32.333
537.701	45.343
541.67	22.22
545.637	18.875
549.602	41.687
553.565	16.454
557.526	12.26
561.486	11.118
565.443	15.326
569.399	36.595
573.352	35.391
577.304	20.392
581.254	19.339
585.202	15.688
589.148	33.287
593.093	38.219
597.035	29.951
600.976	60.059
604.914	112.322
608.851	173.044
612.786	480.705
616.719	1462.58
620.651	1061.24
624.58	723.918
628.507	1183.56
632.433	1209.27
636.357	539.183
640.279	348.698
644.199	517.791
648.117	743.911
652.034	370.437
655.948	104.965
659.861	56.012
663.772	37.546
667.681	33.996
671.588	7.602
675.493	20.245
679.397	22.624
683.298	0.535
687.198	7.847
691.096	4.316
694.992	6.574
698.886	2.824
702.779	4.184
706.669	10.344
710.558	6.473
714.445	5.425
718.33	0.648
722.214	0.354
726.095	2.636
729.975	8.408
733.852	16.556
737.728	1.434
741.603	6.031
745.475	8.367
749.345	11.664
753.214	12.899
757.081	26.622
760.946	5.313
764.809	7.976
768.671	2.388
772.53	11.783
776.388	28.213
780.244	13.695
784.098	7.216
787.951	12.224
791.801	5.631
795.65	20.986
799.497	17.356
803.342	31.672
807.186	6.963
811.027	8.197
814.867	3.435
818.705	10.331
822.541	5.246
826.375	9.25
830.208	2.156
834.039	3.814
837.868	20.937
841.695	18.013
845.521	17.549
849.344	1.043
853.166	3.322
856.986	32.463
860.804	1.137
864.621	10.711
868.436	5.227
872.248	1.146
876.06	8.122
879.869	20.21
883.677	22.506
887.482	24.483
891.287	37.607
895.089	32.933
898.889	41.723
902.688	38.513
906.485	12.209
910.28	24.721
914.074	49.842
917.865	50.071
921.655	46.52
925.443	42.997
929.23	23.824
933.014	30.127
936.797	61.95
940.578	84.744
944.358	80.609
948.135	74.306
951.911	79.948
955.685	80.846
959.458	131.199
963.228	202.14
966.997	337.913
970.764	438.801
974.529	640.028
978.293	1082.7
982.055	3057.73
985.815	24724.8
989.573	42901.8
993.33	7442.91
997.085	1805.03
1000.84	851.183
1004.59	549.36
1008.34	377.517
1012.09	292.518
1015.83	249.748
1019.58	198.033
1023.32	177.345
1027.06	160.682
1030.8	165.048
1034.54	86.441
1038.27	93.861
1042.01	94.314
1045.74	74.805
1049.47	50.334
1053.2	51.902
1056.93	23.503
1060.65	57.138
1064.38	19.902
1068.1	47.599
1071.82	44.33
1075.54	56.093
1079.25	68.889
1082.97	115.724
1086.68	99.595
1090.39	82.496
1094.11	41.443
1097.81	125.434
1101.52	243.457
1105.22	303.515
1108.93	91.611
1112.63	77.754
1116.33	87.926
1120.03	105.125
1123.72	174.349
1127.42	261.6
1131.11	447.876
1134.8	1006.18
1138.49	2291.5
1142.18	3423.85
1145.87	3169.23
1149.55	1625.64
1153.23	762.153
1156.91	410.608
1160.59	365.082
1164.27	524.739
1167.95	548.282
1171.62	303.986
1175.3	151.244
1178.97	116.325
1182.64	33.916
1186.3	38.521
1189.97	9.881
1193.63	14.777
1197.3	21.473
1200.96	15.29
1204.62	40.066
1208.27	48.076
1211.93	18.247
1215.58	20.528
1219.24	43.416
1222.89	55.338
1226.54	28.5
1230.18	51.586
1233.83	36.859
1237.47	46.959
1241.12	74.401
1244.76	43.326
1248.4	28.072
1252.04	28.834
1255.67	41.589
1259.31	40.432
1262.94	25.1
1266.57	32.86
1270.2	44.766
1273.83	12.691
1277.45	9.451
1281.08	17.244
1284.7	0.15
1288.32	21.986
1291.94	7.294
1295.56	20.418
1299.17	0.779
1302.79	25.039
1306.4	3.639
1310.01	15.197
1313.62	28.723
1317.23	4.235
1320.84	39.733
1324.44	30.211
1328.04	12.563
1331.64	2.016
1335.24	1.372
1338.84	34.725
1342.44	4.961
1346.03	4.68
1349.63	21.572
1353.22	23.201
1356.81	12.017
1360.4	2.135
1363.98	14.266
1367.57	16.377
1371.15	41.475
1374.73	23.724
1378.32	6.062
1381.89	18.722
1385.47	16.371
1389.05	32.004
1392.62	18.617
1396.19	27.101
1399.76	0.529
1403.33	38.766
1406.9	32.685
1410.46	0.126
1414.03	13.552
1417.59	31.659
1421.15	36.373
1424.71	46.007
1428.27	0.389
1431.82	40.628
1435.38	40.965
1438.93	77.12
1442.48	120.83
1446.03	96.441
1449.58	122.007
1453.13	138.632
1456.67	140.741
1460.21	106.062
1463.76	95.971
1467.3	69.873
1470.83	70.891
1474.37	32.974
1477.91	49.923
1481.44	72.878
1484.97	45.979
1488.5	69.329
1492.03	40.868
1495.56	43.825
1499.08	3.49
1502.61	0
