Measurement: Raman, 514 nm, ccw, Raman Data Processed
Mineral: Baryte
Rruff sample: R040036
Ideal chemistry: BaSO_4_
Locality: Cumbria County, England
Source: University of Arizona Mineral Museum
Description: Golden brown tabular crystal
Measured chemistry: Ba_1.00_S_1.00_O_4_; trace amounts of Pb
Pin_id: M00028
Orientation: Laser parallel to -a* (-1 0 0). Fiducial mark perpendicular to laser is parallel to -b [0 -1 0]
Raman shift (cm-1)	intensity
26.288	0
30.504	22.778
34.717	27.996
38.929	26.289
43.138	25.718
47.345	27.914
51.551	21.826
55.754	23.415
59.955	44.314
64.154	55.304
68.351	37.648
72.546	31.067
76.739	13.544
80.93	11.046
85.119	1.469
89.306	24.002
93.49	13.55
97.673	32.892
101.854	91.337
106.032	94.961
110.209	139.749
114.384	206.609
118.556	390.473
122.727	525.302
126.895	227.083
131.062	255.762
135.226	207.261
139.388	187.645
143.549	178.034
147.707	222.43
151.863	271.832
156.018	250.238
160.17	170.65
164.32	170.068
168.469	150.491
172.615	137.922
176.759	113.278
180.901	151.198
185.041	165.763
189.18	209.954
193.316	208.812
197.45	136.255
201.582	103.431
205.712	107.251
209.84	110.733
213.967	119.176
218.091	73.731
222.213	92.872
226.333	93.912
230.451	83.22
234.567	75.121
238.682	84.145
242.794	71.864
246.904	66.529
251.012	64.038
255.118	87.55
259.223	80.12
263.325	68.632
267.425	73.149
271.523	61.66
275.62	62.172
279.714	62.685
283.806	56.202
287.897	56.725
291.985	44.256
296.072	30.793
300.156	45.338
304.239	55.89
308.319	23.45
312.398	29.018
316.474	52.593
320.549	48.176
324.622	20.763
328.692	28.325
332.761	42.864
336.828	27.385
340.893	31.893
344.956	20.393
349.017	37.184
353.076	37.388
357.133	15.893
361.188	13.594
365.241	6.919
369.292	17.443
373.341	5.979
377.388	1.464
381.434	23.12
385.477	34.741
389.519	21.409
393.558	9.107
397.596	22.821
401.631	32.546
405.665	9.283
409.697	6.029
413.727	35.784
417.755	36.552
421.781	57.334
425.805	69.128
429.827	138.933
433.847	211.755
437.865	388.601
441.882	778.465
445.896	1903.35
449.909	4873.24
453.919	9448.15
457.928	5321.07
461.935	1848.01
465.94	769.945
469.943	383.876
473.944	190.832
477.943	126.802
481.94	110.781
485.935	80.767
489.929	76.745
493.92	55.741
497.91	39.74
501.898	52.712
505.883	43.326
509.867	36.213
513.849	29.168
517.829	62.16
521.808	46.043
525.784	51.075
529.758	22.112
533.731	54.984
537.701	68.165
541.67	23.728
545.637	25.144
549.602	7.132
553.565	29.31
557.526	31.38
561.486	41.882
565.443	14.406
569.399	21.668
573.352	16.648
577.304	22.85
581.254	19.307
585.202	32.951
589.148	60.349
593.093	58.045
597.035	60.359
600.976	45.641
604.914	91.631
608.851	210.684
612.786	504.883
616.719	1508.33
620.651	1302.45
624.58	620.679
628.507	463.531
632.433	416.33
636.357	234.118
640.279	171.88
644.199	172.147
648.117	194.142
652.034	167.888
655.948	102.048
659.861	45.72
663.772	37.373
667.681	47.006
671.588	21.654
675.493	0.246
679.397	14.041
683.298	8.955
687.198	33.456
691.096	38.928
694.992	5.374
698.886	15.206
702.779	14.822
706.669	17.524
710.558	2.842
714.445	21.87
718.33	39.631
722.214	2.548
726.095	18.687
729.975	7.784
733.852	6.843
737.728	9.138
741.603	1.846
745.475	37.805
749.345	22.74
753.214	25.645
757.081	7.484
760.946	13.647
764.809	7.159
768.671	30.944
772.53	25.71
776.388	12.458
780.244	14.813
784.098	14.886
787.951	29.562
791.801	35.215
795.65	14.843
799.497	13.451
803.342	12.043
807.186	38.607
811.027	23.171
814.867	24.618
818.705	20.326
822.541	5.069
826.375	18.216
830.208	38.695
834.039	52.978
837.868	52.979
841.695	24.97
845.521	24.376
849.344	70.513
853.166	74.233
856.986	73.24
860.804	90.178
864.621	84.005
868.436	59.985
872.248	50.676
876.06	70.457
879.869	74.797
883.677	39.222
887.482	27.522
891.287	50.671
895.089	86.309
898.889	121.382
902.688	101.864
906.485	77.336
910.28	48.845
914.074	80.357
917.865	78.495
921.655	73.92
925.443	77.218
929.23	45.768
933.014	35.901
936.797	39.521
940.578	83.158
944.358	76.815
948.135	73.453
951.911	72.146
955.685	80.246
959.458	106.988
963.228	165.753
966.997	312.541
970.764	409.353
974.529	540.189
978.293	919.053
982.055	2321.94
985.815	13648.9
989.573	46146.8
993.33	9021.79
997.085	1998.81
1000.84	915.862
1004.59	615.948
1008.34	375.067
1012.09	267.218
1015.83	261.398
1019.58	224.751
1023.32	206.28
1027.06	152.788
1030.8	99.082
1034.54	90.405
1038.27	97.757
1042.01	83.133
1045.74	63.577
1049.47	66.069
1053.2	57.99
1056.93	239.602
1060.65	84.254
1064.38	72.068
1068.1	54.973
1071.82	109.599
1075.54	106.435
1079.25	167.242
1082.97	385.898
1086.68	343.578
1090.39	236.287
1094.11	206.292
1097.81	317.064
1101.52	870.937
1105.22	1558.76
1108.93	845.603
1112.63	318.47
1116.33	160.357
1120.03	134.26
1123.72	125.182
1127.42	52.12
1131.11	17.076
1134.8	5.047
1138.49	49.034
1142.18	21.038
1145.87	42.057
1149.55	19.099
1153.23	15.152
1156.91	15.791
1160.59	5.27
1164.27	16.343
1167.95	10.429
1171.62	21.525
1175.3	33.631
1178.97	29.745
1182.64	6.135
1186.3	3.983
1189.97	9.9
1193.63	14.781
1197.3	1.336
1200.96	7.454
1204.62	44.615
1208.27	2.932
1211.93	49.043
1215.58	40.246
1219.24	27.573
1222.89	13.116
1226.54	17.919
1230.18	15.284
1233.83	45.829
1237.47	80.514
1241.12	64.839
1244.76	59.977
1248.4	45.076
1252.04	15.173
1255.67	17.271
1259.31	40.432
1262.94	69.079
1266.57	77.553
1270.2	68.919
1273.83	92.025
1277.45	75.809
1281.08	41.901
1284.7	37.875
1288.32	35.494
1291.94	68.691
1295.56	85.796
1299.17	79.89
1302.79	70.936
1306.4	64.961
1310.01	61.913
1313.62	67.752
1317.23	33.335
1320.84	60.024
1324.44	61.727
1328.04	65.634
1331.64	39.197
1335.24	40.042
1338.84	24.679
1342.44	0.65
1346.03	5.819
1349.63	5.006
1353.22	36.473
1356.81	8.293
1360.4	0.042
1363.98	20.701
1367.57	42.424
1371.15	14.207
1374.73	41.001
1378.32	43.681
1381.89	27.685
1385.47	1.678
1389.05	8.658
1392.62	35.613
1396.19	8.546
1399.76	26.478
1403.33	33.393
1406.9	23.294
1410.46	37.191
1414.03	17.101
1417.59	3.019
1421.15	15.576
1424.71	8.368
1428.27	33.625
1431.82	46.93
1435.38	87.945
1438.93	143.682
1442.48	162.388
1446.03	210.926
1449.58	220.523
1453.13	217.636
1456.67	201.252
1460.21	204.244
1463.76	154.943
1467.3	138.767
1470.83	105.845
1474.37	63.976
1477.91	100.972
1481.44	98.006
1484.97	93.21
1488.5	64.546
1492.03	36.002
1495.56	3.721
1499.08	0.177
1502.61	0.662
