Measurement: Raman, 514 nm, ccw, Raman Data Processed
Mineral: Baryte
Rruff sample: R050342
Ideal chemistry: BaSO_4_
Locality: Palos Verdes, Los Angeles County, California, USA
Source: California Institute of Technology
Description: Light brown fragment
Measured chemistry: Ba_1.00_S_1.00_O_4_
Pin_id: L01107
Orientation: Laser parallel to -a* (-1 0 0). Fiducial mark perpendicular to laser is parallel to b [0 1 0]
Raman shift (cm-1)	intensity
140.271	0
145.184	100.71
150.094	93.7993
155.002	92.2593
159.908	10.4419
164.811	2.36279
169.711	127.585
174.61	101.453
179.505	97.0991
184.399	177.68
189.29	206.439
194.178	125.031
199.064	106.433
203.948	152.39
208.829	160.74
213.708	8.43213
218.585	190.356
223.459	74.1484
228.33	31.9946
233.199	99.4824
238.066	88.5054
242.93	14.6274
247.792	3.14893
252.651	176.144
257.508	82.0947
262.363	75.7007
267.215	204.13
272.064	105.905
276.912	116.428
281.756	114.221
286.598	129.189
291.438	121.5
296.276	75.4775
301.111	125.826
305.943	221.435
310.773	182.211
315.601	156.009
320.426	138.083
325.248	109.249
330.068	223.472
334.886	126.675
339.701	52.9785
344.514	167.365
349.324	50.8272
354.132	85.3574
358.938	11.0459
363.741	119.603
368.541	48.1611
373.339	160.304
378.135	69.9941
382.928	3.79102
387.718	1.96973
392.506	100.7
397.292	60.4717
402.075	96.2598
406.856	95.0371
411.634	152.801
416.41	105.951
421.183	171.717
425.954	169.489
430.722	390.303
435.488	745.193
440.251	1818.15
445.012	4727.97
449.77	8071.05
454.526	8817.2
459.28	3156.41
464.03	1062.32
468.779	529.629
473.525	350.008
478.268	291.589
483.009	56.2139
487.747	139.958
492.483	54.7695
497.217	53.3652
501.948	142.428
506.676	151.321
511.402	109.132
516.125	228.099
520.846	94.1436
525.565	249.809
530.281	171.769
534.994	73.0254
539.705	162.211
544.413	64.6582
549.119	92.9111
553.822	155.148
558.523	34.2315
563.222	70.9697
567.917	110.213
572.611	20.1641
577.302	169
581.99	17.6641
586.676	106.78
591.359	81.168
596.04	33.5713
600.718	149.04
605.394	331.99
610.067	839.606
614.737	1561.94
619.406	1542.65
624.071	809.357
628.734	539.868
633.395	348.339
638.053	428.656
642.708	441.433
647.361	364.338
652.012	133.493
656.66	189.859
661.305	156.091
665.948	65.8154
670.588	175.458
675.226	128.092
679.861	46.4072
684.494	98.9805
689.124	66.4853
693.752	72.8848
698.377	85.4922
702.999	172.812
707.619	28.9961
712.237	64.8135
716.852	152.894
721.464	92.8223
726.074	208.376
730.681	172.235
735.286	95.1816
739.888	145.749
744.488	243.656
749.085	186.096
753.68	148.441
758.272	154.803
762.861	75.4746
767.448	255.463
772.033	177.95
776.614	35.3193
781.194	147.675
785.77	24.9189
790.345	302.273
794.916	61.0625
799.485	43.8584
804.052	129.731
808.616	226.136
813.177	105.333
817.736	89.9785
822.292	115.751
826.846	240.464
831.397	14.0479
835.945	292.453
840.491	235.295
845.035	17.4707
849.576	195.565
854.114	199.389
858.65	136.211
863.183	0.205078
867.713	254.303
872.241	84.7012
876.767	109.904
881.29	55.46
885.81	89.8457
890.328	23.8877
894.843	140.148
899.356	37.2012
903.866	169.29
908.373	200.406
912.878	64.0977
917.38	88.0059
921.88	173.029
926.377	225.491
930.872	167.461
935.364	8.21777
939.853	41.1924
944.34	208.349
948.824	138.423
953.306	145.576
957.785	300.626
962.261	282.502
966.735	397.85
971.207	482.673
975.675	1163.49
980.141	5016.86
984.605	25147.4
989.066	40942.2
993.524	6527.38
997.98	1396.35
1002.43	729.037
1006.88	325.385
1011.33	341.004
1015.78	325.014
1020.22	270.342
1024.66	176.131
1029.1	10.5352
1033.53	46.8398
1037.97	118.057
1042.4	208.438
1046.82	88.7793
1051.25	174.147
1055.67	163.475
1060.09	187.402
1064.51	152.215
1068.92	4.19336
1073.33	189.336
1077.74	284.734
1082.15	433.129
1086.55	316.461
1090.95	250.906
1095.35	386.375
1099.75	1256.67
1104.14	1859.18
1108.53	943.613
1112.92	334.141
1117.31	301.711
1121.69	363.291
1126.07	216.875
1130.45	207.471
1134.82	111.225
1139.19	366.842
1143.57	176.519
1147.93	8.47656
1152.3	83.3066
1156.66	195.74
1161.02	133.617
1165.38	177.228
1169.73	229.09
1174.08	114.773
1178.43	29.0293
1182.78	51.9023
1187.12	197.924
1191.46	120.066
1195.8	24.957
1200.14	43.7461
1204.47	120.531
1208.8	73.3867
1213.13	61.7461
1217.46	189.992
1221.78	135.805
1226.1	109.856
1230.42	339.596
1234.73	108.422
1239.04	78.0996
1243.35	268.682
1247.66	22.7012
1251.97	201.764
1256.27	155.996
1260.57	29.6055
1264.86	251.014
1269.16	248.416
1273.45	38.9375
1277.74	281.982
1282.03	152.81
1286.31	59.9883
1290.59	43.6953
1294.87	208.832
1299.14	51.3555
1303.42	79.4863
1307.69	266.359
1311.95	335.978
1316.22	312.647
1320.48	196.19
1324.74	57.1367
1329	132.652
1333.26	134.531
1337.51	170.492
1341.76	162.09
1346	135.272
1350.25	6.08398
1354.49	187.502
1358.73	34.1484
1362.96	90.3789
1367.2	92.6094
1371.43	58.707
1375.66	134.305
1379.88	199.828
1384.11	161.805
1388.33	71.7168
1392.54	131.449
1396.76	139.535
1400.97	142.115
1405.18	215.188
1409.39	279.625
1413.59	143.014
1417.8	18.4121
1421.99	81.6934
1426.19	216.4
1430.38	80.9277
1434.58	18.9395
1438.77	77.5332
1442.95	26.1152
1447.13	54.4316
1451.32	18.873
1455.49	92.2285
1459.67	159.59
1463.84	53.3848
1468.01	206.551
1472.18	79.1836
1476.35	147.494
1480.51	130.619
1484.67	17.9434
1488.83	123.772
1492.98	211.074
1497.13	91.0527
1501.28	356.537
1505.43	104.307
1509.57	165.303
1513.71	420.949
1517.85	231.988
1521.99	268.293
1526.12	39.9824
1530.25	208.34
1534.38	303.438
1538.5	9.82227
1542.62	135.566
1546.74	77.5644
1550.86	279.416
1554.98	110.305
1559.09	26.2871
1563.2	176.535
1567.31	24.4355
