Measurement: Raman, 514 nm, ccw, Raman Data Processed
Mineral: Baryte
Rruff sample: R050375
Ideal chemistry: BaSO_4_
Locality: unknown
Source: Eugene Schlepp
Description: Pale green tabular crystals
Measured chemistry: Ba_1.00_SO_4_
Pin_id: L01220
Orientation: Laser parallel to -c* (0 0 -1). Fiducial mark perpendicular to laser is parallel to -a [-1 0 0]
Raman shift (cm-1)	intensity
51.431	0
56.387	69.1447
61.341	11.2722
66.292	29.5657
71.241	182.622
76.187	550.977
81.131	657.121
86.072	945.602
91.012	1251.41
95.948	1583.49
100.883	1795.2
105.815	1523.24
110.744	1444.52
115.671	1388.83
120.596	1300.92
125.519	1312.56
130.439	1239.36
135.356	1247.28
140.271	1153.53
145.184	1231.64
150.094	1299.61
155.002	1380.91
159.908	1214.79
164.811	1001.83
169.711	1032.81
174.61	953.32
179.505	1030.37
184.399	977.945
189.29	1154.03
194.178	1001.61
199.064	796.786
203.948	731.777
208.829	699.657
213.708	662.313
218.585	601.359
223.459	609.915
228.33	542.894
233.199	564.106
238.066	477.864
242.93	410.67
247.792	488.107
252.651	386.966
257.508	405.379
262.363	376.287
267.215	366.976
272.064	312.331
276.912	328.777
281.756	306.947
286.598	255.421
291.438	232.257
296.276	213.442
301.111	272.96
305.943	184.786
310.773	159.901
315.601	129.289
320.426	147.943
325.248	95.8574
330.068	126.026
334.886	55.4438
339.701	41.106
344.514	66.0169
349.324	72.2917
354.132	13.0222
358.938	5.94971
363.741	19.5469
368.541	55.1375
373.339	12.0911
378.135	2.36816
382.928	2.78784
387.718	5.46704
392.506	3.5188
397.292	88.3457
402.075	61.4258
406.856	3.43213
411.634	26.5818
416.41	21.4565
421.183	62.4956
425.954	19.6421
430.722	38.2817
435.488	162.948
440.251	385.876
445.012	871.064
449.77	2024.51
454.526	5200.22
459.28	6982.19
464.03	14809.4
468.779	3614.91
473.525	1018.66
478.268	443.685
483.009	312.976
487.747	232.536
492.483	191.368
497.217	114.989
501.948	57.1206
506.676	163.269
511.402	87.7532
516.125	88.8584
520.846	82.261
525.565	53.8877
530.281	60.0073
534.994	81.1311
539.705	76.6711
544.413	62.4998
549.119	129.369
553.822	69.5847
558.523	54.9963
563.222	150.33
567.917	19.3386
572.611	72.3801
577.302	124.463
581.99	60.8955
586.676	55.646
591.359	158.702
596.04	122.061
600.718	210.726
605.394	107.796
610.067	348.245
614.737	1007.05
619.406	1882.23
624.071	907.753
628.734	1204.64
633.395	1289.85
638.053	449.404
642.708	222.325
647.361	267.529
652.012	184.024
656.66	245.958
661.305	89.2129
665.948	202.783
670.588	179.669
675.226	173.837
679.861	65.3125
684.494	135.377
689.124	115.079
693.752	3.73633
698.377	96.7104
702.999	110.577
707.619	79.958
712.237	88.8901
716.852	110.043
721.464	96.5986
726.074	97.0093
730.681	59.4062
735.286	141.925
739.888	62.7134
744.488	120.535
749.085	151.813
753.68	163.216
758.272	97.9473
762.861	74.6753
767.448	127.386
772.033	36.3433
776.614	76.5552
781.194	97.3716
785.77	146.507
790.345	112.321
794.916	98.2847
799.485	77.9893
804.052	155.963
808.616	87.4273
813.177	115.132
817.736	45.6367
822.292	80.4619
826.846	123.827
831.397	40.4805
835.945	42.9487
840.491	45.2183
845.035	129.249
849.576	10.9604
854.114	11.4898
858.65	57.689
863.183	66.6377
867.713	86.2954
872.241	72.8276
876.767	3.01807
881.29	112.723
885.81	10.9761
890.328	2.91992
894.843	22.5898
899.356	21.5078
903.866	90.1411
908.373	32.4224
912.878	4.71484
917.38	37.6728
921.88	91.1284
926.377	41.6567
930.872	69.915
935.364	54.561
939.853	151.989
944.34	52.8296
948.824	14.4404
953.306	27.8408
957.785	79.8472
962.261	116.322
966.735	269.619
971.207	355.65
975.675	605.027
980.141	1614.52
984.605	7908.26
989.066	57457.9
993.524	8699.36
997.98	1396.97
1002.43	623.189
1006.88	384.176
1011.33	319.718
1015.78	178.235
1020.22	52.0352
1024.66	141.47
1029.1	125.001
1033.53	79.0776
1037.97	115.152
1042.4	37.9736
1046.82	41.1753
1051.25	66.7969
1055.67	20.2227
1060.09	28.8525
1064.51	2.96289
1068.92	8.72461
1073.33	84.5024
1077.74	7.02783
1082.15	28.5386
1086.55	2.56299
1090.95	0.758301
1095.35	22.5898
1099.75	195.446
1104.14	337.326
1108.53	220.143
1112.92	94.2481
1117.31	67.3301
1121.69	204.526
1126.07	179.825
1130.45	219.208
1134.82	644.687
1139.19	1377.28
1143.57	2791.02
1147.93	2202.01
1152.3	880.203
1156.66	381.604
1161.02	235.25
1165.38	185.121
1169.73	64.2398
1174.08	213.183
1178.43	187.782
1182.78	171.119
1187.12	85.8584
1191.46	59.4263
1195.8	10.8648
1200.14	198.099
1204.47	106.251
1208.8	100.363
1213.13	98.4248
1217.46	101.919
1221.78	147.117
1226.1	236.471
1230.42	80.2847
1234.73	213.215
1239.04	142.382
1243.35	166.789
1247.66	146.435
1251.97	86.436
1256.27	208.565
1260.57	94.9517
1264.86	244.705
1269.16	184.642
1273.45	216.852
1277.74	209.055
1282.03	204.743
1286.31	303.761
1290.59	182.95
1294.87	188.822
1299.14	156.498
1303.42	152.24
1307.69	168.418
1311.95	232.611
1316.22	148.238
1320.48	126.104
1324.74	132.19
1329	111.513
1333.26	63.0552
1337.51	115.814
1341.76	29.8086
1346	64.6753
1350.25	116.785
1354.49	141.417
1358.73	160.617
1362.96	31.6489
1367.2	51.8594
1371.43	34.2109
1375.66	55.6992
1379.88	124.312
1384.11	135.851
1388.33	109.82
1392.54	63.2988
1396.76	64.103
1400.97	5.53271
1405.18	65.5938
1409.39	2.68701
1413.59	9.15869
1417.8	9.17578
1421.99	38.688
1426.19	11.9585
1430.38	1.98535
1434.58	11.8242
1438.77	68.4985
1442.95	86.7144
1447.13	78.6787
1451.32	115.162
1455.49	150.904
1459.67	101.39
1463.84	132.658
1468.01	87.9434
1472.18	73.5557
1476.35	112.25
1480.51	1.70801
1484.67	157.83
1488.83	121.831
1492.98	106.812
1497.13	67.6289
1501.28	103.089
1505.43	43.9512
1509.57	73.2476
1513.71	57.7949
1517.85	60.5117
1521.99	62.9692
1526.12	3.53955
1530.25	197.124
1534.38	46.0112
1538.5	96.7144
1542.62	106.564
1546.74	7.92041
1550.86	219.612
1554.98	197.693
1559.09	164.678
1563.2	0.652344
1567.31	0.493164
