Measurement: Raman, 514 nm, ccw, Raman Data Processed
Mineral: Baryte
Rruff sample: R040036
Ideal chemistry: BaSO_4_
Locality: Cumbria County, England
Source: University of Arizona Mineral Museum
Description: Golden brown tabular crystal
Measured chemistry: Ba_1.00_S_1.00_O_4_; trace amounts of Pb
Pin_id: M00028
Orientation: Laser parallel to -a* (-1 0 0). Fiducial mark perpendicular to laser is parallel to -b [0 -1 0]
Raman shift (cm-1)	intensity
26.288	0
30.504	35.884
34.717	41.268
38.929	45.958
43.138	56.719
47.345	50.754
51.551	66.106
55.754	49.021
59.955	65.845
64.154	38.378
68.351	15.793
72.546	2.338
76.739	8.985
80.93	5.679
85.119	3.626
89.306	26.931
93.49	20.225
97.673	20.497
101.854	42.254
106.032	161.269
110.209	291.52
114.384	484.89
118.556	385.277
122.727	587.605
126.895	762.822
131.062	785.92
135.226	556.811
139.388	505.617
143.549	491.451
147.707	766.32
151.863	774.224
156.018	566.161
160.17	380.134
164.32	351.142
168.469	367.188
172.615	321.271
176.759	290.52
180.901	336.779
185.041	300.608
189.18	330.993
193.316	323.922
197.45	316.401
201.582	238.448
205.712	206.986
209.84	252.074
213.967	242.795
218.091	176.003
222.213	158.907
226.333	226.128
230.451	176.966
234.567	157.223
238.682	171.797
242.794	206.674
246.904	155.212
251.012	115.444
255.118	160.911
259.223	203.336
263.325	138.782
267.425	120.248
271.523	173.735
275.62	157.246
279.714	104.783
283.806	93.349
287.897	124.946
291.985	108.575
296.072	65.237
300.156	93.93
304.239	140.656
308.319	111.414
312.398	46.204
316.474	76.027
320.549	106.883
324.622	68.765
328.692	40.64
332.761	83.509
336.828	112.378
340.893	89.255
344.956	29.145
349.017	66.055
353.076	105.994
357.133	35.967
361.188	5.019
365.241	37.208
369.292	99.323
373.341	43.501
377.388	11.72
381.434	65.002
385.477	89.369
389.519	52.813
393.558	5.319
397.596	62.873
401.631	110.467
405.665	56.098
409.697	10.768
413.727	44.483
417.755	79.249
421.781	118.058
425.805	39.903
429.827	73.792
433.847	216.728
437.865	366.704
441.882	652.724
445.896	1477.79
449.909	4023.88
453.919	7563.02
457.928	4197.21
461.935	2177.43
465.94	1143.69
469.943	485.992
473.944	227.333
477.943	76.709
481.94	101.12
485.935	139.563
489.929	120.037
493.92	18.545
497.91	5.093
501.898	80.675
505.883	123.258
509.867	57.903
513.849	1.434
517.829	76.075
521.808	111.804
525.784	106.735
529.758	11.488
533.731	39.721
537.701	93.538
541.67	85.09
545.637	32.988
549.602	18.882
553.565	92.562
557.526	112.483
561.486	78.94
565.443	30.914
569.399	14.961
573.352	131.213
577.304	135.184
581.254	58.694
585.202	7.591
589.148	131.572
593.093	208.31
597.035	194.488
600.976	179.593
604.914	285.895
608.851	717.552
612.786	1867.13
616.719	4457.36
620.651	4016.49
624.58	2055.73
628.507	1208.67
632.433	811.544
636.357	419.411
640.279	200.622
644.199	200.964
648.117	271.511
652.034	229.199
655.948	113.527
659.861	4.559
663.772	56.359
667.681	114.434
671.588	95.198
675.493	37.922
679.397	26.39
683.298	18.263
687.198	106.285
691.096	83.895
694.992	38.455
698.886	59.591
702.779	17.865
706.669	93.603
710.558	94.001
714.445	28.345
718.33	16.352
722.214	20.094
726.095	75.114
729.975	100.287
733.852	26.425
737.728	41.486
741.603	11.538
745.475	71.529
749.345	72.478
753.214	52.658
757.081	0.489
760.946	5.672
764.809	44.106
768.671	133.856
772.53	84.575
776.388	6.751
780.244	13.122
784.098	55.467
787.951	95.021
791.801	106.539
795.65	42.021
799.497	24.468
803.342	5.112
807.186	105.097
811.027	141.46
814.867	113.362
818.705	21.953
822.541	55.779
826.375	11.339
830.208	75.527
834.039	85.923
837.868	62.546
841.695	11.332
845.521	8.741
849.344	84.736
853.166	162.521
856.986	176.045
860.804	100.47
864.621	21.212
868.436	16.244
872.248	57.512
876.06	125.207
879.869	105.207
883.677	15.904
887.482	15.769
891.287	55.629
895.089	166.204
898.889	196.929
902.688	154.95
906.485	65.973
910.28	34.919
914.074	84.825
917.865	149.422
921.655	156.493
925.443	121.9
929.23	50.005
933.014	39.62
936.797	81.541
940.578	169.443
944.358	185.564
948.135	162.738
951.911	95.947
955.685	50.183
959.458	128.041
963.228	249.312
966.997	508.599
970.764	558.928
974.529	684.858
978.293	1012.94
982.055	2618.36
985.815	16336.8
989.573	51883.3
993.33	9749.78
997.085	2235.33
1000.84	1009.92
1004.59	653.665
1008.34	375.314
1012.09	401.007
1015.83	389.735
1019.58	345.492
1023.32	308.972
1027.06	179.801
1030.8	131.062
1034.54	152.006
1038.27	206.923
1042.01	208.868
1045.74	189.845
1049.47	82.604
1053.2	69.523
1056.93	223.61
1060.65	166.25
1064.38	188.234
1068.1	264.425
1071.82	229.143
1075.54	306.364
1079.25	500.611
1082.97	1219.29
1086.68	1104.58
1090.39	561.907
1094.11	437.268
1097.81	447.054
1101.52	774.666
1105.22	1286.12
1108.93	645.603
1112.63	306.107
1116.33	263.636
1120.03	210.193
1123.72	207.771
1127.42	74.362
1131.11	16.421
1134.8	9.673
1138.49	81.949
1142.18	223.609
1145.87	301.258
1149.55	216.916
1153.23	75.583
1156.91	30.266
1160.59	20.072
1164.27	4.415
1167.95	64.247
1171.62	136.936
1175.3	143.14
1178.97	109.956
1182.64	70.614
1186.3	0.248
1189.97	22.913
1193.63	36.308
1197.3	38.269
1200.96	120.163
1204.62	167.724
1208.27	147.269
1211.93	128.154
1215.58	53.675
1219.24	27.184
1222.89	7.789
1226.54	29.965
1230.18	147.571
1233.83	217.141
1237.47	199.354
1241.12	214.852
1244.76	89.321
1248.4	40.689
1252.04	16.795
1255.67	38.17
1259.31	57.515
1262.94	87.829
1266.57	204.013
1270.2	185.766
1273.83	163.04
1277.45	131.294
1281.08	49.539
1284.7	12.038
1288.32	24.267
1291.94	119.351
1295.56	181.491
1299.17	177.74
1302.79	157.927
1306.4	135.008
1310.01	120.028
1313.62	31.269
1317.23	1.679
1320.84	55.7
1324.44	137.735
1328.04	164.583
1331.64	175.375
1335.24	198.628
1338.84	114.363
1342.44	112.06
1346.03	48.323
1349.63	2.967
1353.22	22.416
1356.81	3.17
1360.4	59.352
1363.98	102.712
1367.57	140.37
1371.15	204.03
1374.73	130.493
1378.32	131.298
1381.89	50.282
1385.47	30.354
1389.05	23.2
1392.62	30.031
1396.19	44.806
1399.76	111.596
1403.33	192.328
1406.9	201.161
1410.46	181.863
1414.03	140.275
1417.59	105.535
1421.15	9.26
1424.71	2.432
1428.27	4.976
1431.82	70.244
1435.38	166.385
1438.93	265.618
1442.48	319.549
1446.03	380.781
1449.58	371.969
1453.13	345.882
1456.67	294.805
1460.21	214.83
1463.76	143.426
1467.3	104.27
1470.83	50.724
1474.37	102.423
1477.91	221.133
1481.44	218.927
1484.97	294.029
1488.5	301.556
1492.03	243.546
1495.56	137.35
1499.08	76.967
1502.61	0
