Measurement: Raman, 514 nm, ccw, Raman Data Processed
Mineral: Baryte
Rruff sample: R050335
Ideal chemistry: BaSO_4_
Locality: Bullion Mountains, San Bernardino County, California, USA
Source: California Institute of Technology
Description: Colorless cleavage fragment
Measured chemistry: (Ba_0.95_Sr_0.05_)_Î£=1_S_1.00_O_4_
Pin_id: L01894
Orientation: Laser parallel to -a* (-1 0 0). Fiducial mark perpendicular to laser is parallel to b [0 1 0]
Raman shift (cm-1)	intensity
93.48	0
98.416	309.821
103.349	252.925
108.28	964.712
113.208	686.646
118.134	21.6622
123.058	4.73535
127.979	51.5059
132.898	87.2495
137.814	50.3572
142.728	54.1215
147.639	112.048
152.549	199.131
157.455	157.901
162.359	90.2366
167.261	95.6335
172.161	57.4601
177.058	82.5388
181.952	118.714
186.845	173.8
191.734	216.343
196.622	143.676
201.507	138.352
206.389	61.804
211.269	5.77588
216.147	11.9318
221.022	36.2721
225.895	45.5831
230.765	23.1787
235.633	14.8124
240.498	36.0897
245.361	12.3431
250.222	15.691
255.08	15.3871
259.936	44.4115
264.789	31.5486
269.64	37.6205
274.488	17.0277
279.334	22.4747
284.178	70.7869
289.019	17.9912
293.857	98.1124
298.693	82.1462
303.527	11.9416
308.358	39.5563
313.187	42.9908
318.013	25.3568
322.837	29.6706
327.659	59.9633
332.478	84.2128
337.294	11.3364
342.108	23.4301
346.92	52.5156
351.729	42.5961
356.535	24.1285
361.34	1.21875
366.141	20.8429
370.94	50.5176
375.737	71.527
380.531	29.6268
385.323	51.5581
390.113	14.3042
394.9	32.6555
399.684	115.04
404.466	47.9373
409.245	88.1215
414.022	20.8162
418.797	31.3596
423.569	110.197
428.338	204.177
433.105	349.703
437.87	657.645
442.632	1748.59
447.391	4983.41
452.149	11729.9
456.903	6622.89
461.655	1835.86
466.405	702.812
471.152	304.774
475.897	229.567
480.639	87.6047
485.378	7.72046
490.116	49.8616
494.85	63.0625
499.582	88.2937
504.312	91.4351
509.039	44.5207
513.764	68.9143
518.486	25.3621
523.206	77.1797
527.923	0.204346
532.638	29.4414
537.35	39.4019
542.059	21.1289
546.766	34.9448
551.471	4.19727
556.173	6.53467
560.873	16.342
565.57	73.2551
570.264	57.2446
574.957	19.0151
579.646	38.0476
584.333	30.1023
589.018	60.4331
593.7	46.512
598.379	45.5581
603.056	107.619
607.73	256.726
612.402	874.87
617.072	2147.85
621.739	964.019
626.403	431.42
631.065	417.834
635.724	292.246
640.381	282.449
645.035	426.65
649.687	270.856
654.336	92.0635
658.983	67.2708
663.627	6.06519
668.268	23.3699
672.907	19.5794
677.544	82.7925
682.178	28.4998
686.809	16.4768
691.438	68.054
696.065	61.095
700.688	82.322
705.31	65.1841
709.929	35.2258
714.545	53.2744
719.158	30.2764
723.77	2.71143
728.378	90.897
732.984	75.2336
737.588	28.1272
742.189	35.9958
746.787	29.8081
751.383	40.6238
755.976	72.3581
760.567	10.9763
765.155	22.6343
769.741	7.19434
774.324	63.6614
778.904	25.1025
783.482	85.54
788.058	34.9685
792.631	113.381
797.201	111.789
801.769	10.8279
806.334	109.644
810.897	22.719
815.457	44.3826
820.014	56.5969
824.569	15.6479
829.122	62.2434
833.671	23.8318
838.219	31.7949
842.763	102.711
847.306	65.5828
851.845	23.6858
856.382	71.5256
860.917	1.17456
865.448	12.8601
869.978	75.6323
874.505	29.3838
879.029	29.8789
883.55	6.75732
888.069	78.4534
892.586	60.146
897.1	77.8066
901.611	53.2812
906.12	87.5335
910.626	86.3137
915.129	97.1189
919.63	106.436
924.129	85.7996
928.625	134.49
933.118	49.9336
937.609	85.0518
942.097	45.7153
946.582	1.61719
951.065	118.051
955.546	53.2864
960.023	98.1858
964.499	235.931
968.971	337.709
973.441	564.457
977.909	1197.54
982.374	5608.39
986.836	32167.3
991.295	32262.2
995.753	3209.57
1000.21	1033.55
1004.66	545.536
1009.11	310.629
1013.55	267.084
1018	173.96
1022.44	143.173
1026.88	37.4665
1031.32	104.799
1035.75	74.1719
1040.18	71.6128
1044.61	24.1296
1049.04	34.6785
1053.46	19.0102
1057.88	124.639
1062.3	28.2256
1066.71	57.2966
1071.13	16.916
1075.54	81.4392
1079.94	244.034
1084.35	420.891
1088.75	337.813
1093.15	249.185
1097.55	545.633
1101.94	1414.79
1106.34	1563.01
1110.73	605.312
1115.11	214.688
1119.5	98.1135
1123.88	89.4165
1128.26	160.947
1132.63	156.527
1137.01	406.444
1141.38	308.963
1145.75	232.763
1150.12	146.659
1154.48	73.5518
1158.84	95.5845
1163.2	203.455
1167.55	264.516
1171.91	187.104
1176.26	59.3442
1180.61	17.7102
1184.95	80.9959
1189.29	51.5356
1193.63	30.9285
1197.97	27.4634
1202.31	65.6226
1206.64	47.782
1210.97	86.7817
1215.29	83.2388
1219.62	88.636
1223.94	42.4517
1228.26	10.8545
1232.57	44.0217
1236.89	64.5671
1241.2	70.5322
1245.51	59.2527
1249.81	15.1455
1254.12	143.301
1258.42	7.82568
1262.72	56.3767
1267.01	0.790283
1271.3	39.6645
1275.59	50.8359
1279.88	71.4849
1284.17	55.915
1288.45	85.3418
1292.73	56.7778
1297.01	20.2026
1301.28	3.13477
1305.55	50.2395
1309.82	39.8396
1314.09	32.2017
1318.35	2.53516
1322.61	20.2742
1326.87	120.59
1331.13	1.93286
1335.38	54.2188
1339.63	115.274
1343.88	142.621
1348.12	59.7725
1352.37	124.119
1356.61	15.1108
1360.85	79.1482
1365.08	14.0066
1369.31	3.7876
1373.54	31.585
1377.77	111.751
1381.99	19.4495
1386.22	115.093
1390.43	95.9238
1394.65	78.4722
1398.87	34.158
1403.08	9.14575
1407.29	43.3713
1411.49	112.519
1415.69	93.6799
1419.89	60.6636
1424.09	74.5898
1428.29	102.606
1432.48	138.324
1436.67	66.2
1440.86	112.239
1445.04	137.522
1449.23	67.355
1453.4	101.108
1457.58	79.1526
1461.76	63.7236
1465.93	48.9917
1470.1	19.5012
1474.26	67.5237
1478.43	174.609
1482.59	132.832
1486.75	41.0684
1490.9	93.1931
1495.06	34.3569
1499.21	10.658
1503.35	85.3093
1507.5	115.934
1511.64	33.6655
1515.78	64.5408
1519.92	48.7383
1524.05	41.0427
1528.18	109.309
1532.31	95.0393
1536.44	6.37109
1540.56	97.3528
1544.69	47.0403
1548.8	68.3784
1552.92	99.6172
1557.03	28.4111
1561.14	57.7129
1565.25	21.9053
1569.36	0.227051
