Measurement: Raman, 514 nm, ccw, Raman Data Processed
Mineral: Baryte
Rruff sample: R050342
Ideal chemistry: BaSO_4_
Locality: Palos Verdes, Los Angeles County, California, USA
Source: California Institute of Technology
Description: Light brown fragment
Measured chemistry: Ba_1.00_S_1.00_O_4_
Pin_id: L01107
Orientation: Laser parallel to -a* (-1 0 0). Fiducial mark perpendicular to laser is parallel to b [0 1 0]
Raman shift (cm-1)	intensity
140.271	0
145.184	200.616
150.094	213.431
155.002	311.808
159.908	211.073
164.811	103.993
169.711	269.152
174.61	127.299
179.505	222.989
184.399	162.651
189.29	388.188
194.178	139.246
199.064	225.905
203.948	355.099
208.829	206.376
213.708	13.4375
218.585	309.201
223.459	15.0166
228.33	260.99
233.199	226.583
238.066	192.614
242.93	179.68
247.792	199.741
252.651	159.794
257.508	167.669
262.363	274.048
267.215	258.191
272.064	206.368
276.912	139.519
281.756	229.153
286.598	211.485
291.438	217.296
296.276	216.47
301.111	144.798
305.943	228.003
310.773	96.9111
315.601	279.41
320.426	196.431
325.248	215.903
330.068	206.341
334.886	104.055
339.701	27.666
344.514	289.601
349.324	186.798
354.132	163.01
358.938	268.598
363.741	175.655
368.541	93.8477
373.339	0.776367
378.135	48.127
382.928	127.858
387.718	150.871
392.506	128.099
397.292	85.4141
402.075	204.556
406.856	123.345
411.634	152.451
416.41	141.558
421.183	23.8262
425.954	115.835
430.722	80.5527
435.488	193.372
440.251	312.357
445.012	695.575
449.77	1530.04
454.526	2451.62
459.28	1355.48
464.03	1061.5
468.779	383.653
473.525	200.999
478.268	165.539
483.009	184.856
487.747	88.6992
492.483	106.647
497.217	140.299
501.948	32.4297
506.676	304.566
511.402	66.5977
516.125	242.824
520.846	125.195
525.565	92.3731
530.281	213.947
534.994	28.4902
539.705	35.8574
544.413	35.1816
549.119	124.281
553.822	146.305
558.523	112.022
563.222	131.381
567.917	41.291
572.611	117.695
577.302	95.7852
581.99	131.461
586.676	225.068
591.359	294.551
596.04	79.8867
600.718	294.268
605.394	307.674
610.067	483.695
614.737	1701.01
619.406	2106.47
624.071	879.039
628.734	722.564
633.395	464.139
638.053	395.185
642.708	201.756
647.361	261.715
652.012	67.4844
656.66	90.5957
661.305	235.144
665.948	216.057
670.588	72.8516
675.226	192.824
679.861	271.303
684.494	5.57617
689.124	7.08984
693.752	251.941
698.377	108.357
702.999	62.6367
707.619	30.2812
712.237	226.074
716.852	75.8379
721.464	39.1836
726.074	7.04297
730.681	227.773
735.286	275.363
739.888	34.4102
744.488	232.699
749.085	45.0234
753.68	82.4805
758.272	71.209
762.861	79.8008
767.448	142.59
772.033	75.9746
776.614	173.277
781.194	110.922
785.77	169.471
790.345	270.572
794.916	171.182
799.485	223.242
804.052	90.0117
808.616	216.83
813.177	175.34
817.736	89.5762
822.292	282.99
826.846	62.5488
831.397	204.414
835.945	185.978
840.491	192.785
845.035	33.0586
849.576	233.627
854.114	188.297
858.65	384.875
863.183	69.1543
867.713	79.3809
872.241	37.3965
876.767	216.228
881.29	110.408
885.81	106.982
890.328	82.8184
894.843	98.1543
899.356	257.178
903.866	45.8828
908.373	79.3555
912.878	110.137
917.38	166.305
921.88	172.889
926.377	68.2871
930.872	190.746
935.364	187.406
939.853	46.3945
944.34	98.0664
948.824	237.469
953.306	362.725
957.785	247.016
962.261	250.232
966.735	314.494
971.207	466.062
975.675	640.256
980.141	1701.39
984.605	8625.78
989.066	34270.5
993.524	5523.27
997.98	1011.62
1002.43	432.857
1006.88	301.488
1011.33	548.106
1015.78	95.7539
1020.22	160.973
1024.66	105.769
1029.1	132.264
1033.53	94.6133
1037.97	194.219
1042.4	279.721
1046.82	79.7812
1051.25	134.184
1055.67	187.707
1060.09	180.545
1064.51	19.7285
1068.92	53.998
1073.33	236.617
1077.74	163.607
1082.15	367.432
1086.55	512.996
1090.95	36.2227
1095.35	270.879
1099.75	360.416
1104.14	400
1108.53	263.609
1112.92	17.1094
1117.31	1.35547
1121.69	123.853
1126.07	144.676
1130.45	70.8398
1134.82	266.096
1139.19	231.127
1143.57	294.365
1147.93	287.875
1152.3	215.018
1156.66	167.185
1161.02	131.668
1165.38	53.5352
1169.73	278.768
1174.08	18.0098
1178.43	25.2617
1182.78	179.902
1187.12	165.068
1191.46	210.898
1195.8	186.674
1200.14	181.717
1204.47	18.666
1208.8	89.8477
1213.13	57.4238
1217.46	157.109
1221.78	393.256
1226.1	129.795
1230.42	258.315
1234.73	66.2773
1239.04	111.998
1243.35	281.184
1247.66	184.029
1251.97	195.609
1256.27	314.504
1260.57	112.086
1264.86	95.8945
1269.16	343.143
1273.45	351.647
1277.74	163.037
1282.03	376.742
1286.31	71.4121
1290.59	178.924
1294.87	175.383
1299.14	148.756
1303.42	222.717
1307.69	132.266
1311.95	87.0059
1316.22	185.867
1320.48	118.193
1324.74	12.0957
1329	381.685
1333.26	62.9453
1337.51	185.361
1341.76	176.58
1346	83.4238
1350.25	355.414
1354.49	181.412
1358.73	161.119
1362.96	202.965
1367.2	286.148
1371.43	267.215
1375.66	467.781
1379.88	75.6387
1384.11	146.562
1388.33	36.4492
1392.54	255.295
1396.76	25.2812
1400.97	331.791
1405.18	231.773
1409.39	220.504
1413.59	306.385
1417.8	285.016
1421.99	28.3066
1426.19	126.756
1430.38	18.334
1434.58	219.641
1438.77	304.394
1442.95	42.1523
1447.13	66.8711
1451.32	217.008
1455.49	262.371
1459.67	309.703
1463.84	288.793
1468.01	148.25
1472.18	199.906
1476.35	307.738
1480.51	46.8906
1484.67	123.133
1488.83	188.699
1492.98	283.766
1497.13	366.277
1501.28	337.504
1505.43	286.613
1509.57	324.269
1513.71	127.102
1517.85	68.9766
1521.99	162.57
1526.12	227.816
1530.25	96.9375
1534.38	259.07
1538.5	153.434
1542.62	304.152
1546.74	279.902
1550.86	114.16
1554.98	107.336
1559.09	232.352
1563.2	71.6016
1567.31	10.125
