Measurement: Raman, 514 nm, ccw, Raman Data Processed
Mineral: Baryte
Rruff sample: R040036
Ideal chemistry: BaSO_4_
Locality: Cumbria County, England
Source: University of Arizona Mineral Museum
Description: Golden brown tabular crystal
Measured chemistry: Ba_1.00_S_1.00_O_4_; trace amounts of Pb
Pin_id: M00028
Orientation: Laser parallel to -a* (-1 0 0). Fiducial mark perpendicular to laser is parallel to -b [0 -1 0]
Raman shift (cm-1)	intensity
26.288	0
30.504	31.294
34.717	22.089
38.929	51.577
43.138	55.419
47.345	61.996
51.551	63.755
55.754	68.353
59.955	89.348
64.154	78.618
68.351	36.786
72.546	33.043
76.739	21.378
80.93	0.24
85.119	17.853
89.306	25.462
93.49	11.063
97.673	8.351
101.854	50.785
106.032	92.364
110.209	164.083
114.384	305.884
118.556	259.717
122.727	287.537
126.895	355.325
131.062	345.039
135.226	264.595
139.388	260.054
143.549	279.528
147.707	356.023
151.863	426.549
156.018	384.096
160.17	277.665
164.32	219.253
168.469	214.863
172.615	223.493
176.759	195.742
180.901	190.114
185.041	192.308
189.18	194.304
193.316	193.09
197.45	184.659
201.582	175.043
205.712	128.196
209.84	154.032
213.967	140.707
218.091	143.324
222.213	119.741
226.333	130.122
230.451	135.797
234.567	106.873
238.682	130.171
242.794	114.028
246.904	113.469
251.012	110.199
255.118	112.009
259.223	145.831
263.325	96.663
267.425	98.506
271.523	122.604
275.62	109.469
279.714	71.38
283.806	57.315
287.897	67.223
291.985	69.148
296.072	48.091
300.156	36.051
304.239	76.028
308.319	69.022
312.398	54.033
316.474	43.061
320.549	57.106
324.622	44.165
328.692	39.22
332.761	34.27
336.828	64.317
340.893	43.365
344.956	26.418
349.017	43.477
353.076	60.546
357.133	30.63
361.188	2.732
365.241	9.852
369.292	40.993
373.341	32.178
377.388	5.37
381.434	28.6
385.477	33.879
389.519	30.205
393.558	19.575
397.596	30.969
401.631	30.38
405.665	33.811
409.697	3.26
413.727	16.265
417.755	22.226
421.781	18.747
425.805	5.71
429.827	31.863
433.847	62.468
437.865	120.1
441.882	220.749
445.896	513.418
449.909	1500.11
453.919	2901.81
457.928	1624.53
461.935	832.276
465.94	419.042
469.943	195.827
473.944	90.624
477.943	45.433
481.94	34.257
485.935	47.096
489.929	32.948
493.92	13.81
497.91	19.684
501.898	2.567
505.883	23.458
509.867	28.359
513.849	2.731
517.829	26.189
521.808	39.091
525.784	55.021
529.758	27.918
533.731	36.854
537.701	36.073
541.67	33.011
545.637	13.146
549.602	13.126
553.565	36.434
557.526	37.618
561.486	62.562
565.443	43.277
569.399	35.582
573.352	37.214
577.304	68.904
581.254	59.33
585.202	43.414
589.148	95.957
593.093	125.877
597.035	167.915
600.976	192.156
604.914	207.04
608.851	404.524
612.786	1059.49
616.719	2991.28
620.651	2451.06
624.58	1210.43
628.507	1072.4
632.433	889.121
636.357	384.061
640.279	187.758
644.199	163.424
648.117	217.249
652.034	185.878
655.948	143.859
659.861	88.445
663.772	50.01
667.681	38.554
671.588	55.077
675.493	4.578
679.397	12.05
683.298	10.499
687.198	13.922
691.096	21.319
694.992	7.685
698.886	23.986
702.779	16.701
706.669	0.536
710.558	12.733
714.445	8.876
718.33	10.036
722.214	7.008
726.095	1.974
729.975	24.008
733.852	21.958
737.728	13.117
741.603	21.227
745.475	4.379
749.345	5.429
753.214	26.204
757.081	8.958
760.946	23.307
764.809	1.609
768.671	6.066
772.53	28.72
776.388	18.352
780.244	4.965
784.098	1.561
787.951	44.139
791.801	46.698
795.65	61.235
799.497	15.755
803.342	5.261
807.186	25.756
811.027	27.222
814.867	45.659
818.705	29.875
822.541	3.325
826.375	12.577
830.208	35.971
834.039	55.014
837.868	39.292
841.695	42.87
845.521	46.899
849.344	55.453
853.166	103.637
856.986	134.94
860.804	153.155
864.621	144.256
868.436	69.165
872.248	74.547
876.06	108.412
879.869	64.275
883.677	51.071
887.482	49.04
891.287	65.354
895.089	81.834
898.889	113.718
902.688	139.116
906.485	65.502
910.28	58.036
914.074	67.352
917.865	81.908
921.655	78.486
925.443	84.921
929.23	58.548
933.014	70.808
936.797	88.483
940.578	71.183
944.358	105.912
948.135	99.666
951.911	101.444
955.685	62.247
959.458	119.072
963.228	164.922
966.997	303.796
970.764	356.702
974.529	504.641
978.293	776.615
982.055	2112.62
985.815	12672.7
989.573	41930.8
993.33	7565.89
997.085	1690.52
1000.84	823.7
1004.59	580.918
1008.34	333.164
1012.09	238.44
1015.83	257.748
1019.58	250.092
1023.32	248.471
1027.06	205.922
1030.8	206.421
1034.54	138.884
1038.27	110.414
1042.01	88.354
1045.74	90.004
1049.47	75.581
1053.2	58.218
1056.93	220.305
1060.65	91.957
1064.38	41.48
1068.1	72.427
1071.82	84.554
1075.54	135.848
1079.25	203.972
1082.97	456.07
1086.68	410.938
1090.39	172.781
1094.11	124.67
1097.81	126.59
1101.52	152.73
1105.22	248.661
1108.93	125.613
1112.63	26.585
1116.33	23.574
1120.03	54.579
1123.72	82.601
1127.42	32.637
1131.11	11.678
1134.8	9.73
1138.49	57.795
1142.18	213.876
1145.87	249.971
1149.55	179.083
1153.23	88.208
1156.91	64.346
1160.59	5.501
1164.27	1.665
1167.95	3.159
1171.62	13.024
1175.3	53.211
1178.97	54.397
1182.64	28.587
1186.3	6.784
1189.97	0.977
1193.63	33.828
1197.3	10.651
1200.96	4.478
1204.62	36.692
1208.27	28.886
1211.93	34.404
1215.58	64.543
1219.24	22.812
1222.89	1.051
1226.54	1.807
1230.18	25.336
1233.83	60.136
1237.47	96.428
1241.12	92.742
1244.76	58.87
1248.4	77.999
1252.04	48.142
1255.67	50.272
1259.31	36.397
1262.94	54.057
1266.57	100.225
1270.2	88.571
1273.83	112.698
1277.45	93.183
1281.08	77.435
1284.7	48.557
1288.32	26.961
1291.94	29.559
1295.56	67.669
1299.17	107.737
1302.79	119.836
1306.4	92.509
1310.01	98.478
1313.62	105.543
1317.23	88.57
1320.84	70.169
1324.44	81.513
1328.04	58.239
1331.64	63.133
1335.24	40.788
1338.84	1.923
1342.44	23.828
1346.03	19.48
1349.63	11.374
1353.22	2.719
1356.81	2.169
1360.4	0.905
1363.98	2.785
1367.57	29.719
1371.15	35.679
1374.73	59.845
1378.32	40.776
1381.89	58.858
1385.47	50.946
1389.05	18.025
1392.62	1.089
1396.19	21.131
1399.76	10.147
1403.33	47.147
1406.9	53.149
1410.46	24.153
1414.03	41.166
1417.59	46.216
1421.15	14.243
1424.71	14.769
1428.27	21.671
1431.82	65.603
1435.38	84.203
1438.93	168.925
1442.48	238.965
1446.03	282.026
1449.58	326.988
1453.13	339.486
1456.67	316.166
1460.21	303.216
1463.76	218.127
1467.3	161.74
1470.83	115.374
1474.37	97.999
1477.91	110.519
1481.44	126.09
1484.97	127.117
1488.5	135.39
1492.03	97.059
1495.56	18.465
1499.08	58.159
1502.61	0
