Measurement: Raman, 514 nm, ccw, Raman Data Processed
Mineral: Baryte
Rruff sample: R040036
Ideal chemistry: BaSO_4_
Locality: Cumbria County, England
Source: University of Arizona Mineral Museum
Description: Golden brown tabular crystal
Measured chemistry: Ba_1.00_S_1.00_O_4_; trace amounts of Pb
Pin_id: M00019
Orientation: Laser parallel to b* (0 1 0). Fiducial mark perpendicular to laser is parallel to c [0 0 1]
Raman shift (cm-1)	intensity
26.288	0
30.504	18.072
34.717	47.001
38.929	15.666
43.138	35.196
47.345	53.402
51.551	26.477
55.754	44.657
59.955	55.936
64.154	34.977
68.351	15.412
72.546	17.289
76.739	28.386
80.93	11.885
85.119	4.804
89.306	18.935
93.49	12.28
97.673	27.902
101.854	4.768
106.032	3.472
110.209	16.135
114.384	65.905
118.556	111.45
122.727	60.238
126.895	45.818
131.062	76.791
135.226	54.563
139.388	45.919
143.549	59.131
147.707	91.843
151.863	177.735
156.018	151.285
160.17	108.844
164.32	62.215
168.469	32.503
172.615	22.711
176.759	35.837
180.901	79.336
185.041	176.042
189.18	325.043
193.316	204.518
197.45	95.324
201.582	46.834
205.712	35.796
209.84	21.168
213.967	20.118
218.091	22.642
222.213	20.103
226.333	22.338
230.451	32.986
234.567	8.234
238.682	19.223
242.794	16.528
246.904	10.113
251.012	18.646
255.118	17.233
259.223	12.972
263.325	32.15
267.425	30.433
271.523	28.591
275.62	11.492
279.714	19.562
283.806	11.448
287.897	8.108
291.985	19.793
296.072	18.631
300.156	10.425
304.239	13.171
308.319	15.871
312.398	9.501
316.474	6.137
320.549	5.952
324.622	15.164
328.692	9.475
332.761	20.802
336.828	0.046
340.893	10.213
344.956	5.315
349.017	26.312
353.076	10.149
357.133	13.677
361.188	0.1
365.241	22.589
369.292	10.928
373.341	4.334
377.388	7.768
381.434	21.208
385.477	23.629
389.519	29.973
393.558	28.338
397.596	27.815
401.631	35.148
405.665	21.555
409.697	48.003
413.727	63.493
417.755	59.851
421.781	70.101
425.805	123.457
429.827	231.816
433.847	364.092
437.865	705.368
441.882	1543.68
445.896	3749.93
449.909	9674.21
453.919	11643.4
457.928	4688.68
461.935	1626.83
465.94	703.02
469.943	362.178
473.944	242.392
477.943	161.683
481.94	133.818
485.935	101.021
489.929	82.238
493.92	74.467
497.91	57.629
501.898	66.894
505.883	38.143
509.867	70.435
513.849	68.671
517.829	67.851
521.808	72.166
525.784	67.533
529.758	47.945
533.731	36.267
537.701	50.031
541.67	33.447
545.637	31.872
549.602	29.327
553.565	35.873
557.526	24.292
561.486	23.711
565.443	18.314
569.399	33.741
573.352	25.135
577.304	15.867
581.254	10.732
585.202	30.468
589.148	25.941
593.093	21.426
597.035	23.068
600.976	54.729
604.914	74.266
608.851	197.944
612.786	743.553
616.719	1767.42
620.651	895.09
624.58	422.924
628.507	431.78
632.433	400.141
636.357	310.5
640.279	366.109
644.199	644.895
648.117	801.352
652.034	385.834
655.948	152.967
659.861	74.084
663.772	48.183
667.681	34.396
671.588	23.572
675.493	2.611
679.397	15.145
683.298	11.282
687.198	13.451
691.096	11.595
694.992	17.843
698.886	18.774
702.779	14.643
706.669	8.484
710.558	15.299
714.445	9.91
718.33	11.153
722.214	6.438
726.095	11.248
729.975	2.097
733.852	8.326
737.728	1.272
741.603	1.778
745.475	4.244
749.345	4.256
753.214	11.275
757.081	2.844
760.946	3.449
764.809	8.09
768.671	3.228
772.53	5.513
776.388	11.775
780.244	5.992
784.098	3.203
787.951	8.636
791.801	13.492
795.65	15.598
799.497	2.685
803.342	6.753
807.186	1.199
811.027	10.823
814.867	22.78
818.705	2.454
822.541	7.517
826.375	9.402
830.208	15.254
834.039	11.984
837.868	5.833
841.695	8.662
845.521	18.269
849.344	3.073
853.166	17.549
856.986	24.965
860.804	28.371
864.621	36.019
868.436	8.539
872.248	8.02
876.06	4.711
879.869	2.047
883.677	4.521
887.482	18.055
891.287	52.017
895.089	57.545
898.889	52.882
902.688	77.957
906.485	50.343
910.28	55.991
914.074	37.626
917.865	42.809
921.655	41.178
925.443	40.456
929.23	55.176
933.014	65
936.797	67.835
940.578	75.684
944.358	78.374
948.135	87.175
951.911	99.069
955.685	117.412
959.458	159.085
963.228	308.794
966.997	388.767
970.764	532.433
974.529	814.414
978.293	1565.46
982.055	5176.53
985.815	45362.6
989.573	35360.7
993.33	5967.9
997.085	1679.08
1000.84	937.301
1004.59	575.549
1008.34	426.688
1012.09	319.001
1015.83	236.966
1019.58	197.348
1023.32	184.766
1027.06	152.222
1030.8	102.719
1034.54	91.256
1038.27	66.835
1042.01	54.456
1045.74	41.116
1049.47	48.813
1053.2	61.549
1056.93	43.327
1060.65	35.147
1064.38	44.046
1068.1	39.941
1071.82	28.873
1075.54	58.843
1079.25	54.855
1082.97	82.911
1086.68	87.01
1090.39	116.154
1094.11	237.34
1097.81	595.575
1101.52	1621.86
1105.22	1825.19
1108.93	727.564
1112.63	298.972
1116.33	174.414
1120.03	94.89
1123.72	74.4
1127.42	109.946
1131.11	184.526
1134.8	771.138
1138.49	1289.79
1142.18	648.469
1145.87	327.191
1149.55	188.949
1153.23	131.741
1156.91	186.585
1160.59	331.615
1164.27	801.494
1167.95	840.492
1171.62	419.498
1175.3	206.546
1178.97	109.719
1182.64	47.726
1186.3	50.756
1189.97	41.808
1193.63	15.881
1197.3	15.041
1200.96	12.33
1204.62	24.687
1208.27	17.066
1211.93	24.542
1215.58	23.552
1219.24	34.78
1222.89	18.481
1226.54	11.232
1230.18	36.99
1233.83	41.509
1237.47	36.98
1241.12	42.439
1244.76	38.702
1248.4	43.05
1252.04	32.37
1255.67	39.803
1259.31	21.283
1262.94	25.704
1266.57	21.275
1270.2	30.718
1273.83	46.327
1277.45	50.039
1281.08	42.508
1284.7	2.087
1288.32	0.721
1291.94	16.641
1295.56	17.991
1299.17	4.68
1302.79	5.364
1306.4	14.912
1310.01	23.158
1313.62	17.396
1317.23	25.623
1320.84	15.835
1324.44	6.028
1328.04	14.146
1331.64	2.276
1335.24	1.383
1338.84	0.536
1342.44	15.48
1346.03	0.546
1349.63	15.454
1353.22	8.519
1356.81	1.467
1360.4	19.611
1363.98	11.277
1367.57	4.855
1371.15	7.995
1374.73	1.157
1378.32	21.053
1381.89	4.431
1385.47	4.202
1389.05	39.15
1392.62	9.474
1396.19	8.754
1399.76	15.828
1403.33	11.106
1406.9	7.783
1410.46	3.914
1414.03	15.249
1417.59	17.112
1421.15	17.613
1424.71	31.947
1428.27	31.151
1431.82	40.326
1435.38	71.487
1438.93	62.902
1442.48	96.424
1446.03	86.402
1449.58	106.107
1453.13	102.524
1456.67	81.217
1460.21	83.123
1463.76	84.829
1467.3	65.5
1470.83	49.331
1474.37	32.088
1477.91	44.762
1481.44	25.603
1484.97	25.521
1488.5	13.52
1492.03	0.336
1495.56	11.048
1499.08	20.806
1502.61	0
