Measurement: Raman, 514 nm, ccw, Raman Data Processed
Mineral: Baryte
Rruff sample: R040036
Ideal chemistry: BaSO_4_
Locality: Cumbria County, England
Source: University of Arizona Mineral Museum
Description: Golden brown tabular crystal
Measured chemistry: Ba_1.00_S_1.00_O_4_; trace amounts of Pb
Pin_id: M00021
Orientation: Laser parallel to c* (0 0 1). Fiducial mark perpendicular to laser is parallel to -a [-1 0 0]
Raman shift (cm-1)	intensity
26.288	0
30.504	17.236
34.717	44.061
38.929	52.41
43.138	53.27
47.345	41.021
51.551	20.843
55.754	21.136
59.955	21.791
64.154	3.52
68.351	8.625
72.546	7.401
76.739	10.233
80.93	5.086
85.119	6.067
89.306	6.225
93.49	16.382
97.673	45.464
101.854	40.323
106.032	30.341
110.209	103.503
114.384	196.729
118.556	185.954
122.727	184.123
126.895	164.213
131.062	195.228
135.226	163.141
139.388	201.989
143.549	208.849
147.707	313.724
151.863	569.613
156.018	498.517
160.17	298.436
164.32	220.37
168.469	190.32
172.615	191.286
176.759	201.997
180.901	227.006
185.041	377.725
189.18	648.138
193.316	416.238
197.45	210.027
201.582	150.499
205.712	135.648
209.84	137.467
213.967	120.95
218.091	85.364
222.213	113.447
226.333	97.884
230.451	105.936
234.567	124.996
238.682	126.649
242.794	84.887
246.904	86.412
251.012	80.504
255.118	65.503
259.223	71.624
263.325	56.74
267.425	60.862
271.523	57.995
275.62	41.139
279.714	45.293
283.806	31.457
287.897	37.635
291.985	48.825
296.072	34.027
300.156	44.243
304.239	23.471
308.319	13.712
312.398	18.965
316.474	36.231
320.549	35.509
324.622	21.796
328.692	12.07
332.761	33.331
336.828	11.583
340.893	15.832
344.956	14.081
349.017	17.335
353.076	28.599
357.133	13.878
361.188	13.176
365.241	19.497
369.292	5.843
373.341	9.212
377.388	22.609
381.434	13.031
385.477	25.485
389.519	15.979
393.558	13.77
397.596	15.047
401.631	14.607
405.665	3.182
409.697	28.777
413.727	25.492
417.755	2.47
421.781	22.12
425.805	38.786
429.827	48.465
433.847	97.158
437.865	190.863
441.882	376.58
445.896	873.31
449.909	2367.05
453.919	3890.8
457.928	2155.56
461.935	1924.33
465.94	1038.12
469.943	367.918
473.944	139.737
477.943	104.571
481.94	59.422
485.935	28.284
489.929	20.154
493.92	23.033
497.91	28.93
501.898	38.844
505.883	10.772
509.867	14.684
513.849	13.631
517.829	29.582
521.808	22.542
525.784	22.509
529.758	21.563
533.731	34.515
537.701	35.789
541.67	29.048
545.637	11.205
549.602	16.378
553.565	9.922
557.526	16.637
561.486	17.494
565.443	17.117
569.399	22.99
573.352	5.031
577.304	13.112
581.254	17.104
585.202	16.092
589.148	15.082
593.093	47.008
597.035	39.918
600.976	59.818
604.914	113.047
608.851	159.355
612.786	497.805
616.719	1493.29
620.651	1030.48
624.58	862.717
628.507	1739.54
632.433	1791.32
636.357	719.682
640.279	339.937
644.199	374.583
648.117	459.581
652.034	231.576
655.948	131.238
659.861	49.873
663.772	24.401
667.681	28.617
671.588	11.233
675.493	6.034
679.397	5.414
683.298	8.272
687.198	9.978
691.096	9.282
694.992	15.757
698.886	8.635
702.779	6.077
706.669	3.171
710.558	10.575
714.445	5.758
718.33	10.909
722.214	15.03
726.095	4.12
729.975	12.178
733.852	19.326
737.728	29.833
741.603	27.18
745.475	14.12
749.345	15.98
753.214	8.132
757.081	9.674
760.946	13.558
764.809	11.163
768.671	13.856
772.53	10.522
776.388	11.849
780.244	7.267
784.098	6.266
787.951	10.239
791.801	31.217
795.65	18.648
799.497	12.946
803.342	10.419
807.186	15.744
811.027	6.004
814.867	6.01
818.705	8.028
822.541	5.878
826.375	8.144
830.208	2.212
834.039	11.693
837.868	9.324
841.695	14.021
845.521	19.881
849.344	0.841
853.166	54.779
856.986	62.704
860.804	43.684
864.621	42.588
868.436	7.565
872.248	18.545
876.06	1.518
879.869	27.483
883.677	16.1
887.482	27.138
891.287	39.684
895.089	72.277
898.889	72.461
902.688	78.395
906.485	66.317
910.28	51.264
914.074	22.781
917.865	38.805
921.655	57.082
925.443	56.453
929.23	76.423
933.014	82.402
936.797	82.04
940.578	79.485
944.358	116.875
948.135	102.675
951.911	87.703
955.685	109.446
959.458	156.374
963.228	299.367
966.997	441.117
970.764	547.65
974.529	827.836
978.293	1401.05
982.055	3923.29
985.815	30242.4
989.573	51508.7
993.33	7336.98
997.085	1985.33
1000.84	1054.71
1004.59	660.119
1008.34	446.553
1012.09	358.016
1015.83	287.507
1019.58	229.032
1023.32	234.595
1027.06	169.201
1030.8	154.847
1034.54	85.533
1038.27	113.257
1042.01	81.015
1045.74	61.807
1049.47	72.64
1053.2	79.513
1056.93	76.433
1060.65	56.39
1064.38	72.399
1068.1	69.427
1071.82	53.49
1075.54	29.607
1079.25	19.782
1082.97	52.01
1086.68	66.282
1090.39	75.602
1094.11	80.973
1097.81	180.386
1101.52	301.848
1105.22	352.354
1108.93	129.897
1112.63	82.477
1116.33	114.31
1120.03	153.741
1123.72	241.419
1127.42	346.127
1131.11	636.024
1134.8	1309.79
1138.49	2789.59
1142.18	4897.43
1145.87	4611.3
1149.55	2370.19
1153.23	1105.11
1156.91	597.092
1160.59	402.288
1164.27	383.39
1167.95	379.421
1171.62	221.579
1175.3	111.722
1178.97	63.534
1182.64	58.89
1186.3	35.008
1189.97	33.125
1193.63	23.255
1197.3	5.396
1200.96	8.584
1204.62	26.913
1208.27	17.603
1211.93	15.097
1215.58	37.551
1219.24	35.448
1222.89	26.967
1226.54	9.877
1230.18	70.97
1233.83	65.198
1237.47	83.985
1241.12	45.278
1244.76	45.13
1248.4	43.464
1252.04	68.644
1255.67	19.878
1259.31	9.909
1262.94	15.244
1266.57	49.313
1270.2	38.166
1273.83	38.316
1277.45	27.454
1281.08	32.642
1284.7	0.082
1288.32	2.38
1291.94	2.728
1295.56	18.793
1299.17	3.2
1302.79	19.746
1306.4	24.644
1310.01	12.507
1313.62	42.328
1317.23	36.124
1320.84	44.891
1324.44	27.596
1328.04	8.238
1331.64	0.147
1335.24	19.604
1338.84	4.122
1342.44	5.299
1346.03	11.334
1349.63	10.024
1353.22	15.776
1356.81	1.585
1360.4	13.556
1363.98	6.349
1367.57	12.703
1371.15	5.206
1374.73	0.246
1378.32	10.355
1381.89	5.289
1385.47	28.024
1389.05	31.869
1392.62	6.325
1396.19	31.396
1399.76	49.712
1403.33	27.215
1406.9	11.74
1410.46	12.323
1414.03	30.914
1417.59	48.433
1421.15	60.378
1424.71	51.238
1428.27	43.077
1431.82	41.299
1435.38	47.001
1438.93	74.297
1442.48	96.609
1446.03	99.892
1449.58	99.135
1453.13	126.423
1456.67	116.997
1460.21	99.257
1463.76	95.212
1467.3	70.304
1470.83	59.466
1474.37	50.514
1477.91	73.404
1481.44	50.373
1484.97	39.633
1488.5	20.287
1492.03	26.484
1495.56	19.361
1499.08	11.859
1502.61	0
