Measurement: Raman, 514 nm, ccw, Raman Data Processed
Mineral: Baryte
Rruff sample: R040036
Ideal chemistry: BaSO_4_
Locality: Cumbria County, England
Source: University of Arizona Mineral Museum
Description: Golden brown tabular crystal
Measured chemistry: Ba_1.00_S_1.00_O_4_; trace amounts of Pb
Pin_id: M00019
Orientation: Laser parallel to b* (0 1 0). Fiducial mark perpendicular to laser is parallel to c [0 0 1]
Raman shift (cm-1)	intensity
26.288	0
30.504	10.862
34.717	29.338
38.929	57.763
43.138	76.044
47.345	88.884
51.551	93.17
55.754	148.234
59.955	132.708
64.154	91.46
68.351	100.433
72.546	33.597
76.739	18.847
80.93	14.846
85.119	29.549
89.306	11.317
93.49	13.151
97.673	19.938
101.854	41.952
106.032	49.27
110.209	75.886
114.384	157.636
118.556	137.432
122.727	134.171
126.895	141.944
131.062	185.498
135.226	161.087
139.388	142.231
143.549	132.418
147.707	193.015
151.863	325.831
156.018	366.555
160.17	279.296
164.32	160.706
168.469	122.047
172.615	128.362
176.759	161.477
180.901	220.91
185.041	503.655
189.18	792.864
193.316	512.465
197.45	234.257
201.582	160.49
205.712	114.077
209.84	82.759
213.967	86.905
218.091	91.859
222.213	92.295
226.333	66.428
230.451	64.371
234.567	63.692
238.682	60.483
242.794	38.533
246.904	61.93
251.012	46.271
255.118	45.695
259.223	24.707
263.325	79.27
267.425	36.754
271.523	44.207
275.62	39.536
279.714	34.808
283.806	35.028
287.897	24.199
291.985	31.322
296.072	19.403
300.156	40.441
304.239	37.439
308.319	26.395
312.398	34.31
316.474	22.188
320.549	8.03
324.622	20.828
328.692	28.521
332.761	26.114
336.828	24.613
340.893	35.026
344.956	25.378
349.017	21.65
353.076	32.863
357.133	29
361.188	12.126
365.241	25.193
369.292	23.249
373.341	19.09
377.388	26.921
381.434	26.909
385.477	17.741
389.519	34.489
393.558	38.404
397.596	23.221
401.631	25.007
405.665	16.735
409.697	17.76
413.727	21.537
417.755	43.328
421.781	52.015
425.805	68.746
429.827	133.396
433.847	195.136
437.865	407.759
441.882	898.365
445.896	2252.19
449.909	5060.91
453.919	4873.51
457.928	1922.06
461.935	844.719
465.94	369.355
469.943	193.915
473.944	99.549
477.943	84.195
481.94	47.753
485.935	27.314
489.929	20.94
493.92	40.531
497.91	33.092
501.898	15.798
505.883	33.329
509.867	30.991
513.849	45.309
517.829	28.941
521.808	37.555
525.784	27.308
529.758	35.007
533.731	32.839
537.701	7.677
541.67	18.509
545.637	30.536
549.602	26.33
553.565	20.129
557.526	7.982
561.486	22.925
565.443	23.823
569.399	24.765
573.352	10.04
577.304	1.214
581.254	25.067
585.202	3.927
589.148	20.294
593.093	21.124
597.035	31.197
600.976	49.436
604.914	83.415
608.851	175.182
612.786	521.964
616.719	1089.15
620.651	631.162
624.58	574.546
628.507	910.475
632.433	781.421
636.357	571.44
640.279	783.662
644.199	1575.67
648.117	1742.58
652.034	605.461
655.948	228.157
659.861	95.952
663.772	66.579
667.681	19.472
671.588	30.046
675.493	25.892
679.397	24.665
683.298	46.434
687.198	22.349
691.096	14.04
694.992	17.905
698.886	1.687
702.779	21.298
706.669	4.668
710.558	1.987
714.445	9.676
718.33	8.523
722.214	3.726
726.095	11.079
729.975	6.087
733.852	7.747
737.728	8.387
741.603	5.49
745.475	14.559
749.345	6.603
753.214	5.377
757.081	6.612
760.946	8.431
764.809	13.486
768.671	6.63
772.53	4.221
776.388	14.045
780.244	16.834
784.098	8.415
787.951	8.696
791.801	10.993
795.65	8.66
799.497	15.301
803.342	9.918
807.186	15.512
811.027	5.921
814.867	10.38
818.705	3.901
822.541	5.446
826.375	10.229
830.208	5.829
834.039	1.472
837.868	3.216
841.695	41.023
845.521	14.229
849.344	20.334
853.166	0.989
856.986	17.188
860.804	22.387
864.621	30.292
868.436	7.267
872.248	10.231
876.06	11.402
879.869	24.14
883.677	25.166
887.482	9.334
891.287	31.324
895.089	39.243
898.889	33.908
902.688	39.695
906.485	39.442
910.28	47.559
914.074	64.436
917.865	34.076
921.655	15.675
925.443	24.597
929.23	23.765
933.014	59.895
936.797	63.92
940.578	69.105
944.358	44.024
948.135	61.084
951.911	65.927
955.685	76.064
959.458	122.035
963.228	239.78
966.997	280.933
970.764	381.908
974.529	579.82
978.293	1157.01
982.055	4163.37
985.815	36568.8
989.573	22356.2
993.33	3980.59
997.085	1141.04
1000.84	665.521
1004.59	411.026
1008.34	267.556
1012.09	195.113
1015.83	146.699
1019.58	167.313
1023.32	134.953
1027.06	126.619
1030.8	88.319
1034.54	59.051
1038.27	27.82
1042.01	50.622
1045.74	35.46
1049.47	28.328
1053.2	44.233
1056.93	62.174
1060.65	44.146
1064.38	12.15
1068.1	18.185
1071.82	34.254
1075.54	0.632
1079.25	40.529
1082.97	60.724
1086.68	51.956
1090.39	54.223
1094.11	139.53
1097.81	305.888
1101.52	726.294
1105.22	711.738
1108.93	281.219
1112.63	150.735
1116.33	126.281
1120.03	131.857
1123.72	211.461
1127.42	318.094
1131.11	653.754
1134.8	1940.44
1138.49	3076.16
1142.18	2789.9
1145.87	1930.67
1149.55	1009.48
1153.23	582.332
1156.91	513.208
1160.59	732.261
1164.27	1434.16
1167.95	1266.3
1171.62	632.24
1175.3	333.642
1178.97	210.621
1182.64	129.708
1186.3	75.726
1189.97	56.758
1193.63	59.805
1197.3	40.868
1200.96	35.218
1204.62	36.833
1208.27	39.153
1211.93	31.934
1215.58	48.107
1219.24	58.648
1222.89	48.074
1226.54	47.634
1230.18	49.588
1233.83	53.174
1237.47	56.698
1241.12	55.034
1244.76	45.381
1248.4	51.622
1252.04	42.945
1255.67	26.289
1259.31	27.52
1262.94	24.768
1266.57	45.014
1270.2	3.416
1273.83	30.095
1277.45	19.424
1281.08	11.634
1284.7	30.887
1288.32	20.112
1291.94	44.32
1295.56	34.504
1299.17	5.647
1302.79	2.774
1306.4	0.862
1310.01	38.924
1313.62	0.966
1317.23	27.992
1320.84	44.002
1324.44	13.994
1328.04	10.052
1331.64	0.875
1335.24	29.223
1338.84	25.365
1342.44	5.46
1346.03	13.738
1349.63	11.037
1353.22	13.788
1356.81	3.488
1360.4	13.79
1363.98	11.916
1367.57	14.585
1371.15	9.269
1374.73	29.041
1378.32	1.385
1381.89	14.781
1385.47	19.934
1389.05	30.074
1392.62	7.183
1396.19	35.207
1399.76	19.063
1403.33	6.834
1406.9	36.288
1410.46	9.161
1414.03	16.147
1417.59	41.736
1421.15	26.015
1424.71	22.782
1428.27	36.796
1431.82	35.071
1435.38	85.693
1438.93	94.996
1442.48	112.961
1446.03	116.957
1449.58	115.879
1453.13	133.343
1456.67	148.848
1460.21	126.338
1463.76	96.848
1467.3	78.33
1470.83	56.96
1474.37	61.616
1477.91	47.193
1481.44	31.895
1484.97	63.689
1488.5	45.588
1492.03	12.618
1495.56	57.879
1499.08	28.192
1502.61	4.573
