Measurement: Raman, 514 nm, ccw, Raman Data Processed
Mineral: Baryte
Rruff sample: R050375
Ideal chemistry: BaSO_4_
Locality: unknown
Source: Eugene Schlepp
Description: Pale green tabular crystals
Measured chemistry: Ba_1.00_SO_4_
Pin_id: L01220
Orientation: Laser parallel to -c* (0 0 -1). Fiducial mark perpendicular to laser is parallel to -a [-1 0 0]
Raman shift (cm-1)	intensity
51.431	0
56.387	18.6801
61.341	16.6724
66.292	4.12897
71.241	66.2362
76.187	251.448
81.131	443.848
86.072	622.419
91.012	902.498
95.948	1178.33
100.883	1494.37
105.815	1090.38
110.744	1018.22
115.671	967.981
120.596	952.969
125.519	885.69
130.439	930.127
135.356	847.869
140.271	850.254
145.184	893.43
150.094	997.481
155.002	1205.46
159.908	923.389
164.811	797.231
169.711	777.028
174.61	697.711
179.505	669.242
184.399	746.61
189.29	1078.8
194.178	969.79
199.064	606.842
203.948	602.361
208.829	509.699
213.708	470.899
218.585	449.091
223.459	447.807
228.33	350.735
233.199	335.971
238.066	365.085
242.93	277.194
247.792	364.79
252.651	325.617
257.508	316.303
262.363	263.369
267.215	256.603
272.064	205.477
276.912	189.391
281.756	165.114
286.598	206.143
291.438	277.037
296.276	151.465
301.111	160.425
305.943	175.88
310.773	139.82
315.601	123.255
320.426	132.144
325.248	155.476
330.068	105.241
334.886	77.4258
339.701	57.02
344.514	127.021
349.324	90.4624
354.132	83.5552
358.938	44.583
363.741	16.9465
368.541	34.6399
373.339	106.202
378.135	54.4097
382.928	5.70728
387.718	5.56982
392.506	2.12769
397.292	39.5855
402.075	1.28198
406.856	14.5164
411.634	4.30957
416.41	7.94604
421.183	16.4133
425.954	8.7981
430.722	42.3345
435.488	138.198
440.251	200.49
445.012	660.967
449.77	1699.69
454.526	3641.4
459.28	1683.61
464.03	1347.07
468.779	412.794
473.525	216.758
478.268	59.9519
483.009	52.3648
487.747	6.00561
492.483	5.18506
497.217	1.23511
501.948	29.874
506.676	56.8953
511.402	23.7021
516.125	22.5249
520.846	7.71191
525.565	7.0708
530.281	82.2371
534.994	47.719
539.705	53.6794
544.413	1.52295
549.119	30.3145
553.822	28.9163
558.523	84.1841
563.222	8.87183
567.917	11.6836
572.611	52.947
577.302	32.7737
581.99	35.092
586.676	59.4326
591.359	73.4285
596.04	91.7454
600.718	106.158
605.394	170.674
610.067	259.297
614.737	774.752
619.406	1397.98
624.071	909.076
628.734	1432.96
633.395	1742.28
638.053	569.506
642.708	296.073
647.361	203.539
652.012	193.335
656.66	87.5322
661.305	164.688
665.948	39.3621
670.588	98.8467
675.226	84.9873
679.861	33.5222
684.494	53.0727
689.124	52.3096
693.752	97.0857
698.377	32.1301
702.999	42.4958
707.619	106.444
712.237	71.093
716.852	58.5564
721.464	60.6851
726.074	67.9497
730.681	48.281
735.286	45.081
739.888	76.3923
744.488	19.5586
749.085	71.3425
753.68	33.2881
758.272	63.1211
762.861	63.9075
767.448	47.6282
772.033	34.3005
776.614	15.957
781.194	84.6504
785.77	42.0532
790.345	110.677
794.916	82.3294
799.485	59.9485
804.052	43.3328
808.616	55.907
813.177	73.446
817.736	42.7832
822.292	106.444
826.846	7.79346
831.397	26.5735
835.945	48.0193
840.491	49.8923
845.035	65.8521
849.576	38.929
854.114	42.6514
858.65	61.2253
863.183	30.1003
867.713	1.70337
872.241	89.1419
876.767	10.8887
881.29	8.81445
885.81	88.0227
890.328	92.5615
894.843	98.5835
899.356	69.1235
903.866	82.678
908.373	131.388
912.878	25.0642
917.38	62.8799
921.88	31.8796
926.377	99.8093
930.872	75.1248
935.364	129.614
939.853	116.525
944.34	52.9758
948.824	61.751
953.306	145.63
957.785	90.304
962.261	131.852
966.735	299.769
971.207	410.863
975.675	651.195
980.141	1723.21
984.605	9139.33
989.066	61577.4
993.524	9215.75
997.98	1637.12
1002.43	806.978
1006.88	408.47
1011.33	256.625
1015.78	238.442
1020.22	161.023
1024.66	133.662
1029.1	165.405
1033.53	117.195
1037.97	41.044
1042.4	27.9404
1046.82	75.8928
1051.25	100.808
1055.67	7.86426
1060.09	16.3555
1064.51	4.48779
1068.92	26.2695
1073.33	38.7935
1077.74	1.72852
1082.15	61.3252
1086.55	67.7808
1090.95	59.2744
1095.35	94.8462
1099.75	121.528
1104.14	306.273
1108.53	319.109
1112.92	90.0396
1117.31	118.277
1121.69	206.155
1126.07	197.285
1130.45	402.472
1134.82	915.75
1139.19	2195.15
1143.57	4552.62
1147.93	3607.64
1152.3	1331.26
1156.66	588.925
1161.02	226.649
1165.38	137.44
1169.73	141.949
1174.08	91.9956
1178.43	45.0874
1182.78	25.2368
1187.12	84.8877
1191.46	31.73
1195.8	9.54492
1200.14	55.9912
1204.47	13.5312
1208.8	31.0181
1213.13	21.4194
1217.46	69.2861
1221.78	13.4429
1226.1	50.3008
1230.42	28.542
1234.73	11.5161
1239.04	62.4717
1243.35	163.147
1247.66	79.0566
1251.97	83.8428
1256.27	155.592
1260.57	148.366
1264.86	120.127
1269.16	60.9409
1273.45	8.01807
1277.74	168.812
1282.03	96.6553
1286.31	102.508
1290.59	84.3706
1294.87	83.9722
1299.14	113.703
1303.42	108.587
1307.69	116.473
1311.95	147.361
1316.22	41.2617
1320.48	98.9941
1324.74	106.932
1329	42.8833
1333.26	48.5
1337.51	45.3584
1341.76	113.066
1346	65.9736
1350.25	4.85205
1354.49	30.7163
1358.73	140.537
1362.96	47.3086
1367.2	13.0991
1371.43	2.99219
1375.66	83.4951
1379.88	18.9321
1384.11	74.5772
1388.33	27.0083
1392.54	42.3613
1396.76	5.33594
1400.97	114.877
1405.18	62.1035
1409.39	58.2988
1413.59	41.4634
1417.8	4.36914
1421.99	68.2485
1426.19	78.7393
1430.38	50.6997
1434.58	140.876
1438.77	102.133
1442.95	156.309
1447.13	79.4497
1451.32	161.243
1455.49	171.743
1459.67	181.709
1463.84	124.978
1468.01	105.769
1472.18	93.4385
1476.35	109.068
1480.51	94.7812
1484.67	75.6426
1488.83	52.498
1492.98	83.0557
1497.13	72.938
1501.28	117.307
1505.43	30.9155
1509.57	15.3965
1513.71	44.7358
1517.85	156.236
1521.99	8.9126
1526.12	45.1577
1530.25	166.219
1534.38	34.4512
1538.5	23.5649
1542.62	72.9565
1546.74	56.8418
1550.86	137.56
1554.98	108.286
1559.09	36.4834
1563.2	78.5708
1567.31	1.78564
