Measurement: Raman, 514 nm, ccw, Raman Data Processed
Mineral: Baryte
Rruff sample: R040036
Ideal chemistry: BaSO_4_
Locality: Cumbria County, England
Source: University of Arizona Mineral Museum
Description: Golden brown tabular crystal
Measured chemistry: Ba_1.00_S_1.00_O_4_; trace amounts of Pb
Pin_id: M00019
Orientation: Laser parallel to b* (0 1 0). Fiducial mark perpendicular to laser is parallel to c [0 0 1]
Raman shift (cm-1)	intensity
26.288	0
30.504	7.287
34.717	32.375
38.929	39.601
43.138	53.337
47.345	63.194
51.551	76.016
55.754	87.537
59.955	101.483
64.154	88.819
68.351	58.052
72.546	27.25
76.739	15.508
80.93	6.215
85.119	10.618
89.306	19.756
93.49	13.305
97.673	30.613
101.854	43.779
106.032	42.139
110.209	87.689
114.384	109.326
118.556	163.974
122.727	116.588
126.895	92.099
131.062	123.498
135.226	126.705
139.388	121.77
143.549	156.678
147.707	229.686
151.863	400.874
156.018	352.819
160.17	238.023
164.32	155.182
168.469	109.24
172.615	137.17
176.759	141.223
180.901	226.06
185.041	443.62
189.18	659.823
193.316	398.587
197.45	187.925
201.582	127.988
205.712	103.583
209.84	74.93
213.967	50.922
218.091	66.79
222.213	66.215
226.333	61.208
230.451	63.356
234.567	58.686
238.682	58.574
242.794	25.425
246.904	62.06
251.012	35.456
255.118	40.682
259.223	38.247
263.325	34.477
267.425	30.576
271.523	12.181
275.62	17.754
279.714	34.307
283.806	18.846
287.897	18.369
291.985	8.879
296.072	10.375
300.156	11.855
304.239	19.32
308.319	22.77
312.398	22.204
316.474	16.24
320.549	14.029
324.622	19.415
328.692	6.752
332.761	4.036
336.828	8.272
340.893	24.468
344.956	27.631
349.017	12.783
353.076	3.063
357.133	13.025
361.188	6.088
365.241	4.177
369.292	6.253
373.341	10.302
377.388	14.359
381.434	19.397
385.477	27.505
389.519	32.563
393.558	29.705
397.596	25.781
401.631	17.914
405.665	4.063
409.697	21.175
413.727	19.221
417.755	24.18
421.781	36.19
425.805	49.291
429.827	79.332
433.847	123.284
437.865	245.207
441.882	583.153
445.896	1388.08
449.909	3189.05
453.919	3159
457.928	1377.03
461.935	727.011
465.94	350.918
469.943	139.897
473.944	79.79
477.943	43.65
481.94	30.562
485.935	25.608
489.929	9.647
493.92	2.574
497.91	18.523
501.898	13.49
505.883	4.41
509.867	5.318
513.849	24.25
517.829	26.251
521.808	23.261
525.784	27.363
529.758	9.444
533.731	8.558
537.701	22.676
541.67	16.824
545.637	15.911
549.602	34.082
553.565	22.144
557.526	38.007
561.486	27.888
565.443	26.207
569.399	19.838
573.352	29.969
577.304	21.187
581.254	27.014
585.202	46.111
589.148	40.44
593.093	29.726
597.035	38.843
600.976	66.395
604.914	97.452
608.851	158.699
612.786	561.9
616.719	1147.2
620.651	759.34
624.58	801.291
628.507	1488.22
632.433	1107.45
636.357	575.78
640.279	613.016
644.199	1094
648.117	1192.85
652.034	477.689
655.948	183.489
659.861	100.547
663.772	75.594
667.681	36.549
671.588	19.793
675.493	36.492
679.397	15.175
683.298	17.953
687.198	13.604
691.096	12.302
694.992	11.175
698.886	1.784
702.779	4.715
706.669	10.505
710.558	3.96
714.445	8.397
718.33	11.191
722.214	12.178
726.095	26.518
729.975	8.169
733.852	16.118
737.728	9.526
741.603	1.744
745.475	8.014
749.345	0.782
753.214	17.347
757.081	3.551
760.946	9.516
764.809	8.559
768.671	0.419
772.53	1.425
776.388	12.466
780.244	1.457
784.098	4.357
787.951	5.648
791.801	7.089
795.65	3.549
799.497	1.264
803.342	8.521
807.186	13.72
811.027	1.005
814.867	4.7
818.705	8.368
822.541	0.984
826.375	18.638
830.208	4.12
834.039	7.682
837.868	5.976
841.695	13.746
845.521	30.254
849.344	5.525
853.166	12.999
856.986	22.013
860.804	16.088
864.621	15.524
868.436	19.437
872.248	8.931
876.06	21.294
879.869	5.169
883.677	12.35
887.482	16.714
891.287	48.036
895.089	29
898.889	44.416
902.688	40.857
906.485	46.242
910.28	47.35
914.074	19.077
917.865	39.507
921.655	55.97
925.443	50.342
929.23	52.801
933.014	59.319
936.797	49.518
940.578	80.83
944.358	65.837
948.135	62.213
951.911	91.943
955.685	94.386
959.458	103.88
963.228	258.496
966.997	296.06
970.764	439.294
974.529	640.77
978.293	1329.13
982.055	4593.87
985.815	40458.6
989.573	24776.4
993.33	4345.25
997.085	1293.1
1000.84	713.981
1004.59	453.887
1008.34	328.812
1012.09	256.619
1015.83	202.616
1019.58	178.588
1023.32	137.57
1027.06	121.657
1030.8	84.778
1034.54	74.931
1038.27	67.115
1042.01	60.332
1045.74	45.587
1049.47	40.881
1053.2	60.211
1056.93	52.573
1060.65	32.969
1064.38	32.398
1068.1	11.862
1071.82	1.368
1075.54	31.916
1079.25	44.509
1082.97	67.146
1086.68	42.818
1090.39	26.529
1094.11	95.277
1097.81	155.062
1101.52	369.884
1105.22	329.742
1108.93	155.641
1112.63	105.576
1116.33	118.542
1120.03	157.537
1123.72	251.126
1127.42	408.626
1131.11	746.719
1134.8	1963.84
1138.49	3535.99
1142.18	4300.17
1145.87	3192.38
1149.55	1610.61
1153.23	781.874
1156.91	554.165
1160.59	690.5
1164.27	1149.84
1167.95	1013.21
1171.62	562.712
1175.3	294.62
1178.97	171.052
1182.64	93.508
1186.3	72.016
1189.97	82.636
1193.63	48.274
1197.3	46.847
1200.96	32.867
1204.62	47.916
1208.27	43.226
1211.93	20.156
1215.58	61.121
1219.24	43.281
1222.89	38.352
1226.54	35.203
1230.18	38.353
1233.83	57.008
1237.47	57.108
1241.12	59.986
1244.76	46.63
1248.4	51.298
1252.04	27.985
1255.67	35.015
1259.31	23.135
1262.94	18.819
1266.57	44.534
1270.2	13.36
1273.83	7.138
1277.45	29.864
1281.08	25.766
1284.7	17.473
1288.32	8.335
1291.94	31.093
1295.56	16.863
1299.17	6.497
1302.79	8.883
1306.4	14.707
1310.01	24.273
1313.62	2.17
1317.23	36.372
1320.84	25.882
1324.44	28.374
1328.04	11.157
1331.64	8.721
1335.24	14.322
1338.84	6.961
1342.44	14.628
1346.03	5.324
1349.63	8.049
1353.22	6.194
1356.81	14.407
1360.4	9.593
1363.98	3.245
1367.57	1.998
1371.15	10.115
1374.73	11.202
1378.32	13.588
1381.89	6.252
1385.47	14.895
1389.05	19.524
1392.62	21.137
1396.19	0.27
1399.76	23.28
1403.33	22.693
1406.9	2.574
1410.46	13.018
1414.03	8.134
1417.59	3.811
1421.15	12.32
1424.71	21.485
1428.27	30.032
1431.82	49.87
1435.38	35.066
1438.93	87.641
1442.48	82.516
1446.03	88.609
1449.58	100.21
1453.13	88.205
1456.67	106.948
1460.21	73.604
1463.76	58.084
1467.3	55.143
1470.83	61.219
1474.37	55.172
1477.91	55.137
1481.44	24.071
1484.97	20.135
1488.5	27.241
1492.03	17.416
1495.56	18.729
1499.08	10.857
1502.61	0
