Measurement: Raman, 514 nm, ccw, Raman Data Processed
Mineral: Baryte
Rruff sample: R040036
Ideal chemistry: BaSO_4_
Locality: Cumbria County, England
Source: University of Arizona Mineral Museum
Description: Golden brown tabular crystal
Measured chemistry: Ba_1.00_S_1.00_O_4_; trace amounts of Pb
Pin_id: M00028
Orientation: Laser parallel to -a* (-1 0 0). Fiducial mark perpendicular to laser is parallel to -b [0 -1 0]
Raman shift (cm-1)	intensity
26.288	0
30.504	34.988
34.717	39.575
38.929	20.967
43.138	51.049
47.345	61.387
51.551	65.114
55.754	47.81
59.955	45.929
64.154	31.367
68.351	14.043
72.546	18.254
76.739	20.534
80.93	19.842
85.119	8.862
89.306	4.591
93.49	19.336
97.673	10.907
101.854	2.852
106.032	57.576
110.209	76.183
114.384	137.883
118.556	171.606
122.727	196.288
126.895	184.881
131.062	165.388
135.226	177.76
139.388	185.967
143.549	181.121
147.707	241.28
151.863	365.459
156.018	361.646
160.17	194.864
164.32	179.055
168.469	175.25
172.615	110.448
176.759	105.59
180.901	161.395
185.041	134.91
189.18	159.075
193.316	174.931
197.45	146.44
201.582	103.639
205.712	96.531
209.84	127.12
213.967	97.224
218.091	84.007
222.213	103.624
226.333	127.055
230.451	91.65
234.567	72.918
238.682	93.576
242.794	104.7
246.904	69.803
251.012	35.54
255.118	89.477
259.223	102.728
263.325	71.988
267.425	65.357
271.523	93.106
275.62	56.357
279.714	60.415
283.806	58.859
287.897	65.113
291.985	53.371
296.072	30.634
300.156	38.901
304.239	95.173
308.319	52.45
312.398	37.731
316.474	51.016
320.549	72.307
324.622	23.597
328.692	17.86
332.761	69.094
336.828	46.304
340.893	15.494
344.956	11.669
349.017	46.834
353.076	32.994
357.133	40.161
361.188	7.323
365.241	33.594
369.292	56.779
373.341	8.981
377.388	16.803
381.434	32.422
385.477	27.675
389.519	33.954
393.558	14.275
397.596	40.626
401.631	50.999
405.665	26.381
409.697	13.887
413.727	18.284
417.755	58.68
421.781	33.078
425.805	32.486
429.827	70.903
433.847	101.304
437.865	164.743
441.882	255.188
445.896	652.642
449.909	1895.1
453.919	3478.57
457.928	1858.05
461.935	830.541
465.94	449.026
469.943	224.531
473.944	102.045
477.943	44.541
481.94	76.069
485.935	58.553
489.929	59.074
493.92	20.619
497.91	33.171
501.898	50.673
505.883	30.208
509.867	24.739
513.849	15.311
517.829	43.87
521.808	69.049
525.784	30.634
529.758	30.022
533.731	37.5
537.701	68.098
541.67	43.495
545.637	23.241
549.602	5.178
553.565	50.519
557.526	65.005
561.486	21.857
565.443	20.823
569.399	29.449
573.352	82.547
577.304	62.128
581.254	31.126
585.202	38.146
589.148	89.718
593.093	142.542
597.035	149.468
600.976	135.422
604.914	210.436
608.851	387.125
612.786	1105.95
616.719	3151.65
620.651	2321.45
624.58	1135.94
628.507	1056.54
632.433	922.014
636.357	341.785
640.279	131.23
644.199	130.922
648.117	132.612
652.034	130.924
655.948	78.719
659.861	32.101
663.772	51.472
667.681	51.833
671.588	63.182
675.493	9.846
679.397	15.06
683.298	30.439
687.198	63.71
691.096	50.927
694.992	14.15
698.886	18.427
702.779	11.775
706.669	38.941
710.558	44.084
714.445	14.201
718.33	14.702
722.214	3.636
726.095	45.409
729.975	47.434
733.852	0.4
737.728	14.422
741.603	0.473
745.475	18.454
749.345	52.357
753.214	17.237
757.081	9.904
760.946	4.93
764.809	10.75
768.671	51.556
772.53	31.346
776.388	7.118
780.244	5.126
784.098	6.613
787.951	69.335
791.801	71.042
795.65	14.731
799.497	12.407
803.342	7.073
807.186	65.73
811.027	32.365
814.867	20.942
818.705	8.881
822.541	0.345
826.375	41.779
830.208	46.322
834.039	26.792
837.868	5.839
841.695	8.153
845.521	9.33
849.344	39.843
853.166	97.878
856.986	91.006
860.804	50.393
864.621	41.659
868.436	22.205
872.248	45.407
876.06	75.264
879.869	63.738
883.677	20.906
887.482	21.311
891.287	66.575
895.089	122.667
898.889	119.241
902.688	66.834
906.485	32.32
910.28	41.933
914.074	88.245
917.865	98.721
921.655	97.271
925.443	81.675
929.23	66.36
933.014	41.67
936.797	80.402
940.578	140.148
944.358	145.906
948.135	95.679
951.911	83.141
955.685	78.965
959.458	149.79
963.228	250.638
966.997	401.437
970.764	432.328
974.529	597.03
978.293	968.955
982.055	2642.04
985.815	16664.1
989.573	49522.2
993.33	8550.38
997.085	1968.44
1000.84	935.516
1004.59	571.729
1008.34	375.69
1012.09	352.838
1015.83	294.01
1019.58	320.206
1023.32	283.425
1027.06	223.669
1030.8	225.939
1034.54	199.268
1038.27	175.821
1042.01	148.356
1045.74	99.734
1049.47	95.296
1053.2	79.817
1056.93	204.474
1060.65	99.672
1064.38	125.688
1068.1	104.923
1071.82	97.422
1075.54	95.935
1079.25	128.472
1082.97	287.021
1086.68	327.591
1090.39	203.191
1094.11	141.814
1097.81	100.129
1101.52	180.788
1105.22	187.459
1108.93	103.146
1112.63	45.846
1116.33	66.558
1120.03	56.281
1123.72	58.012
1127.42	35.747
1131.11	10.864
1134.8	8.384
1138.49	123.382
1142.18	324.171
1145.87	386.969
1149.55	274.773
1153.23	87.586
1156.91	33.406
1160.59	23.4
1164.27	2.691
1167.95	47.158
1171.62	59.995
1175.3	96.865
1178.97	31.694
1182.64	51.52
1186.3	10.658
1189.97	32.844
1193.63	0.948
1197.3	22.733
1200.96	54.692
1204.62	91.439
1208.27	101.307
1211.93	69.399
1215.58	23.132
1219.24	22.861
1222.89	30.052
1226.54	56.324
1230.18	85.32
1233.83	68.017
1237.47	107.688
1241.12	96.463
1244.76	57.118
1248.4	35.12
1252.04	18.765
1255.67	43.302
1259.31	59.759
1262.94	81.415
1266.57	73.682
1270.2	121.194
1273.83	110.788
1277.45	70.368
1281.08	24.108
1284.7	17.758
1288.32	31.496
1291.94	64.048
1295.56	144.64
1299.17	86.147
1302.79	109.39
1306.4	59.647
1310.01	49.068
1313.62	28.308
1317.23	19.35
1320.84	51.985
1324.44	77.333
1328.04	98.083
1331.64	142.61
1335.24	110.859
1338.84	73.085
1342.44	37.278
1346.03	31.453
1349.63	14.397
1353.22	17.277
1356.81	34.815
1360.4	51.213
1363.98	89.266
1367.57	118.307
1371.15	77.456
1374.73	69.448
1378.32	48.683
1381.89	47.107
1385.47	20.114
1389.05	6.463
1392.62	28.776
1396.19	27.06
1399.76	87.015
1403.33	95.219
1406.9	51.381
1410.46	91.582
1414.03	49.795
1417.59	12.741
1421.15	1.801
1424.71	35.472
1428.27	13.897
1431.82	52.573
1435.38	91.691
1438.93	117.621
1442.48	177.613
1446.03	205.653
1449.58	191.729
1453.13	179.243
1456.67	133.391
1460.21	102.053
1463.76	78.968
1467.3	34.152
1470.83	64.292
1474.37	47.309
1477.91	114.258
1481.44	124.453
1484.97	144.792
1488.5	109.213
1492.03	74.851
1495.56	37.798
1499.08	2.267
1502.61	0
