Measurement: Raman, 514 nm, ccw, Raman Data Processed
Mineral: Baryte
Rruff sample: R050335
Ideal chemistry: BaSO_4_
Locality: Bullion Mountains, San Bernardino County, California, USA
Source: California Institute of Technology
Description: Colorless cleavage fragment
Measured chemistry: (Ba_0.95_Sr_0.05_)_Î£=1_S_1.00_O_4_
Pin_id: M00253
Orientation: Laser parallel to -b* (0 -1 0). Fiducial mark perpendicular to laser is parallel to -c [0 0 -1]
Raman shift (cm-1)	intensity
93.48	0
98.416	206.852
103.349	273.785
108.28	202.959
113.208	85.1494
118.134	162.204
123.058	184.851
127.979	506.828
132.898	815.655
137.814	1535.01
142.728	1753.03
147.639	1296.27
152.549	940.118
157.455	607.679
162.359	359.687
167.261	290.554
172.161	348.536
177.058	299.604
181.952	462.132
186.845	519.367
191.734	572.273
196.622	363.999
201.507	192.951
206.389	200.125
211.269	109.813
216.147	78.4106
221.022	111.052
225.895	55.8101
230.765	125.627
235.633	158.807
240.498	67.1733
245.361	232.185
250.222	101.118
255.08	197.783
259.936	159.677
264.789	126.512
269.64	151.251
274.488	159.722
279.334	177.509
284.178	66.4092
289.019	76.2852
293.857	88.1382
298.693	8.9209
303.527	44.9976
308.358	12.1733
313.187	7.52148
318.013	73.9639
322.837	135.695
327.659	77.5498
332.478	16.5859
337.294	59.7793
342.108	57.1299
346.92	10.6289
351.729	94.7168
356.535	28.2178
361.34	31.0732
366.141	143.806
370.94	0.59082
375.737	51.2881
380.531	23.9121
385.323	62.6201
390.113	104.828
394.9	114.127
399.684	131.449
404.466	135.936
409.245	48.5801
414.022	65.5732
418.797	14.5215
423.569	8.58008
428.338	69.0693
433.105	153.06
437.87	276.075
442.632	1059.08
447.391	2217.77
452.149	3804.97
456.903	2737.87
461.655	1615.97
466.405	746.206
471.152	256.669
475.897	158.214
480.639	184.403
485.378	73.7686
490.116	58.4443
494.85	139.871
499.582	3.97363
504.312	89.7422
509.039	158.906
513.764	210.656
518.486	296.819
523.206	37.5449
527.923	71.4785
532.638	28.2861
537.35	198.107
542.059	119.957
546.766	103.001
551.471	85.7578
556.173	34.7842
560.873	37.0693
565.57	226.819
570.264	46.5176
574.957	52.042
579.646	6.47168
584.333	27.0801
589.018	195.464
593.7	77.3428
598.379	9.64844
603.056	216.325
607.73	564.584
612.402	885.814
617.072	1536.09
621.739	1347.27
626.403	1392.62
631.065	2088.2
635.724	1329.49
640.381	622.662
645.035	767.218
649.687	569.251
654.336	374.672
658.983	336.117
663.627	199.606
668.268	143.736
672.907	175.634
677.544	207.94
682.178	168.218
686.809	197.094
691.438	200.194
696.065	25.4619
700.688	135.891
705.31	127.085
709.929	117.653
714.545	102.698
719.158	102.443
723.77	183.184
728.378	141.224
732.984	44.0879
737.588	100.769
742.189	59.0137
746.787	131.708
751.383	24.2686
755.976	54.5996
760.567	19.3701
765.155	24.127
769.741	89.4834
774.324	245.864
778.904	172.079
783.482	128.231
788.058	93.4678
792.631	39.6699
797.201	76.5254
801.769	154.151
806.334	32.3652
810.897	73.083
815.457	32.377
820.014	187.5
824.569	43.5166
829.122	73.0537
833.671	28.6006
838.219	59.4121
842.763	155.357
847.306	121.348
851.845	169.24
856.382	44.0293
860.917	5.25098
865.448	165.043
869.978	11.7842
874.505	170.154
879.029	22.2002
883.55	119.969
888.069	161.397
892.586	108.65
897.1	1.92188
901.611	107.306
906.12	484.711
910.626	90.0147
915.129	280.137
919.63	19.4346
924.129	103.358
928.625	32.4785
933.118	111.124
937.609	133.335
942.097	128.956
946.582	69.1709
951.065	101.794
955.546	128.009
960.023	268.272
964.499	278.931
968.971	459.935
973.441	820.143
977.909	1856.4
982.374	9677.63
986.836	38283.8
991.295	32624.8
995.753	3415.8
1000.21	1241.08
1004.66	452.657
1009.11	387.715
1013.55	207.777
1018	78.8262
1022.44	132.156
1026.88	133.603
1031.32	89.5225
1035.75	81.2568
1040.18	100.801
1044.61	69.2363
1049.04	66.2676
1053.46	184.911
1057.88	178.32
1062.3	30.3799
1066.71	190.887
1071.13	92.7725
1075.54	91.6191
1079.94	264.591
1084.35	455.932
1088.75	190.685
1093.15	70.4033
1097.55	131.092
1101.94	329.184
1106.34	270.352
1110.73	212.576
1115.11	177.857
1119.5	230.967
1123.88	492.309
1128.26	459.971
1132.63	1273.54
1137.01	2561.27
1141.38	4369.23
1145.75	4751.43
1150.12	2468.64
1154.48	1242.95
1158.84	828.221
1163.2	779.604
1167.55	868.055
1171.91	707.568
1176.26	398.609
1180.61	387.996
1184.95	204.41
1189.29	182.471
1193.63	154.289
1197.97	243.15
1202.31	168.227
1206.64	54.6484
1210.97	281.545
1215.29	163.766
1219.62	146.742
1223.94	126.75
1228.26	10.9863
1232.57	74.8438
1236.89	114.949
1241.2	59.334
1245.51	68.3477
1249.81	11.2949
1254.12	39.0156
1258.42	308.994
1262.72	73.9336
1267.01	178.74
1271.3	177.309
1275.59	225.629
1279.88	247.24
1284.17	114.184
1288.45	200.527
1292.73	353.416
1297.01	99.584
1301.28	235.535
1305.55	328.674
1309.82	309.978
1314.09	236.748
1318.35	149.764
1322.61	163.383
1326.87	54.8262
1331.13	203.674
1335.38	275.217
1339.63	113.932
1343.88	141.088
1348.12	100.107
1352.37	97.5137
1356.61	44.2188
1360.85	185.106
1365.08	59.8926
1369.31	228.922
1373.54	230.44
1377.77	87.4551
1381.99	227.66
1386.22	329.195
1390.43	25.7891
1394.65	114.762
1398.87	158.328
1403.08	310.877
1407.29	97.0098
1411.49	175.861
1415.69	120.539
1419.89	333.922
1424.09	19.8301
1428.29	172.992
1432.48	123.988
1436.67	266.852
1440.86	229.91
1445.04	227.332
1449.23	196.092
1453.4	81.5449
1457.58	150.742
1461.76	155.934
1465.93	220.285
1470.1	111.137
1474.26	145.602
1478.43	54.9707
1482.59	31.8555
1486.75	84.4922
1490.9	54.2012
1495.06	213.293
1499.21	43.6992
1503.35	114.258
1507.5	96.0156
1511.64	223.652
1515.78	12.3906
1519.92	77.1309
1524.05	98.2051
1528.18	129.697
1532.31	123.635
1536.44	134.574
1540.56	217.85
1544.69	100.002
1548.8	135.443
1552.92	258.812
1557.03	121.568
1561.14	130.643
1565.25	226.152
1569.36	44.4824
