Measurement: Raman, 514 nm, ccw, Raman Data Processed
Mineral: Baryte
Rruff sample: R040036
Ideal chemistry: BaSO_4_
Locality: Cumbria County, England
Source: University of Arizona Mineral Museum
Description: Golden brown tabular crystal
Measured chemistry: Ba_1.00_S_1.00_O_4_; trace amounts of Pb
Pin_id: M00021
Orientation: Laser parallel to c* (0 0 1). Fiducial mark perpendicular to laser is parallel to -a [-1 0 0]
Raman shift (cm-1)	intensity
26.288	0
30.504	34.146
34.717	8.757
38.929	92.606
43.138	180.232
47.345	249.821
51.551	145.693
55.754	169.66
59.955	182.287
64.154	150.115
68.351	148.416
72.546	125.953
76.739	63.655
80.93	38.057
85.119	4.294
89.306	24.647
93.49	36.321
97.673	32.885
101.854	11.893
106.032	31.717
110.209	64.624
114.384	91.68
118.556	110.432
122.727	148.374
126.895	233.52
131.062	202.654
135.226	153.79
139.388	149.42
143.549	197.201
147.707	310.577
151.863	393.852
156.018	310.816
160.17	212.847
164.32	148.651
168.469	95.991
172.615	96.103
176.759	98.827
180.901	87.654
185.041	86.515
189.18	138.168
193.316	142.377
197.45	112.691
201.582	116.003
205.712	100.302
209.84	113.577
213.967	97.637
218.091	107.885
222.213	102.575
226.333	109.133
230.451	115.101
234.567	116.452
238.682	97.176
242.794	65.274
246.904	72.582
251.012	57.152
255.118	80.037
259.223	82.629
263.325	71.384
267.425	61.447
271.523	63.74
275.62	72.3
279.714	65.773
283.806	59.075
287.897	43.079
291.985	57.234
296.072	58.311
300.156	52.305
304.239	60.223
308.319	54.063
312.398	59.706
316.474	54.851
320.549	49.653
324.622	26.348
328.692	33.008
332.761	69.452
336.828	60.145
340.893	32.948
344.956	42.191
349.017	55.292
353.076	55.277
357.133	35.288
361.188	45.968
365.241	45.661
369.292	32.336
373.341	30.04
377.388	39.861
381.434	39.627
385.477	32.21
389.519	39.795
393.558	40.387
397.596	41.89
401.631	33.616
405.665	15.335
409.697	39.128
413.727	45.825
417.755	40.494
421.781	42.022
425.805	56.687
429.827	59.245
433.847	96.547
437.865	145.084
441.882	285.518
445.896	670.853
449.909	1720.35
453.919	2799.79
457.928	2210.29
461.935	3261.7
465.94	1563.11
469.943	516.338
473.944	208.508
477.943	133.043
481.94	108.53
485.935	64.842
489.929	70.207
493.92	42.659
497.91	43.122
501.898	26.771
505.883	40.856
509.867	31.329
513.849	42.781
517.829	54.14
521.808	49.162
525.784	38.08
529.758	26.529
533.731	55.007
537.701	35.692
541.67	27.329
545.637	24.961
549.602	37.023
553.565	22.767
557.526	18.749
561.486	30.669
565.443	14.911
569.399	23.654
573.352	33.566
577.304	34.696
581.254	53.753
585.202	50.493
589.148	89.22
593.093	83.133
597.035	117.827
600.976	145.544
604.914	237.192
608.851	468.86
612.786	1367.99
616.719	3587.77
620.651	2220.57
624.58	1167.21
628.507	1185.84
632.433	853.589
636.357	301.354
640.279	122.004
644.199	150.134
648.117	152.691
652.034	105.508
655.948	44.097
659.861	47.782
663.772	14.475
667.681	8.006
671.588	3.837
675.493	2.414
679.397	23.274
683.298	18.871
687.198	4.333
691.096	4.97
694.992	14.42
698.886	8.11
702.779	4.44
706.669	3.812
710.558	5.921
714.445	14.629
718.33	0.366
722.214	3.875
726.095	12.092
729.975	5.709
733.852	0.466
737.728	6.222
741.603	11.231
745.475	13.873
749.345	7.049
753.214	0.995
757.081	13.034
760.946	5.044
764.809	3.036
768.671	6.011
772.53	8.969
776.388	18.907
780.244	4.173
784.098	17.725
787.951	3.399
791.801	1.541
795.65	6.298
799.497	6.124
803.342	22.932
807.186	20.711
811.027	1.587
814.867	8.076
818.705	6.184
822.541	10.434
826.375	3.01
830.208	19.945
834.039	1.235
837.868	10.345
841.695	2.755
845.521	27.337
849.344	28.77
853.166	20.972
856.986	20.463
860.804	63.739
864.621	49.323
868.436	12.737
872.248	24.229
876.06	10.847
879.869	12.108
883.677	29.039
887.482	40.459
891.287	34.725
895.089	73.264
898.889	83.73
902.688	48.337
906.485	70.98
910.28	69.489
914.074	63.982
917.865	88.491
921.655	45.725
925.443	57.332
929.23	62.822
933.014	61.538
936.797	90.129
940.578	124.789
944.358	104.465
948.135	97.884
951.911	116.449
955.685	133.928
959.458	162.736
963.228	305.56
966.997	439.138
970.764	533.868
974.529	736.572
978.293	1313.45
982.055	3890.38
985.815	31914.3
989.573	45142.3
993.33	7172.42
997.085	1906.44
1000.84	993.482
1004.59	630.546
1008.34	456.633
1012.09	383.735
1015.83	334.865
1019.58	307.026
1023.32	333.211
1027.06	405.421
1030.8	402.655
1034.54	191.912
1038.27	118.192
1042.01	92.496
1045.74	78.823
1049.47	69.174
1053.2	75.013
1056.93	102.667
1060.65	93.247
1064.38	88.19
1068.1	101.668
1071.82	62.165
1075.54	101.694
1079.25	194.555
1082.97	394.128
1086.68	273.726
1090.39	108.35
1094.11	70.004
1097.81	57.682
1101.52	120.384
1105.22	148.113
1108.93	63.861
1112.63	17.63
1116.33	31.424
1120.03	41.238
1123.72	25.067
1127.42	2.114
1131.11	23.776
1134.8	119.657
1138.49	280.552
1142.18	407.462
1145.87	391.39
1149.55	233.335
1153.23	100.293
1156.91	56.265
1160.59	62.249
1164.27	72.245
1167.95	66.251
1171.62	45.522
1175.3	37.547
1178.97	29.58
1182.64	23.38
1186.3	10.347
1189.97	14.686
1193.63	6.27
1197.3	8.165
1200.96	1.274
1204.62	0.7
1208.27	9.426
1211.93	5.861
1215.58	30.226
1219.24	42.364
1222.89	20.928
1226.54	14.586
1230.18	33.634
1233.83	34.247
1237.47	50.341
1241.12	39.386
1244.76	44.975
1248.4	33.233
1252.04	46.27
1255.67	48.266
1259.31	26.531
1262.94	30.831
1266.57	58.812
1270.2	57.113
1273.83	45.055
1277.45	42.408
1281.08	33.391
1284.7	22.37
1288.32	12.509
1291.94	61.495
1295.56	47.414
1299.17	47.341
1302.79	15.213
1306.4	22.06
1310.01	31.885
1313.62	40.239
1317.23	38.84
1320.84	33.478
1324.44	39.966
1328.04	29.236
1331.64	21.884
1335.24	21.495
1338.84	4.934
1342.44	9.668
1346.03	15.863
1349.63	0.367
1353.22	22.162
1356.81	18.274
1360.4	4.314
1363.98	11.071
1367.57	18.433
1371.15	8.786
1374.73	19.117
1378.32	3.781
1381.89	18.601
1385.47	1.391
1389.05	8.838
1392.62	18.899
1396.19	9.609
1399.76	8.291
1403.33	4.627
1406.9	7.256
1410.46	11.875
1414.03	2.516
1417.59	4.387
1421.15	25.613
1424.71	22.222
1428.27	45.881
1431.82	37.991
1435.38	38.095
1438.93	85.205
1442.48	91.821
1446.03	120.123
1449.58	117.415
1453.13	157.572
1456.67	138.197
1460.21	105.073
1463.76	101.243
1467.3	62.409
1470.83	69.628
1474.37	50.841
1477.91	48.021
1481.44	54.287
1484.97	56.654
1488.5	20.089
1492.03	5.656
1495.56	0.559
1499.08	7.611
1502.61	0
