Measurement: Raman, 514 nm, ccw, Raman Data Processed
Mineral: Baryte
Rruff sample: R040036
Ideal chemistry: BaSO_4_
Locality: Cumbria County, England
Source: University of Arizona Mineral Museum
Description: Golden brown tabular crystal
Measured chemistry: Ba_1.00_S_1.00_O_4_; trace amounts of Pb
Pin_id: M00021
Orientation: Laser parallel to c* (0 0 1). Fiducial mark perpendicular to laser is parallel to -a [-1 0 0]
Raman shift (cm-1)	intensity
26.288	0
30.504	14.256
34.717	28.066
38.929	27.248
43.138	60.732
47.345	108.204
51.551	34.732
55.754	12.083
59.955	0.485
64.154	3.919
68.351	10.391
72.546	10.279
76.739	133.006
80.93	111.767
85.119	222.564
89.306	450.398
93.49	620.271
97.673	842.183
101.854	723.139
106.032	633.207
110.209	538.361
114.384	549.542
118.556	445.708
122.727	399.808
126.895	393.846
131.062	355.907
135.226	292.998
139.388	274.117
143.549	270.265
147.707	371.444
151.863	518.652
156.018	478.89
160.17	338.157
164.32	252.454
168.469	221.781
172.615	213.138
176.759	205.052
180.901	201.324
185.041	291.497
189.18	464.433
193.316	345.139
197.45	199.583
201.582	141.809
205.712	148.851
209.84	134.488
213.967	103.976
218.091	100.914
222.213	99.442
226.333	101.865
230.451	99.33
234.567	96.799
238.682	95.307
242.794	85.821
246.904	74.357
251.012	86.914
255.118	95.516
259.223	78.118
263.325	88.798
267.425	57.439
271.523	96.102
275.62	78.786
279.714	52.495
283.806	41.228
287.897	46.985
291.985	39.764
296.072	42.567
300.156	27.392
304.239	20.24
308.319	50.11
312.398	19.003
316.474	37.917
320.549	41.854
324.622	7.809
328.692	30.773
332.761	35.747
336.828	4.734
340.893	14.738
344.956	17.762
349.017	14.81
353.076	28.884
357.133	17.989
361.188	0.128
365.241	2.308
369.292	1.528
373.341	5.771
377.388	1.036
381.434	13.323
385.477	17.629
389.519	18.957
393.558	35.306
397.596	35.676
401.631	35.357
405.665	7.213
409.697	12.246
413.727	26.74
417.755	39.26
421.781	45.817
425.805	65.577
429.827	110.205
433.847	147.866
437.865	283.547
441.882	426.251
445.896	860.982
449.909	2136.74
453.919	3793.5
457.928	4764.28
461.935	11006.1
465.94	6041.87
469.943	1691.68
473.944	691.511
477.943	385.351
481.94	251.198
485.935	196.05
489.929	160.907
493.92	83.77
497.91	91.645
501.898	56.535
505.883	54.427
509.867	40.323
513.849	42.186
517.829	76.08
521.808	58.952
525.784	60.839
529.758	49.705
533.731	52.641
537.701	37.619
541.67	41.896
545.637	47.689
549.602	27.112
553.565	10.278
557.526	26.699
561.486	17.718
565.443	35.805
569.399	49.955
573.352	43.234
577.304	29.34
581.254	51.735
585.202	50.131
589.148	91.075
593.093	102.695
597.035	91.309
600.976	104.869
604.914	157.385
608.851	234.332
612.786	516.038
616.719	1551.22
620.651	1133.62
624.58	843.021
628.507	1256.37
632.433	1311.71
636.357	567.428
640.279	376.435
644.199	436.237
648.117	614.442
652.034	364.6
655.948	176.719
659.861	90.778
663.772	44.812
667.681	47.771
671.588	38.69
675.493	12.568
679.397	19.4
683.298	3.814
687.198	6.377
691.096	2.723
694.992	5.142
698.886	3.63
702.779	15.183
706.669	3.179
710.558	14.706
714.445	3.51
718.33	3.38
722.214	2.306
726.095	7.295
729.975	19.644
733.852	14.527
737.728	24.891
741.603	2.171
745.475	35.926
749.345	30.636
753.214	4.302
757.081	20.914
760.946	12.48
764.809	13.008
768.671	24.498
772.53	14.951
776.388	8.637
780.244	17.282
784.098	18.014
787.951	34.273
791.801	26.499
795.65	9.692
799.497	31.854
803.342	27.986
807.186	31.088
811.027	47.161
814.867	28.098
818.705	25.041
822.541	40.358
826.375	28.306
830.208	38.698
834.039	35.225
837.868	20.558
841.695	42.958
845.521	70.939
849.344	98.011
853.166	128.581
856.986	114.035
860.804	202.19
864.621	141.172
868.436	108.023
872.248	65.808
876.06	84.617
879.869	80.308
883.677	31.792
887.482	63.595
891.287	52.09
895.089	91.225
898.889	106.013
902.688	90.806
906.485	76.624
910.28	82.415
914.074	66.485
917.865	76.355
921.655	117.103
925.443	79.916
929.23	57.797
933.014	56.695
936.797	57.621
940.578	69.873
944.358	106.477
948.135	108.45
951.911	100.442
955.685	102.454
959.458	144.492
963.228	200.571
966.997	375.681
970.764	425.833
974.529	638.017
978.293	1023.24
982.055	2929.51
985.815	19776.8
989.573	48012.2
993.33	6021.57
997.085	1673
1000.84	920.462
1004.59	683.97
1008.34	379.509
1012.09	327.075
1015.83	307.671
1019.58	317.3
1023.32	307.96
1027.06	327.652
1030.8	381.384
1034.54	172.147
1038.27	123.94
1042.01	93.763
1045.74	65.616
1049.47	52.507
1053.2	70.44
1056.93	45.411
1060.65	9.413
1064.38	1.212
1068.1	2.203
1071.82	14.66
1075.54	33.302
1079.25	59.512
1082.97	146.705
1086.68	135.927
1090.39	64.177
1094.11	105.992
1097.81	139.33
1101.52	221.691
1105.22	247.086
1108.93	80.517
1112.63	52.98
1116.33	53.467
1120.03	104.98
1123.72	159.519
1127.42	223.081
1131.11	397.668
1134.8	909.95
1138.49	1878.91
1142.18	3053.56
1145.87	3070.25
1149.55	1549.95
1153.23	725.681
1156.91	399.424
1160.59	270.185
1164.27	339.965
1167.95	388.764
1171.62	215.579
1175.3	132.407
1178.97	75.248
1182.64	30.1
1186.3	16.963
1189.97	18.835
1193.63	6.715
1197.3	34.46
1200.96	17.353
1204.62	9.214
1208.27	1.16
1211.93	19.196
1215.58	15.054
1219.24	30.954
1222.89	4.185
1226.54	27.3
1230.18	10.582
1233.83	33.157
1237.47	103.488
1241.12	111.138
1244.76	85.961
1248.4	98.823
1252.04	58.163
1255.67	19.987
1259.31	13.172
1262.94	72.999
1266.57	89.825
1270.2	121.208
1273.83	106.651
1277.45	107.877
1281.08	38.733
1284.7	26.563
1288.32	37.389
1291.94	60.233
1295.56	74.495
1299.17	71.318
1302.79	53.07
1306.4	51.762
1310.01	70.41
1313.62	83.036
1317.23	75.634
1320.84	109.206
1324.44	49.751
1328.04	82.235
1331.64	41.625
1335.24	2.954
1338.84	3.885
1342.44	15.155
1346.03	9.873
1349.63	14.688
1353.22	15.848
1356.81	8.449
1360.4	35.672
1363.98	22.781
1367.57	23.871
1371.15	11.956
1374.73	16.079
1378.32	34.624
1381.89	11.316
1385.47	34.985
1389.05	41.627
1392.62	13.217
1396.19	7.219
1399.76	3.318
1403.33	9.817
1406.9	15.293
1410.46	22.751
1414.03	29.194
1417.59	8.652
1421.15	6.538
1424.71	40.611
1428.27	56.978
1431.82	84.763
1435.38	157.772
1438.93	212.364
1442.48	366.297
1446.03	369.453
1449.58	403.253
1453.13	415.964
1456.67	380.087
1460.21	358.024
1463.76	313.18
1467.3	230.48
1470.83	201.131
1474.37	135.735
1477.91	215.217
1481.44	170.949
1484.97	129.88
1488.5	138.167
1492.03	86.89
1495.56	1.433
1499.08	31.578
1502.61	0
