Measurement: Raman, 514 nm, ccw, Raman Data Processed
Mineral: Baryte
Rruff sample: R050335
Ideal chemistry: BaSO_4_
Locality: Bullion Mountains, San Bernardino County, California, USA
Source: California Institute of Technology
Description: Colorless cleavage fragment
Measured chemistry: (Ba_0.95_Sr_0.05_)_Î£=1_S_1.00_O_4_
Pin_id: M00253
Orientation: Laser parallel to -b* (0 -1 0). Fiducial mark perpendicular to laser is parallel to -c [0 0 -1]
Raman shift (cm-1)	intensity
93.48	0
98.416	66.624
103.349	266.907
108.28	234.679
113.208	103.752
118.134	113.747
123.058	125.385
127.979	252.179
132.898	542.777
137.814	952.862
142.728	1624.91
147.639	1162.22
152.549	527.288
157.455	388.504
162.359	196.403
167.261	258.068
172.161	132.135
177.058	230.283
181.952	205.082
186.845	234.851
191.734	223.375
196.622	214.526
201.507	127.403
206.389	141.972
211.269	63.0161
216.147	131.507
221.022	82.7153
225.895	149.83
230.765	15.6387
235.633	191.385
240.498	15.0342
245.361	113.687
250.222	100.626
255.08	1.42627
259.936	186.203
264.789	82.8418
269.64	2.14844
274.488	46.6836
279.334	222.754
284.178	65.7456
289.019	139.939
293.857	114.47
298.693	75.3125
303.527	26.6255
308.358	77.8472
313.187	112.517
318.013	38.7563
322.837	95.6138
327.659	68.6231
332.478	59.7373
337.294	17.0117
342.108	121.421
346.92	2.87012
351.729	11.4326
356.535	91.8818
361.34	112.044
366.141	128.234
370.94	71.8115
375.737	37.6484
380.531	70.0381
385.323	97.3106
390.113	86.0518
394.9	169.017
399.684	158.147
404.466	72.7725
409.245	74.1523
414.022	61.9785
418.797	7.25879
423.569	160.023
428.338	268.806
433.105	293.736
437.87	622.606
442.632	1639.96
447.391	3964.32
452.149	8809.83
456.903	7578.07
461.655	2036.3
466.405	595.547
471.152	436.86
475.897	139.211
480.639	267.594
485.378	157.01
490.116	123.449
494.85	131.327
499.582	77.2715
504.312	93.2305
509.039	180.834
513.764	96.0703
518.486	145.56
523.206	184.59
527.923	163.379
532.638	190.29
537.35	158.816
542.059	122.814
546.766	10.8232
551.471	22.6611
556.173	29.7324
560.873	157.369
565.57	45.3545
570.264	53.0752
574.957	161.708
579.646	71.2764
584.333	122.781
589.018	106.349
593.7	184.867
598.379	63.3359
603.056	119.702
607.73	398.986
612.402	707.627
617.072	1412.95
621.739	1038.58
626.403	572.861
631.065	433.94
635.724	591.432
640.381	554.808
645.035	557.16
649.687	479.522
654.336	253.102
658.983	262.959
663.627	162.485
668.268	106.131
672.907	120.978
677.544	64.5742
682.178	201.959
686.809	83.2148
691.438	19.6182
696.065	83.5908
700.688	185.117
705.31	6.96191
709.929	143.869
714.545	105.478
719.158	121.367
723.77	87.0557
728.378	173.602
732.984	129.831
737.588	86.2188
742.189	148.515
746.787	105.731
751.383	202.368
755.976	61.6182
760.567	179.56
765.155	3.58398
769.741	106.567
774.324	37.1572
778.904	131.577
783.482	6.77734
788.058	9.07715
792.631	199.36
797.201	194.57
801.769	197.639
806.334	52.5098
810.897	12.0635
815.457	150.016
820.014	267.418
824.569	35.2803
829.122	0.625977
833.671	48.4453
838.219	102.485
842.763	154.023
847.306	35.9678
851.845	99.8379
856.382	184.66
860.917	119.425
865.448	21.0732
869.978	168.683
874.505	106.241
879.029	64.75
883.55	74.2451
888.069	220.273
892.586	44.4951
897.1	132.296
901.611	215.797
906.12	131.272
910.626	99.1445
915.129	165.773
919.63	110.727
924.129	116.895
928.625	164.857
933.118	17.4492
937.609	140.593
942.097	181.212
946.582	82.9385
951.065	146.407
955.546	123.555
960.023	163.676
964.499	199.46
968.971	478.536
973.441	659.244
977.909	1055.39
982.374	5278.53
986.836	22416.7
991.295	36878.7
995.753	3496.84
1000.21	1148.85
1004.66	369.999
1009.11	455.097
1013.55	381.278
1018	292.477
1022.44	247.149
1026.88	242.127
1031.32	84.3408
1035.75	108.392
1040.18	94.3945
1044.61	175.688
1049.04	46.9873
1053.46	91.0459
1057.88	94.6914
1062.3	35.3184
1066.71	48.8457
1071.13	72.2764
1075.54	190.648
1079.94	207.914
1084.35	308.615
1088.75	448.362
1093.15	138.903
1097.55	504.359
1101.94	1210.77
1106.34	1452.29
1110.73	575.843
1115.11	228.422
1119.5	185.031
1123.88	186.348
1128.26	146.012
1132.63	350.699
1137.01	702.412
1141.38	676.969
1145.75	577.848
1150.12	250.875
1154.48	289.853
1158.84	321.906
1163.2	300.035
1167.55	516.236
1171.91	462.596
1176.26	216.873
1180.61	158.4
1184.95	128.906
1189.29	226.385
1193.63	155.441
1197.97	147.924
1202.31	153.473
1206.64	19.5352
1210.97	201.752
1215.29	67.1484
1219.62	110.559
1223.94	256.522
1228.26	32.0527
1232.57	175.277
1236.89	96.5977
1241.2	267.168
1245.51	234.717
1249.81	70.3828
1254.12	167.68
1258.42	138.916
1262.72	151.166
1267.01	62.4785
1271.3	107.002
1275.59	34.6289
1279.88	123.234
1284.17	80.4492
1288.45	143.719
1292.73	147.885
1297.01	164.734
1301.28	208.398
1305.55	172.775
1309.82	225.857
1314.09	147.773
1318.35	247.111
1322.61	241.047
1326.87	72.8848
1331.13	251.609
1335.38	41.2324
1339.63	142.986
1343.88	82.6465
1348.12	42.6582
1352.37	90.832
1356.61	192.856
1360.85	179.701
1365.08	93.9238
1369.31	38.1055
1373.54	159.879
1377.77	118.641
1381.99	217.647
1386.22	239.307
1390.43	147.963
1394.65	44.1289
1398.87	22.5254
1403.08	272.695
1407.29	203.644
1411.49	46.4941
1415.69	110.688
1419.89	180.172
1424.09	354.111
1428.29	122.189
1432.48	79.1758
1436.67	201.752
1440.86	161.857
1445.04	199.672
1449.23	195.582
1453.4	204.685
1457.58	134.83
1461.76	425.801
1465.93	260.789
1470.1	98.6211
1474.26	192.717
1478.43	150.615
1482.59	1.56641
1486.75	246.4
1490.9	311.744
1495.06	174.924
1499.21	268.348
1503.35	218.611
1507.5	77.5098
1511.64	107.092
1515.78	142.529
1519.92	322.603
1524.05	143.346
1528.18	192.92
1532.31	339.324
1536.44	168
1540.56	107.037
1544.69	44.7559
1548.8	257.832
1552.92	230.342
1557.03	47.4141
1561.14	229.998
1565.25	259.699
1569.36	0.896484
