Measurement: Raman, 514 nm, ccw, Raman Data Processed
Mineral: Baryte
Rruff sample: R040036
Ideal chemistry: BaSO_4_
Locality: Cumbria County, England
Source: University of Arizona Mineral Museum
Description: Golden brown tabular crystal
Measured chemistry: Ba_1.00_S_1.00_O_4_; trace amounts of Pb
Pin_id: M00028
Orientation: Laser parallel to -a* (-1 0 0). Fiducial mark perpendicular to laser is parallel to -b [0 -1 0]
Raman shift (cm-1)	intensity
26.288	0
30.504	90.147
34.717	95.872
38.929	94.149
43.138	88.925
47.345	137.447
51.551	151.505
55.754	86.025
59.955	122.2
64.154	79.051
68.351	106.758
72.546	59.962
76.739	86.774
80.93	64.558
85.119	27.775
89.306	3.108
93.49	5.333
97.673	33.167
101.854	25.922
106.032	31.137
110.209	9.579
114.384	72.359
118.556	108.352
122.727	121.239
126.895	84.8
131.062	94.939
135.226	108.283
139.388	107.266
143.549	105.62
147.707	163.579
151.863	296.112
156.018	205.447
160.17	126.569
164.32	110.564
168.469	60.054
172.615	62.222
176.759	68.848
180.901	70.953
185.041	73.505
189.18	90.125
193.316	104.63
197.45	81.341
201.582	63.292
205.712	55.305
209.84	92.073
213.967	81.099
218.091	53.277
222.213	66.779
226.333	67.22
230.451	55.508
234.567	56.934
238.682	78.466
242.794	74.222
246.904	62.484
251.012	42.543
255.118	56.578
259.223	46.947
263.325	30.519
267.425	43.146
271.523	60.603
275.62	38.446
279.714	40.482
283.806	30.104
287.897	55.603
291.985	34.233
296.072	17.155
300.156	44.981
304.239	50.717
308.319	33.365
312.398	44.72
316.474	56.585
320.549	54.232
324.622	41.684
328.692	34.966
332.761	36.241
336.828	36.719
340.893	38.185
344.956	36.134
349.017	36.745
353.076	32.305
357.133	16.987
361.188	21.652
365.241	45.915
369.292	32.238
373.341	7.447
377.388	19.591
381.434	36.718
385.477	42.837
389.519	23.049
393.558	26.199
397.596	34.189
401.631	29.372
405.665	30.365
409.697	8.413
413.727	21.478
417.755	29.631
421.781	27.642
425.805	33.596
429.827	54.525
433.847	83.422
437.865	143.257
441.882	283.896
445.896	659.783
449.909	1834.63
453.919	3401.47
457.928	1772.27
461.935	863.192
465.94	442.051
469.943	183.781
473.944	87.471
477.943	67.232
481.94	60.985
485.935	45.706
489.929	30.448
493.92	31.138
497.91	26.913
501.898	56.608
505.883	18.267
509.867	17.035
513.849	18.704
517.829	44.265
521.808	40.965
525.784	35.808
529.758	23.649
533.731	41.307
537.701	39.207
541.67	28.079
545.637	13.884
549.602	24.747
553.565	42.781
557.526	23.822
561.486	3.098
565.443	13.05
569.399	16.336
573.352	36.588
577.304	43.674
581.254	39.011
585.202	35.468
589.148	76.872
593.093	136.883
597.035	133.869
600.976	115.537
604.914	207.573
608.851	386.51
612.786	1114.6
616.719	3223.51
620.651	2430.92
624.58	1177.83
628.507	1077.65
632.433	849.453
636.357	345.471
640.279	131.332
644.199	120.107
648.117	117.823
652.034	104.671
655.948	58.676
659.861	27.417
663.772	26.437
667.681	36.395
671.588	27.32
675.493	10.3
679.397	9.968
683.298	46.855
687.198	26.752
691.096	7.387
694.992	11.03
698.886	14.057
702.779	36.501
706.669	33.083
710.558	6.603
714.445	6.096
718.33	14.432
722.214	4.009
726.095	4.427
729.975	19.809
733.852	2.832
737.728	21.494
741.603	5.992
745.475	7.274
749.345	23.535
753.214	8.775
757.081	9.005
760.946	1.81
764.809	7.361
768.671	27.517
772.53	3.658
776.388	2.22
780.244	9.884
784.098	14.975
787.951	17.053
791.801	6.116
795.65	15.16
799.497	8.81
803.342	6.8
807.186	27.088
811.027	9.002
814.867	14.949
818.705	10.119
822.541	5.807
826.375	20.679
830.208	30.439
834.039	11.753
837.868	5.74
841.695	3.029
845.521	24.732
849.344	54.191
853.166	35.699
856.986	60.014
860.804	61.765
864.621	31.049
868.436	27.404
872.248	68.013
876.06	38.31
879.869	25.867
883.677	12.536
887.482	17.297
891.287	58.888
895.089	61.427
898.889	92.857
902.688	68.695
906.485	51.529
910.28	39.378
914.074	58.962
917.865	65.839
921.655	76.725
925.443	64.622
929.23	46.435
933.014	62.101
936.797	73.826
940.578	114.538
944.358	110.425
948.135	97.184
951.911	77.889
955.685	102.672
959.458	129.691
963.228	214.473
966.997	371.525
970.764	407.599
974.529	583.211
978.293	890.283
982.055	2529.42
985.815	16171.6
989.573	47859.8
993.33	8187
997.085	1887.25
1000.84	885.629
1004.59	570.902
1008.34	387.196
1012.09	306.513
1015.83	253.674
1019.58	256.039
1023.32	234.426
1027.06	231.836
1030.8	214.281
1034.54	169.797
1038.27	144.36
1042.01	121.861
1045.74	63.407
1049.47	53.107
1053.2	66.755
1056.93	209.343
1060.65	91.406
1064.38	88.215
1068.1	86.14
1071.82	91.131
1075.54	128.094
1079.25	158.932
1082.97	359.692
1086.68	356.478
1090.39	155.284
1094.11	90.109
1097.81	84.082
1101.52	134.952
1105.22	243.848
1108.93	111.768
1112.63	84.708
1116.33	41.665
1120.03	16.639
1123.72	27.629
1127.42	9.632
1131.11	11.352
1134.8	35.675
1138.49	138.716
1142.18	266.771
1145.87	331.842
1149.55	201.932
1153.23	93.035
1156.91	15.151
1160.59	12.278
1164.27	0.417
1167.95	9.564
1171.62	26.719
1175.3	26.261
1178.97	11.431
1182.64	6.394
1186.3	2.783
1189.97	20.032
1193.63	1.48
1197.3	1.684
1200.96	8.88
1204.62	21.056
1208.27	24.92
1211.93	19.73
1215.58	31.9
1219.24	45.373
1222.89	48.569
1226.54	33.785
1230.18	67.409
1233.83	38.156
1237.47	48.388
1241.12	54.828
1244.76	49.066
1248.4	24.374
1252.04	27.557
1255.67	27.744
1259.31	72.878
1262.94	38.005
1266.57	74.196
1270.2	75.455
1273.83	57.667
1277.45	39.267
1281.08	12.452
1284.7	60.749
1288.32	19.961
1291.94	46.131
1295.56	57.262
1299.17	51.341
1302.79	44.388
1306.4	37.492
1310.01	45.556
1313.62	28.402
1317.23	32.473
1320.84	34.161
1324.44	56.133
1328.04	43.982
1331.64	42.722
1335.24	18.406
1338.84	24.871
1342.44	12.99
1346.03	10.052
1349.63	4.896
1353.22	13.842
1356.81	27.79
1360.4	33.616
1363.98	38.577
1367.57	29.561
1371.15	31.597
1374.73	50.733
1378.32	12.887
1381.89	35.039
1385.47	17.188
1389.05	5.329
1392.62	17.451
1396.19	43.56
1399.76	52.663
1403.33	55.269
1406.9	60.353
1410.46	48.445
1414.03	9.066
1417.59	21.118
1421.15	24.135
1424.71	27.705
1428.27	42.722
1431.82	64.796
1435.38	77.191
1438.93	122.733
1442.48	154.601
1446.03	168.333
1449.58	135.973
1453.13	145.364
1456.67	116.615
1460.21	137.012
1463.76	105.594
1467.3	84.198
1470.83	105.951
1474.37	61.72
1477.91	86.591
1481.44	116.776
1484.97	110.247
1488.5	102.121
1492.03	60.689
1495.56	34.464
1499.08	2.907
