Measurement: Raman, 514 nm, ccw, Raman Data Processed
Mineral: Baryte
Rruff sample: R040036
Ideal chemistry: BaSO_4_
Locality: Cumbria County, England
Source: University of Arizona Mineral Museum
Description: Golden brown tabular crystal
Measured chemistry: Ba_1.00_S_1.00_O_4_; trace amounts of Pb
Pin_id: M00028
Orientation: Laser parallel to -a* (-1 0 0). Fiducial mark perpendicular to laser is parallel to -b [0 -1 0]
Raman shift (cm-1)	intensity
26.288	0
30.504	38.327
34.717	44.386
38.929	55.055
43.138	55.79
47.345	72.428
51.551	84.513
55.754	83.975
59.955	100.919
64.154	74.042
68.351	41.316
72.546	33.7
76.739	21.149
80.93	15.169
85.119	5.91
89.306	22.583
93.49	13.071
97.673	1.666
101.854	24.728
106.032	47.289
110.209	88.015
114.384	128.854
118.556	153.669
122.727	160.48
126.895	147.231
131.062	148.914
135.226	122.383
139.388	135.702
143.549	135.971
147.707	184.231
151.863	296.47
156.018	334.741
160.17	181.147
164.32	126.925
168.469	107.94
172.615	95.093
176.759	78.273
180.901	84.982
185.041	97.408
189.18	123.563
193.316	106.5
197.45	87.014
201.582	80.336
205.712	75.376
209.84	70.048
213.967	71.507
218.091	53.749
222.213	62.71
226.333	64.69
230.451	59.376
234.567	49.365
238.682	52.738
242.794	52.316
246.904	47.341
251.012	46.739
255.118	44.671
259.223	80.858
263.325	45.048
267.425	32.311
271.523	45.809
275.62	47.051
279.714	33.129
283.806	30.137
287.897	24.122
291.985	31.097
296.072	20.062
300.156	25.015
304.239	30.958
308.319	35.888
312.398	41.002
316.474	31.712
320.549	19.609
324.622	25.491
328.692	25.331
332.761	28.128
336.828	29.887
340.893	13.612
344.956	11.305
349.017	19.971
353.076	15.612
357.133	16.234
361.188	8.821
365.241	15.431
369.292	7.011
373.341	2.711
377.388	4.126
381.434	6.682
385.477	18.257
389.519	10.858
393.558	16.458
397.596	23.09
401.631	18.695
405.665	15.314
409.697	1.922
413.727	6.501
417.755	7.084
421.781	12.654
425.805	16.202
429.827	18.739
433.847	70.194
437.865	139.678
441.882	270.099
445.896	658.576
449.909	1785.01
453.919	3407.46
457.928	1868.99
461.935	863.511
465.94	426.945
469.943	199.412
473.944	113.856
477.943	50.349
481.94	49.807
485.935	43.196
489.929	38.592
493.92	32.014
497.91	21.373
501.898	38.716
505.883	34.941
509.867	34.23
513.849	39.466
517.829	46.324
521.808	32.506
525.784	35.653
529.758	32.951
533.731	42.33
537.701	30.751
541.67	33.323
545.637	14.759
549.602	14.035
553.565	18.539
557.526	17.974
561.486	43.408
565.443	15.587
569.399	10.957
573.352	22.77
577.304	37.965
581.254	44.851
585.202	53.692
589.148	75.216
593.093	127.471
597.035	128.872
600.976	158.254
604.914	184.954
608.851	359.61
612.786	1005.07
616.719	3063.54
620.651	2461.88
624.58	1202.3
628.507	1079.4
632.433	960.48
636.357	387.585
640.279	173.628
644.199	145.69
648.117	141.121
652.034	140.126
655.948	88.108
659.861	62.08
663.772	37.038
667.681	41.112
671.588	23.051
675.493	20.962
679.397	4.147
683.298	8.721
687.198	11.622
691.096	5.604
694.992	4.412
698.886	8.807
702.779	7.948
706.669	6.582
710.558	2.401
714.445	11.906
718.33	14.254
722.214	7.357
726.095	3.944
729.975	9.501
733.852	4.037
737.728	5.447
741.603	14.953
745.475	0.487
749.345	11.956
753.214	17.371
757.081	2.237
760.946	11.868
764.809	9.478
768.671	8.81
772.53	18.131
776.388	4.438
780.244	1.266
784.098	1.018
787.951	8.287
791.801	6.538
795.65	20.78
799.497	9.013
803.342	6.761
807.186	18.452
811.027	13.659
814.867	29.801
818.705	11.753
822.541	4.08
826.375	4.029
830.208	22.096
834.039	33.935
837.868	26.408
841.695	34.457
845.521	20.567
849.344	33.6
853.166	58.932
856.986	76.134
860.804	104.083
864.621	102.658
868.436	59.576
872.248	35.718
876.06	61.559
879.869	65.358
883.677	27.389
887.482	35.174
891.287	47.088
895.089	64.91
898.889	63.711
902.688	91.969
906.485	56.224
910.28	47.507
914.074	41.758
917.865	63.035
921.655	62.361
925.443	55.285
929.23	66.64
933.014	57.028
936.797	73.443
940.578	91.749
944.358	100.207
948.135	108.676
951.911	109.175
955.685	123.695
959.458	133.186
963.228	198.7
966.997	376.181
970.764	410.791
974.529	569.431
978.293	965.096
982.055	2474.81
985.815	14933.5
989.573	49852.3
993.33	9298.06
997.085	2120.87
1000.84	989.71
1004.59	672.579
1008.34	395.473
1012.09	310.395
1015.83	266.344
1019.58	255.323
1023.32	245.331
1027.06	272.37
1030.8	255.439
1034.54	134.753
1038.27	121.919
1042.01	89.069
1045.74	72.305
1049.47	79.504
1053.2	97.727
1056.93	243.006
1060.65	106.369
1064.38	50.256
1068.1	60.411
1071.82	93.21
1075.54	97.704
1079.25	157.407
1082.97	315.834
1086.68	292.289
1090.39	150.764
1094.11	78.26
1097.81	86.778
1101.52	159.324
1105.22	225.893
1108.93	115.486
1112.63	43.1
1116.33	20.732
1120.03	18.382
1123.72	28.048
1127.42	16.732
1131.11	20.432
1134.8	49.149
1138.49	87.881
1142.18	236.629
1145.87	292.399
1149.55	204.186
1153.23	84.988
1156.91	51.805
1160.59	20.635
1164.27	8.518
1167.95	3.662
1171.62	7.203
1175.3	34.078
1178.97	10.963
1182.64	11.857
1186.3	1.24
1189.97	2.33
1193.63	22.413
1197.3	25.504
1200.96	9.608
1204.62	32.623
1208.27	42.751
1211.93	19.878
1215.58	16.315
1219.24	25.203
1222.89	12.095
1226.54	4.99
1230.18	1.265
1233.83	40.405
1237.47	71.715
1241.12	82.784
1244.76	49.688
1248.4	31.589
1252.04	43.487
1255.67	31.399
1259.31	20.315
1262.94	36.233
1266.57	55.153
1270.2	67.074
1273.83	92.283
1277.45	46.576
1281.08	48.5
1284.7	42.539
1288.32	40.462
1291.94	38.463
1295.56	71.521
1299.17	50.381
1302.79	33.271
1306.4	58.147
1310.01	56.942
1313.62	53.795
1317.23	42.629
1320.84	40.431
1324.44	46.797
1328.04	40.952
1331.64	22.264
1335.24	8.752
1338.84	42.391
1342.44	22.834
1346.03	21.563
1349.63	6.279
1353.22	4.985
1356.81	7.682
1360.4	8.627
1363.98	2.945
1367.57	8.738
1371.15	29.43
1374.73	10.163
1378.32	19.006
1381.89	25.904
1385.47	19.798
1389.05	15.686
1392.62	17.549
1396.19	10.398
1399.76	28.232
1403.33	4.946
1406.9	36.87
1410.46	30.681
1414.03	9.488
1417.59	18.329
1421.15	8.691
1424.71	3.104
1428.27	15.723
1431.82	32.886
1435.38	70.481
1438.93	77.905
1442.48	160.584
1446.03	175.276
1449.58	197.938
1453.13	235.842
1456.67	204.373
1460.21	178.434
1463.76	162.694
1467.3	122.561
1470.83	64.852
1474.37	44.11
1477.91	52.239
1481.44	74.488
1484.97	79.936
1488.5	71.595
1492.03	61.504
1495.56	34.894
1499.08	0.874
1502.61	0
