Measurement: Raman, 514 nm, ccw, Raman Data Processed
Mineral: Baryte
Rruff sample: R040036
Ideal chemistry: BaSO_4_
Locality: Cumbria County, England
Source: University of Arizona Mineral Museum
Description: Golden brown tabular crystal
Measured chemistry: Ba_1.00_S_1.00_O_4_; trace amounts of Pb
Pin_id: M00019
Orientation: Laser parallel to b* (0 1 0). Fiducial mark perpendicular to laser is parallel to c [0 0 1]
Raman shift (cm-1)	intensity
26.288	0
30.504	29.565
34.717	33.205
38.929	43.424
43.138	41.067
47.345	52.856
51.551	75.692
55.754	108.739
59.955	112.463
64.154	87.46
68.351	52.751
72.546	33.676
76.739	8.672
80.93	11.314
85.119	16.308
89.306	21.343
93.49	6.41
97.673	22.493
101.854	32.354
106.032	24.444
110.209	78.76
114.384	127.181
118.556	196.608
122.727	108.978
126.895	104.33
131.062	132.45
135.226	105.295
139.388	113.414
143.549	142.259
147.707	260.963
151.863	426.543
156.018	325.367
160.17	206.161
164.32	147.871
168.469	124.303
172.615	114.792
176.759	126.504
180.901	197.674
185.041	405.374
189.18	566.638
193.316	307.43
197.45	161.686
201.582	92.571
205.712	97.905
209.84	66.773
213.967	71.295
218.091	66.569
222.213	71.44
226.333	68.494
230.451	51.476
234.567	55.713
238.682	62.088
242.794	39.194
246.904	31.718
251.012	28.196
255.118	38.392
259.223	34.128
263.325	45.102
267.425	22.112
271.523	31.048
275.62	24.931
279.714	45.775
283.806	20.592
287.897	11.377
291.985	22.134
296.072	12.864
300.156	22.57
304.239	32.25
308.319	34.902
312.398	29.531
316.474	13.135
320.549	23.719
324.622	24.275
328.692	27.761
332.761	12.179
336.828	18.532
340.893	13.827
344.956	37.073
349.017	29.281
353.076	1.467
357.133	19.633
361.188	10.789
365.241	25.868
369.292	8.88
373.341	13.926
377.388	4.982
381.434	17.028
385.477	22.145
389.519	35.187
393.558	26.064
397.596	29.066
401.631	33.065
405.665	32.036
409.697	8.033
413.727	37
417.755	38.003
421.781	52.986
425.805	57.844
429.827	63.684
433.847	127.444
437.865	220.303
441.882	517.071
445.896	1237.91
449.909	2946.75
453.919	3137.7
457.928	1386.54
461.935	782.35
465.94	348.203
469.943	138.056
473.944	91.878
477.943	63.617
481.94	50.422
485.935	28.205
489.929	20.117
493.92	19.949
497.91	23.642
501.898	17.493
505.883	39.298
509.867	30.002
513.849	32.837
517.829	6.694
521.808	28.475
525.784	16.397
529.758	22.239
533.731	21.251
537.701	21.267
541.67	5.238
545.637	15.256
549.602	17.307
553.565	38.333
557.526	19.729
561.486	27.871
565.443	18.886
569.399	26.901
573.352	12.913
577.304	17.883
581.254	29.414
585.202	30.428
589.148	35.592
593.093	45.549
597.035	36.656
600.976	51.642
604.914	90.579
608.851	185.652
612.786	642.029
616.719	1277.98
620.651	783.562
624.58	894.307
628.507	1707.57
632.433	1251.79
636.357	552.668
640.279	459.47
644.199	668.736
648.117	769.746
652.034	338.01
655.948	140.916
659.861	75.699
663.772	34.846
667.681	13.198
671.588	30.62
675.493	34.91
679.397	15.886
683.298	8.549
687.198	21.47
691.096	7.075
694.992	7.34
698.886	0.801
702.779	4.726
706.669	30.251
710.558	13.763
714.445	18.168
718.33	7.198
722.214	9.184
726.095	11.538
729.975	12.864
733.852	14.188
737.728	6.465
741.603	15.714
745.475	10.94
749.345	4.86
753.214	4.308
757.081	8.446
760.946	14.093
764.809	12.394
768.671	4.38
772.53	7.606
776.388	12.565
780.244	9.502
784.098	2.59
787.951	6.287
791.801	0.134
795.65	1.048
799.497	6.746
803.342	16.483
807.186	4.755
811.027	14.061
814.867	8.406
818.705	1.218
822.541	10.201
826.375	0.379
830.208	17.862
834.039	1.098
837.868	0.374
841.695	6.787
845.521	5.293
849.344	22.753
853.166	25.196
856.986	23.405
860.804	27.541
864.621	15.947
868.436	22.176
872.248	20.598
876.06	8.833
879.869	8.217
883.677	3.615
887.482	19.674
891.287	35.775
895.089	39.143
898.889	56.457
902.688	41.034
906.485	41.232
910.28	44.433
914.074	20.804
917.865	25.226
921.655	42.06
925.443	51.341
929.23	50.271
933.014	36.563
936.797	64.031
940.578	74.691
944.358	69.824
948.135	57.394
951.911	80.441
955.685	120.857
959.458	164.105
963.228	290.598
966.997	326.182
970.764	521.783
974.529	729.425
978.293	1513.08
982.055	5202.73
985.815	46420.4
989.573	27118.2
993.33	4743.71
997.085	1397.51
1000.84	803.336
1004.59	500.193
1008.34	369.055
1012.09	298.97
1015.83	223.916
1019.58	205.891
1023.32	174.9
1027.06	134.944
1030.8	120.021
1034.54	93.14
1038.27	109.303
1042.01	81.505
1045.74	52.745
1049.47	75.018
1053.2	74.325
1056.93	43.673
1060.65	32.057
1064.38	42.482
1068.1	48.948
1071.82	23.449
1075.54	35.001
1079.25	26.604
1082.97	44.267
1086.68	36.98
1090.39	61.743
1094.11	101.552
1097.81	136.408
1101.52	344.303
1105.22	235.244
1108.93	119.225
1112.63	110.243
1116.33	154.294
1120.03	165.379
1123.72	227.497
1127.42	405.651
1131.11	793.84
1134.8	1904.06
1138.49	3726.3
1142.18	4945.59
1145.87	3616.95
1149.55	1805.3
1153.23	906.673
1156.91	590.084
1160.59	601.524
1164.27	957.996
1167.95	854.493
1171.62	452.016
1175.3	245.626
1178.97	149.197
1182.64	80.791
1186.3	41.407
1189.97	29.044
1193.63	37.702
1197.3	51.524
1200.96	49.355
1204.62	23.285
1208.27	37.927
1211.93	24.607
1215.58	25.777
1219.24	50.352
1222.89	53.774
1226.54	40.414
1230.18	42.241
1233.83	36.252
1237.47	61.765
1241.12	57.574
1244.76	37.404
1248.4	29.351
1252.04	37.199
1255.67	25.107
1259.31	17.974
1262.94	37.85
1266.57	29.78
1270.2	0.753
1273.83	5.252
1277.45	6.721
1281.08	20.933
1284.7	16.865
1288.32	22.106
1291.94	5.122
1295.56	16.029
1299.17	6.89
1302.79	7.715
1306.4	2.509
1310.01	27.268
1313.62	22.744
1317.23	18.754
1320.84	19.481
1324.44	11.429
1328.04	5.121
1331.64	5.527
1335.24	25.86
1338.84	9.712
1342.44	3.747
1346.03	1.24
1349.63	1.235
1353.22	11.327
1356.81	21.076
1360.4	9.547
1363.98	1.797
1367.57	4.165
1371.15	11.46
1374.73	20.877
1378.32	9.382
1381.89	3.263
1385.47	12.134
1389.05	17.997
1392.62	13.786
1396.19	25.603
1399.76	3.394
1403.33	22.173
1406.9	3.857
1410.46	10.615
1414.03	13.365
1417.59	29.698
1421.15	15.684
1424.71	44.166
1428.27	23.285
1431.82	24.178
1435.38	58.602
1438.93	78.084
1442.48	71.035
1446.03	67.911
1449.58	79.668
1453.13	92.942
1456.67	85.454
1460.21	63.685
1463.76	72.314
1467.3	52.398
1470.83	49.66
1474.37	38.265
1477.91	34.904
1481.44	59.936
1484.97	47.187
1488.5	50.504
1492.03	14.909
1495.56	28.531
1499.08	3.073
1502.61	0
