Measurement: Raman, 514 nm, ccw, Raman Data Processed
Mineral: Baryte
Rruff sample: R050335
Ideal chemistry: BaSO_4_
Locality: Bullion Mountains, San Bernardino County, California, USA
Source: California Institute of Technology
Description: Colorless cleavage fragment
Measured chemistry: (Ba_0.95_Sr_0.05_)_Î£=1_S_1.00_O_4_
Pin_id: L01894
Orientation: Laser parallel to -a* (-1 0 0). Fiducial mark perpendicular to laser is parallel to b [0 1 0]
Raman shift (cm-1)	intensity
93.48	0
98.416	97.165
103.349	150.678
108.28	1395.22
113.208	1514.52
118.134	300.025
123.058	218.3
127.979	556.78
132.898	666.956
137.814	1267.55
142.728	2852.14
147.639	1638.49
152.549	915.981
157.455	421.408
162.359	274.826
167.261	243.098
172.161	291.007
177.058	139.846
181.952	73.1685
186.845	352.989
191.734	377.225
196.622	313.18
201.507	275.933
206.389	69.2617
211.269	103.07
216.147	48.1831
221.022	47.27
225.895	125.234
230.765	135.714
235.633	23.7593
240.498	140.212
245.361	56.7046
250.222	25.7637
255.08	74.0879
259.936	197.326
264.789	110.227
269.64	29.1773
274.488	17.8794
279.334	95.2363
284.178	25.46
289.019	16.8906
293.857	94.4595
298.693	86.1191
303.527	96.7939
308.358	2.56348
313.187	95.0801
318.013	73.6997
322.837	30.6729
327.659	29.0518
332.478	39.4619
337.294	52.1089
342.108	71.6728
346.92	9.89355
351.729	143.404
356.535	67.6284
361.34	190.778
366.141	131.284
370.94	58.6191
375.737	104.468
380.531	133.602
385.323	123.42
390.113	148.36
394.9	236.4
399.684	245.509
404.466	77.126
409.245	135.853
414.022	95.5815
418.797	62.3931
423.569	90.7412
428.338	199.574
433.105	130.918
437.87	546.246
442.632	1301.71
447.391	2891.14
452.149	5163.66
456.903	4568.57
461.655	4160.56
466.405	1457.11
471.152	452.685
475.897	307.628
480.639	254.31
485.378	142.491
490.116	88.6611
494.85	87.2461
499.582	114.814
504.312	79.5264
509.039	51.8262
513.764	192.744
518.486	186.48
523.206	151.435
527.923	106.199
532.638	40.9834
537.35	73.7842
542.059	80.3994
546.766	46.4033
551.471	132.019
556.173	50.794
560.873	80.9121
565.57	32.4004
570.264	107.958
574.957	50.543
579.646	100.262
584.333	86.4824
589.018	114.311
593.7	211.094
598.379	234.005
603.056	394.982
607.73	976.112
612.402	2301.34
617.072	3824.72
621.739	1935.14
626.403	1241.1
631.065	1215.25
635.724	798.782
640.381	581.138
645.035	715.76
649.687	536.217
654.336	207.377
658.983	263.867
663.627	108.898
668.268	100.243
672.907	87.5644
677.544	165.84
682.178	9.46777
686.809	147.716
691.438	113.757
696.065	52.8203
700.688	195.665
705.31	52.4404
709.929	58.0527
714.545	96.7539
719.158	19.0498
723.77	50.5
728.378	76.0371
732.984	185.65
737.588	122.011
742.189	22.3135
746.787	177.591
751.383	31.5918
755.976	63.873
760.567	106.282
765.155	58.8643
769.741	141.741
774.324	140.285
778.904	174.809
783.482	167.219
788.058	159.538
792.631	89.7207
797.201	262.887
801.769	146.451
806.334	65.5322
810.897	52.5342
815.457	193.457
820.014	53.1875
824.569	57.0322
829.122	58.8379
833.671	150.552
838.219	118.794
842.763	89.4141
847.306	53.9541
851.845	141.643
856.382	150.248
860.917	201.92
865.448	121.845
869.978	131.794
874.505	72.6035
879.029	119.181
883.55	27.0586
888.069	17.8076
892.586	53.373
897.1	232.356
901.611	183.984
906.12	236.98
910.626	40.5156
915.129	141.601
919.63	306.456
924.129	141.623
928.625	126.83
933.118	41.1816
937.609	137.079
942.097	141.973
946.582	70.8691
951.065	139.772
955.546	102.363
960.023	128.199
964.499	264.092
968.971	447.044
973.441	708.096
977.909	1777.17
982.374	10255.9
986.836	34584.7
991.295	22921.8
995.753	2690.94
1000.21	884.166
1004.66	552.28
1009.11	300.603
1013.55	240.974
1018	273.989
1022.44	172.394
1026.88	154.295
1031.32	219.477
1035.75	1606.18
1040.18	26.9932
1044.61	48.166
1049.04	177.603
1053.46	75.4434
1057.88	12.8965
1062.3	172.182
1066.71	96.0361
1071.13	213.78
1075.54	286.323
1079.94	475.022
1084.35	819.131
1088.75	326.252
1093.15	343.502
1097.55	152.022
1101.94	618.462
1106.34	471.429
1110.73	130.073
1115.11	166.923
1119.5	155.986
1123.88	161.208
1128.26	241.135
1132.63	312.479
1137.01	727.904
1141.38	955.341
1145.75	720.932
1150.12	486.602
1154.48	256.521
1158.84	210.786
1163.2	326.419
1167.55	518.639
1171.91	353.917
1176.26	179.323
1180.61	149.812
1184.95	25.998
1189.29	191.061
1193.63	139.564
1197.97	41.4121
1202.31	91.1133
1206.64	37.3682
1210.97	271.364
1215.29	106.889
1219.62	122.758
1223.94	71.9023
1228.26	88.4824
1232.57	85.1113
1236.89	173.714
1241.2	322.296
1245.51	67.9248
1249.81	182.569
1254.12	21.8008
1258.42	121.838
1262.72	79.3291
1267.01	69.2783
1271.3	85.1269
1275.59	169.418
1279.88	232.332
1284.17	188.65
1288.45	3.69043
1292.73	208.868
1297.01	246.987
1301.28	215.047
1305.55	16.0859
1309.82	218.098
1314.09	64.0742
1318.35	167.731
1322.61	203.285
1326.87	188.324
1331.13	212.297
1335.38	32.8242
1339.63	227.111
1343.88	74.6562
1348.12	239.06
1352.37	229.455
1356.61	29.0371
1360.85	219.234
1365.08	331.988
1369.31	51.0703
1373.54	87.6894
1377.77	100.934
1381.99	65.6133
1386.22	125.674
1390.43	167.732
1394.65	62.6602
1398.87	20.3262
1403.08	301.107
1407.29	142.394
1411.49	40.7441
1415.69	148.25
1419.89	268.012
1424.09	148.041
1428.29	164.883
1432.48	199.728
1436.67	86.7812
1440.86	133.893
1445.04	359.459
1449.23	173.234
1453.4	82.1484
1457.58	125.824
1461.76	163.932
1465.93	226.623
1470.1	283.68
1474.26	63.6348
1478.43	16.6758
1482.59	186.719
1486.75	105.133
1490.9	189.219
1495.06	81.7422
1499.21	111.066
1503.35	106.365
1507.5	189.289
1511.64	276.727
1515.78	247.533
1519.92	169.193
1524.05	375.557
1528.18	146.746
1532.31	267.566
1536.44	133.459
1540.56	301.043
1544.69	231.918
1548.8	259.375
1552.92	243.637
1557.03	348.984
1561.14	348.697
1565.25	278.148
1569.36	330.982
