Measurement: Raman, 514 nm, ccw, Raman Data Processed
Mineral: Baryte
Rruff sample: R050375
Ideal chemistry: BaSO_4_
Locality: unknown
Source: Eugene Schlepp
Description: Pale green tabular crystals
Measured chemistry: Ba_1.00_SO_4_
Pin_id: L01220
Orientation: Laser parallel to -c* (0 0 -1). Fiducial mark perpendicular to laser is parallel to -a [-1 0 0]
Raman shift (cm-1)	intensity
51.431	0
56.387	52.9337
61.341	0.657288
66.292	0.515137
71.241	122.842
76.187	483.468
81.131	370.274
86.072	533.994
91.012	800.802
95.948	1010.79
100.883	1151.32
105.815	1057.11
110.744	1108.99
115.671	980.862
120.596	945.577
125.519	974.011
130.439	954.802
135.356	859.714
140.271	888.978
145.184	915.135
150.094	941.23
155.002	1094.39
159.908	851.64
164.811	792.051
169.711	827.532
174.61	772.964
179.505	739.973
184.399	706.55
189.29	737.67
194.178	675.649
199.064	639.409
203.948	594.544
208.829	572.825
213.708	561.488
218.585	453.117
223.459	455.991
228.33	364.067
233.199	434.275
238.066	436.063
242.93	360.684
247.792	351.113
252.651	339.404
257.508	311.129
262.363	297.49
267.215	286.317
272.064	288.187
276.912	262.258
281.756	157.308
286.598	234.992
291.438	185.318
296.276	194.248
301.111	176.732
305.943	191.748
310.773	163.279
315.601	149.31
320.426	154.828
325.248	163.822
330.068	76.28
334.886	134.189
339.701	131.539
344.514	144.326
349.324	100.672
354.132	27.1255
358.938	103.674
363.741	32.5535
368.541	24.1597
373.339	21.491
378.135	101.07
382.928	21.8896
387.718	23.8699
392.506	34.2822
397.292	5.92847
402.075	14.8833
406.856	17.3215
411.634	0.855957
416.41	36.4106
421.183	20.0552
425.954	31.0154
430.722	28.6743
435.488	53.0388
440.251	233.509
445.012	611.286
449.77	1738.39
454.526	3973.82
459.28	1798.56
464.03	1294.63
468.779	367.995
473.525	85.6326
478.268	101.535
483.009	60.6838
487.747	48.0684
492.483	34.6977
497.217	12.052
501.948	8.45142
506.676	122.657
511.402	7.16821
516.125	2.98731
520.846	60.1008
525.565	25.6309
530.281	14.4043
534.994	51.1011
539.705	23.9392
544.413	83.8025
549.119	5.93262
553.822	98.7568
558.523	18.9058
563.222	48.7502
567.917	30.7014
572.611	12.8843
577.302	11.0295
581.99	51.5005
586.676	65.5557
591.359	125.446
596.04	104.862
600.718	167.75
605.394	230.682
610.067	560.967
614.737	1836.04
619.406	3321.49
624.071	1171.9
628.734	1162.79
633.395	860.119
638.053	278.936
642.708	116.464
647.361	106.243
652.012	99.596
656.66	114.617
661.305	152.935
665.948	60.7563
670.588	33.3992
675.226	43.0293
679.861	94.3247
684.494	5.40112
689.124	32.0725
693.752	95.79
698.377	39.2036
702.999	58.9812
707.619	15.7944
712.237	41.6814
716.852	8.05981
721.464	14.4251
726.074	0.771729
730.681	1.00244
735.286	34.479
739.888	9.66382
744.488	121.856
749.085	127.27
753.68	110.373
758.272	150.428
762.861	100.432
767.448	7.15894
772.033	151.37
776.614	79.22
781.194	40.0603
785.77	67.9224
790.345	85.7939
794.916	14.8088
799.485	17.6526
804.052	99.9836
808.616	76.3894
813.177	38.5928
817.736	26.0149
822.292	65.8191
826.846	77.5303
831.397	70.279
835.945	42.8657
840.491	90.9077
845.035	10.9973
849.576	25.1965
854.114	82.6465
858.65	47.6594
863.183	118.452
867.713	102.702
872.241	4.9231
876.767	58.971
881.29	26.6248
885.81	42.4922
890.328	65.5972
894.843	65.3428
899.356	181.153
903.866	44.0591
908.373	44.5161
912.878	74.3648
917.38	48.169
921.88	22.145
926.377	130.493
930.872	154.639
935.364	30.5054
939.853	78.457
944.34	16.4087
948.824	36.5684
953.306	22.9521
957.785	55.6812
962.261	133.965
966.735	363.78
971.207	329.06
975.675	606.501
980.141	1755.29
984.605	8236.63
989.066	57472.6
993.524	9192.93
997.98	1480.87
1002.43	700.739
1006.88	362.271
1011.33	250.123
1015.78	211.908
1020.22	221.785
1024.66	102.972
1029.1	201.208
1033.53	42.5029
1037.97	60.856
1042.4	110.001
1046.82	73.4717
1051.25	9.62988
1055.67	117.158
1060.09	62.9258
1064.51	42.7065
1068.92	62.9233
1073.33	94.1787
1077.74	1.75635
1082.15	9.15869
1086.55	76.0742
1090.95	53.0586
1095.35	76.2886
1099.75	81.3682
1104.14	283.503
1108.53	102.653
1112.92	58.8887
1117.31	22.8223
1121.69	81.4912
1126.07	164.921
1130.45	35.4043
1134.82	144.94
1139.19	182.558
1143.57	371.21
1147.93	425.935
1152.3	123.71
1156.66	88.5361
1161.02	68.3984
1165.38	16.2988
1169.73	1.87207
1174.08	73.0815
1178.43	111.073
1182.78	4.17822
1187.12	89.855
1191.46	9.6792
1195.8	8.55615
1200.14	13.1943
1204.47	37.896
1208.8	51.8584
1213.13	103.903
1217.46	107.364
1221.78	63.0557
1226.1	87.4131
1230.42	73.5039
1234.73	13.7402
1239.04	151.978
1243.35	78.2178
1247.66	80.3564
1251.97	104.628
1256.27	27.6035
1260.57	142.71
1264.86	148.95
1269.16	78.8516
1273.45	89.6548
1277.74	107.431
1282.03	82.6821
1286.31	104.086
1290.59	139.556
1294.87	75.9629
1299.14	50.2798
1303.42	133.079
1307.69	131.404
1311.95	56.2324
1316.22	104.707
1320.48	55.4341
1324.74	43.9853
1329	81.5171
1333.26	81.125
1337.51	44.2295
1341.76	70.5376
1346	59.1543
1350.25	8.49951
1354.49	97.3643
1358.73	85.626
1362.96	60.8525
1367.2	71.4932
1371.43	25.3145
1375.66	74.5
1379.88	37.3374
1384.11	98.772
1388.33	117.143
1392.54	109.224
1396.76	42.5078
1400.97	0.125
1405.18	33.7407
1409.39	82.7017
1413.59	47.29
1417.8	96.4316
1421.99	70.1616
1426.19	73.4375
1430.38	132.947
1434.58	185.089
1438.77	103.127
1442.95	104.007
1447.13	99.7847
1451.32	178.837
1455.49	98.3652
1459.67	192.959
1463.84	166.285
1468.01	157.66
1472.18	81.1475
1476.35	47.8428
1480.51	90.5356
1484.67	68.9653
1488.83	92.2651
1492.98	108.81
1497.13	89.4912
1501.28	169.186
1505.43	102.895
1509.57	28.562
1513.71	116.573
1517.85	24.521
1521.99	47.6357
1526.12	53.084
1530.25	42.27
1534.38	149.331
1538.5	164.46
1542.62	112.325
1546.74	154.052
1550.86	123.677
1554.98	103.818
1559.09	70.6016
1563.2	87.7236
1567.31	45.5098
