Measurement: Raman, 514 nm, ccw, Raman Data Processed
Mineral: Baryte
Rruff sample: R050335
Ideal chemistry: BaSO_4_
Locality: Bullion Mountains, San Bernardino County, California, USA
Source: California Institute of Technology
Description: Colorless cleavage fragment
Measured chemistry: (Ba_0.95_Sr_0.05_)_Î£=1_S_1.00_O_4_
Pin_id: M00174
Orientation: Laser parallel to -c* (0 0 -1). Fiducial mark perpendicular to laser is parallel to a [1 0 0]
Raman shift (cm-1)	intensity
93.48	0
98.416	62.3184
103.349	5.54981
108.28	199.37
113.208	160.321
118.134	191.164
123.058	30.385
127.979	163.288
132.898	150.881
137.814	168.496
142.728	280.121
147.639	332.21
152.549	460.086
157.455	372.03
162.359	264.695
167.261	238.471
172.161	237.281
177.058	244.259
181.952	237.663
186.845	339.994
191.734	344.433
196.622	279.552
201.507	330.914
206.389	100.452
211.269	129.352
216.147	184.101
221.022	75.6602
225.895	133
230.765	70.7241
235.633	128.947
240.498	89.6606
245.361	41.3457
250.222	101.22
255.08	90.5732
259.936	184.213
264.789	151.25
269.64	116.179
274.488	110.16
279.334	74.1362
284.178	23.0371
289.019	57.895
293.857	61.3032
298.693	93.2983
303.527	44.772
308.358	62.1426
313.187	7.34766
318.013	96.3032
322.837	47.0977
327.659	41.7534
332.478	30.6865
337.294	68.6562
342.108	81.7393
346.92	59.6567
351.729	70.2896
356.535	17.3052
361.34	7.97949
366.141	13.9468
370.94	42.1118
375.737	33.0986
380.531	35.0869
385.323	18.1211
390.113	71.2095
394.9	58.9419
399.684	157.905
404.466	5.69971
409.245	123.502
414.022	92.7124
418.797	151.968
423.569	120.326
428.338	323.986
433.105	445.408
437.87	782.368
442.632	2001.49
447.391	4170.07
452.149	8812.33
456.903	13194.1
461.655	13610.3
466.405	5936.93
471.152	1671.42
475.897	678.275
480.639	425.103
485.378	329.236
490.116	258.793
494.85	139.485
499.582	158.961
504.312	254.384
509.039	211.51
513.764	94.1231
518.486	175.456
523.206	134.292
527.923	127.335
532.638	91.5532
537.35	106.947
542.059	67.5234
546.766	119.055
551.471	43.9741
556.173	22.0542
560.873	135.105
565.57	61.7056
570.264	215.596
574.957	149.71
579.646	177.079
584.333	218.731
589.018	228.56
593.7	221.552
598.379	232.823
603.056	453.409
607.73	916.509
612.402	1944.67
617.072	2610.03
621.739	1754.62
626.403	1342.49
631.065	1292.49
635.724	542.662
640.381	581.969
645.035	543.22
649.687	489.33
654.336	243.764
658.983	216.825
663.627	176.333
668.268	139.534
672.907	130.574
677.544	110.496
682.178	86.8516
686.809	64.0518
691.438	96.1753
696.065	223.309
700.688	104.565
705.31	174.474
709.929	14.4839
714.545	130.175
719.158	94.1021
723.77	152.049
728.378	154.526
732.984	0.436035
737.588	63.2495
742.189	148.5
746.787	92.8144
751.383	25.5449
755.976	111.626
760.567	15.1821
765.155	124.949
769.741	85.3799
774.324	123.945
778.904	22.0635
783.482	42.8535
788.058	11.9346
792.631	6.83203
797.201	180.904
801.769	32.3135
806.334	35.1699
810.897	26.4619
815.457	25.5371
820.014	197.398
824.569	37.042
829.122	95.4678
833.671	67.6728
838.219	26.1934
842.763	27.2422
847.306	42.5723
851.845	0.226563
856.382	38.7334
860.917	12.0312
865.448	125.995
869.978	29.999
874.505	2.69238
879.029	12.9258
883.55	9.0957
888.069	42.3223
892.586	103.121
897.1	1.27637
901.611	31.2422
906.12	2.01758
910.626	65.5156
915.129	59.7441
919.63	45.29
924.129	134.002
928.625	122.327
933.118	134.148
937.609	156.557
942.097	105.168
946.582	71.5478
951.065	164.161
955.546	81.6279
960.023	192.658
964.499	273.117
968.971	663.523
973.441	850.954
977.909	2707.23
982.374	18094
986.836	41903.5
991.295	29285.1
995.753	3253.15
1000.21	1110.59
1004.66	595.112
1009.11	504.915
1013.55	216.16
1018	287.709
1022.44	221.632
1026.88	95.75
1031.32	86.1338
1035.75	108.863
1040.18	84.75
1044.61	107.689
1049.04	74.9082
1053.46	14.3203
1057.88	74.7519
1062.3	109.524
1066.71	57.7305
1071.13	74.1826
1075.54	202.891
1079.94	200.815
1084.35	277.529
1088.75	203.156
1093.15	194.856
1097.55	313.118
1101.94	413.198
1106.34	406.878
1110.73	94.8389
1115.11	283.151
1119.5	384.356
1123.88	435.319
1128.26	338.579
1132.63	841.111
1137.01	1577.91
1141.38	2478.99
1145.75	2321.46
1150.12	1503.33
1154.48	720.482
1158.84	390.059
1163.2	522.991
1167.55	492.185
1171.91	243.677
1176.26	283.505
1180.61	132.713
1184.95	138.005
1189.29	3.52246
1193.63	99.8828
1197.97	102.822
1202.31	73.2529
1206.64	41.6514
1210.97	27.7285
1215.29	250.053
1219.62	155.007
1223.94	89.1934
1228.26	19.624
1232.57	70.6846
1236.89	31.4951
1241.2	156.209
1245.51	94.4219
1249.81	47.251
1254.12	118.231
1258.42	169.662
1262.72	154.602
1267.01	136.141
1271.3	184.866
1275.59	57.6211
1279.88	80.085
1284.17	166.525
1288.45	121.853
1292.73	163.302
1297.01	93.6582
1301.28	74.0176
1305.55	41.377
1309.82	194.436
1314.09	155.898
1318.35	0.268555
1322.61	103.169
1326.87	105.482
1331.13	47.5312
1335.38	92.9922
1339.63	200.382
1343.88	119.356
1348.12	10.2422
1352.37	57.8486
1356.61	147.991
1360.85	143.727
1365.08	20.791
1369.31	27.5439
1373.54	149.992
1377.77	56.8779
1381.99	29.9658
1386.22	191.953
1390.43	56.8135
1394.65	149.97
1398.87	125.138
1403.08	177.089
1407.29	77.7666
1411.49	114.067
1415.69	40.3965
1419.89	221.919
1424.09	192.202
1428.29	54.3682
1432.48	147.786
1436.67	146.108
1440.86	293.024
1445.04	115.028
1449.23	196.362
1453.4	177.802
1457.58	58.2295
1461.76	252.504
1465.93	182.754
1470.1	157.68
1474.26	297.246
1478.43	141.504
1482.59	121.191
1486.75	156.533
1490.9	105.667
1495.06	99.8535
1499.21	177.834
1503.35	165.273
1507.5	218.744
1511.64	218.73
1515.78	139.69
1519.92	151.995
1524.05	97.5625
1528.18	162.981
1532.31	142.801
1536.44	96.8262
1540.56	107.276
1544.69	189.338
1548.8	86.417
1552.92	405.977
1557.03	224.344
1561.14	21.1689
1565.25	170.887
1569.36	79.2334
