Measurement: Raman, 514 nm, ccw, Raman Data Processed
Mineral: Baryte
Rruff sample: R040036
Ideal chemistry: BaSO_4_
Locality: Cumbria County, England
Source: University of Arizona Mineral Museum
Description: Golden brown tabular crystal
Measured chemistry: Ba_1.00_S_1.00_O_4_; trace amounts of Pb
Pin_id: M00028
Orientation: Laser parallel to -a* (-1 0 0). Fiducial mark perpendicular to laser is parallel to -b [0 -1 0]
Raman shift (cm-1)	intensity
26.288	0
30.504	27.752
34.717	43.085
38.929	31.861
43.138	19.349
47.345	50.586
51.551	42.99
55.754	55.725
59.955	54.427
64.154	52.035
68.351	21.253
72.546	23.205
76.739	43.171
80.93	10.158
85.119	0.908
89.306	16.048
93.49	19.244
97.673	4.475
101.854	0.253
106.032	17.288
110.209	60.597
114.384	213.013
118.556	213.419
122.727	225.893
126.895	332.094
131.062	345.242
135.226	234.076
139.388	183.543
143.549	247.053
147.707	352.435
151.863	467.787
156.018	393.221
160.17	235.867
164.32	141.449
168.469	141.824
172.615	110.999
176.759	115.106
180.901	104.159
185.041	123.422
189.18	153.116
193.316	145.939
197.45	101.228
201.582	97.914
205.712	93.121
209.84	91.594
213.967	83.852
218.091	50.173
222.213	60.631
226.333	67.084
230.451	58.119
234.567	55.436
238.682	47.184
242.794	82.749
246.904	57.085
251.012	73.885
255.118	40.551
259.223	64.989
263.325	51.993
267.425	60.989
271.523	65.88
275.62	36.724
279.714	43.386
283.806	59.975
287.897	38.533
291.985	27.063
296.072	29.565
300.156	23.04
304.239	30.487
308.319	35.903
312.398	37.289
316.474	34.648
320.549	28.263
324.622	30.28
328.692	26.49
332.761	14.641
336.828	37.657
340.893	20.634
344.956	31.552
349.017	22.42
353.076	18.244
357.133	2.032
361.188	11.815
365.241	2.555
369.292	17.126
373.341	5.177
377.388	4.464
381.434	25.057
385.477	19.655
389.519	29.35
393.558	40.06
397.596	6.779
401.631	22.35
405.665	12.058
409.697	9.673
413.727	19.31
417.755	9.916
421.781	21.472
425.805	30.953
429.827	37.461
433.847	82.723
437.865	181.191
441.882	356.488
445.896	859.868
449.909	2356.22
453.919	4341.63
457.928	2412.03
461.935	1304.48
465.94	659.8
469.943	263.106
473.944	133.409
477.943	88.525
481.94	75.799
485.935	51.983
489.929	51.239
493.92	46.453
497.91	34.589
501.898	30.744
505.883	37.768
509.867	18.687
513.849	19.806
517.829	46.797
521.808	68.919
525.784	54.971
529.758	37.983
533.731	41.245
537.701	35.685
541.67	29.863
545.637	32.356
549.602	29.559
553.565	30.598
557.526	42.002
561.486	33.223
565.443	42.503
569.399	30.348
573.352	31.793
577.304	70.497
581.254	64.175
585.202	75.938
589.148	88.628
593.093	136.971
597.035	187.005
600.976	239.404
604.914	310.376
608.851	603.927
612.786	1683.22
616.719	4746.48
620.651	3724.39
624.58	1843.27
628.507	1472.13
632.433	1184.83
636.357	480.341
640.279	233.439
644.199	184.609
648.117	157.837
652.034	146.566
655.948	103.275
659.861	67.961
663.772	55.625
667.681	35.266
671.588	33.883
675.493	5.475
679.397	30.074
683.298	0.315
687.198	1.184
691.096	38.652
694.992	13.144
698.886	17.556
702.779	10.934
706.669	1.719
710.558	23.589
714.445	20.159
718.33	9.968
722.214	6.184
726.095	3.703
729.975	14.365
733.852	40.395
737.728	0.602
741.603	25.633
745.475	8.713
749.345	16.167
753.214	11.013
757.081	21.825
760.946	10.611
764.809	15.376
768.671	19.12
772.53	9.831
776.388	13.504
780.244	11.862
784.098	9.261
787.951	24.311
791.801	15.861
795.65	24.394
799.497	1.911
803.342	10.413
807.186	21.901
811.027	29.376
814.867	30.773
818.705	19.078
822.541	25.32
826.375	24.437
830.208	14.787
834.039	33.102
837.868	51.114
841.695	13.213
845.521	60.24
849.344	49.071
853.166	91.568
856.986	102.607
860.804	103.707
864.621	113.267
868.436	59.212
872.248	45.302
876.06	78.587
879.869	47.013
883.677	37.826
887.482	21.928
891.287	39.997
895.089	71.087
898.889	105.52
902.688	81.965
906.485	98.424
910.28	66.044
914.074	44.836
917.865	78.736
921.655	73.929
925.443	78.2
929.23	63.77
933.014	77.372
936.797	100
940.578	101.66
944.358	144.344
948.135	147.052
951.911	120.783
955.685	129.504
959.458	138.208
963.228	262.02
966.997	417.86
970.764	511.677
974.529	767.576
978.293	1222.51
982.055	3365.47
985.815	21258.5
989.573	60205.5
993.33	10342.6
997.085	2488.73
1000.84	1170.89
1004.59	743.092
1008.34	489.326
1012.09	366.592
1015.83	305.897
1019.58	325.243
1023.32	309.626
1027.06	319.047
1030.8	273.503
1034.54	183.991
1038.27	130.51
1042.01	101.238
1045.74	67.131
1049.47	81.46
1053.2	117.297
1056.93	365.064
1060.65	129.146
1064.38	107.749
1068.1	83.011
1071.82	120.748
1075.54	195.872
1079.25	337.895
1082.97	683.824
1086.68	629.787
1090.39	286.779
1094.11	153.81
1097.81	158.874
1101.52	269.967
1105.22	416.09
1108.93	185.256
1112.63	62.446
1116.33	36.662
1120.03	30.901
1123.72	34.159
1127.42	6.436
1131.11	19.732
1134.8	78.045
1138.49	139.379
1142.18	295.735
1145.87	373.107
1149.55	186.5
1153.23	128.908
1156.91	53.329
1160.59	33.763
1164.27	12.21
1167.95	9.667
1171.62	12.867
1175.3	5.685
1178.97	24.162
1182.64	10.645
1186.3	9.132
1189.97	24.618
1193.63	15.899
1197.3	21.439
1200.96	21.997
1204.62	9.561
1208.27	33.49
1211.93	47.217
1215.58	41.794
1219.24	76.229
1222.89	9.231
1226.54	32.645
1230.18	32.505
1233.83	23.104
1237.47	59.939
1241.12	111.598
1244.76	34.376
1248.4	82.86
1252.04	44.185
1255.67	22.515
1259.31	24.841
1262.94	19.162
1266.57	32.614
1270.2	68.41
1273.83	90.722
1277.45	72.391
1281.08	63.743
1284.7	43.016
1288.32	37.291
1291.94	46.542
1295.56	47.754
1299.17	59.931
1302.79	26.879
1306.4	47.964
1310.01	85.995
1313.62	62.997
1317.23	65.811
1320.84	63.708
1324.44	41.009
1328.04	49.914
1331.64	37.27
1335.24	29.439
1338.84	25.093
1342.44	24.309
1346.03	3.377
1349.63	14.967
1353.22	16.344
1356.81	5.755
1360.4	18.811
1363.98	13.634
1367.57	9.087
1371.15	13.48
1374.73	20.273
1378.32	20.327
1381.89	20.358
1385.47	31.365
1389.05	11.329
1392.62	16.252
1396.19	2.144
1399.76	7.005
1403.33	37.734
1406.9	1.961
1410.46	30.346
1414.03	14.15
1417.59	24.006
1421.15	9.868
1424.71	15.162
1428.27	24.054
1431.82	35.762
1435.38	57.482
1438.93	93.951
1442.48	179.858
1446.03	210.959
1449.58	207.61
1453.13	214.857
1456.67	259.359
1460.21	218.539
1463.76	158.691
1467.3	141.955
1470.83	117.49
1474.37	66.949
1477.91	58.511
1481.44	52.347
1484.97	73.472
1488.5	48.985
1492.03	35.198
1495.56	22.687
1499.08	10.497
