Measurement: Raman, 514 nm, ccw, Raman Data Processed
Mineral: Baryte
Rruff sample: R050335
Ideal chemistry: BaSO_4_
Locality: Bullion Mountains, San Bernardino County, California, USA
Source: California Institute of Technology
Description: Colorless cleavage fragment
Measured chemistry: (Ba_0.95_Sr_0.05_)_Î£=1_S_1.00_O_4_
Pin_id: M00174
Orientation: Laser parallel to -c* (0 0 -1). Fiducial mark perpendicular to laser is parallel to a [1 0 0]
Raman shift (cm-1)	intensity
93.48	0
98.416	175.411
103.349	91.5388
108.28	123.273
113.208	22.1587
118.134	78.335
123.058	76.438
127.979	99.1946
132.898	104.088
137.814	87.0498
142.728	167.85
147.639	256.42
152.549	363.699
157.455	311.96
162.359	201.787
167.261	89.1965
172.161	117.749
177.058	120.41
181.952	138.278
186.845	152.45
191.734	152.721
196.622	86.6128
201.507	89.7188
206.389	128.732
211.269	61.8723
216.147	7.89575
221.022	26.6941
225.895	17.8166
230.765	104.25
235.633	59.7144
240.498	8.06201
245.361	36.8086
250.222	40.4878
255.08	95.9846
259.936	103.453
264.789	72.3721
269.64	43.9211
274.488	58.3193
279.334	76.6802
284.178	26.3335
289.019	27.9412
293.857	46.6355
298.693	40.395
303.527	65.1699
308.358	69.0193
313.187	10.0652
318.013	144.902
322.837	28.9277
327.659	11.0063
332.478	73.1211
337.294	37.2683
342.108	116.447
346.92	14.3286
351.729	49.9163
356.535	6.89746
361.34	71.3757
366.141	24.6768
370.94	34.9919
375.737	13.3037
380.531	35.8174
385.323	3.94824
390.113	0.36499
394.9	23.2461
399.684	50.1597
404.466	39.6489
409.245	13.8381
414.022	13.6431
418.797	61.1377
423.569	15.6755
428.338	187.143
433.105	232.44
437.87	472.113
442.632	1316.87
447.391	2633.56
452.149	4446.41
456.903	3535.87
461.655	1929.71
466.405	783.675
471.152	278.525
475.897	239.565
480.639	105.642
485.378	42.7527
490.116	129.14
494.85	26.26
499.582	83.6272
504.312	10.5886
509.039	99.5278
513.764	64.854
518.486	1.88013
523.206	64.5957
527.923	41.7617
532.638	23.2427
537.35	58.8774
542.059	89.8848
546.766	34.0112
551.471	62.5547
556.173	125.061
560.873	113.791
565.57	17.3169
570.264	34.7378
574.957	135.772
579.646	45.3027
584.333	101.605
589.018	162.199
593.7	185.622
598.379	235.76
603.056	417.196
607.73	1229.41
612.402	2571.65
617.072	4044.1
621.739	2293.4
626.403	1458.72
631.065	1251.85
635.724	482.637
640.381	322.438
645.035	114.891
649.687	104.357
654.336	70.8364
658.983	86.0981
663.627	96.6416
668.268	63.2002
672.907	68.7539
677.544	48.3135
682.178	108.657
686.809	64.4873
691.438	16.1079
696.065	28.2222
700.688	28.773
705.31	102.693
709.929	55.6387
714.545	27.1421
719.158	33.5708
723.77	130.92
728.378	166.246
732.984	40.5366
737.588	64.2612
742.189	44.5176
746.787	63.7505
751.383	9.96777
755.976	56.1294
760.567	54.3057
765.155	21.0898
769.741	3.93701
774.324	30.9131
778.904	78.8603
783.482	89.8159
788.058	159.78
792.631	42.7344
797.201	62.0435
801.769	135.971
806.334	60.8852
810.897	63.2749
815.457	74.1455
820.014	21.6211
824.569	29.0181
829.122	53.7725
833.671	27.1704
838.219	65.6958
842.763	1.74414
847.306	47.4707
851.845	105.896
856.382	50.8584
860.917	82.0811
865.448	82.042
869.978	116.206
874.505	27.6763
879.029	8.87598
883.55	62.335
888.069	16.3525
892.586	75.0972
897.1	54.5772
901.611	36.1982
906.12	93.3687
910.626	49.855
915.129	50.4551
919.63	60.623
924.129	76.666
928.625	47.3438
933.118	44.1001
937.609	96.8955
942.097	153.738
946.582	130.639
951.065	124.591
955.546	101.827
960.023	201.312
964.499	365.349
968.971	496.01
973.441	828.281
977.909	2559.91
982.374	16098.3
986.836	46749.8
991.295	38267.4
995.753	4072.12
1000.21	1257.9
1004.66	665.778
1009.11	420.285
1013.55	290.324
1018	216.444
1022.44	117.678
1026.88	82.9639
1031.32	37.8384
1035.75	55.8569
1040.18	1.47168
1044.61	30.2236
1049.04	78.0801
1053.46	38.7441
1057.88	41.9746
1062.3	19.916
1066.71	34.0952
1071.13	27.3174
1075.54	82.0913
1079.94	83.5273
1084.35	252.402
1088.75	44.0513
1093.15	17.7905
1097.55	191.727
1101.94	274.863
1106.34	226.711
1110.73	64.894
1115.11	78.1909
1119.5	65.5781
1123.88	54.0449
1128.26	2.59033
1132.63	64.6133
1137.01	226.323
1141.38	462.108
1145.75	579.982
1150.12	335.927
1154.48	117.945
1158.84	92.0586
1163.2	99.2427
1167.55	96.8037
1171.91	43.2622
1176.26	29.4028
1180.61	8.6748
1184.95	114.867
1189.29	88.4712
1193.63	0.876465
1197.97	64.8989
1202.31	0.407715
1206.64	150.055
1210.97	7.45117
1215.29	34.3272
1219.62	40.3389
1223.94	53.4443
1228.26	97.4565
1232.57	183.333
1236.89	98.2407
1241.2	72.1753
1245.51	114.136
1249.81	73.1943
1254.12	134.186
1258.42	9.33887
1262.72	101.66
1267.01	47.6289
1271.3	60.6113
1275.59	78.9844
1279.88	131.042
1284.17	107.098
1288.45	187.839
1292.73	7.396
1297.01	38.7559
1301.28	10.4785
1305.55	247.86
1309.82	93.3457
1314.09	103.235
1318.35	64.4966
1322.61	0.716797
1326.87	57.9697
1331.13	51.8208
1335.38	6.99512
1339.63	151.561
1343.88	3.20801
1348.12	74.0508
1352.37	118.585
1356.61	129.173
1360.85	146.963
1365.08	40.6274
1369.31	98.3574
1373.54	112.973
1377.77	72.1689
1381.99	30.3237
1386.22	10.4419
1390.43	47.125
1394.65	51.1553
1398.87	6.15088
1403.08	173.925
1407.29	156.842
1411.49	131.624
1415.69	107.434
1419.89	89.0557
1424.09	2.47949
1428.29	193.664
1432.48	146.402
1436.67	127.93
1440.86	94.1103
1445.04	124.965
1449.23	202.76
1453.4	49.2105
1457.58	125.711
1461.76	12.7173
1465.93	69.7085
1470.1	32.8159
1474.26	164.859
1478.43	81.5591
1482.59	72.1025
1486.75	117.507
1490.9	208.24
1495.06	34.1475
1499.21	161.877
1503.35	83.2964
1507.5	106.474
1511.64	135.387
1515.78	69.3262
1519.92	97.6528
1524.05	103.972
1528.18	30.022
1532.31	36.4355
1536.44	120.682
1540.56	80.1777
1544.69	120.471
1548.8	96.6929
1552.92	22.7139
1557.03	73.6167
1561.14	133.98
1565.25	28.3955
1569.36	40.1538
