Measurement: Raman, 514 nm, ccw, Raman Data Processed
Mineral: Baryte
Rruff sample: R040036
Ideal chemistry: BaSO_4_
Locality: Cumbria County, England
Source: University of Arizona Mineral Museum
Description: Golden brown tabular crystal
Measured chemistry: Ba_1.00_S_1.00_O_4_; trace amounts of Pb
Pin_id: M00019
Orientation: Laser parallel to b* (0 1 0). Fiducial mark perpendicular to laser is parallel to c [0 0 1]
Raman shift (cm-1)	intensity
26.288	0
30.504	59.499
34.717	20.212
38.929	57.297
43.138	46.912
47.345	60.853
51.551	89.966
55.754	106.95
59.955	137.077
64.154	97.366
68.351	88.131
72.546	28.334
76.739	6.813
80.93	8.503
85.119	14.993
89.306	24.564
93.49	20.387
97.673	30.292
101.854	23.041
106.032	5.125
110.209	35.393
114.384	28.886
118.556	97.984
122.727	77.199
126.895	94.261
131.062	69.001
135.226	64.237
139.388	59.266
143.549	76.38
147.707	131.815
151.863	175.746
156.018	161.359
160.17	108.104
164.32	65.658
168.469	57.008
172.615	54.427
176.759	48.108
180.901	108.971
185.041	230.627
189.18	338.55
193.316	209.792
197.45	125.068
201.582	75.757
205.712	76.762
209.84	78.064
213.967	62.389
218.091	61.193
222.213	40.156
226.333	64.576
230.451	50.764
234.567	38.256
238.682	49.062
242.794	29.91
246.904	36.843
251.012	20.854
255.118	48.835
259.223	45.789
263.325	27.047
267.425	27.776
271.523	24.538
275.62	41.05
279.714	41.994
283.806	33.137
287.897	8.412
291.985	35.853
296.072	18.455
300.156	26.018
304.239	35.527
308.319	21.982
312.398	19.173
316.474	17.92
320.549	15.71
324.622	27.432
328.692	19.469
332.761	15.445
336.828	1.303
340.893	12.052
344.956	24.707
349.017	24.218
353.076	18.508
357.133	25.692
361.188	18.762
365.241	24.741
369.292	21.627
373.341	16.805
377.388	17.387
381.434	24.218
385.477	39.052
389.519	31.946
393.558	46.764
397.596	44.544
401.631	39.536
405.665	41.549
409.697	29.408
413.727	42.155
417.755	51.982
421.781	83.893
425.805	115.806
429.827	184.7
433.847	326.359
437.865	637.197
441.882	1329.9
445.896	3317.7
449.909	8218.52
453.919	8529.19
457.928	3197.85
461.935	1126.45
465.94	504.207
469.943	267.008
473.944	168.684
477.943	129.382
481.94	90.013
485.935	69.677
489.929	66.535
493.92	58.307
497.91	54.069
501.898	38.843
505.883	23.704
509.867	47.533
513.849	58.45
517.829	63.253
521.808	54.107
525.784	29.071
529.758	30.176
533.731	35.238
537.701	26.237
541.67	24.278
545.637	11.324
549.602	29.372
553.565	15.46
557.526	19.595
561.486	30.659
565.443	7.784
569.399	16.837
573.352	13.197
577.304	19.957
581.254	20.757
585.202	13.85
589.148	26.557
593.093	23.949
597.035	14.461
600.976	24.15
604.914	72.396
608.851	152.307
612.786	681.504
616.719	1341.91
620.651	614.297
624.58	313.617
628.507	361.323
632.433	303.389
636.357	266.602
640.279	367.911
644.199	700.22
648.117	747.014
652.034	299.982
655.948	129.033
659.861	49.253
663.772	37.207
667.681	1.915
671.588	0.944
675.493	31.961
679.397	36.849
683.298	18.021
687.198	31.229
691.096	38.056
694.992	5.09
698.886	8.831
702.779	20.542
706.669	10.302
710.558	10.124
714.445	8.768
718.33	2.387
722.214	18.044
726.095	9.61
729.975	3.152
733.852	2.329
737.728	12.838
741.603	7.741
745.475	5.836
749.345	7.545
753.214	0.108
757.081	13.212
760.946	3.496
764.809	8.247
768.671	7.966
772.53	15.153
776.388	12.684
780.244	16.444
784.098	1.547
787.951	9.611
791.801	3.643
795.65	10.653
799.497	19.638
803.342	11.596
807.186	16.453
811.027	6.676
814.867	0.778
818.705	7.102
822.541	7.957
826.375	2.217
830.208	7.587
834.039	8.297
837.868	1.128
841.695	1.744
845.521	12.394
849.344	7.103
853.166	13.485
856.986	26.097
860.804	8.391
864.621	10.996
868.436	9.576
872.248	11.068
876.06	8.929
879.869	14.386
883.677	20.445
887.482	20.513
891.287	29.133
895.089	35.164
898.889	42.358
902.688	20.416
906.485	55.55
910.28	39.071
914.074	37.09
917.865	37.696
921.655	20.925
925.443	24.712
929.23	47.282
933.014	31.784
936.797	69.1
940.578	39.678
944.358	61.325
948.135	67.808
951.911	58.437
955.685	107.091
959.458	141.417
963.228	265.648
966.997	319.365
970.764	472.796
974.529	672.535
978.293	1377.3
982.055	4967.01
985.815	42801.7
989.573	22889.5
993.33	3904.31
997.085	1238.12
1000.84	694.977
1004.59	463.887
1008.34	306.819
1012.09	226.651
1015.83	177.639
1019.58	176.655
1023.32	129.705
1027.06	110.782
1030.8	131.889
1034.54	81.029
1038.27	70.202
1042.01	58.416
1045.74	49.657
1049.47	50.927
1053.2	40.226
1056.93	45.555
1060.65	45.922
1064.38	11.319
1068.1	12.753
1071.82	8.221
1075.54	36.719
1079.25	31.245
1082.97	53.811
1086.68	74.409
1090.39	100.039
1094.11	190.71
1097.81	522.419
1101.52	1398.16
1105.22	1308.93
1108.93	501.726
1112.63	231.55
1116.33	115.902
1120.03	102.285
1123.72	68.195
1127.42	108.129
1131.11	238.238
1134.8	820.222
1138.49	1160.23
1142.18	583.268
1145.87	327.331
1149.55	197.422
1153.23	126.534
1156.91	175.668
1160.59	331.86
1164.27	811.177
1167.95	710.657
1171.62	318.198
1175.3	178.679
1178.97	93.925
1182.64	40.188
1186.3	49.466
1189.97	27.769
1193.63	42.21
1197.3	20.135
1200.96	42.833
1204.62	32.19
1208.27	10.817
1211.93	28.556
1215.58	43.758
1219.24	42.137
1222.89	37.596
1226.54	34.28
1230.18	15.839
1233.83	29.625
1237.47	39.032
1241.12	44.441
1244.76	33.957
1248.4	33.596
1252.04	16.289
1255.67	41.76
1259.31	20.197
1262.94	24.638
1266.57	16.152
1270.2	1.955
1273.83	15.582
1277.45	15.35
1281.08	23.802
1284.7	13.248
1288.32	0.312
1291.94	6.888
1295.56	17.518
1299.17	27.898
1302.79	10.755
1306.4	7.57
1310.01	24.884
1313.62	16.182
1317.23	0.464
1320.84	37.736
1324.44	16.987
1328.04	35.2
1331.64	1.382
1335.24	10.544
1338.84	18.684
1342.44	33.196
1346.03	9.89
1349.63	20.042
1353.22	21.998
1356.81	3.984
1360.4	5.014
1363.98	12.998
1367.57	21.97
1371.15	1.049
1374.73	5.986
1378.32	7.806
1381.89	6.61
1385.47	25.857
1389.05	15.244
1392.62	32.604
1396.19	25.95
1399.76	38.063
1403.33	11.597
1406.9	23.546
1410.46	21.805
1414.03	14.849
1417.59	18.646
1421.15	39.41
1424.71	33.56
1428.27	28.82
1431.82	47.983
1435.38	69.177
1438.93	72.831
1442.48	98.613
1446.03	94.192
1449.58	57.594
1453.13	76.707
1456.67	74.087
1460.21	91.162
1463.76	44.201
1467.3	41.323
1470.83	21.476
1474.37	34.6
1477.91	42.657
1481.44	29.926
1484.97	43.284
1488.5	41.085
1492.03	21.389
1495.56	4.328
1499.08	24.799
1502.61	0
