Measurement: Raman, 514 nm, ccw, Raman Data Processed
Mineral: Baryte
Rruff sample: R040036
Ideal chemistry: BaSO_4_
Locality: Cumbria County, England
Source: University of Arizona Mineral Museum
Description: Golden brown tabular crystal
Measured chemistry: Ba_1.00_S_1.00_O_4_; trace amounts of Pb
Pin_id: M00019
Orientation: Laser parallel to b* (0 1 0). Fiducial mark perpendicular to laser is parallel to c [0 0 1]
Raman shift (cm-1)	intensity
26.288	0
30.504	33.143
34.717	25.624
38.929	37.768
43.138	29.056
47.345	20.791
51.551	30.295
55.754	44.518
59.955	66.995
64.154	73.399
68.351	77.548
72.546	74.957
76.739	34.435
80.93	2.018
85.119	22.487
89.306	22.053
93.49	12.696
97.673	9.593
101.854	33.812
106.032	40.383
110.209	85.241
114.384	171.432
118.556	200.036
122.727	140.8
126.895	152.955
131.062	212.05
135.226	169.675
139.388	144.153
143.549	144.921
147.707	241.733
151.863	351.529
156.018	420.409
160.17	348.486
164.32	193.188
168.469	117.634
172.615	140.036
176.759	163.013
180.901	265.111
185.041	599.223
189.18	1092.4
193.316	821.748
197.45	335.794
201.582	188.375
205.712	119.463
209.84	81.986
213.967	95.685
218.091	82.421
222.213	69.023
226.333	64.113
230.451	45.053
234.567	55.204
238.682	64.338
242.794	35.701
246.904	40.523
251.012	50.743
255.118	50.046
259.223	47.764
263.325	35.049
267.425	68.248
271.523	45.383
275.62	38.449
279.714	30.445
283.806	30.373
287.897	12.237
291.985	9.081
296.072	22.79
300.156	24.483
304.239	31.119
308.319	22.699
312.398	23.223
316.474	12.694
320.549	4.886
324.622	0.46
328.692	10.679
332.761	9.775
336.828	2.765
340.893	33.656
344.956	28.471
349.017	18.217
353.076	26.902
357.133	16.519
361.188	17.098
365.241	26.606
369.292	23.941
373.341	29.15
377.388	31.346
381.434	32.443
385.477	41.708
389.519	28.796
393.558	51.917
397.596	42.003
401.631	29.266
405.665	25.522
409.697	35.63
413.727	46.821
417.755	58.889
421.781	76.907
425.805	122.81
429.827	196.725
433.847	297.558
437.865	631.166
441.882	1381.92
445.896	3444.74
449.909	8109.54
453.919	8287.36
457.928	3288.18
461.935	1403.85
465.94	581.034
469.943	285.626
473.944	186.273
477.943	108.956
481.94	87.629
485.935	68.375
489.929	44.222
493.92	49.008
497.91	56.023
501.898	39.437
505.883	52.176
509.867	47.903
513.849	48.666
517.829	55.544
521.808	70.508
525.784	47.462
529.758	39.46
533.731	33.471
537.701	46.508
541.67	28.545
545.637	48.548
549.602	50.53
553.565	35.594
557.526	31.658
561.486	32.014
565.443	39.079
569.399	36.317
573.352	32.738
577.304	28.979
581.254	27.119
585.202	26.249
589.148	41.562
593.093	31.765
597.035	44.764
600.976	67.167
604.914	87.128
608.851	228.395
612.786	723.246
616.719	1524.97
620.651	930.578
624.58	746.989
628.507	1098.02
632.433	1019.89
636.357	825.011
640.279	1174.39
644.199	2475.56
648.117	2961.85
652.034	1218.78
655.948	398.932
659.861	196.992
663.772	107.7
667.681	69.378
671.588	41.316
675.493	48.046
679.397	52.976
683.298	40.935
687.198	32.486
691.096	14.362
694.992	15.947
698.886	20.798
702.779	6.32
706.669	2.282
710.558	6.919
714.445	3.405
718.33	2.511
722.214	5.949
726.095	7.833
729.975	9.345
733.852	10.489
737.728	3.699
741.603	12.773
745.475	3.051
749.345	5.965
753.214	7.012
757.081	17.885
760.946	6.268
764.809	2.528
768.671	11.286
772.53	13.013
776.388	15.291
780.244	1.643
784.098	3.033
787.951	2.465
791.801	9.066
795.65	5.435
799.497	10.021
803.342	10.45
807.186	2.853
811.027	19.775
814.867	13.454
818.705	16.174
822.541	10.073
826.375	6.297
830.208	4.521
834.039	12.393
837.868	9.698
841.695	3.413
845.521	11.329
849.344	29.052
853.166	0.115
856.986	36.659
860.804	45.539
864.621	42.148
868.436	24.056
872.248	3.2
876.06	10.688
879.869	2.772
883.677	8.019
887.482	35.512
891.287	36.492
895.089	73.865
898.889	64.94
902.688	44.441
906.485	69.245
910.28	76.164
914.074	57.382
917.865	49.084
921.655	12.628
925.443	25.1
929.23	41.004
933.014	41.4
936.797	68.218
940.578	66.205
944.358	59.209
948.135	58.47
951.911	90.56
955.685	110.231
959.458	148.302
963.228	280.393
966.997	378.064
970.764	533.935
974.529	832.949
978.293	1591.05
982.055	5389.26
985.815	47324.5
989.573	33771.8
993.33	5729.09
997.085	1667.43
1000.84	921.802
1004.59	574.21
1008.34	409.624
1012.09	284.031
1015.83	229.521
1019.58	202.457
1023.32	192.462
1027.06	167.1
1030.8	93.786
1034.54	73.521
1038.27	66.301
1042.01	37.122
1045.74	30.984
1049.47	66.891
1053.2	57.844
1056.93	33.841
1060.65	49.885
1064.38	4.972
1068.1	8.105
1071.82	34.288
1075.54	44.513
1079.25	49.78
1082.97	96.096
1086.68	101.475
1090.39	123.913
1094.11	169.405
1097.81	456.957
1101.52	1159.57
1105.22	1178.24
1108.93	487.964
1112.63	243.739
1116.33	176.561
1120.03	194.423
1123.72	227.325
1127.42	420.267
1131.11	852.248
1134.8	2539.27
1138.49	4135.33
1142.18	3410.43
1145.87	2323.57
1149.55	1252.75
1153.23	752.972
1156.91	637.232
1160.59	972.607
1164.27	2144.95
1167.95	1975.32
1171.62	971.719
1175.3	512.411
1178.97	285.874
1182.64	205.366
1186.3	119.884
1189.97	96.429
1193.63	74.998
1197.3	61.592
1200.96	69.459
1204.62	74.3
1208.27	67.977
1211.93	64.798
1215.58	68.85
1219.24	74.392
1222.89	47.807
1226.54	36.24
1230.18	43.645
1233.83	52.272
1237.47	76.91
1241.12	58.571
1244.76	60.451
1248.4	80.766
1252.04	77.754
1255.67	49.397
1259.31	54.426
1262.94	37.388
1266.57	39.303
1270.2	30.501
1273.83	51.499
1277.45	38.419
1281.08	41.551
1284.7	26.534
1288.32	5.861
1291.94	26.134
1295.56	22.036
1299.17	8.92
1302.79	3.236
1306.4	4.549
1310.01	33.284
1313.62	43.989
1317.23	57.678
1320.84	34.35
1324.44	14.998
1328.04	18.157
1331.64	6.194
1335.24	4.708
1338.84	5.185
1342.44	9.626
1346.03	2.969
1349.63	13.606
1353.22	1.293
1356.81	25.026
1360.4	15.812
1363.98	11.642
1367.57	19.49
1371.15	22.59
1374.73	19.3
1378.32	14.293
1381.89	19.171
1385.47	3.963
1389.05	15.884
1392.62	8.71
1396.19	0.51
1399.76	7.18
1403.33	9.916
1406.9	27.294
1410.46	8.989
1414.03	0.326
1417.59	8.982
1421.15	38.302
1424.71	32.147
1428.27	40.203
1431.82	45.552
1435.38	61.633
1438.93	142.849
1442.48	144.766
1446.03	167.128
1449.58	147.363
1453.13	167.666
1456.67	177.078
1460.21	153.607
1463.76	127.655
1467.3	97.363
1470.83	76.29
1474.37	75.77
1477.91	64.024
1481.44	54.195
1484.97	40.712
1488.5	46.329
1492.03	10.081
1495.56	19.182
1499.08	8.857
1502.61	0
