Measurement: Raman, 514 nm, ccw, Raman Data Processed
Mineral: Baryte
Rruff sample: R040036
Ideal chemistry: BaSO_4_
Locality: Cumbria County, England
Source: University of Arizona Mineral Museum
Description: Golden brown tabular crystal
Measured chemistry: Ba_1.00_S_1.00_O_4_; trace amounts of Pb
Pin_id: M00021
Orientation: Laser parallel to c* (0 0 1). Fiducial mark perpendicular to laser is parallel to -a [-1 0 0]
Raman shift (cm-1)	intensity
26.288	0
30.504	38.701
34.717	74.709
38.929	78.428
43.138	53.603
47.345	112.271
51.551	69.948
55.754	92.849
59.955	120.299
64.154	105.198
68.351	79.665
72.546	51.398
76.739	38.997
80.93	2.675
85.119	4.174
89.306	44.278
93.49	24.522
97.673	24.072
101.854	20.285
106.032	28.123
110.209	60.35
114.384	96.734
118.556	182.24
122.727	99.472
126.895	98.627
131.062	105.919
135.226	106.035
139.388	113.894
143.549	132.248
147.707	162.026
151.863	307.013
156.018	307.811
160.17	193.515
164.32	124.716
168.469	121.938
172.615	108.868
176.759	100.697
180.901	119.323
185.041	259.949
189.18	468.59
193.316	327.177
197.45	166.809
201.582	123.398
205.712	119.968
209.84	94.809
213.967	84.698
218.091	71.993
222.213	60.619
226.333	58.548
230.451	68.1
234.567	63.003
238.682	57.943
242.794	58.944
246.904	48.791
251.012	44.231
255.118	37.421
259.223	46.385
263.325	41.721
267.425	53.699
271.523	29.305
275.62	42.486
279.714	29.805
283.806	29.157
287.897	29.362
291.985	16.63
296.072	33.975
300.156	47.258
304.239	33.48
308.319	31.644
312.398	34.753
316.474	28.81
320.549	18.731
324.622	37.369
328.692	28.154
332.761	26.8
336.828	25.312
340.893	37.707
344.956	37
349.017	27.203
353.076	37.331
357.133	31.291
361.188	42.994
365.241	30.572
369.292	40.089
373.341	43.534
377.388	23.2
381.434	26.733
385.477	27.224
389.519	39.74
393.558	41.172
397.596	24.653
401.631	22.133
405.665	24.7
409.697	37.338
413.727	36.998
417.755	41.398
421.781	39.92
425.805	52.328
429.827	95.702
433.847	114.056
437.865	164.425
441.882	349.889
445.896	676.307
449.909	1727.67
453.919	2741.07
457.928	2569.48
461.935	4831.84
465.94	2507.1
469.943	764.361
473.944	323.651
477.943	168.021
481.94	120.407
485.935	88.875
489.929	82.356
493.92	50.841
497.91	36.194
501.898	39.554
505.883	20.05
509.867	23.575
513.849	42.115
517.829	34.159
521.808	26.163
525.784	28.604
529.758	27.148
533.731	23.712
537.701	12.561
541.67	12.28
545.637	5.934
549.602	9.565
553.565	22.403
557.526	2.195
561.486	3.183
565.443	8.889
569.399	19.638
573.352	20.473
577.304	15.426
581.254	11.224
585.202	11.9
589.148	12.596
593.093	22.437
597.035	37.102
600.976	31.905
604.914	48.754
608.851	109.382
612.786	375.114
616.719	1145.83
620.651	810.564
624.58	586.538
628.507	1044.63
632.433	1049.22
636.357	489.041
640.279	304.69
644.199	452.639
648.117	674.246
652.034	324.009
655.948	108.697
659.861	54.225
663.772	30.02
667.681	12.585
671.588	1.036
675.493	1.47
679.397	6.135
683.298	14.767
687.198	20.496
691.096	1.077
694.992	8.369
698.886	10.607
702.779	20.693
706.669	2.058
710.558	11.183
714.445	3.601
718.33	16.591
722.214	2.666
726.095	3.81
729.975	0.934
733.852	13.036
737.728	4.057
741.603	13.395
745.475	3.742
749.345	12.638
753.214	0.193
757.081	7.767
760.946	0.706
764.809	14.383
768.671	5.49
772.53	4.659
776.388	1.833
780.244	7.03
784.098	1.255
787.951	8.504
791.801	14.222
795.65	1.927
799.497	0.611
803.342	8.273
807.186	8.911
811.027	3.462
814.867	0.104
818.705	0.482
822.541	9.813
826.375	3.23
830.208	10.432
834.039	9.679
837.868	3.144
841.695	17.981
845.521	5.518
849.344	15.916
853.166	18.004
856.986	30.605
860.804	13.399
864.621	31.737
868.436	17.025
872.248	0.792
876.06	21.493
879.869	24.669
883.677	5.736
887.482	24.064
891.287	31.201
895.089	43.45
898.889	53.587
902.688	62.171
906.485	41.328
910.28	24.479
914.074	42.456
917.865	52.693
921.655	20.734
925.443	51.81
929.23	49.113
933.014	32.244
936.797	35.532
940.578	56.575
944.358	48.823
948.135	73.179
951.911	79.52
955.685	88.641
959.458	107.81
963.228	162.829
966.997	333.772
970.764	375.19
974.529	568.055
978.293	964.522
982.055	2736.01
985.815	21437.5
989.573	37485
993.33	6364.57
997.085	1560.13
1000.84	778.706
1004.59	473.304
1008.34	345.913
1012.09	302.523
1015.83	230.902
1019.58	169.269
1023.32	154.905
1027.06	148.634
1030.8	131.39
1034.54	86.173
1038.27	78.988
1042.01	76.834
1045.74	61.702
1049.47	63.597
1053.2	29.517
1056.93	63.466
1060.65	50.439
1064.38	56.441
1068.1	51.47
1071.82	25.524
1075.54	11.617
1079.25	66.734
1082.97	62.893
1086.68	77.069
1090.39	66.275
1094.11	64.513
1097.81	129.783
1101.52	233.09
1105.22	281.428
1108.93	144.808
1112.63	78.219
1116.33	75.655
1120.03	125.116
1123.72	183.597
1127.42	235.099
1131.11	425.625
1134.8	960.176
1138.49	2114.75
1142.18	3230.34
1145.87	2995.95
1149.55	1562.6
1153.23	746.252
1156.91	393.031
1160.59	325.858
1164.27	453.9
1167.95	513.737
1171.62	286.686
1175.3	173.439
1178.97	84.213
1182.64	35.085
1186.3	19.881
1189.97	24.68
1193.63	27.486
1197.3	26.641
1200.96	27.479
1204.62	17.736
1208.27	25.825
1211.93	1.986
1215.58	37.559
1219.24	21.462
1222.89	34.86
1226.54	62.081
1230.18	46.261
1233.83	35.652
1237.47	63.346
1241.12	44.136
1244.76	41.071
1248.4	40.258
1252.04	3.241
1255.67	11.084
1259.31	4.217
1262.94	27.413
1266.57	26.289
1270.2	37.2
1273.83	11.064
1277.45	1.096
1281.08	3.731
1284.7	4.445
1288.32	24.368
1291.94	7.439
1295.56	10.21
1299.17	2.954
1302.79	14.665
1306.4	22.337
1310.01	13.961
1313.62	10.553
1317.23	6.123
1320.84	27.66
1324.44	11.83
1328.04	29.65
1331.64	6.103
1335.24	10.511
1338.84	8.125
1342.44	8.803
1346.03	1.496
1349.63	11.761
1353.22	5.008
1356.81	6.811
1360.4	16.647
1363.98	6.514
1367.57	10.83
1371.15	3.729
1374.73	5.042
1378.32	0.339
1381.89	33.346
1385.47	29
1389.05	6.632
1392.62	8.222
1396.19	12.529
1399.76	8.655
1403.33	39.754
1406.9	18.228
1410.46	22.551
1414.03	35.505
1417.59	11.335
1421.15	14.782
1424.71	28.744
1428.27	26.622
1431.82	19.054
1435.38	43.246
1438.93	43.587
1442.48	93.033
1446.03	108.886
1449.58	77.458
1453.13	78.453
1456.67	89.496
1460.21	57.486
1463.76	43.144
1467.3	35.787
1470.83	20.62
1474.37	15.438
1477.91	26.262
1481.44	22.072
1484.97	16.052
1488.5	19.137
1492.03	2.589
1495.56	27.027
1499.08	20.714
