Measurement: Raman, 514 nm, ccw, Raman Data Processed
Mineral: Baryte
Rruff sample: R040036
Ideal chemistry: BaSO_4_
Locality: Cumbria County, England
Source: University of Arizona Mineral Museum
Description: Golden brown tabular crystal
Measured chemistry: Ba_1.00_S_1.00_O_4_; trace amounts of Pb
Pin_id: M00019
Orientation: Laser parallel to b* (0 1 0). Fiducial mark perpendicular to laser is parallel to c [0 0 1]
Raman shift (cm-1)	intensity
26.288	0
30.504	33.738
34.717	12.327
38.929	30.388
43.138	32.298
47.345	38.128
51.551	52.206
55.754	54.725
59.955	64.511
64.154	61.419
68.351	57.443
72.546	42.789
76.739	1.213
80.93	5.694
85.119	12.86
89.306	18.446
93.49	12.138
97.673	25.102
101.854	34.279
106.032	42.762
110.209	79.494
114.384	160.999
118.556	217.034
122.727	152.934
126.895	133.157
131.062	181.725
135.226	149.329
139.388	133.761
143.549	114.869
147.707	174.586
151.863	311.569
156.018	337.089
160.17	271.129
164.32	146.805
168.469	91.368
172.615	96.813
176.759	128.498
180.901	198.914
185.041	464.426
189.18	818.242
193.316	626.224
197.45	284.397
201.582	163.033
205.712	108.105
209.84	86.385
213.967	64.432
218.091	51.141
222.213	48.692
226.333	47.372
230.451	41.775
234.567	72.245
238.682	37.961
242.794	40.401
246.904	18.559
251.012	38.319
255.118	29.125
259.223	37.275
263.325	34.955
267.425	46.527
271.523	26.047
275.62	30.508
279.714	39.914
283.806	29.271
287.897	0.578
291.985	12.836
296.072	28.05
300.156	17.223
304.239	28.354
308.319	11.444
312.398	20.491
316.474	30.497
320.549	15.466
324.622	22.387
328.692	21.202
332.761	11.917
336.828	17.543
340.893	12.093
344.956	19.027
349.017	18.007
353.076	21.388
357.133	18.732
361.188	1.01
365.241	25.305
369.292	14.151
373.341	15.077
377.388	13.101
381.434	3.76
385.477	27.185
389.519	35.165
393.558	42.063
397.596	32.019
401.631	18.982
405.665	15.971
409.697	44.976
413.727	32.032
417.755	33.872
421.781	70.724
425.805	133.702
429.827	221.661
433.847	332.306
437.865	672.999
441.882	1480.83
445.896	3768.51
449.909	9270.28
453.919	10244
457.928	4036.66
461.935	1486.47
465.94	660.142
469.943	325.801
473.944	203.449
477.943	129.136
481.94	108.756
485.935	57.474
489.929	69.263
493.92	59.01
497.91	42.728
501.898	45.521
505.883	52.057
509.867	42.907
513.849	37.704
517.829	76.521
521.808	43.248
525.784	53.918
529.758	29.84
533.731	34.81
537.701	28.778
541.67	8.744
545.637	13.716
549.602	32.687
553.565	20.675
557.526	33.64
561.486	12.814
565.443	38.97
569.399	30.071
573.352	27.244
577.304	35.28
581.254	38.704
585.202	38.653
589.148	36.8
593.093	40.285
597.035	44.244
600.976	51.183
604.914	79.279
608.851	196.687
612.786	715.062
616.719	1617.17
620.651	914.003
624.58	572.197
628.507	728.095
632.433	707.439
636.357	589.712
640.279	863.905
644.199	1828.98
648.117	2224.53
652.034	924.395
655.948	321.608
659.861	159.391
663.772	69.029
667.681	41.816
671.588	31.757
675.493	16.645
679.397	41.186
683.298	28.39
687.198	8.281
691.096	6.888
694.992	25.79
698.886	4.482
702.779	0.951
706.669	4.387
710.558	2.306
714.445	12.964
718.33	0.797
722.214	7.401
726.095	11.565
729.975	10.303
733.852	5.782
737.728	12.676
741.603	9.913
745.475	6.899
749.345	1.155
753.214	10.746
757.081	16.609
760.946	12.425
764.809	0.811
768.671	12.082
772.53	5.394
776.388	4.749
780.244	2.145
784.098	9.58
787.951	0.059
791.801	13.578
795.65	9.861
799.497	17.271
803.342	6.652
807.186	13.994
811.027	3.677
814.867	6.61
818.705	12.13
822.541	6.904
826.375	7.218
830.208	9.668
834.039	14.54
837.868	12.337
841.695	1.274
845.521	21.203
849.344	17.973
853.166	9.906
856.986	22.688
860.804	49.268
864.621	51.231
868.436	8.625
872.248	14.727
876.06	11.204
879.869	5.067
883.677	29.772
887.482	20.028
891.287	63.531
895.089	77.176
898.889	83.074
902.688	58.496
906.485	63.711
910.28	59.548
914.074	41.971
917.865	34.507
921.655	40.911
925.443	31.233
929.23	47.69
933.014	67.463
936.797	57.291
940.578	59.253
944.358	65.71
948.135	71.601
951.911	102.394
955.685	121.135
959.458	168.604
963.228	286.426
966.997	412.139
970.764	543.672
974.529	808.795
978.293	1582.8
982.055	5241.98
985.815	46328.2
989.573	34465.4
993.33	5871.72
997.085	1701.04
1000.84	895.379
1004.59	585.756
1008.34	390.172
1012.09	289.62
1015.83	208.042
1019.58	198.561
1023.32	205.121
1027.06	136.722
1030.8	109.362
1034.54	80.052
1038.27	67.787
1042.01	53.562
1045.74	48.536
1049.47	37.244
1053.2	43.152
1056.93	62.104
1060.65	35.104
1064.38	32.148
1068.1	8.241
1071.82	30.381
1075.54	38.567
1079.25	50.802
1082.97	110.094
1086.68	84.444
1090.39	118.847
1094.11	205.309
1097.81	554.82
1101.52	1450.39
1105.22	1548.03
1108.93	629.704
1112.63	316.43
1116.33	165.201
1120.03	152.011
1123.72	185.422
1127.42	241.746
1131.11	526.671
1134.8	1711.63
1138.49	2888.63
1142.18	1963.67
1145.87	1267.74
1149.55	699.845
1153.23	460.993
1156.91	416.179
1160.59	725.4
1164.27	1635.72
1167.95	1546.01
1171.62	750.338
1175.3	375.686
1178.97	200.062
1182.64	111.466
1186.3	84.897
1189.97	54.353
1193.63	47.834
1197.3	41.34
1200.96	51.518
1204.62	52.187
1208.27	42.122
1211.93	50.441
1215.58	49.246
1219.24	41.387
1222.89	15.046
1226.54	41.067
1230.18	48.669
1233.83	34.719
1237.47	67.574
1241.12	69.482
1244.76	43.88
1248.4	22.668
1252.04	59.393
1255.67	30.15
1259.31	14.952
1262.94	41.775
1266.57	60.556
1270.2	42.348
1273.83	55.149
1277.45	27.985
1281.08	12.935
1284.7	31.231
1288.32	22.069
1291.94	40.965
1295.56	28.776
1299.17	0.452
1302.79	19.288
1306.4	21.984
1310.01	20.651
1313.62	17.288
1317.23	29.917
1320.84	44.532
1324.44	52.134
1328.04	12.72
1331.64	6.262
1335.24	15.233
1338.84	1.763
1342.44	23.324
1346.03	6.923
1349.63	28.554
1353.22	14.225
1356.81	5.925
1360.4	21.653
1363.98	7.584
1367.57	13.798
1371.15	21.004
1374.73	8.226
1378.32	16.824
1381.89	3.634
1385.47	14.436
1389.05	2.231
1392.62	9.016
1396.19	8.775
1399.76	18.428
1403.33	22.138
1406.9	21.849
1410.46	22.554
1414.03	26.257
1417.59	4.994
1421.15	14.91
1424.71	32.432
1428.27	39.333
1431.82	63.706
1435.38	84.772
1438.93	65.077
1442.48	140.866
1446.03	154.542
1449.58	175.589
1453.13	154.562
1456.67	164.432
1460.21	138.055
1463.76	99.574
1467.3	82.413
1470.83	69.488
1474.37	63.642
1477.91	63.654
1481.44	43.638
1484.97	58.892
1488.5	41.299
1492.03	20.885
1495.56	21.854
1499.08	7.471
1502.61	0
