Measurement: Raman, 514 nm, ccw, Raman Data Processed
Mineral: Baryte
Rruff sample: R040036
Ideal chemistry: BaSO_4_
Locality: Cumbria County, England
Source: University of Arizona Mineral Museum
Description: Golden brown tabular crystal
Measured chemistry: Ba_1.00_S_1.00_O_4_; trace amounts of Pb
Pin_id: M00019
Orientation: Laser parallel to b* (0 1 0). Fiducial mark perpendicular to laser is parallel to c [0 0 1]
Raman shift (cm-1)	intensity
26.288	0
30.504	68.177
34.717	8.634
38.929	102.408
43.138	62.635
47.345	101.957
51.551	133.977
55.754	150.995
59.955	147.961
64.154	161.147
68.351	136.475
72.546	80.771
76.739	53.82
80.93	15.645
85.119	29.928
89.306	30.953
93.49	13.367
97.673	22.337
101.854	15.523
106.032	25.918
110.209	76.805
114.384	118.883
118.556	120.07
122.727	160.893
126.895	159.41
131.062	169.009
135.226	173.199
139.388	156.439
143.549	157.802
147.707	288.895
151.863	419.543
156.018	433.988
160.17	301.731
164.32	174.353
168.469	129.646
172.615	142.276
176.759	147.964
180.901	284.607
185.041	613.331
189.18	955.23
193.316	627.038
197.45	286.403
201.582	193.917
205.712	139.869
209.84	139.069
213.967	99.337
218.091	133.383
222.213	106.54
226.333	106.758
230.451	97.606
234.567	105.555
238.682	79.4
242.794	76.471
246.904	79.628
251.012	69.975
255.118	78.763
259.223	58.243
263.325	56.846
267.425	51.522
271.523	58.45
275.62	59.916
279.714	43.577
283.806	52.088
287.897	62.428
291.985	64.609
296.072	48.048
300.156	47.346
304.239	44.596
308.319	65.684
312.398	49.632
316.474	57.813
320.549	42.009
324.622	53.025
328.692	58.32
332.761	18.418
336.828	45.278
340.893	68.924
344.956	40.433
349.017	56.837
353.076	56.721
357.133	57.278
361.188	52.48
365.241	55.55
369.292	46.535
373.341	41.256
377.388	52.031
381.434	58.884
385.477	48.506
389.519	61.129
393.558	62.88
397.596	61.591
401.631	47.517
405.665	51.035
409.697	66.467
413.727	69.246
417.755	54.745
421.781	67.271
425.805	88.437
429.827	132.873
433.847	219.216
437.865	435.683
441.882	952.041
445.896	2343.21
449.909	5208.41
453.919	4792.59
457.928	2022.9
461.935	999.168
465.94	464.255
469.943	204.36
473.944	132.463
477.943	97.397
481.94	60.45
485.935	39.685
489.929	19.842
493.92	40.975
497.91	29.21
501.898	28.443
505.883	36.53
509.867	32.715
513.849	52.944
517.829	23.985
521.808	33.193
525.784	31.242
529.758	29.989
533.731	25.448
537.701	20.993
541.67	13.524
545.637	29.122
549.602	22.612
553.565	34.188
557.526	14.845
561.486	17.414
565.443	35.072
569.399	56.041
573.352	36.367
577.304	22.042
581.254	12.491
585.202	49.095
589.148	42.146
593.093	43.272
597.035	47.825
600.976	55.622
604.914	118.193
608.851	211.732
612.786	678.607
616.719	1350.13
620.651	902.788
624.58	899.326
628.507	1541.22
632.433	1220.5
636.357	808.279
640.279	1015.91
644.199	1953.55
648.117	2130.4
652.034	839.306
655.948	308.568
659.861	135.09
663.772	74.45
667.681	50.3
671.588	44.842
675.493	36.747
679.397	34.234
683.298	12.278
687.198	2.506
691.096	37.865
694.992	0.804
698.886	10.697
702.779	7.102
706.669	1.024
710.558	5.08
714.445	16.244
718.33	0.392
722.214	16.274
726.095	20.054
729.975	4.4
733.852	23.225
737.728	14.817
741.603	2.352
745.475	1.22
749.345	2.316
753.214	7.11
757.081	9.498
760.946	4.15
764.809	3.164
768.671	2.437
772.53	13.324
776.388	6.124
780.244	2.964
784.098	9.841
787.951	21.765
791.801	8.263
795.65	29.262
799.497	4.769
803.342	11.837
807.186	14.055
811.027	22.092
814.867	11.286
818.705	6.477
822.541	28.161
826.375	19.676
830.208	10.358
834.039	7.886
837.868	15.644
841.695	13.808
845.521	34.194
849.344	10.214
853.166	5.328
856.986	25.011
860.804	25.002
864.621	29.84
868.436	0.896
872.248	13.072
876.06	11.43
879.869	18.534
883.677	8.754
887.482	14.004
891.287	39.394
895.089	54.359
898.889	61.363
902.688	67.726
906.485	68.607
910.28	44.65
914.074	54.735
917.865	34.893
921.655	19.776
925.443	31.359
929.23	27.693
933.014	52.116
936.797	65.116
940.578	69.263
944.358	94.363
948.135	105.944
951.911	81.91
955.685	109.189
959.458	149.664
963.228	296.039
966.997	347.267
970.764	486.833
974.529	778.093
978.293	1599.56
982.055	5682.2
985.815	48782.8
989.573	29339.4
993.33	5326.17
997.085	1564.94
1000.84	859.741
1004.59	560.566
1008.34	370.436
1012.09	276.658
1015.83	231.938
1019.58	196.821
1023.32	155.825
1027.06	143.866
1030.8	103.946
1034.54	96.063
1038.27	70.217
1042.01	55.411
1045.74	61.936
1049.47	63.914
1053.2	24.225
1056.93	52.577
1060.65	30.975
1064.38	32.417
1068.1	6.896
1071.82	15.424
1075.54	43.999
1079.25	24.629
1082.97	85.31
1086.68	101.045
1090.39	92.832
1094.11	107.673
1097.81	254.56
1101.52	637.492
1105.22	604.461
1108.93	276.481
1112.63	175.553
1116.33	165.662
1120.03	185.807
1123.72	261.987
1127.42	467.203
1131.11	969.453
1134.8	2709.74
1138.49	4503.06
1142.18	4711.43
1145.87	3324.83
1149.55	1741.28
1153.23	966.76
1156.91	728.273
1160.59	960.098
1164.27	1772.67
1167.95	1581.27
1171.62	803.903
1175.3	414.568
1178.97	231.249
1182.64	151.955
1186.3	92.683
1189.97	74.434
1193.63	46.293
1197.3	37.074
1200.96	35.42
1204.62	57.65
1208.27	45.113
1211.93	66.65
1215.58	66.085
1219.24	67.074
1222.89	66.219
1226.54	38.984
1230.18	53.26
1233.83	54.279
1237.47	56.442
1241.12	80.941
1244.76	60.874
1248.4	39.89
1252.04	48.837
1255.67	50.881
1259.31	34.852
1262.94	40.152
1266.57	33.185
1270.2	15.98
1273.83	31.435
1277.45	37.748
1281.08	35.048
1284.7	3.094
1288.32	12.116
1291.94	23.133
1295.56	26.16
1299.17	15.109
1302.79	7.825
1306.4	0.902
1310.01	14.746
1313.62	8.567
1317.23	33.375
1320.84	43.167
1324.44	2.921
1328.04	32.619
1331.64	7.73
1335.24	0.119
1338.84	19.551
1342.44	5.974
1346.03	1.538
1349.63	28.09
1353.22	21.692
1356.81	0.34
1360.4	0.023
1363.98	8.262
1367.57	15.479
1371.15	17.85
1374.73	7.029
1378.32	25.67
1381.89	40.644
1385.47	13.604
1389.05	36.533
1392.62	7.418
1396.19	30.271
1399.76	43.759
1403.33	22.56
1406.9	9.333
1410.46	17.105
1414.03	35.741
1417.59	24.715
1421.15	11.852
1424.71	19.498
1428.27	29.995
1431.82	84.044
1435.38	117.757
1438.93	111.969
1442.48	139.908
1446.03	136.698
1449.58	153.669
1453.13	171.128
1456.67	163.713
1460.21	179.416
1463.76	117.836
1467.3	94.697
1470.83	86.129
1474.37	79.717
1477.91	84.093
1481.44	49.76
1484.97	44.225
1488.5	31.399
1492.03	12.44
1495.56	11.765
1499.08	16.584
1502.61	0
