Measurement: Raman, 514 nm, ccw, Raman Data Processed
Mineral: Baryte
Rruff sample: R050375
Ideal chemistry: BaSO_4_
Locality: unknown
Source: Eugene Schlepp
Description: Pale green tabular crystals
Measured chemistry: Ba_1.00_SO_4_
Pin_id: L01233
Orientation: Laser parallel to b* (0 1 0). Fiducial mark perpendicular to laser is parallel to -c [0 0 -1]
Raman shift (cm-1)	intensity
51.431	0
56.387	53.6226
61.341	8.00436
66.292	41.2673
71.241	267.801
76.187	607.152
81.131	680.015
86.072	962.046
91.012	1620.34
95.948	1339.89
100.883	1311.04
105.815	1107.49
110.744	994.135
115.671	888.84
120.596	877.395
125.519	873.62
130.439	867.527
135.356	844.726
140.271	836.601
145.184	793.281
150.094	905.881
155.002	959.709
159.908	902.856
164.811	692.294
169.711	746.903
174.61	701.234
179.505	808.283
184.399	913.038
189.29	1338.49
194.178	1322.61
199.064	815.332
203.948	610.647
208.829	489.115
213.708	502.681
218.585	443.337
223.459	398.16
228.33	391.928
233.199	365.578
238.066	372.03
242.93	323.6
247.792	391.567
252.651	294.126
257.508	294.197
262.363	346.894
267.215	367.501
272.064	304.564
276.912	295.048
281.756	304.096
286.598	283.367
291.438	296.107
296.276	253.307
301.111	193.959
305.943	238.046
310.773	200.534
315.601	151.428
320.426	171.695
325.248	200.33
330.068	197.317
334.886	148.644
339.701	146.305
344.514	140.706
349.324	94.7424
354.132	63.219
358.938	10.6521
363.741	36.3586
368.541	37.6362
373.339	31.3093
378.135	62.3643
382.928	25.7878
387.718	22.4399
392.506	54.0554
397.292	2.68848
402.075	17.8965
406.856	24.6982
411.634	55.3066
416.41	18.751
421.183	26.155
425.954	73.1423
430.722	147.731
435.488	452.642
440.251	1328.91
445.012	3605.61
449.77	7118.33
454.526	10207.6
459.28	3372.9
464.03	1018.76
468.779	413.435
473.525	220.316
478.268	135.402
483.009	55.6855
487.747	138.157
492.483	14.8118
497.217	141.621
501.948	73.5891
506.676	64.6853
511.402	74.096
516.125	38.2456
520.846	125.743
525.565	90.3618
530.281	41.1304
534.994	164.892
539.705	57.3372
544.413	171.682
549.119	63.2007
553.822	47.9641
558.523	20.5596
563.222	15.4346
567.917	36.7527
572.611	94.8237
577.302	72.9959
581.99	55.0967
586.676	60.8611
591.359	31.5618
596.04	58.811
600.718	106.981
605.394	177.744
610.067	465.596
614.737	969.851
619.406	1515.06
624.071	860.967
628.734	979.961
633.395	962.813
638.053	1128.63
642.708	1869.5
647.361	2940.51
652.012	1863.35
656.66	417.16
661.305	145.948
665.948	48.7378
670.588	33.595
675.226	36.9966
679.861	60.8447
684.494	29.7918
689.124	28.699
693.752	18.8872
698.377	71.4797
702.999	65.9595
707.619	9.29004
712.237	19.54
716.852	25.658
721.464	57.439
726.074	56.9651
730.681	63.667
735.286	78.2593
739.888	69.7424
744.488	80.7695
749.085	48.4302
753.68	87.9739
758.272	118.175
762.861	159.151
767.448	92.0408
772.033	119.843
776.614	73.606
781.194	158.242
785.77	190.861
790.345	158.479
794.916	163.896
799.485	178.258
804.052	91.9165
808.616	118.863
813.177	150.469
817.736	86.1628
822.292	64.6621
826.846	136.702
831.397	126.224
835.945	81.9836
840.491	108.677
845.035	72.6672
849.576	85.093
854.114	168.811
858.65	63.0996
863.183	57.3469
867.713	99.6465
872.241	73.3648
876.767	62.8723
881.29	94.0815
885.81	87.7048
890.328	30.2837
894.843	36.6875
899.356	38.3721
903.866	32.9443
908.373	105.487
912.878	86.8538
917.38	79.4741
921.88	2.06714
926.377	45.4636
930.872	24.0835
935.364	3.93555
939.853	0.574463
944.34	43.2224
948.824	64.8337
953.306	7.59204
957.785	58.0847
962.261	137.86
966.735	326.718
971.207	483.657
975.675	918.57
980.141	3730.64
984.605	17734.8
989.066	59364.8
993.524	9930.18
997.98	1836.58
1002.43	766.053
1006.88	458.305
1011.33	308.397
1015.78	204.419
1020.22	113.788
1024.66	87.2402
1029.1	101.048
1033.53	121.051
1037.97	87.1284
1042.4	47.2827
1046.82	22.477
1051.25	124.792
1055.67	27.9854
1060.09	53.4629
1064.51	19.9858
1068.92	4.61231
1073.33	11.2671
1077.74	23.0898
1082.15	72.3877
1086.55	56.9248
1090.95	174.966
1095.35	235.184
1099.75	734.4
1104.14	1550.45
1108.53	990.029
1112.92	346.599
1117.31	258.376
1121.69	249.18
1126.07	403.608
1130.45	763.207
1134.82	2034.44
1139.19	3889.6
1143.57	2870.86
1147.93	1775.37
1152.3	915.994
1156.66	589.718
1161.02	1013.52
1165.38	2110.41
1169.73	1699.36
1174.08	675.326
1178.43	344.437
1182.78	195.621
1187.12	68.0576
1191.46	69.4053
1195.8	87.7632
1200.14	58.8247
1204.47	21.2495
1208.8	13.1318
1213.13	36.4517
1217.46	51.1528
1221.78	9.58057
1226.1	46.5566
1230.42	17.6401
1234.73	50.54
1239.04	177.473
1243.35	80.186
1247.66	59.208
1251.97	17.2446
1256.27	33.3227
1260.57	100.038
1264.86	144.086
1269.16	108.184
1273.45	155.341
1277.74	101.533
1282.03	17.7554
1286.31	83.02
1290.59	52.2871
1294.87	133.574
1299.14	164.078
1303.42	97.4014
1307.69	88.7319
1311.95	174.075
1316.22	185.429
1320.48	144.794
1324.74	148.169
1329	90.5767
1333.26	78.9712
1337.51	15.5698
1341.76	2.85791
1346	86.1816
1350.25	90.5913
1354.49	119.829
1358.73	83.3452
1362.96	19.8936
1367.2	59.7207
1371.43	104.496
1375.66	60.7109
1379.88	126.832
1384.11	118.026
1388.33	49.2969
1392.54	127.393
1396.76	99.6509
1400.97	94.8511
1405.18	71.2866
1409.39	58.21
1413.59	38.1148
1417.8	59.0054
1421.99	28.834
1426.19	64.6802
1430.38	132.259
1434.58	71.6773
1438.77	100.436
1442.95	147.711
1447.13	128.429
1451.32	130.994
1455.49	174.24
1459.67	169.872
1463.84	74.5669
1468.01	51.6255
1472.18	26.7139
1476.35	158.894
1480.51	77.2324
1484.67	111.46
1488.83	14.4155
1492.98	81.6514
1497.13	14.7402
1501.28	93.4731
1505.43	108.566
1509.57	48.7144
1513.71	75.8916
1517.85	112.14
1521.99	44.4688
1526.12	124.221
1530.25	109.201
1534.38	76.2817
1538.5	97.791
1542.62	123.689
1546.74	32.3145
1550.86	43.0835
1554.98	143.964
1559.09	4.16699
1563.2	116.837
1567.31	85.0947
