Measurement: Raman, 514 nm, ccw, Raman Data Processed
Mineral: Baryte
Rruff sample: R040036
Ideal chemistry: BaSO_4_
Locality: Cumbria County, England
Source: University of Arizona Mineral Museum
Description: Golden brown tabular crystal
Measured chemistry: Ba_1.00_S_1.00_O_4_; trace amounts of Pb
Pin_id: M00028
Orientation: Laser parallel to -a* (-1 0 0). Fiducial mark perpendicular to laser is parallel to -b [0 -1 0]
Raman shift (cm-1)	intensity
26.288	0
30.504	27.759
34.717	30.758
38.929	37.493
43.138	20.942
47.345	55.536
51.551	53.753
55.754	27.386
59.955	40.968
64.154	43.453
68.351	9.948
72.546	4.372
76.739	15.384
80.93	5.162
85.119	1.9
89.306	0.586
93.49	10.764
97.673	4.851
101.854	16.422
106.032	25.176
110.209	67.105
114.384	128.743
118.556	192.4
122.727	246.509
126.895	392.571
131.062	484.401
135.226	249.914
139.388	195.456
143.549	258.939
147.707	443.186
151.863	509.619
156.018	353.01
160.17	197.528
164.32	125.862
168.469	109.131
172.615	108.17
176.759	95.437
180.901	89.629
185.041	75.572
189.18	128.944
193.316	95.741
197.45	60.269
201.582	71.385
205.712	57.928
209.84	65.043
213.967	25.155
218.091	29.47
222.213	47.317
226.333	19.719
230.451	34.684
234.567	49.627
238.682	46.719
242.794	47.887
246.904	27.196
251.012	23.043
255.118	23.137
259.223	37.686
263.325	32.348
267.425	22.119
271.523	28.643
275.62	28.145
279.714	11.585
283.806	12.99
287.897	11.363
291.985	9.702
296.072	11.013
300.156	23.292
304.239	14.541
308.319	4.758
312.398	28.943
316.474	19.101
320.549	24.231
324.622	10.33
328.692	9.361
332.761	16.322
336.828	20.22
340.893	7.063
344.956	6.019
349.017	6.603
353.076	13.313
357.133	9.007
361.188	1.515
365.241	1.098
369.292	8.437
373.341	11.869
377.388	1.734
381.434	18.827
385.477	11.349
389.519	12.861
393.558	18.31
397.596	16.74
401.631	27.117
405.665	9.53
409.697	2.001
413.727	19.376
417.755	28.664
421.781	26.949
425.805	33.161
429.827	60.437
433.847	110.56
437.865	188.706
441.882	372.851
445.896	836.041
449.909	2265.2
453.919	4475.32
457.928	2568.57
461.935	1592.71
465.94	836.874
469.943	296.979
473.944	176.088
477.943	83.019
481.94	44.077
485.935	59.079
489.929	26.058
493.92	15.041
497.91	27.147
501.898	46.923
505.883	34.893
509.867	37.609
513.849	35.576
517.829	37.641
521.808	53.562
525.784	52.621
529.758	24.733
533.731	36.713
537.701	50.868
541.67	40.019
545.637	43.168
549.602	46.179
553.565	49.199
557.526	53.284
561.486	43.576
565.443	57.736
569.399	19.96
573.352	55.387
577.304	63.972
581.254	56.865
585.202	64.144
589.148	96.557
593.093	147.603
597.035	161.702
600.976	212.99
604.914	308.502
608.851	623.554
612.786	1756.27
616.719	4732.59
620.651	4125.97
624.58	2049.09
628.507	1379.17
632.433	1060.08
636.357	461.261
640.279	224.541
644.199	166.395
648.117	121.409
652.034	100.455
655.948	73.272
659.861	60.255
663.772	29.041
667.681	42.811
671.588	16.782
675.493	0.57
679.397	11.476
683.298	10.315
687.198	34.462
691.096	17.121
694.992	17.76
698.886	10.559
702.779	1.256
706.669	8.664
710.558	6.38
714.445	4.904
718.33	10.606
722.214	0.842
726.095	9.74
729.975	6.647
733.852	11.013
737.728	6.641
741.603	11.322
745.475	1.966
749.345	26.77
753.214	8.545
757.081	6.653
760.946	6.177
764.809	3.035
768.671	7.087
772.53	9.19
776.388	2.726
780.244	5.328
784.098	5.363
787.951	6.38
791.801	7.376
795.65	10.357
799.497	4.32
803.342	13.614
807.186	0.204
811.027	5.997
814.867	3.17
818.705	7.712
822.541	15.482
826.375	0.368
830.208	8.206
834.039	26.03
837.868	6.274
841.695	1.277
845.521	8.03
849.344	23.669
853.166	41.098
856.986	41.061
860.804	47.269
864.621	29.57
868.436	37.256
872.248	38.025
876.06	45.486
879.869	0.866
883.677	34.419
887.482	19.467
891.287	32.923
895.089	35.596
898.889	46.747
902.688	54.43
906.485	51.186
910.28	35.994
914.074	55.419
917.865	51.946
921.655	60.8
925.443	62.498
929.23	64.211
933.014	59.075
936.797	72.809
940.578	86.741
944.358	78.683
948.135	98.437
951.911	106.303
955.685	90.174
959.458	141.711
963.228	213.613
966.997	396.67
970.764	437.746
974.529	603.566
978.293	999.687
982.055	2748.83
985.815	16446
989.573	53664.2
993.33	9592.42
997.085	2194.68
1000.84	995.969
1004.59	612.286
1008.34	430.626
1012.09	325.993
1015.83	258.389
1019.58	235.587
1023.32	234.273
1027.06	251.764
1030.8	226.284
1034.54	151.837
1038.27	95.419
1042.01	84.029
1045.74	75.665
1049.47	77.471
1053.2	76.447
1056.93	261.49
1060.65	103.907
1064.38	92.688
1068.1	98.558
1071.82	126.465
1075.54	243.468
1079.25	435.446
1082.97	992.378
1086.68	886.343
1090.39	353.337
1094.11	164.362
1097.81	185.46
1101.52	358.555
1105.22	574.678
1108.93	298.831
1112.63	123.009
1116.33	61.118
1120.03	43.439
1123.72	67.686
1127.42	42.954
1131.11	22.244
1134.8	55.553
1138.49	135.881
1142.18	248.229
1145.87	286.595
1149.55	171.98
1153.23	92.385
1156.91	37.811
1160.59	24.253
1164.27	9.712
1167.95	19.188
1171.62	14.679
1175.3	20.183
1178.97	24.699
1182.64	7.226
1186.3	0.755
1189.97	15.286
1193.63	5.811
1197.3	5.662
1200.96	0.054
1204.62	20.779
1208.27	4.92
1211.93	11.1
1215.58	17.981
1219.24	26.838
1222.89	34.427
1226.54	3.74
1230.18	33.183
1233.83	18.634
1237.47	46.771
1241.12	48.708
1244.76	40.042
1248.4	59.89
1252.04	42.451
1255.67	25.044
1259.31	22.705
1262.94	26.274
1266.57	41.858
1270.2	38.43
1273.83	66.004
1277.45	53.584
1281.08	28.396
1284.7	40.209
1288.32	10.779
1291.94	23.343
1295.56	50.085
1299.17	22.602
1302.79	16.119
1306.4	21.582
1310.01	32.021
1313.62	47.305
1317.23	39.438
1320.84	48.517
1324.44	25.238
1328.04	0.45
1331.64	1.114
1335.24	17.132
1338.84	3.726
1342.44	7.447
1346.03	13.675
1349.63	13.88
1353.22	7.938
1356.81	7.173
1360.4	8.686
1363.98	7.571
1367.57	0.521
1371.15	4.73
1374.73	8.247
1378.32	20.033
1381.89	4.503
1385.47	19.959
1389.05	29.403
1392.62	8.831
1396.19	12.233
1399.76	14.612
1403.33	9.969
1406.9	15.911
1410.46	7.648
1414.03	19.003
1417.59	16.265
1421.15	1.257
1424.71	16.016
1428.27	10.7
1431.82	38.794
1435.38	54.223
1438.93	61.95
1442.48	118.325
1446.03	119.929
1449.58	140.675
1453.13	157.352
1456.67	170.241
1460.21	125.9
1463.76	122.472
1467.3	106.647
1470.83	84.962
1474.37	47.297
1477.91	54.533
1481.44	40.713
1484.97	55.084
1488.5	26.576
1492.03	20.175
1495.56	2.965
1499.08	4.309
1502.61	0
