Measurement: Raman, 514 nm, ccw, Raman Data Processed
Mineral: Baryte
Rruff sample: R050375
Ideal chemistry: BaSO_4_
Locality: unknown
Source: Eugene Schlepp
Description: Pale green tabular crystals
Measured chemistry: Ba_1.00_SO_4_
Pin_id: L01098
Orientation: Laser parallel to -a* (-1 0 0). Fiducial mark perpendicular to laser is parallel to -b [0 -1 0]
Raman shift (cm-1)	intensity
51.431	0
56.387	20.1575
61.341	1.98804
66.292	160.678
71.241	1180.45
76.187	1101
81.131	359.95
86.072	501.501
91.012	792.12
95.948	970.31
100.883	836.769
105.815	409.326
110.744	367.856
115.671	332.24
120.596	364.421
125.519	336.349
130.439	318.533
135.356	247.869
140.271	305.674
145.184	337.876
150.094	376.527
155.002	340.566
159.908	228.057
164.811	211.849
169.711	189.955
174.61	203.35
179.505	251.017
184.399	313.249
189.29	343.485
194.178	260.996
199.064	143.306
203.948	165.192
208.829	108.88
213.708	99.0012
218.585	115.591
223.459	92.9413
228.33	90.121
233.199	72.086
238.066	68.2781
242.93	61.0412
247.792	80.3248
252.651	55.4036
257.508	68.9581
262.363	56.8353
267.215	67.5546
272.064	49.462
276.912	51.5431
281.756	10.8009
286.598	71.2425
291.438	1.15588
296.276	60.6178
301.111	59.5583
305.943	29.6483
310.773	4.87354
315.601	11.771
320.426	0.704834
325.248	24.2892
330.068	42.9846
334.886	0.778198
339.701	20.6705
344.514	36.6681
349.324	18.813
354.132	9.13745
358.938	18.3754
363.741	6.12048
368.541	7.45508
373.339	13.2843
378.135	20.8538
382.928	5.07275
387.718	2.06103
392.506	8.14551
397.292	3.67383
402.075	2.04126
406.856	14.2262
411.634	20.5123
416.41	31.019
421.183	107.712
425.954	188.551
430.722	380.264
435.488	917.596
440.251	2416.01
445.012	7271.7
449.77	12220.9
454.526	10885.1
459.28	3617.05
464.03	1093.38
468.779	484.794
473.525	243.16
478.268	141.66
483.009	107.225
487.747	80.2526
492.483	89.7273
497.217	39.4815
501.948	69.4724
506.676	62.8426
511.402	27.4246
516.125	48.0393
520.846	23.9453
525.565	14.9651
530.281	50.714
534.994	49.286
539.705	56.5129
544.413	42.0071
549.119	12.9788
553.822	59.1237
558.523	6.23438
563.222	2.35877
567.917	18.7817
572.611	33.0657
577.302	31.5594
581.99	6.15076
586.676	11.3187
591.359	14.3096
596.04	81.3005
600.718	128.219
605.394	329.857
610.067	1145.09
614.737	2168.24
619.406	1800.4
624.071	814.148
628.734	526.692
633.395	443.117
638.053	269.196
642.708	216.256
647.361	167.783
652.012	123.244
656.66	86.309
661.305	47.4802
665.948	70.894
670.588	74.6085
675.226	65.6207
679.861	46.6117
684.494	34.8907
689.124	22.6867
693.752	67.7178
698.377	38.514
702.999	50.1067
707.619	24.8566
712.237	33.2412
716.852	10.8304
721.464	37.0354
726.074	8.97607
730.681	27.6445
735.286	32.3186
739.888	1.09338
744.488	52.1523
749.085	61.433
753.68	63.4993
758.272	69.5209
762.861	58.467
767.448	51.3163
772.033	84.0901
776.614	50.8204
781.194	104.541
785.77	36.2302
790.345	84.8706
794.916	67.4713
799.485	27.0298
804.052	30.548
808.616	52.812
813.177	53.7682
817.736	30.6781
822.292	1.05701
826.846	55.5963
831.397	17.8329
835.945	12.0366
840.491	19.2127
845.035	8.05041
849.576	27.0234
854.114	0.478149
858.65	43.2993
863.183	36.0459
867.713	22.1467
872.241	10.9526
876.767	25.9255
881.29	19.9768
885.81	29.7305
890.328	37.5432
894.843	70.34
899.356	118.487
903.866	2.91858
908.373	50.4446
912.878	1.50439
917.38	28.1642
921.88	74.9792
926.377	51.9706
930.872	67.9778
935.364	94.8793
939.853	39.8877
944.34	61.9618
948.824	30.0626
953.306	90.1826
957.785	105.21
962.261	192.999
966.735	437.127
971.207	652.37
975.675	1379.7
980.141	6617.02
984.605	39759.8
989.066	52806.6
993.524	7753.16
997.98	1513.73
1002.43	694.396
1006.88	383.166
1011.33	300.502
1015.78	165.881
1020.22	151.788
1024.66	95.8478
1029.1	40.0343
1033.53	46.8984
1037.97	21.55
1042.4	18.9807
1046.82	24.8908
1051.25	15.59
1055.67	34.9003
1060.09	11.843
1064.51	14.6867
1068.92	37.8308
1073.33	64.5032
1077.74	229.448
1082.15	497.457
1086.55	398.533
1090.95	203.711
1095.35	479.992
1099.75	1612.38
1104.14	2460.83
1108.53	1117.36
1112.92	361.949
1117.31	170.622
1121.69	66.4031
1126.07	125.251
1130.45	61.1617
1134.82	125.133
1139.19	160.172
1143.57	98.2917
1147.93	37.5209
1152.3	17.827
1156.66	45.2001
1161.02	60.6271
1165.38	144.11
1169.73	22.6517
1174.08	11.0399
1178.43	39.939
1182.78	21.4821
1187.12	11.3828
1191.46	11.9685
1195.8	34.5995
1200.14	10.8867
1204.47	45.5155
1208.8	42.244
1213.13	65.34
1217.46	82.8144
1221.78	37.2786
1226.1	70.3914
1230.42	51.2705
1234.73	36.1731
1239.04	69.701
1243.35	85.6432
1247.66	130.78
1251.97	55.8419
1256.27	54.8273
1260.57	77.8807
1264.86	71.9049
1269.16	101.868
1273.45	16.3718
1277.74	81.4392
1282.03	89.5362
1286.31	73.8845
1290.59	68.9221
1294.87	28.791
1299.14	32.9117
1303.42	58.5701
1307.69	34.103
1311.95	41.9369
1316.22	87.1509
1320.48	29.8651
1324.74	10.6345
1329	48.1847
1333.26	66.9558
1337.51	50.3177
1341.76	49.7644
1346	23.606
1350.25	11.3314
1354.49	96.0172
1358.73	50.7615
1362.96	57.363
1367.2	91.9547
1371.43	30.4987
1375.66	10.0049
1379.88	95.4553
1384.11	27.9783
1388.33	39.3464
1392.54	33.7599
1396.76	57.0665
1400.97	32.5223
1405.18	110.032
1409.39	6.30884
1413.59	38.5977
1417.8	61.9917
1421.99	64.1132
1426.19	76.3406
1430.38	35.3875
1434.58	101.708
1438.77	72.374
1442.95	106.841
1447.13	57.1171
1451.32	34.4851
1455.49	48.0306
1459.67	62.7302
1463.84	76.9249
1468.01	37.4221
1472.18	67.1395
1476.35	72.9077
1480.51	55.1588
1484.67	83.3803
1488.83	39.4747
1492.98	84.8634
1497.13	88.3749
1501.28	33.8483
1505.43	81.777
1509.57	88.3264
1513.71	31.0162
1517.85	54.6879
1521.99	71.8381
1526.12	59.6057
1530.25	46.0552
1534.38	77.9045
1538.5	64.9524
1542.62	72.5964
1546.74	90.0927
1550.86	122.916
1554.98	75.3496
1559.09	42.3469
1563.2	27.3003
1567.31	57.604
