Measurement: Raman, 514 nm, ccw, Raman Data Processed
Mineral: Baryte
Rruff sample: R040036
Ideal chemistry: BaSO_4_
Locality: Cumbria County, England
Source: University of Arizona Mineral Museum
Description: Golden brown tabular crystal
Measured chemistry: Ba_1.00_S_1.00_O_4_; trace amounts of Pb
Pin_id: M00028
Orientation: Laser parallel to -a* (-1 0 0). Fiducial mark perpendicular to laser is parallel to -b [0 -1 0]
Raman shift (cm-1)	intensity
26.288	0
30.504	22.881
34.717	11.282
38.929	26.072
43.138	17.771
47.345	15.152
51.551	26.173
55.754	37.172
59.955	46.444
64.154	45.759
68.351	45.592
72.546	39.479
76.739	31.407
80.93	2.355
85.119	12.712
89.306	14.804
93.49	5.906
97.673	46.981
101.854	52.858
106.032	58.882
110.209	86.036
114.384	232.237
118.556	341.429
122.727	313.582
126.895	235.784
131.062	273.81
135.226	164.779
139.388	152.558
143.549	163.405
147.707	249.164
151.863	251.929
156.018	203.869
160.17	131.719
164.32	134.565
168.469	99.306
172.615	78.033
176.759	86.665
180.901	90.579
185.041	91.17
189.18	182.419
193.316	140.271
197.45	99.872
201.582	88.246
205.712	81.218
209.84	63.028
213.967	64.723
218.091	41.562
222.213	33.056
226.333	67.626
230.451	52.649
234.567	36.742
238.682	26.931
242.794	35.981
246.904	40.086
251.012	26.762
255.118	41.433
259.223	38.059
263.325	26.719
267.425	25.355
271.523	32.978
275.62	33.559
279.714	3.13
283.806	19.69
287.897	26.243
291.985	29.788
296.072	11.328
300.156	29.86
304.239	26.386
308.319	16.904
312.398	19.806
316.474	22.921
320.549	28.421
324.622	11.912
328.692	9.368
332.761	24.79
336.828	23.185
340.893	19.556
344.956	8.908
349.017	17.246
353.076	27.573
357.133	8.892
361.188	1.206
365.241	1.487
369.292	11.785
373.341	9.043
377.388	12.334
381.434	8.639
385.477	24.927
389.519	27.235
393.558	26.596
397.596	20.945
401.631	23.225
405.665	27.582
409.697	5.927
413.727	26.265
417.755	29.614
421.781	39.929
425.805	57.125
429.827	105.449
433.847	206.753
437.865	368.025
441.882	709.277
445.896	1588.6
449.909	4354.97
453.919	9001.27
457.928	4854.57
461.935	1841.94
465.94	781.274
469.943	360.567
473.944	203.825
477.943	143.107
481.94	83.423
485.935	86.786
489.929	66.058
493.92	37.338
497.91	41.678
501.898	49.977
505.883	63.291
509.867	46.26
513.849	31.554
517.829	63.595
521.808	77.884
525.784	44.184
529.758	31.361
533.731	45.713
537.701	43.201
541.67	36.736
545.637	17.105
549.602	25.515
553.565	21.808
557.526	52.345
561.486	35.943
565.443	17.754
569.399	6.341
573.352	32.716
577.304	24.419
581.254	41.604
585.202	26.373
589.148	55.725
593.093	57.384
597.035	86.969
600.976	59.703
604.914	120.322
608.851	253.849
612.786	694.488
616.719	1946.35
620.651	1796.71
624.58	843.272
628.507	534.482
632.433	414.667
636.357	247.007
640.279	152.376
644.199	131.014
648.117	144.475
652.034	131.593
655.948	67.038
659.861	32.133
663.772	12.214
667.681	25.279
671.588	16.329
675.493	0.579
679.397	5.175
683.298	9.912
687.198	9.005
691.096	15.109
694.992	11.047
698.886	21.965
702.779	0.86
706.669	15.726
710.558	13.554
714.445	10.63
718.33	12.846
722.214	2.904
726.095	18.626
729.975	17.321
733.852	17.992
737.728	16.363
741.603	7.249
745.475	13.841
749.345	23.405
753.214	7.059
757.081	1.557
760.946	11.077
764.809	4.376
768.671	20.813
772.53	11.236
776.388	6.359
780.244	6.977
784.098	20.383
787.951	20.721
791.801	15.04
795.65	25.339
799.497	13.624
803.342	5.896
807.186	33.159
811.027	19.347
814.867	18.511
818.705	4.509
822.541	5.312
826.375	17.854
830.208	17.019
834.039	28.189
837.868	8.19
841.695	8.012
845.521	22.782
849.344	45.693
853.166	39.475
856.986	64.037
860.804	65.832
864.621	61.561
868.436	40.662
872.248	34.446
876.06	51.841
879.869	60.98
883.677	30.789
887.482	16.676
891.287	35.218
895.089	65.889
898.889	89.71
902.688	69.846
906.485	47.036
910.28	41.236
914.074	46.089
917.865	67.092
921.655	60.036
925.443	49.959
929.23	55.227
933.014	33.177
936.797	55.482
940.578	73.802
944.358	57.135
948.135	74.485
951.911	77.634
955.685	75.689
959.458	96.98
963.228	181.39
966.997	346.68
970.764	381.138
974.529	534.617
978.293	849.118
982.055	2204.64
985.815	12720.2
989.573	45678.8
993.33	8388.37
997.085	1883
1000.84	875.651
1004.59	529.33
1008.34	346.035
1012.09	267.768
1015.83	223.526
1019.58	206.396
1023.32	182.343
1027.06	130.183
1030.8	118.131
1034.54	118.026
1038.27	105.948
1042.01	93.015
1045.74	90.995
1049.47	66.267
1053.2	80.33
1056.93	217.629
1060.65	95.044
1064.38	92.742
1068.1	76.2
1071.82	96.339
1075.54	124.513
1079.25	243.698
1082.97	539.906
1086.68	502.14
1090.39	290.401
1094.11	226.784
1097.81	342.238
1101.52	831.578
1105.22	1528.95
1108.93	812.338
1112.63	339.745
1116.33	180.173
1120.03	98.619
1123.72	73.913
1127.42	47.559
1131.11	13.053
1134.8	16.562
1138.49	68.085
1142.18	68.625
1145.87	54.179
1149.55	45.748
1153.23	15.33
1156.91	2.923
1160.59	6.47
1164.27	17.147
1167.95	32.776
1171.62	38.416
1175.3	36.064
1178.97	17.718
1182.64	4.375
1186.3	14.965
1189.97	18.306
1193.63	9.65
1197.3	6.997
1200.96	21.646
1204.62	15.29
1208.27	20.36
1211.93	21.332
1215.58	20.986
1219.24	31.941
1222.89	2.867
1226.54	16.041
1230.18	29.125
1233.83	43.771
1237.47	67.506
1241.12	76.215
1244.76	59.003
1248.4	14.853
1252.04	46.504
1255.67	28.157
1259.31	21.812
1262.94	32.467
1266.57	63.122
1270.2	81.94
1273.83	81.596
1277.45	58.25
1281.08	38.077
1284.7	27.681
1288.32	25.604
1291.94	56.177
1295.56	74.925
1299.17	69.548
1302.79	48.154
1306.4	38.606
1310.01	36.147
1313.62	54.407
1317.23	24.636
1320.84	24.824
1324.44	54.178
1328.04	45.122
1331.64	36.375
1335.24	14.828
1338.84	32.247
1342.44	14.661
1346.03	9.939
1349.63	8.554
1353.22	19.187
1356.81	9.067
1360.4	12.737
1363.98	17.586
1367.57	19.902
1371.15	27.26
1374.73	21.586
1378.32	10.087
1381.89	17.668
1385.47	14.24
1389.05	14.8
1392.62	11.347
1396.19	20.88
1399.76	27.393
1403.33	29.892
1406.9	17.384
1410.46	28.88
1414.03	29.393
1417.59	20.933
1421.15	1.158
1424.71	12.865
1428.27	21.433
1431.82	46.253
1435.38	85.67
1438.93	101.609
1442.48	129.479
1446.03	130.699
1449.58	147.869
1453.13	165.569
1456.67	134.112
1460.21	122.682
1463.76	108.007
1467.3	69.658
1470.83	82.463
1474.37	41.3
1477.91	65.042
1481.44	88.77
1484.97	70.804
1488.5	53.001
1492.03	56.42
1495.56	20.284
1499.08	29.896
1502.61	0
