Measurement: Raman, 514 nm, ccw, Raman Data Processed
Mineral: Barysilite
Rruff sample: R050002
Ideal chemistry: Pb_8_Mn(Si_2_O_7_)_3_
Locality: Franklin, Sussex County, New Jersey, USA
Source: University of Arizona Mineral Museum
Description: A lamellar aggregate of platy crystals
Measured chemistry: Pb_8.00_Mn_1.00_(Si_2.00_O_7_)_3_
Pin_id: M00057
Orientation: Laser parallel to c* (0 0 1). Fiducial mark perpendicular to laser is parallel to a [1 0 0]
Raman shift (cm-1)	intensity
94.071	0
98.251	4922.85
102.428	13204.9
106.604	12873.7
110.777	6082.18
114.949	4015.04
119.119	3295.83
123.286	2866.2
127.452	2839.54
131.615	1942.02
135.777	1496.53
139.937	297.073
144.094	115.215
148.25	188.539
152.403	174.686
156.555	259.204
160.705	31.849
164.853	157.83
168.998	1364.12
173.142	4990.47
177.284	12786.6
181.424	22485.2
185.562	27524.6
189.698	24708.6
193.831	16726.9
197.963	10637
202.093	7028.39
206.221	4770.94
210.347	3320.7
214.472	2336.57
218.594	1599.52
222.714	1286.46
226.832	1181.87
230.948	1426.99
235.063	1664.05
239.175	1812.9
243.286	1912.45
247.394	1973.89
251.501	2412.06
255.605	2583.57
259.708	2448.52
263.808	1620.73
267.907	719.166
272.004	124.457
276.099	27.485
280.192	1.314
284.283	17.43
288.372	76.317
292.459	30.605
296.544	49.448
300.627	82.793
304.709	93.249
308.788	38.826
312.865	158.813
316.941	613.611
321.015	1224.12
325.086	1497.51
329.156	1663.35
333.224	1415.08
337.29	1243.26
341.354	639.798
345.416	180.735
349.476	91.81
353.534	57.542
357.591	214.185
361.645	399.387
365.698	600.898
369.748	902.037
373.797	1261.02
377.844	1634.98
381.889	1084.9
385.932	1029.61
389.973	940.846
394.012	479.737
398.049	205.324
402.084	127.565
406.118	202.59
410.15	21.427
414.179	290.285
418.207	431.081
422.233	727.445
426.257	1142.95
430.279	2018.26
434.299	2307.89
438.318	2552.12
442.334	2151.56
446.349	1735.97
450.361	1094.51
454.372	324.728
458.381	410.548
462.388	81.854
466.394	102.552
470.397	470.414
474.398	581.714
478.398	1594.85
482.396	2212.9
486.391	2645.14
490.385	3600.49
494.377	5237.44
498.368	8186.94
502.356	12448.5
506.342	15053.3
510.327	14268.3
514.31	10269.8
518.291	6403.61
522.27	3822.8
526.247	2580.29
530.222	1906.29
534.196	1372.76
538.167	1445.44
542.137	1142.49
546.105	535.897
550.071	817.665
554.035	813.796
557.998	651.089
561.958	357.594
565.917	42.786
569.874	9.801
573.829	24.918
577.782	38.892
581.733	53.274
585.683	197.118
589.63	38.418
593.576	11.701
597.52	32.975
601.462	29.079
605.402	21.601
609.341	35.787
613.277	48.229
617.212	25.031
621.145	1.954
625.076	86.221
629.006	61.81
632.933	31.745
636.859	33.891
640.783	13.17
644.705	38.387
648.625	152.883
652.543	16.583
656.46	2.304
660.375	31.252
664.288	22.525
668.199	21.257
672.108	123.908
676.016	258.115
679.921	195.657
683.825	16.048
687.727	44.154
691.628	279.352
695.526	85.978
699.423	635.842
703.318	1107.88
707.211	1811.48
711.102	864.664
714.992	726.451
718.879	4.888
722.765	296.714
726.649	35.716
730.532	269.061
734.412	134.486
738.291	44.039
742.168	265.005
746.043	66.229
749.916	12.764
753.788	293.656
757.658	53.038
761.526	37.294
765.392	143.984
769.257	248.313
773.119	60.178
776.98	3.721
780.839	146.441
784.697	32.131
788.552	256.317
792.406	192.637
796.258	128.311
800.108	406.233
803.957	353.062
807.804	194.403
811.649	512.297
815.492	648.699
819.333	1201.37
823.173	1334.67
827.011	721.747
830.847	712.456
834.681	145.183
838.514	33.512
842.345	218.752
846.174	135.035
850.001	192.066
853.827	222.655
857.651	239.796
861.473	135.119
865.293	70.595
869.112	600.117
872.928	426.133
876.744	767.813
880.557	1725.73
884.369	2762.09
888.178	4884.64
891.987	5398.79
895.793	4146.76
899.598	3629.65
903.401	4050.34
907.202	4286.2
911.001	4067.39
914.799	3820.48
918.595	4211.19
922.389	4607.71
926.182	3621.16
929.972	2735.6
933.761	2300.83
937.549	1798.72
941.334	1091.18
945.118	1051.19
948.9	893.218
952.681	670.9
956.459	305.615
960.236	625.489
964.012	319.056
967.785	473.567
971.557	245.36
975.327	387.592
979.095	420.312
982.862	444.504
986.627	2.692
990.39	81.581
994.152	202.624
997.912	543.911
1001.67	1.435
1005.43	245.706
1009.18	373.331
1012.93	416.104
1016.68	164.616
1020.43	385.079
1024.18	508.6
1027.93	27.79
1031.67	551.485
1035.42	163.126
1039.16	104.186
1042.9	525.273
1046.63	953.549
1050.37	342.721
1054.11	835.797
1057.84	348.645
1061.57	379.546
1065.3	305.111
1069.03	91.894
1072.75	211.908
1076.47	448.689
1080.2	107.805
1083.92	241.624
1087.64	12.937
1091.36	243.252
1095.07	56.467
1098.79	27.27
1102.5	166.434
1106.21	76.691
1109.92	177.671
1113.62	175.119
1117.33	65.642
1121.04	87.869
1124.74	87.91
1128.44	67.237
1132.14	120.584
1135.83	12.929
1139.53	235.7
1143.22	21.708
1146.92	16.712
1150.61	328.52
1154.3	60.399
1157.98	311.455
1161.67	145.232
1165.35	301.458
1169.04	18.083
1172.72	300.86
1176.4	14.261
1180.07	13.665
1183.75	161.053
1187.42	199.35
1191.1	153.746
1194.77	578.063
1198.44	309.302
1202.1	409.842
1205.77	12.897
1209.43	573.614
1213.1	610.573
1216.76	335.513
1220.42	409.612
1224.07	396.942
1227.73	633.495
1231.38	545.348
1235.04	257.795
1238.69	245.769
1242.34	503.938
1245.99	300.517
1249.63	393.534
1253.28	268.807
1256.92	132.524
1260.56	534.793
1264.2	340.081
1267.84	74.681
1271.48	456.921
1275.11	46.889
1278.74	101.976
1282.38	207.731
1286.01	45.957
1289.63	40.979
1293.26	237.181
1296.89	170.379
1300.51	20.074
1304.13	84.756
1307.75	80.848
1311.37	31.161
1314.99	71.494
1318.6	117.187
1322.22	26.23
1325.83	9.559
1329.44	3.895
1333.05	9.636
1336.66	37.203
1340.26	233.561
1343.87	204.697
1347.47	369.619
1351.07	509.332
1354.67	100.749
1358.27	164.327
1361.86	350.506
1365.46	487.446
1369.05	388.736
1372.64	143.471
1376.23	308.77
1379.82	296.835
1383.41	440.01
1386.99	803.94
1390.57	616.543
1394.16	177.324
1397.74	294.132
1401.32	712.609
1404.89	705.495
1408.47	666.554
1412.04	768.571
1415.61	344.088
1419.18	784.494
1422.75	397.685
1426.32	341.093
1429.89	489.806
1433.45	344.471
1437.01	418.388
1440.58	471.218
1444.13	612.814
1447.69	509.127
1451.25	727.361
1454.81	794.441
1458.36	491.034
1461.91	384.442
1465.46	466.239
1469.01	1194.94
1472.56	632.414
1476.1	741
1479.64	416.273
1483.19	920.603
1486.73	422.93
1490.27	1110.61
1493.81	318.27
1497.34	322.686
1500.88	313.888
1504.41	7.488
1507.94	292.662
1511.47	121.321
1515	332.692
1518.53	389.806
