Measurement: Raman, 514 nm, ccw, Raman Data Processed
Mineral: Baryte
Rruff sample: R040036
Ideal chemistry: BaSO_4_
Locality: Cumbria County, England
Source: University of Arizona Mineral Museum
Description: Golden brown tabular crystal
Measured chemistry: Ba_1.00_S_1.00_O_4_; trace amounts of Pb
Pin_id: M00028
Orientation: Laser parallel to -a* (-1 0 0). Fiducial mark perpendicular to laser is parallel to -b [0 -1 0]
Raman shift (cm-1)	intensity
26.288	0
30.504	23.799
34.717	24.751
38.929	33.911
43.138	37.059
47.345	49.54
51.551	53.2
55.754	69.67
59.955	71.876
64.154	71.475
68.351	46.999
72.546	40.741
76.739	33.675
80.93	4.262
85.119	34.141
89.306	35.962
93.49	16.71
97.673	36.625
101.854	129.064
106.032	222.825
110.209	386.882
114.384	507.118
118.556	1179.43
122.727	824.736
126.895	580.004
131.062	525.168
135.226	627.065
139.388	563.847
143.549	472.714
147.707	534.67
151.863	699.717
156.018	583.855
160.17	476.086
164.32	536.412
168.469	483.836
172.615	405.358
176.759	446.073
180.901	532.787
185.041	506.119
189.18	494.05
193.316	535.564
197.45	516.655
201.582	385.411
205.712	339.718
209.84	455.326
213.967	389.752
218.091	312.886
222.213	379.035
226.333	419.212
230.451	330.301
234.567	270.443
238.682	305.206
242.794	376.111
246.904	256.615
251.012	245.819
255.118	329.103
259.223	357.454
263.325	236.868
267.425	285.346
271.523	345.891
275.62	289.508
279.714	178.194
283.806	242.955
287.897	322.798
291.985	227.719
296.072	156.719
300.156	232.802
304.239	295.965
308.319	210.204
312.398	121.52
316.474	205.912
320.549	234.38
324.622	130.919
328.692	100.496
332.761	207.11
336.828	265.77
340.893	150.482
344.956	84.253
349.017	207.089
353.076	243.996
357.133	78.984
361.188	44.06
365.241	152.243
369.292	202.505
373.341	64.861
377.388	57.322
381.434	183.914
385.477	216.652
389.519	83.096
393.558	55.116
397.596	135.229
401.631	170.445
405.665	88.741
409.697	31.121
413.727	128.587
417.755	209.625
421.781	175.266
425.805	117.202
429.827	198.325
433.847	404.231
437.865	550.442
441.882	862.516
445.896	2063.2
449.909	5663.45
453.919	11130.8
457.928	6043.2
461.935	1957.7
465.94	947.288
469.943	560.959
473.944	300.715
477.943	118.554
481.94	179.468
485.935	224.452
489.929	142.514
493.92	19.648
497.91	60.846
501.898	157.111
505.883	151.44
509.867	48.839
513.849	25.3
517.829	137.826
521.808	183.47
525.784	94.192
529.758	49.1
533.731	68.526
537.701	161.315
541.67	134.653
545.637	13.395
549.602	5.321
553.565	92.581
557.526	152.593
561.486	62.469
565.443	21.093
569.399	3.983
573.352	151.392
577.304	136.547
581.254	27.571
585.202	38.078
589.148	107.341
593.093	175.144
597.035	141.413
600.976	21.371
604.914	70.931
608.851	249.406
612.786	639.113
616.719	1613.89
620.651	1264.18
624.58	589.677
628.507	587.495
632.433	530.352
636.357	253.678
640.279	115.993
644.199	155.546
648.117	338.47
652.034	264.746
655.948	87.812
659.861	0.922
663.772	114.349
667.681	194.003
671.588	147.708
675.493	38.902
679.397	20.953
683.298	85.274
687.198	150.986
691.096	167.207
694.992	32.213
698.886	31.262
702.779	68.181
706.669	160.323
710.558	181.152
714.445	30.674
718.33	30.566
722.214	73.919
726.095	145.062
729.975	147.666
733.852	48.517
737.728	63.965
741.603	60.471
745.475	120.86
749.345	166.189
753.214	81.452
757.081	32.341
760.946	26.798
764.809	154.901
768.671	185.961
772.53	113.966
776.388	22.93
780.244	0.14
784.098	103.748
787.951	174.595
791.801	210.397
795.65	128.151
799.497	34.188
803.342	35.464
807.186	175.008
811.027	214.586
814.867	114.251
818.705	4.266
822.541	19.247
826.375	77.333
830.208	149.743
834.039	154.829
837.868	61.327
841.695	12.382
845.521	101.516
849.344	217.75
853.166	309.725
856.986	229.075
860.804	140.263
864.621	90.28
868.436	72.228
872.248	34.777
876.06	237.177
879.869	203.238
883.677	51.034
887.482	28.949
891.287	86.651
895.089	286.319
898.889	299.409
902.688	222.326
906.485	97.915
910.28	63.46
914.074	153.534
917.865	252.391
921.655	249.47
925.443	208.945
929.23	64.052
933.014	70.378
936.797	142.498
940.578	266.636
944.358	245.361
948.135	219.472
951.911	95.633
955.685	11.709
959.458	150.267
963.228	339.495
966.997	598.554
970.764	642.813
974.529	674.542
978.293	982.384
982.055	2585.7
985.815	14955
989.573	52930.4
993.33	9846.34
997.085	2273.75
1000.84	1034.22
1004.59	637.378
1008.34	468.602
1012.09	470.144
1015.83	451.72
1019.58	437.735
1023.32	308.482
1027.06	161.157
1030.8	112.428
1034.54	250.226
1038.27	339.982
1042.01	320.764
1045.74	185.581
1049.47	175.901
1053.2	101.406
1056.93	251.355
1060.65	240.53
1064.38	253.939
1068.1	273.96
1071.82	216.919
1075.54	136.894
1079.25	110.149
1082.97	323.247
1086.68	464.268
1090.39	443.519
1094.11	408.58
1097.81	585.686
1101.52	1006.78
1105.22	1763.88
1108.93	952.011
1112.63	478.155
1116.33	370.315
1120.03	367.492
1123.72	256.672
1127.42	122.844
1131.11	22.016
1134.8	26.76
1138.49	94.388
1142.18	246.563
1145.87	302.753
1149.55	210.939
1153.23	0.877
1156.91	31.662
1160.59	20.28
1164.27	3.484
1167.95	128.514
1171.62	236.535
1175.3	293.541
1178.97	241.571
1182.64	106.548
1186.3	4.494
1189.97	5.584
1193.63	14.686
1197.3	116.681
1200.96	206.519
1204.62	317.309
1208.27	316.781
1211.93	135.603
1215.58	52.329
1219.24	0.031
1222.89	30.697
1226.54	122.657
1230.18	261.582
1233.83	345.269
1237.47	366.334
1241.12	290.937
1244.76	158.52
1248.4	61.385
1252.04	33.857
1255.67	122.299
1259.31	92.196
1262.94	191.604
1266.57	356.347
1270.2	313.111
1273.83	223.772
1277.45	179
1281.08	27.332
1284.7	6.821
1288.32	72.308
1291.94	171.849
1295.56	261.188
1299.17	341.382
1302.79	339.431
1306.4	247.369
1310.01	137.261
1313.62	49.613
1317.23	46.671
1320.84	96.149
1324.44	243.374
1328.04	297.047
1331.64	372.561
1335.24	354.097
1338.84	224.582
1342.44	144.76
1346.03	59.07
1349.63	30.759
1353.22	1.455
1356.81	96.811
1360.4	198.019
1363.98	309.232
1367.57	296.944
1371.15	288.142
1374.73	257.056
1378.32	154.509
1381.89	61.307
1385.47	19.847
1389.05	23.516
1392.62	14.119
1396.19	145.152
1399.76	233.873
1403.33	334.42
1406.9	367.575
1410.46	281.02
1414.03	190.465
1417.59	71.175
1421.15	3.453
1424.71	4.832
1428.27	14.547
1431.82	140.776
1435.38	257.947
1438.93	386.901
1442.48	495.187
1446.03	548.046
1449.58	496.683
1453.13	431.369
1456.67	311.711
1460.21	196.796
1463.76	123.932
1467.3	71.148
1470.83	90.032
1474.37	151.965
1477.91	329.72
1481.44	423.671
1484.97	445.094
1488.5	404.904
1492.03	337.965
1495.56	169.084
1499.08	67.874
1502.61	0
