Measurement: Raman, 514 nm, ccw, Raman Data Processed
Mineral: Baryte
Rruff sample: R040036
Ideal chemistry: BaSO_4_
Locality: Cumbria County, England
Source: University of Arizona Mineral Museum
Description: Golden brown tabular crystal
Measured chemistry: Ba_1.00_S_1.00_O_4_; trace amounts of Pb
Pin_id: M00028
Orientation: Laser parallel to -a* (-1 0 0). Fiducial mark perpendicular to laser is parallel to -b [0 -1 0]
Raman shift (cm-1)	intensity
26.288	0
30.504	49.839
34.717	39.254
38.929	34.282
43.138	60.833
47.345	70.093
51.551	71.848
55.754	111.087
59.955	159.439
64.154	149.103
68.351	103.687
72.546	81.489
76.739	40.484
80.93	1.604
85.119	49.238
89.306	47.044
93.49	17.799
97.673	45.508
101.854	116.897
106.032	243.621
110.209	390.664
114.384	541.797
118.556	656.222
122.727	789.535
126.895	944.811
131.062	1054.94
135.226	784.704
139.388	656.322
143.549	686.007
147.707	951.769
151.863	958.608
156.018	704.526
160.17	600.521
164.32	568.596
168.469	553.752
172.615	478.991
176.759	535.556
180.901	506.427
185.041	450.906
189.18	483.966
193.316	505.588
197.45	456.758
201.582	377.572
205.712	393.886
209.84	426.475
213.967	408.801
218.091	300.139
222.213	380.217
226.333	413.802
230.451	314.259
234.567	312.362
238.682	353.415
242.794	316.562
246.904	257.538
251.012	253.301
255.118	308.197
259.223	307.146
263.325	256.147
267.425	288.198
271.523	322.301
275.62	256.532
279.714	179.746
283.806	233.021
287.897	249.362
291.985	191.769
296.072	142.242
300.156	193.782
304.239	219.389
308.319	134.061
312.398	124.8
316.474	218.605
320.549	191.476
324.622	102.407
328.692	116.359
332.761	203.333
336.828	160.336
340.893	107.373
344.956	97.454
349.017	146.583
353.076	134.769
357.133	49.022
361.188	27.367
365.241	127.981
369.292	133.479
373.341	40.043
377.388	40.705
381.434	167.492
385.477	140.43
389.519	63.516
393.558	78.72
397.596	146.004
401.631	146.364
405.665	37.81
409.697	11.329
413.727	89.932
417.755	108.856
421.781	62.622
425.805	39.474
429.827	121.413
433.847	229.433
437.865	339.534
441.882	538.727
445.896	1337.98
449.909	3614.31
453.919	6878.72
457.928	3901.21
461.935	2061.77
465.94	1108.41
469.943	469.125
473.944	221.908
477.943	94.761
481.94	134.678
485.935	154.668
489.929	71.725
493.92	20.853
497.91	34.051
501.898	112.308
505.883	58.622
509.867	2.008
513.849	36.418
517.829	106.904
521.808	106.443
525.784	24.033
529.758	14.683
533.731	96.689
537.701	98.433
541.67	98.347
545.637	0.55
549.602	17.526
553.565	87.545
557.526	120.492
561.486	42.816
565.443	10.455
569.399	62.69
573.352	94.385
577.304	126.021
581.254	1.953
585.202	41.978
589.148	179.142
593.093	210.066
597.035	181.831
600.976	149.327
604.914	315.611
608.851	691.806
612.786	1752.12
616.719	4312.32
620.651	3947.12
624.58	2036.08
628.507	1312.37
632.433	936.527
636.357	454.217
640.279	224.917
644.199	240.088
648.117	311.642
652.034	283.6
655.948	141.547
659.861	65.664
663.772	98.074
667.681	115.101
671.588	75.164
675.493	7.762
679.397	2.118
683.298	78.137
687.198	115.905
691.096	64.829
694.992	7.693
698.886	25.677
702.779	50.851
706.669	99.571
710.558	77.224
714.445	19.178
718.33	28.636
722.214	38.833
726.095	130.275
729.975	73.666
733.852	19.189
737.728	43.906
741.603	74.306
745.475	84.47
749.345	114.578
753.214	23.63
757.081	18.363
760.946	7.591
764.809	111.502
768.671	143.363
772.53	77.169
776.388	15.079
780.244	18.619
784.098	73.284
787.951	148.912
791.801	105.502
795.65	50.044
799.497	6.453
803.342	72.009
807.186	156.432
811.027	164.808
814.867	56.833
818.705	5.95
822.541	29.734
826.375	106.109
830.208	178.193
834.039	103.243
837.868	6.686
841.695	32.114
845.521	141.484
849.344	200.335
853.166	213.178
856.986	211.417
860.804	149.279
864.621	84.466
868.436	93.428
872.248	159.031
876.06	205.807
879.869	124.607
883.677	18.452
887.482	10.398
891.287	147.241
895.089	283.601
898.889	239.526
902.688	127.749
906.485	43.618
910.28	61.623
914.074	152.585
917.865	247.589
921.655	204.612
925.443	117.243
929.23	27.256
933.014	67.52
936.797	151.309
940.578	234.419
944.358	190.599
948.135	143.746
951.911	95.35
955.685	42.154
959.458	171.541
963.228	352.774
966.997	520.033
970.764	495.338
974.529	619.865
978.293	894.231
982.055	2524.63
985.815	14878.1
989.573	50733.6
993.33	10029.1
997.085	2258.65
1000.84	976.973
1004.59	649.611
1008.34	458.486
1012.09	476.202
1015.83	412.958
1019.58	354.408
1023.32	281.093
1027.06	178.249
1030.8	205.161
1034.54	228.094
1038.27	262.474
1042.01	216.471
1045.74	156.857
1049.47	65.529
1053.2	87.631
1056.93	303.038
1060.65	234.885
1064.38	219.877
1068.1	236.648
1071.82	200.888
1075.54	214.152
1079.25	411.106
1082.97	1167.44
1086.68	1123.89
1090.39	664.577
1094.11	464.025
1097.81	403.352
1101.52	679.828
1105.22	1137.33
1108.93	633.926
1112.63	346.475
1116.33	327.044
1120.03	238.242
1123.72	184.846
1127.42	58.569
1131.11	35.755
1134.8	24.857
1138.49	148.509
1142.18	319.156
1145.87	367.814
1149.55	163.479
1153.23	28.199
1156.91	15.156
1160.59	2.642
1164.27	17.316
1167.95	114.951
1171.62	185.581
1175.3	226.243
1178.97	155.853
1182.64	70.424
1186.3	55.025
1189.97	29.43
1193.63	10.226
1197.3	107.753
1200.96	221.185
1204.62	213.596
1208.27	195.22
1211.93	92.938
1215.58	4.292
1219.24	9.098
1222.89	17.667
1226.54	127.011
1230.18	231.063
1233.83	281.78
1237.47	276.225
1241.12	197.73
1244.76	98.266
1248.4	19.664
1252.04	31.469
1255.67	89.663
1259.31	118.082
1262.94	237.499
1266.57	289.719
1270.2	244.476
1273.83	174.521
1277.45	102.522
1281.08	26.974
1284.7	73.588
1288.32	98.496
1291.94	249.39
1295.56	267.447
1299.17	249.499
1302.79	230.946
1306.4	154.712
1310.01	61.09
1313.62	78.173
1317.23	26.537
1320.84	110.455
1324.44	210.012
1328.04	239.754
1331.64	310.683
1335.24	254.126
1338.84	141.524
1342.44	51.221
1346.03	0.458
1349.63	7.547
1353.22	50.683
1356.81	108.919
1360.4	194.265
1363.98	221.557
1367.57	248.415
1371.15	210.832
1374.73	174.873
1378.32	67.14
1381.89	43.793
1385.47	1.176
1389.05	48.698
1392.62	92.2
1396.19	196.594
1399.76	239.847
1403.33	288.201
1406.9	310.534
1410.46	212.942
1414.03	174.278
1417.59	81.412
1421.15	32.58
1424.71	24.959
1428.27	60.203
1431.82	177.536
1435.38	306.688
1438.93	429.344
1442.48	539.755
1446.03	572.035
1449.58	504.989
1453.13	491.763
1456.67	413.124
1460.21	335.431
1463.76	215.224
1467.3	189.642
1470.83	187.908
1474.37	283.316
1477.91	387.766
1481.44	384.481
1484.97	452.667
1488.5	412.459
1492.03	278.971
1495.56	188.679
1499.08	91.373
1502.61	8.916
