Measurement: Raman, 514 nm, ccw, Raman Data Processed
Mineral: Baryte
Rruff sample: R040036
Ideal chemistry: BaSO_4_
Locality: Cumbria County, England
Source: University of Arizona Mineral Museum
Description: Golden brown tabular crystal
Measured chemistry: Ba_1.00_S_1.00_O_4_; trace amounts of Pb
Pin_id: M00028
Orientation: Laser parallel to -a* (-1 0 0). Fiducial mark perpendicular to laser is parallel to -b [0 -1 0]
Raman shift (cm-1)	intensity
26.288	0
30.504	40.692
34.717	28.344
38.929	50.514
43.138	55.79
47.345	47.71
51.551	27.814
55.754	34.57
59.955	41.489
64.154	61.469
68.351	26.56
72.546	31.796
76.739	14.152
80.93	3.421
85.119	18.976
89.306	37.513
93.49	17.023
97.673	60.502
101.854	109.078
106.032	211.902
110.209	329.955
114.384	490.13
118.556	547.335
122.727	606.504
126.895	669.617
131.062	789.631
135.226	561.413
139.388	478.108
143.549	474.849
147.707	651.637
151.863	685.472
156.018	529.354
160.17	384.284
164.32	361.263
168.469	381.293
172.615	336.373
176.759	303.501
180.901	335.42
185.041	327.97
189.18	366.13
193.316	421.887
197.45	315.264
201.582	245.232
205.712	221.752
209.84	254.754
213.967	257.723
218.091	197.384
222.213	216.029
226.333	259.506
230.451	211.479
234.567	209.645
238.682	205.684
242.794	185.985
246.904	163.722
251.012	142.177
255.118	182.668
259.223	194.205
263.325	149.759
267.425	137.346
271.523	182.964
275.62	168.616
279.714	94.302
283.806	102.026
287.897	177.794
291.985	117.603
296.072	75.454
300.156	106.347
304.239	127.282
308.319	91.258
312.398	76.276
316.474	100.336
320.549	146.438
324.622	58.576
328.692	46.72
332.761	81.872
336.828	86.037
340.893	67.222
344.956	30.432
349.017	73.673
353.076	105.953
357.133	37.279
361.188	6.654
365.241	46.082
369.292	68.566
373.341	52.117
377.388	11.718
381.434	45.398
385.477	68.173
389.519	33.044
393.558	20.984
397.596	93.976
401.631	63.018
405.665	37.11
409.697	1.328
413.727	28.621
417.755	42.771
421.781	72.194
425.805	71.557
429.827	141.088
433.847	257.556
437.865	442.081
441.882	789.656
445.896	1911.29
449.909	5135.96
453.919	9928.68
457.928	5600.44
461.935	2409.26
465.94	1114.11
469.943	518.019
473.944	271.968
477.943	110.968
481.94	114.015
485.935	122.11
489.929	71.248
493.92	15.426
497.91	45.643
501.898	117.901
505.883	83.197
509.867	33.533
513.849	1.1
517.829	66.268
521.808	111.695
525.784	88.149
529.758	13.631
533.731	43.137
537.701	99.665
541.67	46.833
545.637	15.711
549.602	9.702
553.565	60.606
557.526	76.651
561.486	44.359
565.443	28.008
569.399	22.684
573.352	76.36
577.304	57.387
581.254	43.396
585.202	50.94
589.148	79.729
593.093	150.776
597.035	136.668
600.976	130.936
604.914	224.292
608.851	509.647
612.786	1305.47
616.719	3428.01
620.651	3222.28
624.58	1599.2
628.507	978.225
632.433	682.153
636.357	405.242
640.279	211.835
644.199	185.247
648.117	266.434
652.034	230.974
655.948	149.698
659.861	33.196
663.772	51.758
667.681	48.405
671.588	71.835
675.493	19.345
679.397	22.253
683.298	28.092
687.198	74.382
691.096	79.593
694.992	13.177
698.886	40.871
702.779	7.759
706.669	28.503
710.558	50.536
714.445	6.599
718.33	40.667
722.214	16.2
726.095	36.023
729.975	98.797
733.852	32.556
737.728	18.75
741.603	5.107
745.475	51.492
749.345	92.045
753.214	38.552
757.081	19.991
760.946	26.591
764.809	42.752
768.671	80.052
772.53	39.308
776.388	22.522
780.244	28.297
784.098	49.831
787.951	107.925
791.801	90.979
795.65	57.002
799.497	0.997
803.342	6.963
807.186	95.902
811.027	115.813
814.867	96.698
818.705	3.962
822.541	39.224
826.375	2.263
830.208	77.03
834.039	91.668
837.868	30.33
841.695	7.26
845.521	53.734
849.344	127.399
853.166	194.776
856.986	121.284
860.804	184.68
864.621	102.457
868.436	59.985
872.248	40.25
876.06	140.087
879.869	128.437
883.677	51.642
887.482	6.598
891.287	47.098
895.089	208.266
898.889	235.165
902.688	175.315
906.485	78.597
910.28	64.992
914.074	74.172
917.865	172.089
921.655	134.765
925.443	114.875
929.23	48.631
933.014	32.187
936.797	84.892
940.578	141.695
944.358	204.333
948.135	149.181
951.911	80.943
955.685	94.799
959.458	129.728
963.228	277.649
966.997	483.612
970.764	548.608
974.529	666.417
978.293	1072.3
982.055	2781.39
985.815	16452.5
989.573	56308.7
993.33	11004.9
997.085	2469.14
1000.84	1074.42
1004.59	740.866
1008.34	456.192
1012.09	376.577
1015.83	341.998
1019.58	324.238
1023.32	267.411
1027.06	185.042
1030.8	133.076
1034.54	134.683
1038.27	154.33
1042.01	203.016
1045.74	129.731
1049.47	78.02
1053.2	125.429
1056.93	293.616
1060.65	174.646
1064.38	155.026
1068.1	142.153
1071.82	203.185
1075.54	228.144
1079.25	387.669
1082.97	952.72
1086.68	948.769
1090.39	478.844
1094.11	345.956
1097.81	469.248
1101.52	965.418
1105.22	1705.62
1108.93	906.871
1112.63	393.14
1116.33	260.435
1120.03	181.754
1123.72	174.095
1127.42	41.46
1131.11	11.148
1134.8	11.354
1138.49	53.057
1142.18	161.49
1145.87	183.935
1149.55	111.394
1153.23	18.855
1156.91	8.709
1160.59	24.182
1164.27	20.244
1167.95	37.683
1171.62	84.131
1175.3	124.586
1178.97	113.045
1182.64	64.498
1186.3	18.064
1189.97	9.579
1193.63	23.162
1197.3	25.24
1200.96	64.691
1204.62	145.081
1208.27	132.823
1211.93	109.012
1215.58	61.369
1219.24	40.72
1222.89	14.336
1226.54	11.539
1230.18	123.975
1233.83	163.384
1237.47	248.821
1241.12	183.109
1244.76	111.9
1248.4	57.481
1252.04	23.258
1255.67	48.506
1259.31	76.49
1262.94	82.754
1266.57	146.993
1270.2	199.724
1273.83	195.92
1277.45	107.206
1281.08	48.497
1284.7	41.559
1288.32	3.015
1291.94	75.696
1295.56	159.257
1299.17	172.617
1302.79	145.728
1306.4	124.763
1310.01	105.753
1313.62	54.161
1317.23	11.072
1320.84	47.762
1324.44	136.101
1328.04	166.909
1331.64	172.456
1335.24	139.074
1338.84	105.73
1342.44	99.802
1346.03	36.343
1349.63	3.124
1353.22	28.628
1356.81	13.823
1360.4	54.103
1363.98	108.501
1367.57	154.962
1371.15	120.466
1374.73	115.934
1378.32	38.244
1381.89	62.194
1385.47	22.224
1389.05	24.536
1392.62	21.361
1396.19	82.168
1399.76	126.878
1403.33	156.67
1406.9	189.432
1410.46	146.191
1414.03	85.888
1417.59	62.688
1421.15	7.124
1424.71	0.387
1428.27	28.713
1431.82	89.855
1435.38	200.49
1438.93	277.936
1442.48	359.696
1446.03	430.409
1449.58	419.37
1453.13	379.89
1456.67	326.152
1460.21	294.594
1463.76	190.47
1467.3	154.448
1470.83	192.296
1474.37	136.24
1477.91	221.166
1481.44	224.063
1484.97	271.26
1488.5	229.922
1492.03	194.963
1495.56	97.741
1499.08	50.618
1502.61	3.289
