Measurement: Raman, 514 nm, ccw, Raman Data Processed
Mineral: Baryte
Rruff sample: R050335
Ideal chemistry: BaSO_4_
Locality: Bullion Mountains, San Bernardino County, California, USA
Source: California Institute of Technology
Description: Colorless cleavage fragment
Measured chemistry: (Ba_0.95_Sr_0.05_)_Î£=1_S_1.00_O_4_
Pin_id: L01894
Orientation: Laser parallel to -a* (-1 0 0). Fiducial mark perpendicular to laser is parallel to b [0 1 0]
Raman shift (cm-1)	intensity
93.48	0
98.416	53.3105
103.349	123.851
108.28	1352.82
113.208	2347.44
118.134	264.156
123.058	195.508
127.979	346.986
132.898	489.029
137.814	550.087
142.728	1153.42
147.639	789.655
152.549	590.947
157.455	365.981
162.359	263.922
167.261	217.377
172.161	203.771
177.058	170.612
181.952	193.417
186.845	262.104
191.734	328.073
196.622	336.627
201.507	273.986
206.389	129.891
211.269	81.2964
216.147	55.8242
221.022	82.875
225.895	4.12061
230.765	1.09863
235.633	17.5527
240.498	77.3594
245.361	71.9663
250.222	65.9434
255.08	3.08106
259.936	70.3057
264.789	71.9356
269.64	33.7622
274.488	70.6831
279.334	161.606
284.178	61.4995
289.019	132.356
293.857	25.8355
298.693	30.1953
303.527	20.772
308.358	43.5078
313.187	60.1792
318.013	5.12988
322.837	9.65723
327.659	104.74
332.478	34.062
337.294	127.315
342.108	80.4604
346.92	97.8765
351.729	38.4937
356.535	68.7329
361.34	68.228
366.141	62.3115
370.94	150.744
375.737	27.9194
380.531	43.7666
385.323	104.301
390.113	53.5352
394.9	175.82
399.684	78.1597
404.466	110.284
409.245	63.4302
414.022	92.6397
418.797	163.667
423.569	136.904
428.338	178.846
433.105	232.749
437.87	738.593
442.632	2002.15
447.391	4442.77
452.149	7804.53
456.903	5383.55
461.655	3560.25
466.405	1206.63
471.152	421.416
475.897	246.299
480.639	128.083
485.378	1.01074
490.116	183.043
494.85	72.7847
499.582	31.5581
504.312	9.27148
509.039	6.82519
513.764	122.109
518.486	145.844
523.206	77.7056
527.923	77.8096
532.638	74.8706
537.35	5.01416
542.059	78.4497
546.766	99.479
551.471	49.8804
556.173	5.25488
560.873	112.844
565.57	76.4561
570.264	120.565
574.957	64.168
579.646	14.7725
584.333	40.1782
589.018	64.9678
593.7	113.929
598.379	220.016
603.056	406.125
607.73	947.715
612.402	2446.97
617.072	4745.51
621.739	2703.07
626.403	1355.91
631.065	1149.39
635.724	612.885
640.381	628.769
645.035	751.085
649.687	597.578
654.336	193.799
658.983	134.017
663.627	33.7007
668.268	23.978
672.907	5.22998
677.544	7.45654
682.178	38.3975
686.809	132.438
691.438	24.3628
696.065	0.59668
700.688	15.8618
705.31	48.6587
709.929	58.2822
714.545	98.0386
719.158	169.855
723.77	54.4355
728.378	158.534
732.984	96.3848
737.588	81.6504
742.189	12.1543
746.787	88.916
751.383	98.9111
755.976	22.5366
760.567	53.6392
765.155	0.645996
769.741	214.028
774.324	142.863
778.904	86.2812
783.482	5.21289
788.058	83.1528
792.631	136.189
797.201	2.30176
801.769	184.812
806.334	101.651
810.897	130.589
815.457	64.4463
820.014	67.73
824.569	66.4468
829.122	30.8086
833.671	135.95
838.219	10.8926
842.763	108.026
847.306	22.3296
851.845	67.0815
856.382	113.783
860.917	14.3237
865.448	83.1504
869.978	42.3984
874.505	79.6108
879.029	120.316
883.55	24.9546
888.069	111.394
892.586	18.9741
897.1	44.6562
901.611	157.549
906.12	110.901
910.626	78.7822
915.129	69.6182
919.63	37.0791
924.129	122.775
928.625	81.9883
933.118	81.6269
937.609	114.878
942.097	189.539
946.582	131.2
951.065	173.871
955.546	108.804
960.023	164.58
964.499	464.361
968.971	431.943
973.441	757.824
977.909	1994.09
982.374	10490.1
986.836	37518
991.295	31609.9
995.753	3425.55
1000.21	1019.38
1004.66	392.077
1009.11	358.346
1013.55	235.718
1018	178.18
1022.44	130.707
1026.88	96.2988
1031.32	15.0254
1035.75	23.7588
1040.18	71.4082
1044.61	4.86231
1049.04	116.724
1053.46	54.4834
1057.88	19.585
1062.3	136.422
1066.71	181.286
1071.13	106.836
1075.54	340.881
1079.94	769.255
1084.35	1353.71
1088.75	769.335
1093.15	367.504
1097.55	466.331
1101.94	993.239
1106.34	1042.8
1110.73	408.969
1115.11	76.4658
1119.5	100.573
1123.88	160.083
1128.26	185.857
1132.63	380.793
1137.01	832.855
1141.38	923.57
1145.75	712.487
1150.12	395.747
1154.48	223.061
1158.84	158.434
1163.2	400.828
1167.55	463.315
1171.91	394.448
1176.26	87.0703
1180.61	128.926
1184.95	144.694
1189.29	89.3535
1193.63	4.12109
1197.97	139.036
1202.31	74.2119
1206.64	149.127
1210.97	81.0303
1215.29	110.907
1219.62	98
1223.94	143.202
1228.26	159.088
1232.57	269.047
1236.89	176.09
1241.2	9
1245.51	84.9072
1249.81	26.1533
1254.12	181.654
1258.42	86.2832
1262.72	51.252
1267.01	99.2139
1271.3	175.011
1275.59	192.678
1279.88	112.109
1284.17	172.56
1288.45	111.199
1292.73	102.444
1297.01	208.682
1301.28	73.9297
1305.55	163.324
1309.82	148.675
1314.09	256.657
1318.35	52.4219
1322.61	65.9365
1326.87	27.0762
1331.13	156.19
1335.38	288.353
1339.63	130.673
1343.88	11.9609
1348.12	62.2969
1352.37	101.853
1356.61	111.495
1360.85	109.253
1365.08	135.275
1369.31	118.601
1373.54	77.5957
1377.77	240.28
1381.99	35.1123
1386.22	7.89551
1390.43	200.356
1394.65	83.6758
1398.87	53.3516
1403.08	300.679
1407.29	80.6543
1411.49	205.782
1415.69	160.647
1419.89	171.701
1424.09	144.308
1428.29	118.036
1432.48	78.9873
1436.67	101.47
1440.86	216.165
1445.04	115.28
1449.23	94.0606
1453.4	203.572
1457.58	61.3037
1461.76	141.325
1465.93	142.012
1470.1	102.432
1474.26	145.944
1478.43	180.927
1482.59	143.958
1486.75	54.166
1490.9	105.686
1495.06	107.603
1499.21	91.3193
1503.35	131.517
1507.5	37.4551
1511.64	201.959
1515.78	88.7529
1519.92	113.735
1524.05	279.693
1528.18	50.6728
1532.31	18.3311
1536.44	233.383
1540.56	118.045
1544.69	8.26855
1548.8	4.83301
1552.92	229.769
1557.03	162.528
1561.14	87.4853
1565.25	148.932
1569.36	112.009
