Measurement: Raman, 514 nm, ccw, Raman Data Processed
Mineral: Baryte
Rruff sample: R040036
Ideal chemistry: BaSO_4_
Locality: Cumbria County, England
Source: University of Arizona Mineral Museum
Description: Golden brown tabular crystal
Measured chemistry: Ba_1.00_S_1.00_O_4_; trace amounts of Pb
Pin_id: M00028
Orientation: Laser parallel to -a* (-1 0 0). Fiducial mark perpendicular to laser is parallel to -b [0 -1 0]
Raman shift (cm-1)	intensity
26.288	0
30.504	51.26
34.717	35.521
38.929	57.315
43.138	63.169
47.345	58.02
51.551	82.214
55.754	93.248
59.955	150.987
64.154	124.867
68.351	99.872
72.546	70.808
76.739	46.887
80.93	9.039
85.119	17.831
89.306	47.731
93.49	28.644
97.673	13.44
101.854	67.55
106.032	154.026
110.209	282.837
114.384	451.829
118.556	439.884
122.727	541.892
126.895	695.799
131.062	758.519
135.226	544.848
139.388	488.913
143.549	533.973
147.707	714.072
151.863	842.209
156.018	644.383
160.17	469.594
164.32	431.842
168.469	411.13
172.615	390.459
176.759	362.581
180.901	365.733
185.041	364.102
189.18	351.899
193.316	377.204
197.45	343.827
201.582	298.056
205.712	256.753
209.84	273.69
213.967	297.148
218.091	252.348
222.213	236.126
226.333	279.652
230.451	264.193
234.567	216.9
238.682	221.602
242.794	225.114
246.904	209.703
251.012	161.281
255.118	225.914
259.223	247.628
263.325	217.359
267.425	157.149
271.523	216.927
275.62	210.713
279.714	135.522
283.806	113.359
287.897	177.23
291.985	174.135
296.072	118.074
300.156	78.049
304.239	140.059
308.319	148.103
312.398	107.183
316.474	113.297
320.549	135.447
324.622	121.623
328.692	65.773
332.761	100.9
336.828	126.013
340.893	100.12
344.956	98.23
349.017	90.351
353.076	155.489
357.133	78.885
361.188	11.088
365.241	44.333
369.292	92.625
373.341	56.995
377.388	31.42
381.434	43.91
385.477	81.514
389.519	73.235
393.558	27.057
397.596	41.944
401.631	93.877
405.665	70.856
409.697	7.125
413.727	8.941
417.755	101.06
421.781	83.322
425.805	33.539
429.827	62.8
433.847	140.109
437.865	227.465
441.882	369.864
445.896	881.306
449.909	2481.79
453.919	4678.31
457.928	2750.87
461.935	1644.48
465.94	907.133
469.943	373.818
473.944	196.54
477.943	87.307
481.94	41.119
485.935	97.97
489.929	92.87
493.92	20.805
497.91	13.775
501.898	50.78
505.883	88.813
509.867	68.882
513.849	4.018
517.829	55.113
521.808	90.275
525.784	89.464
529.758	29.677
533.731	48.478
537.701	90.738
541.67	84.323
545.637	54.117
549.602	20.445
553.565	58.185
557.526	90.288
561.486	90.509
565.443	23.986
569.399	3.677
573.352	83.647
577.304	113.679
581.254	99.418
585.202	58.599
589.148	129.111
593.093	233.631
597.035	259.766
600.976	253.511
604.914	307.941
608.851	699.549
612.786	2010.97
616.719	5202.99
620.651	4444.98
624.58	2207.24
628.507	1613.84
632.433	1291.22
636.357	576.884
640.279	266.24
644.199	201.841
648.117	287.592
652.034	256.903
655.948	168.347
659.861	45.004
663.772	58.242
667.681	83.614
671.588	109.092
675.493	39.279
679.397	10.562
683.298	1.434
687.198	67.845
691.096	75.113
694.992	16.235
698.886	32.333
702.779	9.4
706.669	51.394
710.558	81.241
714.445	16.045
718.33	9.196
722.214	17.479
726.095	53.194
729.975	78.834
733.852	27.443
737.728	8.367
741.603	37.843
745.475	28.691
749.345	80.13
753.214	69.54
757.081	20.089
760.946	31.767
764.809	2.495
768.671	74.736
772.53	74.922
776.388	38.076
780.244	16.796
784.098	27.297
787.951	101.363
791.801	109.398
795.65	52.409
799.497	19.389
803.342	2.655
807.186	43.276
811.027	73.186
814.867	72.394
818.705	10.955
822.541	49.293
826.375	0.878
830.208	73.906
834.039	135.237
837.868	71.387
841.695	23.791
845.521	30.741
849.344	97.157
853.166	173.295
856.986	230.048
860.804	215.225
864.621	89.676
868.436	62.28
872.248	94.878
876.06	120.542
879.869	174.219
883.677	106.895
887.482	26.394
891.287	42.077
895.089	153.592
898.889	237.446
902.688	210.999
906.485	117.693
910.28	50.437
914.074	70.904
917.865	131.198
921.655	167.004
925.443	187.411
929.23	135.272
933.014	78.98
936.797	89.503
940.578	214.299
944.358	231.249
948.135	225.96
951.911	165.962
955.685	117.986
959.458	138.854
963.228	297.885
966.997	516.836
970.764	625.884
974.529	819.622
978.293	1159.84
982.055	2972.09
985.815	18321.5
989.573	60467.8
993.33	11654.2
997.085	2710.97
1000.84	1207.41
1004.59	781.047
1008.34	465.566
1012.09	383.505
1015.83	416.104
1019.58	369.677
1023.32	375.348
1027.06	333.054
1030.8	263.208
1034.54	173.628
1038.27	159.592
1042.01	201.484
1045.74	141.949
1049.47	142.025
1053.2	103.639
1056.93	284.277
1060.65	116.668
1064.38	131.943
1068.1	203.156
1071.82	263.829
1075.54	330.059
1079.25	424.251
1082.97	960.486
1086.68	930.714
1090.39	467.969
1094.11	368.265
1097.81	333.605
1101.52	419.063
1105.22	571.461
1108.93	264.891
1112.63	126.346
1116.33	114.822
1120.03	163.323
1123.72	154.845
1127.42	59.381
1131.11	34.437
1134.8	11.987
1138.49	104.58
1142.18	294.165
1145.87	437.78
1149.55	342.409
1153.23	159.049
1156.91	75.698
1160.59	20.359
1164.27	29.671
1167.95	7.793
1171.62	94.862
1175.3	142.531
1178.97	118.224
1182.64	130.837
1186.3	0.433
1189.97	14.995
1193.63	51.446
1197.3	0.893
1200.96	50.657
1204.62	128.234
1208.27	164.691
1211.93	129.133
1215.58	100.739
1219.24	50.152
1222.89	26.074
1226.54	35.818
1230.18	43.777
1233.83	137.832
1237.47	202.657
1241.12	182.53
1244.76	192.815
1248.4	108.834
1252.04	63.954
1255.67	52.225
1259.31	27.422
1262.94	73.328
1266.57	173.751
1270.2	213.793
1273.83	217.912
1277.45	154.239
1281.08	85.323
1284.7	49.635
1288.32	1.22
1291.94	85.614
1295.56	128.952
1299.17	163.849
1302.79	162.807
1306.4	190.647
1310.01	169.875
1313.62	108.479
1317.23	46.487
1320.84	36.158
1324.44	73.526
1328.04	126.977
1331.64	152.352
1335.24	151.187
1338.84	136.435
1342.44	82.689
1346.03	73.875
1349.63	9.958
1353.22	45.85
1356.81	8.754
1360.4	11.239
1363.98	107.098
1367.57	134.006
1371.15	147.396
1374.73	117.314
1378.32	132.89
1381.89	65.595
1385.47	62.719
1389.05	19.196
1392.62	4.318
1396.19	7.893
1399.76	108.131
1403.33	130.116
1406.9	135.244
1410.46	186.508
1414.03	141.78
1417.59	121.02
1421.15	72.102
1424.71	26.133
1428.27	29.564
1431.82	37.582
1435.38	85.23
1438.93	204.199
1442.48	314.491
1446.03	396.068
1449.58	471.487
1453.13	411.641
1456.67	384.354
1460.21	272.892
1463.76	236.445
1467.3	131.876
1470.83	103.656
1474.37	110.501
1477.91	163.225
1481.44	168.188
1484.97	232.38
1488.5	304.829
1492.03	184.609
1495.56	141.174
1499.08	139.865
1502.61	1.093
