Measurement: Raman, 514 nm, ccw, Raman Data Processed
Mineral: Baryte
Rruff sample: R040036
Ideal chemistry: BaSO_4_
Locality: Cumbria County, England
Source: University of Arizona Mineral Museum
Description: Golden brown tabular crystal
Measured chemistry: Ba_1.00_S_1.00_O_4_; trace amounts of Pb
Pin_id: M00021
Orientation: Laser parallel to c* (0 0 1). Fiducial mark perpendicular to laser is parallel to -a [-1 0 0]
Raman shift (cm-1)	intensity
26.288	0
30.504	23.857
34.717	43.292
38.929	47.13
43.138	47.757
47.345	57.33
51.551	20.199
55.754	4.989
59.955	9.041
64.154	2.095
68.351	10.599
72.546	104.871
76.739	211.457
80.93	164.134
85.119	273.903
89.306	422.766
93.49	548.723
97.673	635.775
101.854	662.93
106.032	607.258
110.209	617.712
114.384	636.396
118.556	631.691
122.727	589.08
126.895	590.458
131.062	585.9
135.226	487.406
139.388	455.977
143.549	460.615
147.707	548.322
151.863	639.099
156.018	554.943
160.17	442.858
164.32	366.842
168.469	327.898
172.615	341.024
176.759	305.474
180.901	297.011
185.041	295.033
189.18	322.713
193.316	317.073
197.45	270.052
201.582	267.732
205.712	263.118
209.84	245.202
213.967	202.5
218.091	235.127
222.213	224.013
226.333	192.284
230.451	182.654
234.567	193.034
238.682	164.468
242.794	168.99
246.904	177.494
251.012	172.086
255.118	176.73
259.223	162.427
263.325	166.241
267.425	156.033
271.523	120.877
275.62	123.773
279.714	151.725
283.806	118.733
287.897	133.794
291.985	105.908
296.072	103.075
300.156	76.295
304.239	64.568
308.319	72.893
312.398	78.27
316.474	76.698
320.549	60.177
324.622	80.704
328.692	95.267
332.761	36.869
336.828	68.515
340.893	62.21
344.956	72.961
349.017	62.771
353.076	48.646
357.133	24.589
361.188	41.613
365.241	46.319
369.292	23.884
373.341	7.892
377.388	20.385
381.434	11.715
385.477	45.099
389.519	20.542
393.558	33.089
397.596	47.676
401.631	29.295
405.665	15.994
409.697	27.734
413.727	11.534
417.755	30.394
421.781	15.317
425.805	53.57
429.827	71.612
433.847	124.728
437.865	159.906
441.882	307.142
445.896	636.437
449.909	1605.77
453.919	2965.15
457.928	3479.58
461.935	7589.04
465.94	3868.55
469.943	1065.11
473.944	471.704
477.943	245.344
481.94	145.026
485.935	88.745
489.929	87.495
493.92	36.274
497.91	40.081
501.898	50.915
505.883	32.774
509.867	19.658
513.849	24.563
517.829	47.444
521.808	62.389
525.784	20.352
529.758	7.333
533.731	54.804
537.701	4.845
541.67	21.254
545.637	3.716
549.602	4.335
553.565	11.336
557.526	26.411
561.486	46.536
565.443	12.053
569.399	6.758
573.352	49.615
577.304	14.812
581.254	35.831
585.202	55.995
589.148	100.364
593.093	111.459
597.035	141.454
600.976	147.021
604.914	231.672
608.851	369.924
612.786	1022.22
616.719	2904.46
620.651	1998.22
624.58	1109.66
628.507	1154.5
632.433	962.288
636.357	362.068
640.279	235.804
644.199	286.52
648.117	320.28
652.034	242.927
655.948	182.542
659.861	71.143
663.772	39.694
667.681	36.21
671.588	18.958
675.493	5.391
679.397	6.292
683.298	38.042
687.198	2.299
691.096	21.477
694.992	17.325
698.886	4.235
702.779	31.792
706.669	14.628
710.558	39.611
714.445	38.789
718.33	24.063
722.214	1.584
726.095	8.833
729.975	8.687
733.852	57.166
737.728	19.394
741.603	22.99
745.475	2.326
749.345	2.609
753.214	16.841
757.081	20.973
760.946	7.85
764.809	10.219
768.671	40.249
772.53	27.685
776.388	10.205
780.244	8.133
784.098	26.028
787.951	15.888
791.801	30.717
795.65	4.516
799.497	27.284
803.342	35.024
807.186	8.263
811.027	23.414
814.867	3.575
818.705	39.617
822.541	28.41
826.375	65.911
830.208	71.908
834.039	53.517
837.868	49.321
841.695	69.002
845.521	133.144
849.344	83.802
853.166	113.485
856.986	182.139
860.804	212.208
864.621	191.285
868.436	102.72
872.248	121.093
876.06	87.932
879.869	84.383
883.677	39.037
887.482	103.18
891.287	97.341
895.089	127.83
898.889	120.718
902.688	112.909
906.485	91.388
910.28	72.885
914.074	75.377
917.865	97.9
921.655	83.448
925.443	83.928
929.23	88.518
933.014	75.114
936.797	118.757
940.578	92.422
944.358	131.856
948.135	131.583
951.911	122.332
955.685	139.114
959.458	155.933
963.228	259.783
966.997	366.672
970.764	469.598
974.529	638.559
978.293	1059.56
982.055	2975.59
985.815	19828.9
989.573	47313
993.33	5762.15
997.085	1686.36
1000.84	985.612
1004.59	726.896
1008.34	437.206
1012.09	419.545
1015.83	432.916
1019.58	526.322
1023.32	692.759
1027.06	1054.23
1030.8	1130.74
1034.54	512.294
1038.27	242.876
1042.01	174.484
1045.74	101.117
1049.47	92.237
1053.2	43.497
1056.93	54.354
1060.65	49.675
1064.38	69.123
1068.1	31.465
1071.82	57.996
1075.54	127.926
1079.25	177.394
1082.97	392.663
1086.68	272.578
1090.39	85.691
1094.11	86.041
1097.81	51.045
1101.52	141.039
1105.22	113.047
1108.93	40.069
1112.63	45.104
1116.33	15.848
1120.03	18.213
1123.72	27.288
1127.42	15.379
1131.11	75.473
1134.8	141.574
1138.49	367.683
1142.18	597.799
1145.87	550.92
1149.55	310.049
1153.23	116.185
1156.91	39.324
1160.59	46
1164.27	92.145
1167.95	69.292
1171.62	125.438
1175.3	32.586
1178.97	19.73
1182.64	13.132
1186.3	1.978
1189.97	14.079
1193.63	7.833
1197.3	0.225
1200.96	31.742
1204.62	9.267
1208.27	0.65
1211.93	10.87
1215.58	52.578
1219.24	52.483
1222.89	5.49
1226.54	4.026
1230.18	13.89
1233.83	46.92
1237.47	74.755
1241.12	79.581
1244.76	41.43
1248.4	54.204
1252.04	47.659
1255.67	63.451
1259.31	42.234
1262.94	34.006
1266.57	68.767
1270.2	89.511
1273.83	99.24
1277.45	81.006
1281.08	46.162
1284.7	30.599
1288.32	17.723
1291.94	85.954
1295.56	69.569
1299.17	61.148
1302.79	11.701
1306.4	58.232
1310.01	79.748
1313.62	104.512
1317.23	109.666
1320.84	94.965
1324.44	114.643
1328.04	79.525
1331.64	52.625
1335.24	43.001
1338.84	4.213
1342.44	3.32
1346.03	28.889
1349.63	24.188
1353.22	1.13
1356.81	22.197
1360.4	4.533
1363.98	24.78
1367.57	40.126
1371.15	3.531
1374.73	14.235
1378.32	24.424
1381.89	51.038
1385.47	30.486
1389.05	63.912
1392.62	88.313
1396.19	17.685
1399.76	17.378
1403.33	45.682
1406.9	40.961
1410.46	21.248
1414.03	35.549
1417.59	74.897
1421.15	60.588
1424.71	31.783
1428.27	71.891
1431.82	102.088
1435.38	150.042
1438.93	213.25
1442.48	346.763
1446.03	341.858
1449.58	360.908
1453.13	431.95
1456.67	402.281
1460.21	413.186
1463.76	354.052
1467.3	234.212
1470.83	244.473
1474.37	190.893
1477.91	185.481
1481.44	166.315
1484.97	130.557
1488.5	173.292
1492.03	54.757
1495.56	61.413
1499.08	5.742
1502.61	0
