Measurement: Raman, 514 nm, ccw, Raman Data Processed
Mineral: Baryte
Rruff sample: R050335
Ideal chemistry: BaSO_4_
Locality: Bullion Mountains, San Bernardino County, California, USA
Source: California Institute of Technology
Description: Colorless cleavage fragment
Measured chemistry: (Ba_0.95_Sr_0.05_)_Î£=1_S_1.00_O_4_
Pin_id: M00253
Orientation: Laser parallel to -b* (0 -1 0). Fiducial mark perpendicular to laser is parallel to -c [0 0 -1]
Raman shift (cm-1)	intensity
93.48	0
98.416	112.401
103.349	119.64
108.28	214.417
113.208	238.955
118.134	267.373
123.058	305.873
127.979	558.449
132.898	998.762
137.814	1781.52
142.728	2705.91
147.639	2024.54
152.549	1050.44
157.455	723.344
162.359	719.252
167.261	568.395
172.161	345.927
177.058	392.457
181.952	532.476
186.845	561.342
191.734	918.967
196.622	818.233
201.507	569.768
206.389	260.522
211.269	367.14
216.147	202.152
221.022	222.452
225.895	98.2363
230.765	205.776
235.633	205.11
240.498	65.9258
245.361	10.4131
250.222	38.0547
255.08	236.269
259.936	89.7617
264.789	74.2578
269.64	105.435
274.488	162.796
279.334	226.912
284.178	238.185
289.019	7.93262
293.857	194.222
298.693	27.9209
303.527	117.97
308.358	56.4219
313.187	103.244
318.013	20.6582
322.837	128.65
327.659	33.7881
332.478	66.9814
337.294	115.035
342.108	37.7188
346.92	0.28125
351.729	4.13477
356.535	113.538
361.34	118.37
366.141	55.6602
370.94	23.5859
375.737	179.616
380.531	11.0703
385.323	168.344
390.113	54.9873
394.9	223.072
399.684	132.215
404.466	101.17
409.245	84.8877
414.022	155.799
418.797	24.001
423.569	6.69434
428.338	164.99
433.105	278.383
437.87	473.998
442.632	1309.73
447.391	2785.27
452.149	5745.76
456.903	4577.62
461.655	1739.62
466.405	696.608
471.152	374.596
475.897	169.688
480.639	122.998
485.378	90.4209
490.116	42.0947
494.85	105.246
499.582	103.608
504.312	132.049
509.039	236.149
513.764	281.809
518.486	155.468
523.206	112.556
527.923	136.352
532.638	116.245
537.35	189.244
542.059	77.0752
546.766	170.891
551.471	76.7617
556.173	42.7998
560.873	87.6963
565.57	76.8984
570.264	4.03711
574.957	11.6797
579.646	30.0527
584.333	58.375
589.018	34.668
593.7	142.674
598.379	176.756
603.056	294.991
607.73	295.967
612.402	624.984
617.072	1248.02
621.739	1164.18
626.403	854.223
631.065	1311.96
635.724	1205.61
640.381	1613.6
645.035	1962.64
649.687	2489.33
654.336	974.268
658.983	329.707
663.627	105.272
668.268	72.8057
672.907	46.2275
677.544	76.6035
682.178	225.94
686.809	137.151
691.438	59.458
696.065	259.502
700.688	221.504
705.31	131.744
709.929	132.895
714.545	146.018
719.158	156.656
723.77	129.899
728.378	160.863
732.984	120.237
737.588	332.082
742.189	43.5166
746.787	58.6084
751.383	262.826
755.976	105.439
760.567	40.6982
765.155	180.023
769.741	149.915
774.324	177.202
778.904	108.686
783.482	2.23926
788.058	199.09
792.631	166.921
797.201	125.219
801.769	187.389
806.334	214.198
810.897	66.2627
815.457	138.061
820.014	148.609
824.569	6.18164
829.122	72.2148
833.671	125.088
838.219	14.2305
842.763	136.81
847.306	172.719
851.845	214.275
856.382	150.426
860.917	126.051
865.448	41.7441
869.978	92.8359
874.505	141.58
879.029	124.91
883.55	139.877
888.069	29.1719
892.586	124.328
897.1	137.967
901.611	251.783
906.12	76.6914
910.626	258.525
915.129	45.377
919.63	151.287
924.129	261.291
928.625	137.908
933.118	37.0527
937.609	86.1797
942.097	59.8633
946.582	143.08
951.065	92.9902
955.546	37.4883
960.023	132.248
964.499	199.397
968.971	446.127
973.441	477.775
977.909	951.516
982.374	4699.85
986.836	18443.5
991.295	32864.2
995.753	3416.66
1000.21	777.9
1004.66	622.223
1009.11	295.598
1013.55	235.172
1018	174.565
1022.44	197.598
1026.88	22.0625
1031.32	53.4102
1035.75	41.3359
1040.18	238.002
1044.61	14.6504
1049.04	48.0684
1053.46	54.0098
1057.88	218.217
1062.3	64.1055
1066.71	224.176
1071.13	70.4922
1075.54	92.5039
1079.94	373.883
1084.35	486.881
1088.75	256.859
1093.15	160.428
1097.55	527.389
1101.94	599.66
1106.34	558.797
1110.73	238.736
1115.11	106.195
1119.5	243.685
1123.88	540.191
1128.26	373.894
1132.63	715.445
1137.01	1703.01
1141.38	2882.58
1145.75	2478.42
1150.12	1536.19
1154.48	739.057
1158.84	772.295
1163.2	1140.32
1167.55	1327.41
1171.91	1256.22
1176.26	883.377
1180.61	410.654
1184.95	177.033
1189.29	363.193
1193.63	289.518
1197.97	151.555
1202.31	143.627
1206.64	109.061
1210.97	288.908
1215.29	285.348
1219.62	197.393
1223.94	77.4551
1228.26	419.596
1232.57	250.977
1236.89	103.176
1241.2	478.963
1245.51	179.391
1249.81	192.889
1254.12	123.057
1258.42	100.471
1262.72	213.51
1267.01	280.83
1271.3	114.397
1275.59	283.785
1279.88	89.041
1284.17	275.084
1288.45	261.549
1292.73	410.357
1297.01	141.252
1301.28	207.586
1305.55	284.852
1309.82	359.07
1314.09	441.922
1318.35	330.176
1322.61	221.303
1326.87	261.9
1331.13	111.207
1335.38	252.002
1339.63	235.42
1343.88	31.8789
1348.12	196.584
1352.37	192.846
1356.61	83.3926
1360.85	174.731
1365.08	395.861
1369.31	78.9062
1373.54	261.949
1377.77	95.9121
1381.99	44.4414
1386.22	348.326
1390.43	194.195
1394.65	125.125
1398.87	48.9453
1403.08	367.562
1407.29	222.404
1411.49	56.8008
1415.69	289.424
1419.89	96.2676
1424.09	41.0645
1428.29	155.965
1432.48	151.852
1436.67	103.273
1440.86	185.178
1445.04	211.1
1449.23	215.371
1453.4	141.184
1457.58	211.527
1461.76	42.6543
1465.93	130.121
1470.1	198.451
1474.26	195.94
1478.43	261.184
1482.59	69.3535
1486.75	286.5
1490.9	254.201
1495.06	217.371
1499.21	110.357
1503.35	277.037
1507.5	137.203
1511.64	139.326
1515.78	21.6582
1519.92	161.301
1524.05	162.383
1528.18	246.877
1532.31	216.668
1536.44	117.606
1540.56	209.443
1544.69	203.965
1548.8	163.822
1552.92	272.1
1557.03	149.299
1561.14	341.932
1565.25	208.541
1569.36	198.147
