Measurement: Raman, 514 nm, ccw, Raman Data Processed
Mineral: Baryte
Rruff sample: R040036
Ideal chemistry: BaSO_4_
Locality: Cumbria County, England
Source: University of Arizona Mineral Museum
Description: Golden brown tabular crystal
Measured chemistry: Ba_1.00_S_1.00_O_4_; trace amounts of Pb
Pin_id: M00019
Orientation: Laser parallel to b* (0 1 0). Fiducial mark perpendicular to laser is parallel to c [0 0 1]
Raman shift (cm-1)	intensity
26.288	0
30.504	23.24
34.717	31.486
38.929	57.464
43.138	46.987
47.345	60.814
51.551	89.512
55.754	107.989
59.955	104.068
64.154	80.324
68.351	58.152
72.546	37.038
76.739	4.002
80.93	2.001
85.119	21.021
89.306	22.1
93.49	16.749
97.673	70.758
101.854	39.912
106.032	65.843
110.209	55.002
114.384	113.265
118.556	132.552
122.727	95.086
126.895	95.484
131.062	98.635
135.226	79.652
139.388	89.616
143.549	101.132
147.707	159.796
151.863	210.108
156.018	159.541
160.17	114.93
164.32	65.23
168.469	61.465
172.615	66.599
176.759	86.164
180.901	104.437
185.041	203.049
189.18	243.153
193.316	153.732
197.45	90.82
201.582	75.621
205.712	91.628
209.84	71.138
213.967	49.206
218.091	57.991
222.213	57.309
226.333	41.575
230.451	53.289
234.567	51.941
238.682	40.008
242.794	21.558
246.904	25.693
251.012	29.121
255.118	37.469
259.223	42.936
263.325	24.681
267.425	33.39
271.523	45.064
275.62	29.703
279.714	24.309
283.806	15.887
287.897	23.433
291.985	21.953
296.072	28.449
300.156	17.924
304.239	19.378
308.319	16.81
312.398	11.199
316.474	25.507
320.549	33.768
324.622	10.009
328.692	16.287
332.761	26.495
336.828	22.641
340.893	24.733
344.956	1.222
349.017	10.779
353.076	15.746
357.133	29.673
361.188	13.437
365.241	11.275
369.292	21.086
373.341	10.823
377.388	21.597
381.434	20.408
385.477	38.288
389.519	32.972
393.558	14.751
397.596	28.475
401.631	26.348
405.665	41.246
409.697	26.993
413.727	43.806
417.755	56.702
421.781	63.582
425.805	119.403
429.827	212.181
433.847	388.96
437.865	786.763
441.882	1670.58
445.896	4159.41
449.909	10143.2
453.919	9086.03
457.928	3132.87
461.935	1136.71
465.94	519.563
469.943	304.277
473.944	172.912
477.943	121.752
481.94	83.546
485.935	70.386
489.929	68.102
493.92	58.833
497.91	60.763
501.898	49.66
505.883	47.499
509.867	50.372
513.849	50.333
517.829	54.224
521.808	50.246
525.784	46.197
529.758	35.207
533.731	47.54
537.701	39.565
541.67	20.62
545.637	20.695
549.602	24.083
553.565	14.158
557.526	6.193
561.486	22.273
565.443	26.336
569.399	12.493
573.352	6.999
577.304	17.118
581.254	37.335
585.202	36.191
589.148	21.731
593.093	12.925
597.035	35.454
600.976	29.593
604.914	88.56
608.851	220.838
612.786	950.893
616.719	1474.07
620.651	621.182
624.58	337.479
628.507	387.591
632.433	310.1
636.357	224.066
640.279	263.278
644.199	462.239
648.117	412.164
652.034	207.639
655.948	90.786
659.861	50.846
663.772	30.066
667.681	36.835
671.588	14.668
675.493	9.567
679.397	33.338
683.298	9.237
687.198	11.97
691.096	3.841
694.992	14.768
698.886	17.509
702.779	17.09
706.669	12.634
710.558	6.845
714.445	11.637
718.33	11.11
722.214	5.457
726.095	7.099
729.975	3.253
733.852	0.425
737.728	11.861
741.603	21.147
745.475	10.619
749.345	9.584
753.214	21.765
757.081	1.082
760.946	15.043
764.809	5.861
768.671	22.796
772.53	22.231
776.388	0.764
780.244	2.213
784.098	6.165
787.951	0.905
791.801	9.996
795.65	36.862
799.497	16.701
803.342	5.514
807.186	0.302
811.027	6.928
814.867	2.497
818.705	1.232
822.541	10.905
826.375	7.212
830.208	12.157
834.039	9.489
837.868	0.118
841.695	8.686
845.521	37.255
849.344	20.471
853.166	1.19
856.986	29.278
860.804	36.429
864.621	25.099
868.436	8.32
872.248	2.61
876.06	16.695
879.869	26.069
883.677	18.285
887.482	36.819
891.287	46.245
895.089	55.452
898.889	45.898
902.688	60.863
906.485	33.811
910.28	56.33
914.074	32.733
917.865	26.001
921.655	8.478
925.443	60.909
929.23	30.903
933.014	33.161
936.797	60.502
940.578	51.676
944.358	62.283
948.135	77.678
951.911	92.269
955.685	123.929
959.458	144.397
963.228	310.951
966.997	363.237
970.764	559.921
974.529	843.519
978.293	1772.29
982.055	7026.09
985.815	55039.9
989.573	20047.8
993.33	3563.64
997.085	1252.55
1000.84	723.49
1004.59	469.464
1008.34	366.467
1012.09	280.502
1015.83	191.538
1019.58	172.629
1023.32	166.75
1027.06	129.899
1030.8	83.079
1034.54	88.29
1038.27	66.535
1042.01	52.814
1045.74	37.127
1049.47	74.47
1053.2	70.847
1056.93	34.258
1060.65	31.709
1064.38	16.187
1068.1	41.892
1071.82	29.447
1075.54	43.04
1079.25	81.68
1082.97	78.347
1086.68	85.049
1090.39	106.786
1094.11	221.568
1097.81	666.388
1101.52	1799.24
1105.22	1455.14
1108.93	492.063
1112.63	242.019
1116.33	129.006
1120.03	100.026
1123.72	56.075
1127.42	78.154
1131.11	223.262
1134.8	736.518
1138.49	851.681
1142.18	361.871
1145.87	168.087
1149.55	93.338
1153.23	89.608
1156.91	116.925
1160.59	319.248
1164.27	689.595
1167.95	531
1171.62	249.394
1175.3	137.811
1178.97	35.248
1182.64	11.705
1186.3	33.398
1189.97	2.894
1193.63	6.407
1197.3	14.755
1200.96	21.814
1204.62	0.617
1208.27	9.354
1211.93	8.254
1215.58	29.464
1219.24	31.202
1222.89	45.71
1226.54	22.91
1230.18	33.564
1233.83	19.705
1237.47	62.48
1241.12	23.165
1244.76	31.886
1248.4	24.024
1252.04	19.717
1255.67	25.613
1259.31	54.346
1262.94	9.696
1266.57	13.023
1270.2	21.775
1273.83	8.548
1277.45	45.346
1281.08	6.173
1284.7	35.154
1288.32	14.95
1291.94	37.743
1295.56	14.66
1299.17	8.387
1302.79	1.089
1306.4	0.773
1310.01	6.446
1313.62	12.108
1317.23	30.754
1320.84	31.386
1324.44	26.997
1328.04	4.454
1331.64	5.995
1335.24	1.564
1338.84	12.902
1342.44	25.402
1346.03	4.085
1349.63	1.445
1353.22	3.996
1356.81	9.42
1360.4	3.183
1363.98	0.72
1367.57	4.648
1371.15	1.024
1374.73	4.486
1378.32	7.708
1381.89	4.531
1385.47	20.092
1389.05	5.169
1392.62	39.553
1396.19	17.246
1399.76	4.946
1403.33	6.589
1406.9	2.262
1410.46	17.929
1414.03	13.286
1417.59	6.454
1421.15	8.45
1424.71	29.578
1428.27	38.98
1431.82	41.868
1435.38	78.151
1438.93	85.359
1442.48	102.717
1446.03	95.477
1449.58	84.949
1453.13	95.763
1456.67	91.244
1460.21	94.24
1463.76	52.423
1467.3	31.443
1470.83	53.99
1474.37	30.496
1477.91	47.972
1481.44	52.367
1484.97	26.864
1488.5	20.469
1492.03	29.114
1495.56	8.82
1499.08	1.449
1502.61	0.289
