Measurement: Raman, 514 nm, ccw, Raman Data Processed
Mineral: Baryte
Rruff sample: R050375
Ideal chemistry: BaSO_4_
Locality: unknown
Source: Eugene Schlepp
Description: Pale green tabular crystals
Measured chemistry: Ba_1.00_SO_4_
Pin_id: L01098
Orientation: Laser parallel to -a* (-1 0 0). Fiducial mark perpendicular to laser is parallel to -b [0 -1 0]
Raman shift (cm-1)	intensity
51.431	0
56.387	16.6012
61.341	2.14044
66.292	197.124
71.241	791.146
76.187	1162.32
81.131	456.313
86.072	532.783
91.012	708.828
95.948	835.573
100.883	793.466
105.815	653.249
110.744	656.786
115.671	682.878
120.596	885.362
125.519	1069.1
130.439	1225.24
135.356	752.684
140.271	767.675
145.184	1020.37
150.094	1089.85
155.002	752.163
159.908	506.596
164.811	467.744
169.711	453.436
174.61	391.644
179.505	423.356
184.399	437.555
189.29	438.563
194.178	430.67
199.064	324.511
203.948	302.547
208.829	211.665
213.708	206.843
218.585	220.149
223.459	202.003
228.33	182.952
233.199	226.814
238.066	201.516
242.93	127.377
247.792	162.167
252.651	145.676
257.508	142.93
262.363	112.936
267.215	82.8046
272.064	55.8223
276.912	115.154
281.756	55.3975
286.598	110.979
291.438	90.8717
296.276	51.0397
301.111	72.47
305.943	40.1449
310.773	62.0503
315.601	72.1766
320.426	57.5151
325.248	25.0549
330.068	37.7878
334.886	29.7062
339.701	62.2144
344.514	28.0787
349.324	15.3584
354.132	62.9908
358.938	9.58032
363.741	52.9403
368.541	1.83032
373.339	5.01929
378.135	27.5736
382.928	28.7161
387.718	28.9774
392.506	6.20642
397.292	40.4741
402.075	41.557
406.856	9.92737
411.634	10.5161
416.41	3.88013
421.183	47.1718
425.954	116.053
430.722	195.585
435.488	379.691
440.251	1087.93
445.012	3006.28
449.77	5506.77
454.526	6554.35
459.28	3503.03
464.03	2178.81
468.779	633.354
473.525	250.306
478.268	136.97
483.009	124.436
487.747	76.5117
492.483	44.3752
497.217	58.6154
501.948	32.5393
506.676	56.416
511.402	16.6422
516.125	33.3719
520.846	28.053
525.565	46.5109
530.281	43.6169
534.994	29.1349
539.705	75.1269
544.413	22.8021
549.119	17.3464
553.822	38.3608
558.523	6.18774
563.222	26.0127
567.917	14.1475
572.611	37.3154
577.302	48.9761
581.99	84.5984
586.676	103.27
591.359	143.896
596.04	172.957
600.718	329.053
605.394	924.754
610.067	2814.11
614.737	5474.62
619.406	5492.19
624.071	2556.33
628.734	1333.74
633.395	799.22
638.053	374.397
642.708	268.371
647.361	255.646
652.012	99.3525
656.66	0.596436
661.305	28.8987
665.948	8.09985
670.588	25.1426
675.226	5.12744
679.861	61.0825
684.494	51.9141
689.124	59.75
693.752	63.5278
698.377	17.5561
702.999	38.4773
707.619	78.8403
712.237	58.8428
716.852	40.5583
721.464	19.0461
726.074	97.4475
730.681	34.0481
735.286	8.18604
739.888	79.0657
744.488	31.0291
749.085	78.8232
753.68	66.221
758.272	77.9319
762.861	89.5508
767.448	94.0898
772.033	49.9827
776.614	56.4304
781.194	53.4226
785.77	93.135
790.345	54.3948
794.916	56.9187
799.485	25.842
804.052	60.5437
808.616	0.526855
813.177	83.5774
817.736	38.3533
822.292	17.8801
826.846	21.283
831.397	52.207
835.945	34.3674
840.491	30.7114
845.035	47.0298
849.576	7.94019
854.114	17.0015
858.65	8.71704
863.183	2.85156
867.713	67.6096
872.241	9.55273
876.767	36.3313
881.29	93.8369
885.81	22.8638
890.328	57.5654
894.843	103.155
899.356	94.1423
903.866	10.1846
908.373	70.5247
912.878	38.9648
917.38	87.6406
921.88	97.0381
926.377	84.3674
930.872	53.1397
935.364	129.87
939.853	118.726
944.34	92.042
948.824	55.9333
953.306	130.006
957.785	126.468
962.261	260.223
966.735	453.35
971.207	580.219
975.675	1316.28
980.141	6124.68
984.605	32512.7
989.066	57921.8
993.524	8123.25
997.98	1657.82
1002.43	777.26
1006.88	397.065
1011.33	376.14
1015.78	259.121
1020.22	184.269
1024.66	97.812
1029.1	160.054
1033.53	76.4312
1037.97	53.4985
1042.4	44.9871
1046.82	39.5723
1051.25	9.98096
1055.67	59.2798
1060.09	57.3188
1064.51	112.767
1068.92	121.566
1073.33	184.705
1077.74	679.64
1082.15	1422.19
1086.55	1218.67
1090.95	386.239
1095.35	365.948
1099.75	705.804
1104.14	1064.77
1108.53	519.849
1112.92	171.037
1117.31	83.3577
1121.69	116.821
1126.07	77.3916
1130.45	74.0332
1134.82	200.506
1139.19	360.649
1143.57	317.611
1147.93	229.65
1152.3	143.782
1156.66	64.001
1161.02	116.224
1165.38	194.271
1169.73	99.7444
1174.08	28.0684
1178.43	37.4548
1182.78	30.7974
1187.12	42.2654
1191.46	15.3418
1195.8	18.9871
1200.14	23.7891
1204.47	89.9209
1208.8	10.2124
1213.13	69.4741
1217.46	48.3677
1221.78	33.1633
1226.1	25.6328
1230.42	51.5295
1234.73	80.4646
1239.04	49.4351
1243.35	30.5632
1247.66	60.9607
1251.97	5.04932
1256.27	62.1626
1260.57	74.3591
1264.86	74.4221
1269.16	64.9385
1273.45	89.1331
1277.74	65.3413
1282.03	97.563
1286.31	35.7937
1290.59	51.1902
1294.87	46.346
1299.14	49.5185
1303.42	9.27222
1307.69	33.074
1311.95	22.4861
1316.22	44.0364
1320.48	61.1768
1324.74	59.8154
1329	42.2051
1333.26	61.3147
1337.51	0.268066
1341.76	19.6172
1346	56.7786
1350.25	4.03247
1354.49	49.2205
1358.73	20.1748
1362.96	69.6101
1367.2	74.9075
1371.43	2.17871
1375.66	71.7283
1379.88	71.7444
1384.11	25.7153
1388.33	32.6543
1392.54	50.5701
1396.76	43.4158
1400.97	64.2449
1405.18	95.0618
1409.39	94.8852
1413.59	3.53711
1417.8	66.2351
1421.99	41.1621
1426.19	112.862
1430.38	11.5137
1434.58	107.108
1438.77	24.741
1442.95	132.811
1447.13	117.746
1451.32	58.804
1455.49	33.7188
1459.67	60.5042
1463.84	29.7097
1468.01	32.792
1472.18	78.2769
1476.35	8.24072
1480.51	108.105
1484.67	4.81982
1488.83	109.568
1492.98	175
1497.13	94.8018
1501.28	42.5249
1505.43	27.1284
1509.57	29.9302
1513.71	62.8684
1517.85	36.8965
1521.99	30.8245
1526.12	65.2705
1530.25	24.9416
1534.38	85.5571
1538.5	125.569
1542.62	69.5876
1546.74	11.8096
1550.86	46.7895
1554.98	54.5823
1559.09	60.8491
1563.2	77.1731
1567.31	57.5185
