Measurement: Raman, 514 nm, ccw, Raman Data Processed
Mineral: Baryte
Rruff sample: R040036
Ideal chemistry: BaSO_4_
Locality: Cumbria County, England
Source: University of Arizona Mineral Museum
Description: Golden brown tabular crystal
Measured chemistry: Ba_1.00_S_1.00_O_4_; trace amounts of Pb
Pin_id: M00019
Orientation: Laser parallel to b* (0 1 0). Fiducial mark perpendicular to laser is parallel to c [0 0 1]
Raman shift (cm-1)	intensity
26.288	0
30.504	17.092
34.717	28.751
38.929	27.379
43.138	46.42
47.345	51.997
51.551	72.078
55.754	94.83
59.955	90.212
64.154	69.74
68.351	68.912
72.546	53.489
76.739	6.139
80.93	2.191
85.119	7.56
89.306	15.973
93.49	9.411
97.673	48.149
101.854	84.712
106.032	60.495
110.209	109.493
114.384	221.662
118.556	218.714
122.727	164.775
126.895	124.758
131.062	146.552
135.226	156.064
139.388	149.433
143.549	186.786
147.707	324.142
151.863	552.505
156.018	404.872
160.17	242.615
164.32	172.144
168.469	156.688
172.615	151.242
176.759	172.847
180.901	218.451
185.041	456.616
189.18	627.492
193.316	313.041
197.45	165.998
201.582	129.554
205.712	97.753
209.84	87.442
213.967	88.797
218.091	348.982
222.213	90.395
226.333	86.576
230.451	59.021
234.567	69.437
238.682	54.159
242.794	63.369
246.904	48.893
251.012	51.008
255.118	57.206
259.223	52.512
263.325	46.87
267.425	42.109
271.523	50.359
275.62	49.542
279.714	38.712
283.806	41.874
287.897	20.029
291.985	25.177
296.072	32.316
300.156	30.449
304.239	23.576
308.319	12.692
312.398	27.797
316.474	26.893
320.549	26.978
324.622	30.05
328.692	30.073
332.761	7.049
336.828	5.98
340.893	24.872
344.956	27.732
349.017	20.567
353.076	17.382
357.133	29.184
361.188	6.032
365.241	12.821
369.292	20.6
373.341	14.381
377.388	12.178
381.434	19.006
385.477	34.876
389.519	37.788
393.558	21.718
397.596	9.649
401.631	5.664
405.665	7.595
409.697	21.522
413.727	13.442
417.755	23.004
421.781	30.325
425.805	54.222
429.827	71.142
433.847	114.926
437.865	256.615
441.882	551.439
445.896	1335.25
449.909	3270.04
453.919	3716.85
457.928	1619.62
461.935	927.404
465.94	414.207
469.943	185.059
473.944	91.897
477.943	78.635
481.94	48.385
485.935	38.154
489.929	20.999
493.92	31.883
497.91	14.674
501.898	1.522
505.883	19.286
509.867	31.114
513.849	31.683
517.829	35.434
521.808	31.269
525.784	21.093
529.758	25.032
533.731	20.969
537.701	12.968
541.67	1.023
545.637	28.157
549.602	24.324
553.565	19.269
557.526	22.532
561.486	20.585
565.443	15.163
569.399	23.91
573.352	30.162
577.304	28.457
581.254	38.487
585.202	41.647
589.148	80.764
593.093	61.667
597.035	48.548
600.976	99.383
604.914	141.301
608.851	242.63
612.786	793.388
616.719	1593.34
620.651	1025.24
624.58	1127.17
628.507	2108.91
632.433	1568.01
636.357	816.588
640.279	448.667
644.199	565.438
648.117	569.756
652.034	277.246
655.948	137.086
659.861	75.823
663.772	53.334
667.681	26.999
671.588	33.785
675.493	27.507
679.397	27.889
683.298	4.783
687.198	6.564
691.096	8.744
694.992	11.025
698.886	1.154
702.779	4.775
706.669	11.283
710.558	2.686
714.445	6.697
718.33	11.25
722.214	9.162
726.095	1.961
729.975	19.873
733.852	10.676
737.728	19.446
741.603	7.185
745.475	4.109
749.345	8.628
753.214	2.742
757.081	1.144
760.946	0.298
764.809	2.054
768.671	6.558
772.53	6.901
776.388	0.668
780.244	22.269
784.098	22.93
787.951	6.358
791.801	15.381
795.65	7.153
799.497	3.954
803.342	1.781
807.186	2.634
811.027	4.516
814.867	4.429
818.705	2.432
822.541	14.183
826.375	20.824
830.208	4.247
834.039	3.719
837.868	20.007
841.695	22.737
845.521	29.657
849.344	37.074
853.166	34.505
856.986	48.218
860.804	59.914
864.621	44.339
868.436	31.065
872.248	17.915
876.06	22.622
879.869	16.422
883.677	8.029
887.482	58.433
891.287	43.139
895.089	74.821
898.889	63.523
902.688	71.106
906.485	54.82
910.28	37.467
914.074	60.362
917.865	63.305
921.655	44.981
925.443	52.724
929.23	70.359
933.014	75.128
936.797	79.042
940.578	73.066
944.358	75.871
948.135	88.522
951.911	106.278
955.685	138.393
959.458	185.509
963.228	331.717
966.997	411.807
970.764	579.041
974.529	904.352
978.293	1804.7
982.055	6162.07
985.815	55082.5
989.573	33949.9
993.33	5805.44
997.085	1729.98
1000.84	1020.56
1004.59	645.181
1008.34	410.841
1012.09	342.54
1015.83	261.28
1019.58	239.993
1023.32	192.821
1027.06	151.694
1030.8	127.61
1034.54	108.572
1038.27	76.581
1042.01	79.635
1045.74	70.737
1049.47	69.883
1053.2	61.08
1056.93	56.339
1060.65	39.651
1064.38	34.01
1068.1	11.417
1071.82	20.872
1075.54	11.375
1079.25	17.937
1082.97	74.559
1086.68	49.254
1090.39	61.017
1094.11	106.838
1097.81	146.71
1101.52	360.638
1105.22	285.623
1108.93	108.657
1112.63	111.736
1116.33	132.862
1120.03	196.03
1123.72	300.238
1127.42	488.487
1131.11	941.776
1134.8	2162.11
1138.49	4297.48
1142.18	5959.89
1145.87	4480.34
1149.55	2268.22
1153.23	1061.37
1156.91	673.943
1160.59	667.555
1164.27	970.201
1167.95	885.882
1171.62	473.626
1175.3	274.37
1178.97	150.144
1182.64	106.641
1186.3	70.777
1189.97	34.634
1193.63	38.516
1197.3	16.423
1200.96	47.395
1204.62	41.377
1208.27	21.113
1211.93	55.47
1215.58	36.08
1219.24	67.719
1222.89	56.509
1226.54	49.693
1230.18	56.912
1233.83	66.418
1237.47	77.969
1241.12	76.258
1244.76	55.802
1248.4	49.903
1252.04	53.067
1255.67	71.214
1259.31	19.358
1262.94	9.517
1266.57	41.933
1270.2	37.469
1273.83	51.665
1277.45	50.865
1281.08	34.406
1284.7	31.006
1288.32	16.301
1291.94	12.53
1295.56	38.756
1299.17	21.912
1302.79	16.014
1306.4	15.074
1310.01	11.098
1313.62	31.098
1317.23	27.087
1320.84	38.061
1324.44	26.009
1328.04	1.074
1331.64	0.202
1335.24	11.632
1338.84	1.574
1342.44	18.819
1346.03	16.109
1349.63	20.451
1353.22	30.843
1356.81	23.722
1360.4	24.743
1363.98	1.248
1367.57	8.217
1371.15	26.762
1374.73	31.151
1378.32	20.044
1381.89	6.221
1385.47	50.39
1389.05	10.538
1392.62	4.335
1396.19	4.761
1399.76	12.832
1403.33	44.844
1406.9	5.117
1410.46	17.913
1414.03	7.937
1417.59	31.894
1421.15	33.687
1424.71	15.483
1428.27	40.319
1431.82	49.684
1435.38	76.663
1438.93	93.717
1442.48	151.83
1446.03	144.87
1449.58	129.201
1453.13	161.984
1456.67	165.479
1460.21	129.175
1463.76	123.749
1467.3	90.59
1470.83	72.674
1474.37	77.732
1477.91	51.599
1481.44	36.538
1484.97	67.73
1488.5	37.049
1492.03	20.553
1495.56	2.577
1499.08	4.903
1502.61	0
