Measurement: Raman, 514 nm, ccw, Raman Data Processed
Mineral: Baryte
Rruff sample: R040036
Ideal chemistry: BaSO_4_
Locality: Cumbria County, England
Source: University of Arizona Mineral Museum
Description: Golden brown tabular crystal
Measured chemistry: Ba_1.00_S_1.00_O_4_; trace amounts of Pb
Pin_id: M00021
Orientation: Laser parallel to c* (0 0 1). Fiducial mark perpendicular to laser is parallel to -a [-1 0 0]
Raman shift (cm-1)	intensity
26.288	0
30.504	40.868
34.717	6.635
38.929	25.405
43.138	86.201
47.345	61.478
51.551	46.462
55.754	81.703
59.955	34.134
64.154	64.378
68.351	33.218
72.546	29.674
76.739	49.792
80.93	97.106
85.119	84.151
89.306	54.644
93.49	22.073
97.673	32.447
101.854	17.624
106.032	24.127
110.209	26.413
114.384	145.066
118.556	496.115
122.727	116.045
126.895	154.688
131.062	178.833
135.226	117.828
139.388	105.434
143.549	136.068
147.707	248.057
151.863	348.235
156.018	303.844
160.17	169.469
164.32	120.798
168.469	113.002
172.615	106.106
176.759	98.402
180.901	119.088
185.041	172.437
189.18	262.545
193.316	208.798
197.45	140.181
201.582	117.269
205.712	127.832
209.84	83.202
213.967	80.375
218.091	74.427
222.213	67.996
226.333	59.927
230.451	66.286
234.567	61.696
238.682	50.585
242.794	43.997
246.904	42.17
251.012	35.872
255.118	48.213
259.223	42.208
263.325	37.923
267.425	45.317
271.523	29.491
275.62	15.651
279.714	50.697
283.806	34.467
287.897	18.959
291.985	32.54
296.072	24.196
300.156	36.769
304.239	18.261
308.319	41.676
312.398	17.009
316.474	23.014
320.549	45.922
324.622	13.826
328.692	35.613
332.761	36.38
336.828	48.003
340.893	5.501
344.956	17.874
349.017	33.979
353.076	33.181
357.133	27.099
361.188	44.668
365.241	39.057
369.292	39.479
373.341	35.728
377.388	30.03
381.434	39.287
385.477	46.448
389.519	42.527
393.558	30.52
397.596	37.645
401.631	30.822
405.665	45.135
409.697	49.522
413.727	53.826
417.755	72.026
421.781	82.061
425.805	91.266
429.827	132.543
433.847	187.616
437.865	297.688
441.882	501.759
445.896	940.821
449.909	2163.74
453.919	3804.83
457.928	5742.8
461.935	13089.7
465.94	6825.82
469.943	2160.84
473.944	807.907
477.943	444.01
481.94	318.33
485.935	228.237
489.929	166.056
493.92	120.173
497.91	122.283
501.898	104.36
505.883	67.595
509.867	69.918
513.849	59.293
517.829	57.532
521.808	55.877
525.784	54.271
529.758	45.93
533.731	55.247
537.701	39.804
541.67	45.203
545.637	40.045
549.602	43.591
553.565	59.386
557.526	21.069
561.486	29.598
565.443	40.12
569.399	31.54
573.352	40.997
577.304	17.748
581.254	38.681
585.202	30.496
589.148	46.379
593.093	73.814
597.035	78.84
600.976	96.656
604.914	162.113
608.851	292.236
612.786	895.213
616.719	2453.57
620.651	1664.57
624.58	931.911
628.507	1058.31
632.433	895.082
636.357	402.426
640.279	273.901
644.199	357.594
648.117	523.569
652.034	254.94
655.948	97.286
659.861	79.505
663.772	48.706
667.681	4.904
671.588	30.06
675.493	20.226
679.397	13.347
683.298	16.492
687.198	28.575
691.096	11.4
694.992	7.13
698.886	18.865
702.779	6.376
706.669	13.929
710.558	5.001
714.445	10.115
718.33	0.318
722.214	0.172
726.095	4.369
729.975	17.663
733.852	6.182
737.728	7.15
741.603	5.446
745.475	8.009
749.345	5.464
753.214	26.19
757.081	18.364
760.946	17.04
764.809	13.414
768.671	5.762
772.53	8.075
776.388	9.356
780.244	2.61
784.098	7.171
787.951	0.428
791.801	6.142
795.65	21.255
799.497	9.341
803.342	4.404
807.186	21.394
811.027	6.192
814.867	8.184
818.705	12.942
822.541	3.839
826.375	9.236
830.208	11.371
834.039	8.21
837.868	2.003
841.695	10.336
845.521	5.518
849.344	13.089
853.166	4.529
856.986	16.867
860.804	3.689
864.621	13.494
868.436	10.622
872.248	2.099
876.06	30.258
879.869	33.67
883.677	23.239
887.482	12.062
891.287	38.142
895.089	40.244
898.889	66.701
902.688	33.297
906.485	62.79
910.28	45.944
914.074	37.51
917.865	64.894
921.655	68.889
925.443	70.936
929.23	70.472
933.014	61.982
936.797	69.592
940.578	59.189
944.358	105.812
948.135	92.441
951.911	98.055
955.685	91.698
959.458	156.295
963.228	226.96
966.997	373.387
970.764	452.095
974.529	662.789
978.293	1171.73
982.055	3310.96
985.815	26390.6
989.573	43197.4
993.33	8087.83
997.085	1883.62
1000.84	907.491
1004.59	567.206
1008.34	387.111
1012.09	347.046
1015.83	263.023
1019.58	264.026
1023.32	206.882
1027.06	225.949
1030.8	225.042
1034.54	136.164
1038.27	81.316
1042.01	89.498
1045.74	59.716
1049.47	64.96
1053.2	89.235
1056.93	46.565
1060.65	57.917
1064.38	49.412
1068.1	51.849
1071.82	61.584
1075.54	85.769
1079.25	141.268
1082.97	267.792
1086.68	225.347
1090.39	97.934
1094.11	67.552
1097.81	80.198
1101.52	184.881
1105.22	212.596
1108.93	71.339
1112.63	48.115
1116.33	39.923
1120.03	57.769
1123.72	78.641
1127.42	144.537
1131.11	219.459
1134.8	560.404
1138.49	1228.38
1142.18	1747.38
1145.87	1594.41
1149.55	900.698
1153.23	424.764
1156.91	251.849
1160.59	214.953
1164.27	343.074
1167.95	333.419
1171.62	204.016
1175.3	109.593
1178.97	68.826
1182.64	47.116
1186.3	20.066
1189.97	5.575
1193.63	13.816
1197.3	8.037
1200.96	0.509
1204.62	2.296
1208.27	10.945
1211.93	23.202
1215.58	47.844
1219.24	32.16
1222.89	15.162
1226.54	12.775
1230.18	47.483
1233.83	28.515
1237.47	48.961
1241.12	78.277
1244.76	21.614
1248.4	40.403
1252.04	26.11
1255.67	42.316
1259.31	44.582
1262.94	36.825
1266.57	45.646
1270.2	25.295
1273.83	49.945
1277.45	45.21
1281.08	29.401
1284.7	25.564
1288.32	28.698
1291.94	33.842
1295.56	6.147
1299.17	8.766
1302.79	2.74
1306.4	3.242
1310.01	8.188
1313.62	16.109
1317.23	3.98
1320.84	6.805
1324.44	21.363
1328.04	25.211
1331.64	8.874
1335.24	5.16
1338.84	11.132
1342.44	28.699
1346.03	8.226
1349.63	24.289
1353.22	26.148
1356.81	13.545
1360.4	12.085
1363.98	39.233
1367.57	46.542
1371.15	0.801
1374.73	22.169
1378.32	27.754
1381.89	19.753
1385.47	38.729
1389.05	42.658
1392.62	0.732
1396.19	12.118
1399.76	4.059
1403.33	12.903
1406.9	55.026
1410.46	47.552
1414.03	24.715
1417.59	43.969
1421.15	8.999
1424.71	16.794
1428.27	55.806
1431.82	62.654
1435.38	46.018
1438.93	51.743
1442.48	87.58
1446.03	100.307
1449.58	132.476
1453.13	107.646
1456.67	117.513
1460.21	98.584
1463.76	81.533
1467.3	61.138
1470.83	28.809
1474.37	63.388
1477.91	45.824
1481.44	54.67
1484.97	54.436
1488.5	43.321
1492.03	20.372
1495.56	10.537
1499.08	17.142
1502.61	0
