Measurement: Raman, 514 nm, ccw, Raman Data Processed
Mineral: Baryte
Rruff sample: R050342
Ideal chemistry: BaSO_4_
Locality: Palos Verdes, Los Angeles County, California, USA
Source: California Institute of Technology
Description: Light brown fragment
Measured chemistry: Ba_1.00_S_1.00_O_4_
Pin_id: L00875
Orientation: Laser parallel to c* (0 0 1). Fiducial mark perpendicular to laser is parallel to a [1 0 0]
Raman shift (cm-1)	intensity
93.48	0
98.416	310.969
103.349	154.865
108.28	104.235
113.208	176.119
118.134	297.59
123.058	140.047
127.979	131.355
132.898	242.615
137.814	211.548
142.728	238.791
147.639	278.865
152.549	407.532
157.455	321.09
162.359	133.149
167.261	241.973
172.161	186.193
177.058	135.599
181.952	225.629
186.845	151.226
191.734	342.725
196.622	93.4849
201.507	180.944
206.389	133.412
211.269	36.5176
216.147	8.88281
221.022	150.773
225.895	156.08
230.765	14.8262
235.633	89.3359
240.498	76.3921
245.361	137.308
250.222	62.1392
255.08	80.6592
259.936	84.2139
264.789	134.926
269.64	83.4653
274.488	52.7329
279.334	91.1245
284.178	44.4912
289.019	26.313
293.857	80.5396
298.693	59.0972
303.527	56.083
308.358	23.0649
313.187	50.1499
318.013	112.275
322.837	68.4937
327.659	105.418
332.478	69.4814
337.294	50.6865
342.108	97.9932
346.92	12.2197
351.729	195.481
356.535	83.8418
361.34	62.9287
366.141	47.4639
370.94	141.934
375.737	1.94434
380.531	164.309
385.323	49.5234
390.113	81.9219
394.9	80.1357
399.684	205.682
404.466	125.851
409.245	115.989
414.022	174.19
418.797	34.168
423.569	67.918
428.338	131.591
433.105	159.522
437.87	365.198
442.632	642.029
447.391	969.753
452.149	2890.16
456.903	4162.89
461.655	10854.4
466.405	5195.01
471.152	1226.16
475.897	553.253
480.639	495.235
485.378	236.859
490.116	208.123
494.85	170.769
499.582	187.318
504.312	94.0811
509.039	162.485
513.764	6.41894
518.486	150.69
523.206	210.603
527.923	59.8877
532.638	90.8731
537.35	8.21875
542.059	183.921
546.766	187.885
551.471	10.5889
556.173	101.397
560.873	8.79492
565.57	174.231
570.264	83.4707
574.957	156.566
579.646	10.3145
584.333	123.18
589.018	31.7783
593.7	180.922
598.379	51.7949
603.056	52.46
607.73	283.197
612.402	586.561
617.072	1660.19
621.739	780.034
626.403	535.768
631.065	1022.94
635.724	442.188
640.381	15.0684
645.035	297.206
649.687	82.8232
654.336	216.41
658.983	70.415
663.627	99.9082
668.268	135.636
672.907	30.7451
677.544	103.981
682.178	1.57129
686.809	124.047
691.438	107.22
696.065	93.3857
700.688	118.735
705.31	150.586
709.929	15.9043
714.545	68.0996
719.158	160.764
723.77	114.353
728.378	78.0879
732.984	111.127
737.588	135.685
742.189	83.3164
746.787	84.9102
751.383	95.1269
755.976	37.1152
760.567	55.3281
765.155	202.052
769.741	106.753
774.324	176.238
778.904	7.59473
783.482	9.88867
788.058	17.5254
792.631	13.4756
797.201	64.3975
801.769	202.529
806.334	105.291
810.897	186.227
815.457	78.4746
820.014	90.8516
824.569	177.836
829.122	137.724
833.671	49.0469
838.219	196.509
842.763	131.891
847.306	17.6982
851.845	0.700195
856.382	66.1719
860.917	223.788
865.448	44.7324
869.978	101.832
874.505	88.9277
879.029	78.6514
883.55	84.3945
888.069	78.8408
892.586	193.163
897.1	27.0781
901.611	119.882
906.12	81.3828
910.626	128.749
915.129	148.871
919.63	86.6172
924.129	148.371
928.625	38.1748
933.118	114.582
937.609	6.45606
942.097	37.4668
946.582	111.323
951.065	81.9639
955.546	83.835
960.023	198.447
964.499	176.075
968.971	105.248
973.441	465.235
977.909	714.614
982.374	2567.02
986.836	19532.2
991.295	18148.5
995.753	1671.8
1000.21	561.539
1004.66	385.087
1009.11	303.028
1013.55	244.706
1018	100.433
1022.44	237.095
1026.88	156.787
1031.32	195.283
1035.75	76.8877
1040.18	74.5332
1044.61	206.648
1049.04	144.792
1053.46	109.51
1057.88	28.5684
1062.3	95.5019
1066.71	46.0078
1071.13	156.877
1075.54	140.903
1079.94	30.6221
1084.35	198.544
1088.75	75.6123
1093.15	203.457
1097.55	21.8828
1101.94	88.2441
1106.34	264.406
1110.73	72.4766
1115.11	235.244
1119.5	144.853
1123.88	91.5312
1128.26	49.9863
1132.63	176.394
1137.01	729.949
1141.38	1271.71
1145.75	1742
1150.12	765.098
1154.48	520.182
1158.84	225.256
1163.2	150.352
1167.55	145.188
1171.91	177.935
1176.26	187.865
1180.61	136.76
1184.95	179.529
1189.29	95.8438
1193.63	7.49805
1197.97	225.978
1202.31	14.7852
1206.64	156.416
1210.97	206.754
1215.29	137.176
1219.62	49.3418
1223.94	195.951
1228.26	3.80664
1232.57	119.158
1236.89	288.238
1241.2	150.043
1245.51	251.607
1249.81	343.701
1254.12	188.272
1258.42	190.397
1262.72	120.162
1267.01	6.8125
1271.3	96.8496
1275.59	155.356
1279.88	287.812
1284.17	160.443
1288.45	150.9
1292.73	130.074
1297.01	114.299
1301.28	253.644
1305.55	182.738
1309.82	283.398
1314.09	130.982
1318.35	184.039
1322.61	261.236
1326.87	146.131
1331.13	206.221
1335.38	317.732
1339.63	164.914
1343.88	220.84
1348.12	138.611
1352.37	381.779
1356.61	42.4902
1360.85	166.971
1365.08	118.461
1369.31	48.7773
1373.54	249.144
1377.77	304.445
1381.99	94.6406
1386.22	34.9961
1390.43	320.103
1394.65	90.5098
1398.87	115.582
1403.08	47.877
1407.29	327.516
1411.49	44.8145
1415.69	92.6465
1419.89	215.443
1424.09	231.254
1428.29	86.2598
1432.48	243.674
1436.67	208.996
1440.86	76.4941
1445.04	145.775
1449.23	109.123
1453.4	185.731
1457.58	27.7051
1461.76	62.9824
1465.93	119.588
1470.1	270.365
1474.26	276.779
1478.43	190.83
1482.59	114.947
1486.75	206.143
1490.9	332.025
1495.06	277.506
1499.21	310.783
1503.35	244.793
1507.5	79.3633
1511.64	58.3164
1515.78	52.3281
1519.92	166.824
1524.05	180.062
1528.18	116.615
1532.31	378.565
1536.44	189.441
1540.56	336.023
1544.69	191.19
1548.8	306.414
1552.92	336.982
1557.03	193.006
1561.14	217.037
1565.25	335.588
1569.36	313.559
