Measurement: Raman, 514 nm, ccw, Raman Data Processed
Mineral: Baryte
Rruff sample: R040036
Ideal chemistry: BaSO_4_
Locality: Cumbria County, England
Source: University of Arizona Mineral Museum
Description: Golden brown tabular crystal
Measured chemistry: Ba_1.00_S_1.00_O_4_; trace amounts of Pb
Pin_id: M00021
Orientation: Laser parallel to c* (0 0 1). Fiducial mark perpendicular to laser is parallel to -a [-1 0 0]
Raman shift (cm-1)	intensity
26.288	0
30.504	3.473
34.717	54.719
38.929	46.614
43.138	55.942
47.345	53.145
51.551	46.563
55.754	45.718
59.955	64.034
64.154	66.125
68.351	45.634
72.546	83.216
76.739	52.442
80.93	61.132
85.119	9.603
89.306	4.869
93.49	26.703
97.673	31.721
101.854	4.915
106.032	4.004
110.209	53.221
114.384	62.951
118.556	72.276
122.727	105.038
126.895	165.239
131.062	165.328
135.226	117.377
139.388	100.509
143.549	131.936
147.707	285.013
151.863	362.888
156.018	288.482
160.17	169.75
164.32	97.775
168.469	31.497
172.615	46.873
176.759	65.705
180.901	46.622
185.041	58.45
189.18	101.785
193.316	88.14
197.45	56.212
201.582	74.273
205.712	67.585
209.84	66.347
213.967	48.67
218.091	39.714
222.213	42.418
226.333	46.04
230.451	55.444
234.567	54.036
238.682	53.785
242.794	16.597
246.904	31.921
251.012	52.038
255.118	37.755
259.223	48.041
263.325	34.507
267.425	44.793
271.523	36.3
275.62	32.007
279.714	41.62
283.806	13.971
287.897	48.897
291.985	40.043
296.072	47.222
300.156	50.309
304.239	31.308
308.319	42.22
312.398	38.914
316.474	41.762
320.549	33.393
324.622	29.285
328.692	41.621
332.761	51.099
336.828	39.012
340.893	23.779
344.956	34.974
349.017	32.057
353.076	25.093
357.133	29.995
361.188	37.62
365.241	32.082
369.292	19.511
373.341	19.953
377.388	36.47
381.434	18.046
385.477	22.444
389.519	22.673
393.558	38.012
397.596	34.51
401.631	15.027
405.665	21.469
409.697	32.86
413.727	25.316
417.755	24.668
421.781	31.967
425.805	41.334
429.827	67.504
433.847	101.727
437.865	152.004
441.882	302.147
445.896	636.413
449.909	1743.59
453.919	2930.8
457.928	2119.97
461.935	2990.25
465.94	1606.42
469.943	541.57
473.944	213.724
477.943	139.93
481.94	77.099
485.935	67.155
489.929	39.252
493.92	45.372
497.91	36.494
501.898	31.584
505.883	37.747
509.867	17.816
513.849	45.86
517.829	37.013
521.808	28.218
525.784	29.408
529.758	33.573
533.731	24.808
537.701	47.352
541.67	22.646
545.637	17.917
549.602	22.057
553.565	38.465
557.526	21.989
561.486	22.338
565.443	25.699
569.399	20.349
573.352	45.73
577.304	25.686
581.254	32.287
585.202	69.621
589.148	87.119
593.093	99.528
597.035	126.124
600.976	144.788
604.914	238.431
608.851	474.74
612.786	1403.55
616.719	3659.06
620.651	2242.35
624.58	1193.72
628.507	1197.98
632.433	909.383
636.357	310.593
640.279	144.011
644.199	137.253
648.117	117.612
652.034	75.885
655.948	44.251
659.861	45.405
663.772	11.874
667.681	21.329
671.588	13.445
675.493	5.368
679.397	17.076
683.298	3.607
687.198	9.484
691.096	1.669
694.992	9.307
698.886	3.857
702.779	17.022
706.669	1.86
710.558	23.071
714.445	6.018
718.33	9.135
722.214	4.715
726.095	6.547
729.975	1.359
733.852	3.182
737.728	14.05
741.603	4.314
745.475	8.399
749.345	0.09
753.214	0.244
757.081	5.393
760.946	9.01
764.809	11.609
768.671	0.81
772.53	13.751
776.388	1.294
780.244	5.821
784.098	14.328
787.951	5.817
791.801	17.287
795.65	9.738
799.497	13.827
803.342	15.575
807.186	3.849
811.027	14.226
814.867	1.585
818.705	11.492
822.541	3.641
826.375	12.92
830.208	7.131
834.039	6.041
837.868	9.802
841.695	6.647
845.521	12.478
849.344	38.471
853.166	15.456
856.986	29.965
860.804	18.12
864.621	26.313
868.436	0.298
872.248	33.397
876.06	11.952
879.869	4.995
883.677	0.96
887.482	17.074
891.287	41.715
895.089	65.697
898.889	70.858
902.688	57.928
906.485	51.053
910.28	65.129
914.074	59.328
917.865	66.351
921.655	69.53
925.443	62.59
929.23	60.737
933.014	64.795
936.797	102.737
940.578	102.022
944.358	99.995
948.135	112.305
951.911	108.505
955.685	142.164
959.458	183.619
963.228	314.942
966.997	437.172
970.764	542.454
974.529	747.614
978.293	1331.94
982.055	3887.34
985.815	31126.8
989.573	47635.3
993.33	7613.82
997.085	1961.36
1000.84	987.913
1004.59	646.491
1008.34	451.059
1012.09	361.684
1015.83	292.333
1019.58	298.006
1023.32	276.701
1027.06	372.422
1030.8	356.17
1034.54	188.939
1038.27	122.73
1042.01	91.544
1045.74	85.458
1049.47	85.319
1053.2	68.204
1056.93	95.254
1060.65	72.186
1064.38	83.682
1068.1	67.69
1071.82	70.163
1075.54	94.384
1079.25	183.441
1082.97	393.519
1086.68	260.621
1090.39	118.754
1094.11	59.917
1097.81	67.107
1101.52	120.32
1105.22	132.864
1108.93	79.824
1112.63	29.113
1116.33	32.421
1120.03	35.749
1123.72	22.095
1127.42	5.461
1131.11	37.85
1134.8	120.263
1138.49	263.698
1142.18	400.15
1145.87	394.62
1149.55	235.111
1153.23	123.617
1156.91	54.137
1160.59	42.674
1164.27	80.225
1167.95	71.79
1171.62	61.368
1175.3	30.958
1178.97	17.752
1182.64	11.361
1186.3	9.994
1189.97	1.66
1193.63	9.708
1197.3	3.079
1200.96	3.159
1204.62	33.471
1208.27	21.252
1211.93	16.877
1215.58	24.662
1219.24	24.63
1222.89	24.664
1226.54	2.784
1230.18	11.634
1233.83	48.296
1237.47	32.722
1241.12	28.379
1244.76	38.04
1248.4	39.74
1252.04	31.373
1255.67	25.075
1259.31	18.264
1262.94	35.469
1266.57	38.459
1270.2	22.102
1273.83	26.836
1277.45	40.945
1281.08	30.623
1284.7	41.257
1288.32	6.042
1291.94	29.668
1295.56	13.418
1299.17	15.025
1302.79	36.607
1306.4	5.829
1310.01	27.633
1313.62	2.161
1317.23	21.556
1320.84	13.021
1324.44	29.347
1328.04	4.324
1331.64	21.689
1335.24	6.618
1338.84	9.765
1342.44	12.078
1346.03	0.632
1349.63	2.373
1353.22	0.144
1356.81	0.945
1360.4	9.225
1363.98	5.628
1367.57	5.493
1371.15	10.356
1374.73	8.695
1378.32	12.076
1381.89	1.649
1385.47	0.188
1389.05	0.695
1392.62	14.179
1396.19	16.639
1399.76	2.076
1403.33	14.492
1406.9	7.636
1410.46	13.976
1414.03	18.3
1417.59	12.244
1421.15	2.372
1424.71	14.494
1428.27	17.615
1431.82	33.687
1435.38	37.418
1438.93	54.497
1442.48	69.514
1446.03	67.247
1449.58	60.041
1453.13	84.525
1456.67	84.737
1460.21	86.289
1463.76	75.392
1467.3	32.431
1470.83	45.449
1474.37	18.292
1477.91	19.176
1481.44	23.128
1484.97	43.145
1488.5	16.182
1492.03	17.295
1495.56	15.52
1499.08	12.823
1502.61	0
