Measurement: Raman, 514 nm, ccw, Raman Data Processed
Mineral: Baryte
Rruff sample: R040036
Ideal chemistry: BaSO_4_
Locality: Cumbria County, England
Source: University of Arizona Mineral Museum
Description: Golden brown tabular crystal
Measured chemistry: Ba_1.00_S_1.00_O_4_; trace amounts of Pb
Pin_id: M00028
Orientation: Laser parallel to -a* (-1 0 0). Fiducial mark perpendicular to laser is parallel to -b [0 -1 0]
Raman shift (cm-1)	intensity
26.288	0
30.504	21.412
34.717	21.591
38.929	35.75
43.138	59.169
47.345	60.9
51.551	92.568
55.754	111.509
59.955	126.015
64.154	114.03
68.351	78.645
72.546	35.386
76.739	26.234
80.93	11.869
85.119	23.991
89.306	20.024
93.49	15.29
97.673	26.552
101.854	81.408
106.032	145.528
110.209	259.9
114.384	446.408
118.556	408.956
122.727	497.465
126.895	750.888
131.062	798.125
135.226	519.081
139.388	452.871
143.549	537.671
147.707	701.501
151.863	746.357
156.018	548.234
160.17	371.132
164.32	324.05
168.469	342.991
172.615	324.954
176.759	269.178
180.901	260.638
185.041	254.679
189.18	280.3
193.316	253.447
197.45	266.213
201.582	214.584
205.712	184.469
209.84	190.793
213.967	210.884
218.091	188.776
222.213	158.181
226.333	212.166
230.451	179.969
234.567	162.522
238.682	161.236
242.794	172.832
246.904	165.063
251.012	123.985
255.118	141.162
259.223	137.552
263.325	150.572
267.425	116.09
271.523	143.299
275.62	147.517
279.714	115.746
283.806	94.991
287.897	95.254
291.985	93.538
296.072	71.842
300.156	76.167
304.239	84.511
308.319	66.875
312.398	81.26
316.474	69.665
320.549	90.09
324.622	83.529
328.692	45.945
332.761	51.337
336.828	75.711
340.893	70.074
344.956	31.431
349.017	47.79
353.076	68.155
357.133	31.536
361.188	14.936
365.241	9.358
369.292	35.808
373.341	25.294
377.388	6.824
381.434	7.578
385.477	31.087
389.519	70.824
393.558	31.619
397.596	42.45
401.631	47.304
405.665	54.188
409.697	18.899
413.727	7.037
417.755	33.003
421.781	40.995
425.805	17.016
429.827	52.069
433.847	112.164
437.865	242.291
441.882	418.452
445.896	961.641
449.909	2642.86
453.919	4909.09
457.928	2924.34
461.935	1705.62
465.94	887.914
469.943	361.235
473.944	176.575
477.943	96.939
481.94	40.325
485.935	65.726
489.929	56.141
493.92	33.569
497.91	3.01
501.898	29.462
505.883	45.895
509.867	43.369
513.849	16.851
517.829	47.342
521.808	69.844
525.784	50.237
529.758	29.672
533.731	23.219
537.701	64.14
541.67	57.838
545.637	47.122
549.602	22.977
553.565	28.147
557.526	48.503
561.486	59.35
565.443	25.797
569.399	38.966
573.352	59.97
577.304	96.385
581.254	107.957
585.202	78.579
589.148	129.606
593.093	194.084
597.035	193.636
600.976	250.603
604.914	315.764
608.851	679.77
612.786	1791.34
616.719	4542.1
620.651	4107.14
624.58	2158.79
628.507	1404.14
632.433	1040.38
636.357	521.587
640.279	293.771
644.199	254.925
648.117	307.099
652.034	265.338
655.948	206.413
659.861	107.46
663.772	50.48
667.681	49.542
671.588	53.906
675.493	25.842
679.397	1.26
683.298	0.598
687.198	12.417
691.096	41.189
694.992	22.908
698.886	7.425
702.779	10.807
706.669	17.764
710.558	5.287
714.445	0.256
718.33	16.869
722.214	23.542
726.095	3.721
729.975	25.937
733.852	27.113
737.728	16.744
741.603	19.647
745.475	3.402
749.345	26.411
753.214	41.376
757.081	22.697
760.946	12.821
764.809	12.017
768.671	38.828
772.53	46.612
776.388	11.372
780.244	7.109
784.098	0.177
787.951	12.514
791.801	71.181
795.65	50.826
799.497	39.451
803.342	2.942
807.186	24.645
811.027	61.211
814.867	46.73
818.705	9.691
822.541	7.077
826.375	32.928
830.208	79.111
834.039	66.598
837.868	56.918
841.695	55.974
845.521	76.888
849.344	90.625
853.166	144.477
856.986	197.614
860.804	238.815
864.621	186.727
868.436	103.664
872.248	76.08
876.06	106.91
879.869	136.756
883.677	95.987
887.482	78.88
891.287	51.159
895.089	127.635
898.889	162.671
902.688	145.228
906.485	90.706
910.28	61.29
914.074	85.901
917.865	94.527
921.655	92.132
925.443	104.807
929.23	73.372
933.014	88.109
936.797	81.882
940.578	67.619
944.358	122.455
948.135	109.921
951.911	102.818
955.685	95.749
959.458	114.712
963.228	217.711
966.997	397.746
970.764	465.833
974.529	596.963
978.293	944.13
982.055	2608.34
985.815	15490.6
989.573	50677.9
993.33	10035.2
997.085	2226.66
1000.84	1090.12
1004.59	785.608
1008.34	389.138
1012.09	289.707
1015.83	282.32
1019.58	282.975
1023.32	319.673
1027.06	264.446
1030.8	213.605
1034.54	161.503
1038.27	109.456
1042.01	104.358
1045.74	74.334
1049.47	86.306
1053.2	77.311
1056.93	253.659
1060.65	99.734
1064.38	81.641
1068.1	136.997
1071.82	154.988
1075.54	283.381
1079.25	478.671
1082.97	1094.46
1086.68	930.779
1090.39	435.123
1094.11	248.636
1097.81	269.048
1101.52	516.857
1105.22	772.339
1108.93	416.855
1112.63	177.402
1116.33	62.976
1120.03	84.574
1123.72	130.195
1127.42	53.838
1131.11	15.501
1134.8	14.185
1138.49	52.894
1142.18	161.633
1145.87	204.392
1149.55	150.172
1153.23	73.97
1156.91	30.785
1160.59	23.384
1164.27	6.551
1167.95	19.296
1171.62	6.155
1175.3	44.025
1178.97	49.905
1182.64	48.795
1186.3	9.694
1189.97	3.595
1193.63	29.499
1197.3	32.604
1200.96	2.734
1204.62	9.287
1208.27	42.13
1211.93	61.552
1215.58	50.548
1219.24	37.378
1222.89	7.754
1226.54	11.668
1230.18	28.829
1233.83	110.736
1237.47	110.161
1241.12	143.342
1244.76	93.376
1248.4	102.213
1252.04	71.017
1255.67	76.822
1259.31	40.627
1262.94	85.417
1266.57	135.233
1270.2	164.169
1273.83	162.068
1277.45	135.052
1281.08	82.924
1284.7	37.709
1288.32	44.582
1291.94	50.965
1295.56	93.685
1299.17	103.543
1302.79	130.187
1306.4	116.887
1310.01	128.508
1313.62	144.146
1317.23	96.775
1320.84	125.086
1324.44	122.102
1328.04	90.772
1331.64	61.7
1335.24	64.421
1338.84	81.71
1342.44	45.108
1346.03	12.022
1349.63	5.426
1353.22	20.324
1356.81	8.962
1360.4	18.615
1363.98	13.352
1367.57	33.68
1371.15	65.255
1374.73	69.61
1378.32	70.93
1381.89	61.599
1385.47	21.256
1389.05	19.875
1392.62	14.456
1396.19	13.988
1399.76	22.552
1403.33	34.077
1406.9	68.586
1410.46	85.08
1414.03	47.568
1417.59	51.097
1421.15	28.431
1424.71	3.842
1428.27	51.366
1431.82	55.317
1435.38	79.691
1438.93	190.91
1442.48	286.16
1446.03	337.426
1449.58	400.604
1453.13	421.624
1456.67	422.725
1460.21	350.118
1463.76	276.476
1467.3	188.508
1470.83	163.011
1474.37	88.56
1477.91	130.995
1481.44	178.712
1484.97	166.6
1488.5	138.744
1492.03	83.232
1495.56	55.272
1499.08	26.047
1502.61	0
