Measurement: Raman, 514 nm, ccw, Raman Data Processed
Mineral: Baryte
Rruff sample: R050342
Ideal chemistry: BaSO_4_
Locality: Palos Verdes, Los Angeles County, California, USA
Source: California Institute of Technology
Description: Light brown fragment
Measured chemistry: Ba_1.00_S_1.00_O_4_
Pin_id: L00807
Orientation: Laser parallel to b* (0 1 0). Fiducial mark perpendicular to laser is parallel to c [0 0 1]
Raman shift (cm-1)	intensity
93.48	0
98.416	237.125
103.349	162.936
108.28	93.9346
113.208	16.1333
118.134	133.462
123.058	223.895
127.979	92.6103
132.898	176.82
137.814	380.106
142.728	324.567
147.639	328.776
152.549	528.979
157.455	467.148
162.359	170.029
167.261	407.401
172.161	313.312
177.058	419.596
181.952	527.674
186.845	474.094
191.734	587.896
196.622	396.643
201.507	220.071
206.389	126.26
211.269	151.612
216.147	301.7
221.022	207.236
225.895	218.833
230.765	118.308
235.633	198.008
240.498	256.897
245.361	175.988
250.222	163.093
255.08	167.121
259.936	163.891
264.789	69.126
269.64	153.755
274.488	103.48
279.334	91.7519
284.178	171.615
289.019	181.071
293.857	13.0947
298.693	7.40625
303.527	149.556
308.358	114.074
313.187	5.38379
318.013	92.6631
322.837	139.058
327.659	24.3867
332.478	216.868
337.294	19.2617
342.108	145.943
346.92	102.853
351.729	38.9307
356.535	41.2432
361.34	16.8213
366.141	54.1953
370.94	84.5859
375.737	36.0547
380.531	6.90234
385.323	83.3066
390.113	30.46
394.9	19.0684
399.684	40.7178
404.466	27.5166
409.245	39.1475
414.022	52.4853
418.797	48.9248
423.569	151.824
428.338	187.716
433.105	57.2998
437.87	471.734
442.632	940.081
447.391	2264.04
452.149	4276.8
456.903	4694.24
461.655	5986.6
466.405	2611.72
471.152	647.16
475.897	403.728
480.639	268.421
485.378	262.826
490.116	116.761
494.85	150.81
499.582	122.746
504.312	267.059
509.039	123.081
513.764	37.4824
518.486	91.9639
523.206	157.41
527.923	12.3467
532.638	137.448
537.35	132.519
542.059	67.1973
546.766	139.818
551.471	124.498
556.173	123.958
560.873	109.73
565.57	170.214
570.264	179.732
574.957	258.486
579.646	36.9834
584.333	160.56
589.018	118.12
593.7	0.259766
598.379	140.309
603.056	4.02734
607.73	185.447
612.402	323.287
617.072	661.129
621.739	498.112
626.403	603.025
631.065	1133.01
635.724	566.917
640.381	391.242
645.035	438.574
649.687	514.852
654.336	297.234
658.983	12.8682
663.627	207.456
668.268	146.252
672.907	94.9688
677.544	158.7
682.178	307.9
686.809	174.138
691.438	139.057
696.065	55.8203
700.688	51.2685
705.31	191.964
709.929	196.353
714.545	140.403
719.158	148.183
723.77	59.0185
728.378	75.2334
732.984	117.259
737.588	106.809
742.189	168.663
746.787	109.216
751.383	64.416
755.976	161.752
760.567	159.299
765.155	122.894
769.741	136.918
774.324	134.242
778.904	153.168
783.482	155.904
788.058	55.7432
792.631	129.661
797.201	34.5234
801.769	293.745
806.334	123.091
810.897	56.5185
815.457	246.68
820.014	167.727
824.569	206.651
829.122	71.5137
833.671	83.4053
838.219	154.616
842.763	83.2461
847.306	33.7227
851.845	100.868
856.382	218.205
860.917	50.7959
865.448	70.9971
869.978	206.658
874.505	40.2812
879.029	18.3281
883.55	21.9766
888.069	127.744
892.586	159.39
897.1	8.76758
901.611	91.0371
906.12	111.281
910.626	3.45312
915.129	115.709
919.63	30.9844
924.129	68.5195
928.625	242.512
933.118	142
937.609	133.357
942.097	243.81
946.582	124.078
951.065	242.316
955.546	127.666
960.023	316.904
964.499	423.887
968.971	393.397
973.441	633.223
977.909	1563.41
982.374	11462.9
986.836	34643.5
991.295	23074.1
995.753	2435.94
1000.21	803.486
1004.66	383.875
1009.11	375.977
1013.55	453.705
1018	198.549
1022.44	119.42
1026.88	234.867
1031.32	71.7852
1035.75	268.994
1040.18	181.033
1044.61	193.887
1049.04	51.2754
1053.46	214.662
1057.88	44.7617
1062.3	133.51
1066.71	224.769
1071.13	231.102
1075.54	225.242
1079.94	124.209
1084.35	199.168
1088.75	172.723
1093.15	208.916
1097.55	170.074
1101.94	131.277
1106.34	207.475
1110.73	92.5371
1115.11	145.736
1119.5	144.359
1123.88	312.549
1128.26	500.764
1132.63	736.107
1137.01	1836.46
1141.38	3000.81
1145.75	3005.31
1150.12	1330.91
1154.48	682.646
1158.84	516.387
1163.2	679.176
1167.55	635.002
1171.91	262.777
1176.26	263.477
1180.61	126.549
1184.95	229.473
1189.29	69.293
1193.63	49.6074
1197.97	101.174
1202.31	200.928
1206.64	90.5957
1210.97	3.67578
1215.29	154.111
1219.62	185.31
1223.94	163.66
1228.26	116.447
1232.57	180.297
1236.89	277.363
1241.2	214.19
1245.51	94.8887
1249.81	300.861
1254.12	103.615
1258.42	231.568
1262.72	253.365
1267.01	86.4883
1271.3	3.52734
1275.59	219.461
1279.88	122.926
1284.17	212.178
1288.45	24.0156
1292.73	198.853
1297.01	179.018
1301.28	144.068
1305.55	317.084
1309.82	87.2481
1314.09	129.309
1318.35	212.684
1322.61	15.0449
1326.87	132.102
1331.13	337.416
1335.38	161.588
1339.63	2.78711
1343.88	201.389
1348.12	122.988
1352.37	86.1484
1356.61	245.363
1360.85	142.555
1365.08	146.674
1369.31	146.932
1373.54	42.5801
1377.77	124.16
1381.99	151.397
1386.22	94.4863
1390.43	110.504
1394.65	15.2363
1398.87	416.746
1403.08	263.33
1407.29	21.8008
1411.49	119.223
1415.69	144.588
1419.89	128.865
1424.09	110.037
1428.29	228.107
1432.48	171.307
1436.67	230.85
1440.86	322.285
1445.04	38.6973
1449.23	269.555
1453.4	136.842
1457.58	154.926
1461.76	36.8203
1465.93	208.658
1470.1	217.215
1474.26	201.818
1478.43	171.871
1482.59	259.363
1486.75	328.977
1490.9	395.137
1495.06	191.606
1499.21	132.574
1503.35	298.164
1507.5	196.793
1511.64	334.906
1515.78	239.578
1519.92	325.932
1524.05	187.744
1528.18	146.123
1532.31	217.682
1536.44	297.877
1540.56	314.897
1544.69	438.824
1548.8	295.236
1552.92	224.83
1557.03	366.922
1561.14	184.242
1565.25	24.6348
1569.36	0.607422
