Measurement: Raman, 514 nm, ccw, Raman Data Processed
Mineral: Baryte
Rruff sample: R040036
Ideal chemistry: BaSO_4_
Locality: Cumbria County, England
Source: University of Arizona Mineral Museum
Description: Golden brown tabular crystal
Measured chemistry: Ba_1.00_S_1.00_O_4_; trace amounts of Pb
Pin_id: M00019
Orientation: Laser parallel to b* (0 1 0). Fiducial mark perpendicular to laser is parallel to c [0 0 1]
Raman shift (cm-1)	intensity
26.288	0
30.504	36.009
34.717	25.971
38.929	37.757
43.138	28.442
47.345	22.811
51.551	27.901
55.754	48.319
59.955	53.86
64.154	22.502
68.351	29.027
72.546	34.657
76.739	19.66
80.93	5.566
85.119	9.495
89.306	14.837
93.49	9.286
97.673	23.506
101.854	46.383
106.032	10.82
110.209	52.411
114.384	105.186
118.556	90.062
122.727	62.484
126.895	50.888
131.062	55.834
135.226	47.111
139.388	66.634
143.549	57.821
147.707	117.944
151.863	177.872
156.018	134.624
160.17	74.332
164.32	58.814
168.469	30.332
172.615	32.939
176.759	44.447
180.901	74.048
185.041	147.314
189.18	236.208
193.316	135.74
197.45	73.522
201.582	40.06
205.712	42.271
209.84	37.93
213.967	31.174
218.091	11.132
222.213	15.328
226.333	7.858
230.451	20.237
234.567	12.491
238.682	17.742
242.794	7.431
246.904	9.538
251.012	23.291
255.118	20.527
259.223	15.126
263.325	8.957
267.425	19.738
271.523	13.464
275.62	15.034
279.714	19.65
283.806	22.158
287.897	20.623
291.985	12.069
296.072	22.499
300.156	18.893
304.239	7.251
308.319	32.575
312.398	18.865
316.474	18.952
320.549	19.995
324.622	11.087
328.692	11.206
332.761	0.254
336.828	6.232
340.893	18.149
344.956	23.011
349.017	9.79
353.076	24.428
357.133	6.081
361.188	9.555
365.241	10.86
369.292	21.166
373.341	13.414
377.388	12.814
381.434	32.06
385.477	19.413
389.519	38.264
393.558	22.526
397.596	9.826
401.631	33.112
405.665	31.476
409.697	43.73
413.727	43.023
417.755	69.275
421.781	100.646
425.805	147.814
429.827	217.167
433.847	356.498
437.865	731.711
441.882	1495.02
445.896	3710.32
449.909	9779.48
453.919	12328.8
457.928	4881.8
461.935	1689.07
465.94	728.294
469.943	379.511
473.944	232.736
477.943	150.844
481.94	129.985
485.935	104.106
489.929	75.416
493.92	74.534
497.91	60.833
501.898	57.043
505.883	56.197
509.867	69.436
513.849	65.585
517.829	67.871
521.808	70.161
525.784	49.461
529.758	63.858
533.731	47.322
537.701	34.718
541.67	27.07
545.637	27.496
549.602	20.846
553.565	29.222
557.526	23.603
561.486	20.362
565.443	18.615
569.399	22.207
573.352	30.996
577.304	3.63
581.254	21.323
585.202	30.978
589.148	21.427
593.093	32.702
597.035	22.56
600.976	48.235
604.914	88.254
608.851	212.821
612.786	711.657
616.719	1843.45
620.651	918.999
624.58	421.167
628.507	450.724
632.433	410.866
636.357	264.33
640.279	247.713
644.199	391.007
648.117	506.452
652.034	270.655
655.948	118.719
659.861	55.717
663.772	56.778
667.681	26.32
671.588	9.253
675.493	11.294
679.397	12.177
683.298	20.413
687.198	16.532
691.096	6.36
694.992	5.519
698.886	19.397
702.779	6.266
706.669	8.967
710.558	11.7
714.445	6.669
718.33	3.11
722.214	6.449
726.095	4.971
729.975	14.463
733.852	2.094
737.728	12.665
741.603	0.769
745.475	3.117
749.345	15.575
753.214	4.314
757.081	5.091
760.946	5.095
764.809	3.748
768.671	21.379
772.53	3.478
776.388	1.452
780.244	3.587
784.098	6.596
787.951	3.573
791.801	14.525
795.65	9.452
799.497	10.358
803.342	13.756
807.186	1.094
811.027	2.14
814.867	1.571
818.705	1.328
822.541	22.073
826.375	1.258
830.208	6.428
834.039	1.094
837.868	8.222
841.695	19.407
845.521	9.725
849.344	25.109
853.166	24.005
856.986	41.38
860.804	34.743
864.621	34.972
868.436	27.429
872.248	16.864
876.06	5.396
879.869	7.072
883.677	12.907
887.482	29.731
891.287	34.949
895.089	52.924
898.889	63.32
902.688	70.768
906.485	54.115
910.28	60.7
914.074	39.894
917.865	55.314
921.655	21.74
925.443	43.003
929.23	41.503
933.014	48.139
936.797	73.835
940.578	54.131
944.358	89.602
948.135	74.3
951.911	83.978
955.685	110.762
959.458	149.189
963.228	319.713
966.997	397.563
970.764	570.062
974.529	805.705
978.293	1587.63
982.055	5176.59
985.815	44650.5
989.573	38148.5
993.33	6114.59
997.085	1760.67
1000.84	962.799
1004.59	614.955
1008.34	443.144
1012.09	330.326
1015.83	253.591
1019.58	184.899
1023.32	181.249
1027.06	159.642
1030.8	135.076
1034.54	75.55
1038.27	91.061
1042.01	61.611
1045.74	47.2
1049.47	64.83
1053.2	39.5
1056.93	40.209
1060.65	50.961
1064.38	33.894
1068.1	41.722
1071.82	25.59
1075.54	33.504
1079.25	65.471
1082.97	84.484
1086.68	113.54
1090.39	115.637
1094.11	209.798
1097.81	610.004
1101.52	1665.26
1105.22	1942.56
1108.93	771.899
1112.63	335.282
1116.33	136.699
1120.03	70.151
1123.72	71.64
1127.42	101.163
1131.11	149.723
1134.8	584.315
1138.49	1014.94
1142.18	489.606
1145.87	214.305
1149.55	121.036
1153.23	105.798
1156.91	117.591
1160.59	254.416
1164.27	645.272
1167.95	686.157
1171.62	351.068
1175.3	168.006
1178.97	95.155
1182.64	40.142
1186.3	44.152
1189.97	19.184
1193.63	7.761
1197.3	21.34
1200.96	14.43
1204.62	13.847
1208.27	24.785
1211.93	34.942
1215.58	31.097
1219.24	43.597
1222.89	40.263
1226.54	11.011
1230.18	27.503
1233.83	36.526
1237.47	56.155
1241.12	66.46
1244.76	26.709
1248.4	53.956
1252.04	30.218
1255.67	18.698
1259.31	30.171
1262.94	33.466
1266.57	47.771
1270.2	34.407
1273.83	32.009
1277.45	38.377
1281.08	36.725
1284.7	6.068
1288.32	6.461
1291.94	10.227
1295.56	17.431
1299.17	19.74
1302.79	4.015
1306.4	9.748
1310.01	12.461
1313.62	4.664
1317.23	32.857
1320.84	26.034
1324.44	0.862
1328.04	13.181
1331.64	8.293
1335.24	15.631
1338.84	10.592
1342.44	2.582
1346.03	3.851
1349.63	3.354
1353.22	22.719
1356.81	2.157
1360.4	10.985
1363.98	1.154
1367.57	1.651
1371.15	3.496
1374.73	4.257
1378.32	7.394
1381.89	5.27
1385.47	5.055
1389.05	28.366
1392.62	17.655
1396.19	2.067
1399.76	21.188
1403.33	5.428
1406.9	8.411
1410.46	19.625
1414.03	6.833
1417.59	6.002
1421.15	26.476
1424.71	39.38
1428.27	38.681
1431.82	39.426
1435.38	28.009
1438.93	69.561
1442.48	101.22
1446.03	117.912
1449.58	112.316
1453.13	108.069
1456.67	139.941
1460.21	80.597
1463.76	79.28
1467.3	62.879
1470.83	54.695
1474.37	40.412
1477.91	43.03
1481.44	35.7
1484.97	45.519
1488.5	12.433
1492.03	35.466
1495.56	3.748
1499.08	5.454
1502.61	0
