Measurement: Raman, 514 nm, ccw, Raman Data Processed
Mineral: Baryte
Rruff sample: R040036
Ideal chemistry: BaSO_4_
Locality: Cumbria County, England
Source: University of Arizona Mineral Museum
Description: Golden brown tabular crystal
Measured chemistry: Ba_1.00_S_1.00_O_4_; trace amounts of Pb
Pin_id: M00028
Orientation: Laser parallel to -a* (-1 0 0). Fiducial mark perpendicular to laser is parallel to -b [0 -1 0]
Raman shift (cm-1)	intensity
26.288	0
30.504	25.703
34.717	32.136
38.929	60.296
43.138	64.202
47.345	78.21
51.551	93.299
55.754	93.126
59.955	107.134
64.154	92.165
68.351	63.884
72.546	41.591
76.739	32.421
80.93	1.321
85.119	13.773
89.306	15.867
93.49	11.952
97.673	8.982
101.854	63.951
106.032	106.168
110.209	227.624
114.384	282.219
118.556	286.868
122.727	373.497
126.895	357.068
131.062	350.515
135.226	332.708
139.388	360.729
143.549	360.765
147.707	381.84
151.863	520.953
156.018	507.105
160.17	367.297
164.32	324.528
168.469	315.799
172.615	291.112
176.759	230.508
180.901	268.829
185.041	302.828
189.18	295.479
193.316	250.772
197.45	257.696
201.582	278.295
205.712	196.522
209.84	201.221
213.967	255.636
218.091	213.931
222.213	182.835
226.333	216.594
230.451	251.543
234.567	174.47
238.682	174.456
242.794	219.993
246.904	187.494
251.012	142.593
255.118	133.211
259.223	204.891
263.325	189.596
267.425	147.324
271.523	156.096
275.62	182.868
279.714	127.665
283.806	99.497
287.897	149.364
291.985	151.263
296.072	104.196
300.156	71.162
304.239	141.161
308.319	157.193
312.398	105.258
316.474	84.356
320.549	101.486
324.622	123.645
328.692	65.799
332.761	86.948
336.828	95.098
340.893	125.253
344.956	43.42
349.017	60.613
353.076	109.819
357.133	104.057
361.188	39.329
365.241	16.673
369.292	97.032
373.341	81.429
377.388	4.119
381.434	19.4
385.477	78.006
389.519	72.708
393.558	43.555
397.596	22.383
401.631	78.249
405.665	90.226
409.697	27.367
413.727	8.345
417.755	55.363
421.781	82.495
425.805	44.596
429.827	41.345
433.847	96.528
437.865	210.756
441.882	301.027
445.896	642.335
449.909	1791.68
453.919	3482.07
457.928	1974.49
461.935	859.943
465.94	448.439
469.943	249.977
473.944	154.547
477.943	78.152
481.94	25.797
485.935	105.476
489.929	95.188
493.92	42.933
497.91	0.71
501.898	34.52
505.883	75.366
509.867	40.245
513.849	8.156
517.829	29.096
521.808	63.042
525.784	120.067
529.758	25.261
533.731	8.694
537.701	30.378
541.67	97.466
545.637	58.582
549.602	18.281
553.565	37.886
557.526	80.458
561.486	60.614
565.443	37.637
569.399	34.745
573.352	26.449
577.304	113.816
581.254	77.027
585.202	41.149
589.148	74.857
593.093	146.086
597.035	193.663
600.976	157.911
604.914	180.819
608.851	349.106
612.786	1132.35
616.719	3248.91
620.651	2601.51
624.58	1192.25
628.507	1077.7
632.433	1044.2
636.357	427.42
640.279	180.961
644.199	129.351
648.117	143.387
652.034	193.004
655.948	142.167
659.861	41.972
663.772	0.118
667.681	35.607
671.588	124.793
675.493	51.82
679.397	14.313
683.298	10.646
687.198	56.564
691.096	100.564
694.992	72.739
698.886	24.752
702.779	11.238
706.669	25.613
710.558	79.9
714.445	73.765
718.33	14.588
722.214	34.62
726.095	30.125
729.975	82.846
733.852	76.536
737.728	6.336
741.603	24.027
745.475	11.429
749.345	68.129
753.214	114.654
757.081	27.151
760.946	17.384
764.809	1.042
768.671	98.443
772.53	121.818
776.388	72.166
780.244	3.512
784.098	22.22
787.951	46.033
791.801	123.258
795.65	72.456
799.497	25.624
803.342	11.259
807.186	33.857
811.027	96.783
814.867	105.863
818.705	64.911
822.541	34.057
826.375	7.069
830.208	55.899
834.039	100.833
837.868	95.361
841.695	49.929
845.521	33.358
849.344	53.843
853.166	99.741
856.986	163.469
860.804	158.452
864.621	72.341
868.436	2.739
872.248	17.614
876.06	95.128
879.869	138.321
883.677	85.801
887.482	29.985
891.287	9.839
895.089	129.368
898.889	171.346
902.688	168.124
906.485	104.869
910.28	61.473
914.074	67.348
917.865	92.72
921.655	148.002
925.443	198.693
929.23	115.144
933.014	52.171
936.797	81.48
940.578	111.101
944.358	184.088
948.135	208.015
951.911	173.023
955.685	123.63
959.458	100.523
963.228	217.328
966.997	452.373
970.764	536.278
974.529	659.341
978.293	970.4
982.055	2465.54
985.815	14993.8
989.573	50181
993.33	9538.35
997.085	2219.45
1000.84	1016.69
1004.59	638.954
1008.34	375.237
1012.09	299.403
1015.83	336.725
1019.58	388.072
1023.32	339.555
1027.06	269.006
1030.8	212.419
1034.54	123.881
1038.27	176.479
1042.01	151.648
1045.74	179.332
1049.47	156.845
1053.2	106.772
1056.93	233.68
1060.65	99.256
1064.38	93.157
1068.1	161.987
1071.82	195.627
1075.54	192.343
1079.25	169.007
1082.97	333.685
1086.68	323.376
1090.39	223.085
1094.11	203.883
1097.81	193.668
1101.52	236.443
1105.22	277.509
1108.93	89.304
1112.63	0.116
1116.33	48.976
1120.03	112.804
1123.72	134.64
1127.42	92.483
1131.11	26.354
1134.8	26.432
1138.49	67.277
1142.18	288.13
1145.87	422.997
1149.55	332.909
1153.23	200.789
1156.91	100.672
1160.59	52.563
1164.27	1.539
1167.95	50.564
1171.62	32.307
1175.3	103.177
1178.97	150.033
1182.64	129.938
1186.3	60.787
1189.97	10.625
1193.63	13.54
1197.3	52.714
1200.96	5.075
1204.62	106.932
1208.27	150.69
1211.93	146.517
1215.58	139.334
1219.24	51.125
1222.89	2.128
1226.54	0.627
1230.18	43.379
1233.83	123.148
1237.47	166.429
1241.12	219.6
1244.76	182.325
1248.4	89.061
1252.04	30.675
1255.67	43.698
1259.31	29.252
1262.94	34.189
1266.57	162.953
1270.2	261.171
1273.83	187.256
1277.45	191.015
1281.08	72.692
1284.7	18.365
1288.32	20.199
1291.94	67.306
1295.56	123.951
1299.17	179.471
1302.79	204.208
1306.4	209.276
1310.01	176.725
1313.62	77.352
1317.23	27.579
1320.84	19.838
1324.44	20.132
1328.04	96.488
1331.64	150.06
1335.24	206.598
1338.84	219.06
1342.44	144.581
1346.03	102.094
1349.63	74.604
1353.22	20.043
1356.81	20.521
1360.4	26.047
1363.98	43.582
1367.57	135.873
1371.15	199.613
1374.73	180.059
1378.32	212.942
1381.89	136.604
1385.47	75.973
1389.05	5.625
1392.62	16.212
1396.19	15.166
1399.76	91.436
1403.33	161.952
1406.9	181.589
1410.46	215.176
1414.03	220.854
1417.59	162.454
1421.15	99.125
1424.71	63.729
1428.27	21.502
1431.82	17.323
1435.38	99.127
1438.93	147.095
1442.48	279.879
1446.03	346.979
1449.58	403.409
1453.13	415.923
1456.67	349.432
1460.21	320.336
1463.76	206.352
1467.3	150.54
1470.83	101.556
1474.37	84.013
1477.91	136.528
1481.44	180.295
1484.97	236.531
1488.5	250.305
1492.03	297.832
1495.56	211.623
1499.08	193.686
1502.61	0
