Measurement: Raman, 514 nm, ccw, Raman Data Processed
Mineral: Baryte
Rruff sample: R040036
Ideal chemistry: BaSO_4_
Locality: Cumbria County, England
Source: University of Arizona Mineral Museum
Description: Golden brown tabular crystal
Measured chemistry: Ba_1.00_S_1.00_O_4_; trace amounts of Pb
Pin_id: M00021
Orientation: Laser parallel to c* (0 0 1). Fiducial mark perpendicular to laser is parallel to -a [-1 0 0]
Raman shift (cm-1)	intensity
26.288	0
30.504	4.016
34.717	67.842
38.929	58.883
43.138	48.049
47.345	44.92
51.551	44.608
55.754	56.322
59.955	88.588
64.154	105.978
68.351	85.222
72.546	97.71
76.739	81.17
80.93	41.688
85.119	13.186
89.306	13.42
93.49	37.131
97.673	32.953
101.854	0.592
106.032	50.059
110.209	90.838
114.384	134.735
118.556	157.633
122.727	148.092
126.895	216.869
131.062	196.82
135.226	155.562
139.388	139.907
143.549	192.919
147.707	278.422
151.863	351.129
156.018	302.667
160.17	177.256
164.32	144.535
168.469	107.836
172.615	100.95
176.759	88.533
180.901	95.91
185.041	122.535
189.18	154.242
193.316	154.114
197.45	108.759
201.582	109.539
205.712	112.799
209.84	102.43
213.967	68.491
218.091	67.812
222.213	103.241
226.333	97.492
230.451	61.233
234.567	86.017
238.682	66.668
242.794	46.536
246.904	44.555
251.012	42.725
255.118	41.551
259.223	37.26
263.325	55.729
267.425	44.218
271.523	33.524
275.62	52.666
279.714	52.748
283.806	46.772
287.897	33.741
291.985	40.417
296.072	47.532
300.156	43.362
304.239	33.148
308.319	30.89
312.398	45.592
316.474	31.255
320.549	30.806
324.622	34.314
328.692	29.677
332.761	27.993
336.828	30.223
340.893	28.357
344.956	46.413
349.017	42.406
353.076	17.316
357.133	21.207
361.188	29.805
365.241	30.393
369.292	23.121
373.341	18.755
377.388	28.163
381.434	29.752
385.477	33.22
389.519	27.653
393.558	22.105
397.596	34.588
401.631	40.207
405.665	25.704
409.697	26.434
413.727	33.985
417.755	53.431
421.781	29.925
425.805	56.5
429.827	56.984
433.847	100.338
437.865	170.729
441.882	275.206
445.896	595.607
449.909	1522.91
453.919	2489.31
457.928	2519.76
461.935	4831.06
465.94	2605.41
469.943	856.71
473.944	334.013
477.943	174.274
481.94	128.571
485.935	90.797
489.929	77.307
493.92	58.797
497.91	59.131
501.898	37.483
505.883	38.773
509.867	21.23
513.849	22.529
517.829	56.853
521.808	43.307
525.784	19.767
529.758	32.238
533.731	33.99
537.701	41.586
541.67	36.153
545.637	27.191
549.602	33.757
553.565	42.311
557.526	16.767
561.486	19.604
565.443	3.313
569.399	15.993
573.352	23.098
577.304	22.33
581.254	31.247
585.202	54.779
589.148	68.329
593.093	93.865
597.035	96.479
600.976	111.195
604.914	198.886
608.851	381.566
612.786	1006
616.719	2798.68
620.651	1839.1
624.58	995.512
628.507	947.329
632.433	711.919
636.357	284.337
640.279	149.696
644.199	149.216
648.117	167.838
652.034	106.274
655.948	42.622
659.861	45.943
663.772	17.365
667.681	10.705
671.588	1.966
675.493	2.188
679.397	1.619
683.298	8.59
687.198	6.747
691.096	7.129
694.992	0.598
698.886	1.433
702.779	5.358
706.669	4.897
710.558	9.819
714.445	25.203
718.33	9.268
722.214	2.637
726.095	15.521
729.975	4.384
733.852	3.772
737.728	9.938
741.603	5.871
745.475	5.643
749.345	5.39
753.214	3.117
757.081	10.823
760.946	4.507
764.809	4.827
768.671	8.186
772.53	7.428
776.388	3.024
780.244	2.397
784.098	7.868
787.951	4.302
791.801	1.212
795.65	0.71
799.497	5.807
803.342	0.903
807.186	1.039
811.027	12.354
814.867	5.274
818.705	3.415
822.541	0.035
826.375	2.833
830.208	2.048
834.039	4.759
837.868	1.571
841.695	4.757
845.521	22.501
849.344	19.655
853.166	37.718
856.986	26.642
860.804	19.724
864.621	36.989
868.436	32.162
872.248	18.259
876.06	16.231
879.869	10.491
883.677	5.508
887.482	37.526
891.287	30.776
895.089	53.795
898.889	73.041
902.688	38.167
906.485	42.936
910.28	49.219
914.074	54.431
917.865	38.646
921.655	51.632
925.443	53.723
929.23	57.014
933.014	59.297
936.797	80.477
940.578	76.811
944.358	93.092
948.135	78.451
951.911	89.836
955.685	122.168
959.458	158.575
963.228	220.007
966.997	333.42
970.764	424.392
974.529	622.852
978.293	1063.28
982.055	3078.59
985.815	25370.1
989.573	36927.7
993.33	6645.26
997.085	1616.86
1000.84	810.477
1004.59	548.111
1008.34	363.763
1012.09	270.42
1015.83	234.097
1019.58	217.808
1023.32	203.54
1027.06	229.292
1030.8	201.064
1034.54	136.855
1038.27	87.665
1042.01	91.501
1045.74	63.359
1049.47	91.236
1053.2	67.135
1056.93	61.153
1060.65	61.505
1064.38	46.195
1068.1	48.191
1071.82	59.317
1075.54	89.398
1079.25	160.43
1082.97	308.479
1086.68	213.544
1090.39	101.627
1094.11	74.727
1097.81	73.892
1101.52	110.13
1105.22	127.308
1108.93	63.503
1112.63	29.715
1116.33	29.944
1120.03	41.187
1123.72	39.448
1127.42	29.728
1131.11	50.028
1134.8	170.338
1138.49	361.663
1142.18	495
1145.87	440.363
1149.55	247.726
1153.23	107.102
1156.91	71.492
1160.59	83.062
1164.27	93.477
1167.95	150.893
1171.62	78.344
1175.3	44.029
1178.97	6.465
1182.64	0.093
1186.3	4.646
1189.97	18.802
1193.63	8.248
1197.3	2.319
1200.96	4.888
1204.62	3.333
1208.27	7.198
1211.93	14.709
1215.58	23.122
1219.24	14.592
1222.89	1.132
1226.54	2.847
1230.18	26.91
1233.83	13.218
1237.47	31.605
1241.12	38.341
1244.76	44.726
1248.4	30.177
1252.04	6.545
1255.67	52.473
1259.31	21.48
1262.94	16.891
1266.57	26.217
1270.2	29.9
1273.83	10.542
1277.45	34.949
1281.08	25.39
1284.7	45.149
1288.32	4.466
1291.94	43.899
1295.56	40.2
1299.17	30.533
1302.79	1.191
1306.4	34.042
1310.01	28.25
1313.62	45.613
1317.23	31.559
1320.84	20.502
1324.44	16.333
1328.04	21.654
1331.64	26.638
1335.24	13.536
1338.84	30.486
1342.44	20.438
1346.03	7.364
1349.63	0.262
1353.22	3.132
1356.81	1.066
1360.4	26.258
1363.98	16.43
1367.57	0.815
1371.15	8.924
1374.73	15.155
1378.32	15.733
1381.89	16.057
1385.47	8.884
1389.05	4.266
1392.62	0.377
1396.19	0.533
1399.76	23.313
1403.33	21.313
1406.9	5.991
1410.46	1.027
1414.03	5.944
1417.59	19.925
1421.15	23.538
1424.71	39.375
1428.27	48.04
1431.82	74.295
1435.38	75.501
1438.93	57.613
1442.48	123.223
1446.03	93.275
1449.58	121.259
1453.13	99.555
1456.67	83.295
1460.21	90.886
1463.76	88.483
1467.3	64.912
1470.83	93.518
1474.37	83
1477.91	38.538
1481.44	48.131
1484.97	57.857
1488.5	44.669
1492.03	26.65
1495.56	6.907
1499.08	1.329
1502.61	0
