Measurement: Raman, 514 nm, ccw, Raman Data Processed
Mineral: Barysilite
Rruff sample: R050002
Ideal chemistry: Pb_8_Mn(Si_2_O_7_)_3_
Locality: Franklin, Sussex County, New Jersey, USA
Source: University of Arizona Mineral Museum
Description: A lamellar aggregate of platy crystals
Measured chemistry: Pb_8.00_Mn_1.00_(Si_2.00_O_7_)_3_
Pin_id: M00298
Orientation: Laser parallel to a* (1 0 0). Fiducial mark perpendicular to laser is parallel to c [0 0 1]
Raman shift (cm-1)	intensity
61.962	0
66.157	271.95
70.349	82.913
74.54	142.305
78.729	1112.32
82.916	4925.42
87.101	5915.69
91.284	5174.88
95.465	10797.4
99.644	27496.2
103.82	40651.9
107.995	39038.4
112.168	22179.4
116.339	16327.2
120.508	13296.9
124.675	10117.9
128.84	8058.8
133.003	6852.08
137.164	5703.49
141.323	4716.91
145.48	3468.06
149.635	2769.1
153.788	2254.27
157.939	2218.46
162.088	2700.17
166.235	3820.32
170.38	6409.14
174.523	12513.8
178.664	25144.7
182.803	42253.8
186.94	54134.1
191.076	49318.6
195.209	33886.5
199.34	21055.2
203.47	13464.7
207.597	9365.03
211.722	6937.2
215.846	5305.56
219.967	4214.04
224.087	3428.51
228.204	3083.48
232.32	2920.48
236.434	2909.42
240.545	2962.08
244.655	3042.28
248.763	3451.9
252.869	4062.44
256.973	4783.21
261.075	4686.42
265.175	3477.17
269.273	2028.06
273.369	961.768
277.463	374.062
281.556	20.757
285.646	177.324
289.734	272.189
293.821	179.91
297.905	46.334
301.988	38.064
306.069	22
310.147	21.086
314.224	152.464
318.299	44.837
322.372	452.575
326.443	762.767
330.512	700.371
334.579	592.322
338.645	432.498
342.708	196.811
346.769	6.832
350.829	75.417
354.887	86.192
358.942	41.797
362.996	201
367.048	389.453
371.098	629.892
375.146	900.747
379.192	1004.6
383.236	1091.52
387.279	973.478
391.319	720.518
395.358	332.022
399.394	101.071
403.429	62.153
407.462	101.625
411.493	100.63
415.522	28.014
419.549	297.028
423.575	702.309
427.598	1450.53
431.619	2433.74
435.639	3531.97
439.657	3644.09
443.673	3060.94
447.687	2206.7
451.699	1520.24
455.709	1036.44
459.717	824.762
463.724	791.131
467.728	819.803
471.731	1203.59
475.732	1936.22
479.731	3077.7
483.728	4203.13
487.723	4795.09
491.716	6214.3
495.708	9427.82
499.697	14713.7
503.685	21665.9
507.671	26425.9
511.655	23565.9
515.637	16368.4
519.617	10514.9
523.596	6476.32
527.572	4298.23
531.547	3208.74
535.52	2853.82
539.491	2530.72
543.46	1833.11
547.427	1419.11
551.393	1456.72
555.356	1485.94
559.318	1108.72
563.278	717.826
567.236	483.758
571.192	331.992
575.147	167.082
579.099	142.752
583.05	120.626
586.999	88.259
590.946	50.244
594.891	14.401
598.834	11.393
602.776	6.913
606.715	0.664
610.653	19.75
614.589	1.957
618.523	18.43
622.456	17.637
626.386	10.957
630.315	15.321
634.242	35.575
638.167	9.263
642.09	7.559
646.012	13.92
649.931	6.881
653.849	7.46
657.765	1.671
661.679	9.495
665.592	17.913
669.502	4.857
673.411	8.256
677.318	8.12
681.223	2.654
685.126	7.384
689.028	42.17
692.927	53.338
696.825	217.178
700.721	574.708
704.616	1452.93
708.508	2181.87
712.399	1214.51
716.288	365.867
720.175	73.125
724.06	28.506
727.944	4.963
731.825	31.653
735.705	12.871
739.584	17.674
743.46	21.242
747.334	5.289
751.207	8.153
755.078	4.084
758.947	3.304
762.815	3.039
766.68	9.974
770.544	13.654
774.406	15.447
778.267	15.36
782.125	30.654
785.982	34.621
789.837	19.397
793.69	51.835
797.542	31.919
801.391	23.673
805.239	32.739
809.085	139.042
812.93	261.506
816.772	557.28
820.613	1104.41
824.452	1377.18
828.29	1121.25
832.125	636.181
835.959	374.897
839.791	200.688
843.621	228.743
847.45	153.861
851.277	217.865
855.102	173.921
858.925	221.039
862.746	282.201
866.566	466.437
870.384	569.725
874.2	942.092
878.015	1435.3
881.828	2554.34
885.639	5312.7
889.448	9422.91
893.256	9263.88
897.061	6714.36
900.865	5944.56
904.668	6700.95
908.468	6858.67
912.267	5370.83
916.064	4844.87
919.86	5942.61
923.653	5890.54
927.445	4741.01
931.236	3815.36
935.024	2959.83
938.811	2222.67
942.596	1660.79
946.379	1288.19
950.161	1009.86
953.94	934.797
957.719	796.99
961.495	764.431
965.27	672.364
969.043	599.156
972.814	579.975
976.583	484.471
980.351	410.626
984.117	315.239
987.882	330.827
991.644	209.962
995.405	176.38
999.165	174.122
1002.92	144.771
1006.68	84.122
1010.43	44.137
1014.18	50.153
1017.93	38.689
1021.68	18.544
1025.43	8.129
1029.18	11.183
1032.92	12.939
1036.66	14.657
1040.4	27.916
1044.14	16.116
1047.88	53.584
1051.62	126.093
1055.35	223.908
1059.08	229.547
1062.81	178.128
1066.54	198.153
1070.27	258.875
1073.99	214.489
1077.72	212.128
1081.44	169.376
1085.16	199.891
1088.88	153.824
1092.59	98.563
1096.31	82.212
1100.02	79.83
1103.73	25.215
1107.44	41.468
1111.15	1.354
1114.86	14.049
1118.57	13.069
1122.27	17.971
1125.97	15.897
1129.67	2.957
1133.37	24.637
1137.07	12.734
1140.76	0.942
1144.45	0.924
1148.15	6.856
1151.84	9.851
1155.53	10.043
1159.21	11.553
1162.9	1.508
1166.58	5.911
1170.26	7.075
1173.94	7.804
1177.62	2.951
1181.3	5.15
1184.97	5.921
1188.65	18.003
1192.32	3.569
1195.99	1.504
1199.66	18.256
1203.33	2.146
1206.99	0.04
1210.65	11.319
1214.32	10.004
1217.98	22.263
1221.64	14.401
1225.29	1.602
1228.95	44.232
1232.6	32.947
1236.26	45.533
1239.91	35.986
1243.56	67.291
1247.2	33.454
1250.85	12.448
1254.49	71.283
1258.13	44.938
1261.78	32.355
1265.41	41.701
1269.05	59.06
1272.69	32.181
1276.32	28.909
1279.95	28.76
1283.59	21.872
1287.21	28.274
1290.84	19.161
1294.47	13.429
1298.09	31.422
1301.72	57.726
1305.34	24.667
1308.96	72.994
1312.58	42.87
1316.19	41.537
1319.81	41.558
1323.42	42.202
1327.03	48.452
1330.64	3.455
1334.25	50.178
1337.86	32.54
1341.46	35.935
1345.07	48.465
1348.67	63.487
1352.27	19.392
1355.87	20.023
1359.46	53.615
1363.06	19.384
1366.65	79.843
1370.25	65.388
1373.84	45.722
1377.43	76.854
1381.02	49.09
1384.6	63.415
1388.18	97.252
1391.77	88.008
1395.35	89.118
1398.93	150.724
1402.51	130.128
1406.08	184.352
1409.66	136.578
1413.23	95.757
1416.8	148.105
1420.37	92.316
1423.94	91.445
1427.51	49.763
1431.08	12.357
1434.64	67.043
1438.2	71.915
1441.76	46.851
1445.32	58.765
1448.88	83.618
1452.43	40.462
1455.99	60.443
1459.54	72.676
1463.09	44.179
1466.64	69.097
1470.19	85.285
1473.74	64.775
1477.28	44.58
1480.83	63.734
1484.37	45.346
1487.91	24.575
1491.45	20.547
1494.98	41.388
1498.52	55.339
1502.05	0.796
1505.59	19.417
1509.12	30.751
1512.65	0.337
1516.17	0
