Measurement: Raman, 514 nm, ccw, Raman Data Processed
Mineral: Baryte
Rruff sample: R040036
Ideal chemistry: BaSO_4_
Locality: Cumbria County, England
Source: University of Arizona Mineral Museum
Description: Golden brown tabular crystal
Measured chemistry: Ba_1.00_S_1.00_O_4_; trace amounts of Pb
Pin_id: M00021
Orientation: Laser parallel to c* (0 0 1). Fiducial mark perpendicular to laser is parallel to -a [-1 0 0]
Raman shift (cm-1)	intensity
26.288	0
30.504	1.925
34.717	18.049
38.929	67.799
43.138	67.761
47.345	50.068
51.551	74.309
55.754	71.035
59.955	74.001
64.154	89.144
68.351	56.597
72.546	76.847
76.739	52.026
80.93	23.303
85.119	26.456
89.306	18.326
93.49	23.378
97.673	18.574
101.854	8.356
106.032	24.747
110.209	80.141
114.384	201.73
118.556	414.347
122.727	181.742
126.895	256.843
131.062	218.597
135.226	164.221
139.388	159.233
143.549	194.713
147.707	335.829
151.863	411.745
156.018	366.539
160.17	211.358
164.32	145.002
168.469	113.419
172.615	109.688
176.759	118.064
180.901	121.614
185.041	155.101
189.18	204.061
193.316	174.01
197.45	143.203
201.582	119.495
205.712	111.344
209.84	97.106
213.967	71.074
218.091	89.094
222.213	76.139
226.333	70.751
230.451	51.797
234.567	65.526
238.682	50.581
242.794	43.593
246.904	46.094
251.012	44.016
255.118	46.05
259.223	47.729
263.325	48.953
267.425	58.164
271.523	51.292
275.62	42.337
279.714	38.3
283.806	43.187
287.897	46.001
291.985	33.75
296.072	23.439
300.156	46.074
304.239	36.655
308.319	54.183
312.398	29.66
316.474	40.083
320.549	41.372
324.622	32.647
328.692	25.715
332.761	43.688
336.828	22.612
340.893	33.428
344.956	43.152
349.017	55.753
353.076	16.333
357.133	25.753
361.188	36.85
365.241	28.941
369.292	38.053
373.341	35.979
377.388	29.897
381.434	20.932
385.477	14.875
389.519	44.671
393.558	26.602
397.596	32.577
401.631	14.526
405.665	36.64
409.697	45.61
413.727	29.633
417.755	35.934
421.781	60.958
425.805	66.936
429.827	119.991
433.847	160.909
437.865	267.833
441.882	464.691
445.896	885.664
449.909	2183.49
453.919	3700.54
457.928	4901.43
461.935	10449.4
465.94	5345.28
469.943	1709.17
473.944	645.146
477.943	330.187
481.94	251.171
485.935	168.054
489.929	126.23
493.92	104.33
497.91	84.273
501.898	84.346
505.883	66.429
509.867	51.536
513.849	43.684
517.829	45.868
521.808	38.061
525.784	46.235
529.758	38.378
533.731	26.702
537.701	34.945
541.67	18.22
545.637	16.552
549.602	29.84
553.565	33.217
557.526	24.745
561.486	23.192
565.443	24.144
569.399	18.742
573.352	22.7
577.304	26.139
581.254	21.914
585.202	53.627
589.148	56.027
593.093	90.363
597.035	94.698
600.976	144.064
604.914	218.286
608.851	420.65
612.786	1244.55
616.719	3298.75
620.651	2166.08
624.58	1155.75
628.507	1182.15
632.433	914.431
636.357	389.004
640.279	215.659
644.199	271.026
648.117	294.749
652.034	163.564
655.948	58.783
659.861	20.001
663.772	27.191
667.681	25.358
671.588	10.854
675.493	7.193
679.397	9.656
683.298	6.755
687.198	4.83
691.096	33.168
694.992	5.93
698.886	6.085
702.779	6.765
706.669	10.58
710.558	2.195
714.445	5.7
718.33	2.453
722.214	12.46
726.095	27.242
729.975	43.002
733.852	21.836
737.728	12.669
741.603	0.349
745.475	3.992
749.345	9.597
753.214	26.833
757.081	18.684
760.946	0.826
764.809	11.635
768.671	23.065
772.53	17.469
776.388	6.843
780.244	13.184
784.098	18.497
787.951	19.784
791.801	10.047
795.65	4.286
799.497	11.503
803.342	10.698
807.186	6.683
811.027	15.988
814.867	8.945
818.705	6.091
822.541	17.297
826.375	6.856
830.208	10.811
834.039	8.683
837.868	11.737
841.695	15.108
845.521	1.489
849.344	7.989
853.166	6.282
856.986	5.076
860.804	9.409
864.621	8.834
868.436	12.554
872.248	7.676
876.06	16.075
879.869	24.721
883.677	21.589
887.482	43.304
891.287	37.77
895.089	89.287
898.889	53.892
902.688	45.314
906.485	43.908
910.28	52.614
914.074	59.998
917.865	72.325
921.655	76.915
925.443	96.593
929.23	79.262
933.014	89.957
936.797	61.686
940.578	133.417
944.358	124.158
948.135	110.159
951.911	118.883
955.685	151.367
959.458	183.331
963.228	275.125
966.997	450.649
970.764	536.735
974.529	805.232
978.293	1325.67
982.055	3872.5
985.815	31593.1
989.573	47080
993.33	8735.83
997.085	2122.8
1000.84	1022.78
1004.59	647.779
1008.34	435.763
1012.09	359.614
1015.83	319.681
1019.58	281.78
1023.32	297.905
1027.06	326.062
1030.8	307.252
1034.54	175.466
1038.27	120.708
1042.01	92.975
1045.74	56.268
1049.47	87.588
1053.2	74.06
1056.93	77.46
1060.65	61.859
1064.38	57.589
1068.1	109.351
1071.82	69.012
1075.54	112.685
1079.25	209.245
1082.97	364.806
1086.68	245.409
1090.39	124.12
1094.11	69.794
1097.81	106.496
1101.52	157.23
1105.22	182.997
1108.93	88.794
1112.63	2.622
1116.33	41.48
1120.03	63.369
1123.72	46.281
1127.42	104.22
1131.11	128.188
1134.8	359.196
1138.49	790.207
1142.18	1078.24
1145.87	963.301
1149.55	547.391
1153.23	269.635
1156.91	185.777
1160.59	172.922
1164.27	244.19
1167.95	245.373
1171.62	125.605
1175.3	52.909
1178.97	57.131
1182.64	11.635
1186.3	3.394
1189.97	21.856
1193.63	2.117
1197.3	18.618
1200.96	31.723
1204.62	10.19
1208.27	40.823
1211.93	61.313
1215.58	23.573
1219.24	6.401
1222.89	24.63
1226.54	37.038
1230.18	44.965
1233.83	57.229
1237.47	59.657
1241.12	64.361
1244.76	53.817
1248.4	35.549
1252.04	36.898
1255.67	41.431
1259.31	15.328
1262.94	26.648
1266.57	68.033
1270.2	62.523
1273.83	27.298
1277.45	45.283
1281.08	3.357
1284.7	3.932
1288.32	27.251
1291.94	1.453
1295.56	23.138
1299.17	41.301
1302.79	2.425
1306.4	15.52
1310.01	37.594
1313.62	17.518
1317.23	27.509
1320.84	16.484
1324.44	14.43
1328.04	24.748
1331.64	11.552
1335.24	13.169
1338.84	2.258
1342.44	36.416
1346.03	17.081
1349.63	4.367
1353.22	24.196
1356.81	5.284
1360.4	16.188
1363.98	18.483
1367.57	4.855
1371.15	26.733
1374.73	31.089
1378.32	2.248
1381.89	23.345
1385.47	21.4
1389.05	10.405
1392.62	6.388
1396.19	2.852
1399.76	14.006
1403.33	35.727
1406.9	20.431
1410.46	47.229
1414.03	7.008
1417.59	32.729
1421.15	11.363
1424.71	28.915
1428.27	57.089
1431.82	67.525
1435.38	57.804
1438.93	60.063
1442.48	77.92
1446.03	98.168
1449.58	75.87
1453.13	121.921
1456.67	91.995
1460.21	108.766
1463.76	97.217
1467.3	81.962
1470.83	76.604
1474.37	24.059
1477.91	49.411
1481.44	36.756
1484.97	50.225
1488.5	41.785
1492.03	36.375
1495.56	11.1
1499.08	9.986
1502.61	0.487
