Measurement: Raman, 514 nm, ccw, Raman Data Processed
Mineral: Baryte
Rruff sample: R040036
Ideal chemistry: BaSO_4_
Locality: Cumbria County, England
Source: University of Arizona Mineral Museum
Description: Golden brown tabular crystal
Measured chemistry: Ba_1.00_S_1.00_O_4_; trace amounts of Pb
Pin_id: M00028
Orientation: Laser parallel to -a* (-1 0 0). Fiducial mark perpendicular to laser is parallel to -b [0 -1 0]
Raman shift (cm-1)	intensity
26.288	0
30.504	42.403
34.717	18.569
38.929	20.4
43.138	24.72
47.345	37.473
51.551	32.102
55.754	40.166
59.955	62.189
64.154	66.407
68.351	53.274
72.546	54.061
76.739	33.904
80.93	12.775
85.119	8.365
89.306	21.536
93.49	21.729
97.673	28.063
101.854	40.852
106.032	74.812
110.209	126.935
114.384	148.128
118.556	252.034
122.727	243.492
126.895	201.609
131.062	194.704
135.226	151.672
139.388	142.393
143.549	139.047
147.707	189.721
151.863	264.372
156.018	221.081
160.17	138.831
164.32	125.531
168.469	116.219
172.615	89.961
176.759	74.581
180.901	80.629
185.041	141.594
189.18	219.181
193.316	164.25
197.45	123.993
201.582	89.541
205.712	72.787
209.84	78.665
213.967	66.37
218.091	51.955
222.213	55.722
226.333	74.196
230.451	71.133
234.567	34.479
238.682	47.479
242.794	43.945
246.904	34.959
251.012	30.428
255.118	55.096
259.223	71.683
263.325	47.271
267.425	26.83
271.523	53.38
275.62	39.919
279.714	23.45
283.806	20.972
287.897	48.489
291.985	38.001
296.072	11.511
300.156	25.017
304.239	41.52
308.319	35.019
312.398	10.514
316.474	24.005
320.549	34.492
324.622	23.971
328.692	9.585
332.761	7.819
336.828	13.192
340.893	24.537
344.956	12.864
349.017	28.174
353.076	32.473
357.133	11.764
361.188	1.948
365.241	1.336
369.292	29.617
373.341	16.894
377.388	14.825
381.434	21.423
385.477	37.742
389.519	31.009
393.558	24.384
397.596	31.769
401.631	40.17
405.665	34.581
409.697	15.992
413.727	31.378
417.755	58.776
421.781	85.192
425.805	84.578
429.827	141.96
433.847	235.335
437.865	452.705
441.882	922.07
445.896	2079.51
449.909	5842.91
453.919	10833.3
457.928	5676.68
461.935	1932.11
465.94	860.528
469.943	422.904
473.944	243.018
477.943	163.432
481.94	121.664
485.935	98.098
489.929	89.52
493.92	55.983
497.91	64.428
501.898	69.863
505.883	65.239
509.867	64.638
513.849	39.991
517.829	78.388
521.808	85.435
525.784	60.015
529.758	45.514
533.731	34.338
537.701	49.898
541.67	50.65
545.637	20.577
549.602	13.086
553.565	33.664
557.526	48.209
561.486	35.832
565.443	13.584
569.399	22.353
573.352	59.153
577.304	48.322
581.254	27.15
585.202	21.534
589.148	24.09
593.093	46.683
597.035	63.347
600.976	70.167
604.914	79.795
608.851	211.585
612.786	611.247
616.719	1806.97
620.651	1514.61
624.58	696.291
628.507	467.876
632.433	442.246
636.357	261.693
640.279	129.027
644.199	122.692
648.117	158.38
652.034	130.635
655.948	81.153
659.861	36.552
663.772	32.761
667.681	29.189
671.588	35.683
675.493	15.229
679.397	5.583
683.298	0.486
687.198	27.718
691.096	52.77
694.992	5.792
698.886	1.201
702.779	2.17
706.669	7.094
710.558	43.017
714.445	4.908
718.33	5.238
722.214	9.419
726.095	14.362
729.975	9.11
733.852	9.832
737.728	12.466
741.603	2.196
745.475	29.834
749.345	22.445
753.214	18.024
757.081	8.426
760.946	1.094
764.809	12.591
768.671	35.061
772.53	16.507
776.388	5.932
780.244	12.662
784.098	0.285
787.951	15.069
791.801	33.4
795.65	26.709
799.497	5.997
803.342	8.732
807.186	23.443
811.027	45.675
814.867	27.498
818.705	15.428
822.541	5.509
826.375	0.23
830.208	35.376
834.039	33.391
837.868	8.394
841.695	14.635
845.521	11.322
849.344	44.167
853.166	59.898
856.986	69.109
860.804	62.729
864.621	50.189
868.436	14.138
872.248	33.057
876.06	40.523
879.869	60.519
883.677	46.412
887.482	34.089
891.287	29.888
895.089	74.351
898.889	105.384
902.688	89.193
906.485	72.045
910.28	56.102
914.074	27.064
917.865	73.806
921.655	80.846
925.443	74.627
929.23	51.78
933.014	25.668
936.797	50.68
940.578	79.644
944.358	111.857
948.135	82.762
951.911	89.608
955.685	89.803
959.458	84.948
963.228	204.239
966.997	359.554
970.764	455.89
974.529	642.235
978.293	966.236
982.055	2613.63
985.815	15977
989.573	52165.5
993.33	9305.95
997.085	2101.44
1000.84	974.959
1004.59	647.503
1008.34	378.069
1012.09	334.655
1015.83	285.271
1019.58	231.036
1023.32	200.857
1027.06	172.871
1030.8	131.589
1034.54	105.449
1038.27	120.214
1042.01	119.004
1045.74	109.909
1049.47	79.756
1053.2	94.039
1056.93	196.329
1060.65	85.283
1064.38	91.585
1068.1	97.215
1071.82	115.26
1075.54	133.253
1079.25	210.325
1082.97	392.365
1086.68	403.43
1090.39	256.517
1094.11	215.729
1097.81	394.87
1101.52	1017.17
1105.22	1798.35
1108.93	900.561
1112.63	376.787
1116.33	191.034
1120.03	151.304
1123.72	144.593
1127.42	68.896
1131.11	33.215
1134.8	3.549
1138.49	56.897
1142.18	53.267
1145.87	54.65
1149.55	52.043
1153.23	3.446
1156.91	7.145
1160.59	4.266
1164.27	8.317
1167.95	20.106
1171.62	41.538
1175.3	41.978
1178.97	34.424
1182.64	29.874
1186.3	6.679
1189.97	3.24
1193.63	11.801
1197.3	6.367
1200.96	43.058
1204.62	37.546
1208.27	34.962
1211.93	51.694
1215.58	32.11
1219.24	25.53
1222.89	4.705
1226.54	12.684
1230.18	39.272
1233.83	80.181
1237.47	99.129
1241.12	90.601
1244.76	79
1248.4	52.951
1252.04	40.874
1255.67	29.269
1259.31	24.662
1262.94	41.236
1266.57	82.647
1270.2	107.812
1273.83	110.197
1277.45	74.579
1281.08	42.958
1284.7	30.279
1288.32	26.402
1291.94	38.54
1295.56	56.781
1299.17	60.134
1302.79	63.462
1306.4	66.769
1310.01	43.953
1313.62	23.2
1317.23	14.901
1320.84	29.769
1324.44	34.748
1328.04	52.649
1331.64	66.23
1335.24	49.292
1338.84	23.409
1342.44	23.45
1346.03	3.53
1349.63	12.403
1353.22	39.449
1356.81	3.578
1360.4	13.596
1363.98	26.469
1367.57	41.485
1371.15	56.517
1374.73	56.601
1378.32	28.855
1381.89	27.134
1385.47	11.398
1389.05	5.365
1392.62	1.848
1396.19	5.949
1399.76	26.255
1403.33	16.45
1406.9	42.634
1410.46	37.817
1414.03	54.023
1417.59	42.252
1421.15	6.403
1424.71	7.164
1428.27	10.832
1431.82	56.04
1435.38	92.258
1438.93	120.195
1442.48	168.996
1446.03	147.893
1449.58	162.26
1453.13	184.051
1456.67	156.588
1460.21	113.806
1463.76	87.081
1467.3	80.291
1470.83	65.595
1474.37	43.009
1477.91	62.505
1481.44	85.227
1484.97	87.109
1488.5	83.277
1492.03	77.877
1495.56	57.172
1499.08	26.852
1502.61	0
