Measurement: Raman, 514 nm, depolarized, Raman Data Processed
Mineral: Baryte
Rruff sample: R050342
Ideal chemistry: BaSO_4_
Locality: Palos Verdes, Los Angeles County, California, USA
Source: California Institute of Technology
Description: Light brown fragment
Measured chemistry: Ba_1.00_S_1.00_O_4_
Pin_id: L00875
Orientation: Laser parallel to c* (0 0 1). Fiducial mark perpendicular to laser is parallel to a [1 0 0]
Raman shift (cm-1)	intensity
93.48	0
98.416	192.837
103.349	321.438
108.28	101.689
113.208	162.04
118.134	317.467
123.058	289.409
127.979	256.818
132.898	265.269
137.814	291.759
142.728	386.912
147.639	437.914
152.549	556.193
157.455	404.544
162.359	224.544
167.261	261.212
172.161	271.837
177.058	250.3
181.952	336.782
186.845	380.234
191.734	478.722
196.622	261.629
201.507	243.338
206.389	299.716
211.269	167.176
216.147	120.339
221.022	293.044
225.895	139.357
230.765	264.723
235.633	180.13
240.498	146.225
245.361	93.7256
250.222	149.352
255.08	273.017
259.936	196.762
264.789	163.495
269.64	124.446
274.488	92.9307
279.334	24.6084
284.178	16.5771
289.019	230.074
293.857	20.9238
298.693	45.6904
303.527	165.874
308.358	13.4815
313.187	183.565
318.013	103.984
322.837	10.7578
327.659	23.8408
332.478	8.7666
337.294	82.918
342.108	72.5713
346.92	26.5654
351.729	168.938
356.535	10.5146
361.34	82.0283
366.141	42.1484
370.94	10.1211
375.737	101.081
380.531	249.165
385.323	46.5977
390.113	65.4922
394.9	5.27734
399.684	55.9824
404.466	141.685
409.245	75.8135
414.022	5.47363
418.797	122.194
423.569	51.6484
428.338	149.824
433.105	229.169
437.87	132.011
442.632	572.577
447.391	1101.29
452.149	3046.18
456.903	3090.55
461.655	5376.53
466.405	2594.36
471.152	613.394
475.897	390.072
480.639	281.915
485.378	235.392
490.116	184.18
494.85	168.924
499.582	244.653
504.312	154.149
509.039	33.3379
513.764	90.1484
518.486	143.537
523.206	150.988
527.923	139.834
532.638	4.6582
537.35	81.8897
542.059	198.054
546.766	19.9102
551.471	81.2861
556.173	42.8154
560.873	199.576
565.57	35.7471
570.264	180.652
574.957	42.2871
579.646	26.8994
584.333	131.113
589.018	17.6934
593.7	145.7
598.379	215.565
603.056	110.805
607.73	274.465
612.402	671.279
617.072	2012.63
621.739	1092.07
626.403	842.029
631.065	1252.05
635.724	609.104
640.381	368.283
645.035	119.379
649.687	80.3408
654.336	38.5449
658.983	146.356
663.627	212.875
668.268	161.858
672.907	233.197
677.544	204.88
682.178	186.641
686.809	44.3037
691.438	187.535
696.065	35.543
700.688	154.94
705.31	63.2617
709.929	196.852
714.545	124.132
719.158	52.5693
723.77	38.4941
728.378	104.122
732.984	275.278
737.588	61.624
742.189	237.368
746.787	23.3965
751.383	138.957
755.976	83.3057
760.567	170.322
765.155	176.34
769.741	183.532
774.324	91.8047
778.904	21.3086
783.482	134.785
788.058	246.774
792.631	126.258
797.201	7.42578
801.769	126.566
806.334	187.708
810.897	158.278
815.457	40.2578
820.014	196.101
824.569	51.5303
829.122	113.088
833.671	135.945
838.219	92.1064
842.763	2.66016
847.306	124.234
851.845	264.808
856.382	57.2559
860.917	144.707
865.448	103.735
869.978	123.546
874.505	175.988
879.029	242.878
883.55	219.144
888.069	186.19
892.586	141.998
897.1	168.31
901.611	209.254
906.12	201.922
910.626	178.885
915.129	119.697
919.63	149.176
924.129	100.338
928.625	138.432
933.118	110.449
937.609	119.822
942.097	259.512
946.582	155.508
951.065	199.746
955.546	70.0195
960.023	184.631
964.499	224.16
968.971	183.072
973.441	555.045
977.909	756.6
982.374	3388.82
986.836	23641.7
991.295	20333.4
995.753	2340.37
1000.21	623.762
1004.66	347.777
1009.11	355.627
1013.55	174.111
1018	194.156
1022.44	190.322
1026.88	264.348
1031.32	185.371
1035.75	71.0488
1040.18	114.217
1044.61	10.9121
1049.04	63.0312
1053.46	181.609
1057.88	174.113
1062.3	79.8945
1066.71	109.881
1071.13	274.688
1075.54	153.26
1079.94	9.90625
1084.35	146.842
1088.75	256.578
1093.15	61.1836
1097.55	99.6797
1101.94	257.281
1106.34	218.766
1110.73	161.191
1115.11	205.588
1119.5	108.16
1123.88	119.781
1128.26	277.219
1132.63	282.584
1137.01	673.811
1141.38	1623.01
1145.75	2101.51
1150.12	1020.88
1154.48	490.363
1158.84	198.31
1163.2	303.463
1167.55	172.397
1171.91	116.053
1176.26	136.904
1180.61	8.74414
1184.95	231.348
1189.29	300.861
1193.63	138.818
1197.97	237.119
1202.31	37.6992
1206.64	73.6523
1210.97	80.4297
1215.29	184.83
1219.62	53.8691
1223.94	199.779
1228.26	213.82
1232.57	194.67
1236.89	222.553
1241.2	209.023
1245.51	247.982
1249.81	179.09
1254.12	38.9961
1258.42	102.887
1262.72	275.449
1267.01	271.414
1271.3	24.6309
1275.59	191.674
1279.88	67.0293
1284.17	330.435
1288.45	231.676
1292.73	110.481
1297.01	211.445
1301.28	6.58789
1305.55	358.752
1309.82	129.523
1314.09	258.299
1318.35	183.205
1322.61	128.144
1326.87	308.873
1331.13	319.553
1335.38	249.213
1339.63	254.873
1343.88	171.205
1348.12	393.566
1352.37	290.006
1356.61	249.414
1360.85	358.602
1365.08	215.668
1369.31	252.291
1373.54	76.1426
1377.77	50.4336
1381.99	93.3769
1386.22	310.672
1390.43	21.7871
1394.65	108.037
1398.87	18.5254
1403.08	151.453
1407.29	133.951
1411.49	185.838
1415.69	28.2285
1419.89	11.668
1424.09	28.8047
1428.29	48.3711
1432.48	142.508
1436.67	218.383
1440.86	212.291
1445.04	127.826
1449.23	168.574
1453.4	230.391
1457.58	199.898
1461.76	304.754
1465.93	28.5527
1470.1	166.191
1474.26	256.537
1478.43	197.617
1482.59	299.434
1486.75	177.742
1490.9	222.398
1495.06	144.295
1499.21	359.158
1503.35	254.631
1507.5	120.522
1511.64	333.957
1515.78	303.06
1519.92	393.961
1524.05	316.603
1528.18	251.691
1532.31	202.01
1536.44	134.797
1540.56	295.106
1544.69	189.732
1548.8	194.693
1552.92	93.1641
1557.03	182.652
1561.14	235.373
1565.25	95.7441
1569.36	1.86133
