Measurement: Raman, 514 nm, ccw, Raman Data Processed
Mineral: Baryte
Rruff sample: R040036
Ideal chemistry: BaSO_4_
Locality: Cumbria County, England
Source: University of Arizona Mineral Museum
Description: Golden brown tabular crystal
Measured chemistry: Ba_1.00_S_1.00_O_4_; trace amounts of Pb
Pin_id: M00021
Orientation: Laser parallel to c* (0 0 1). Fiducial mark perpendicular to laser is parallel to -a [-1 0 0]
Raman shift (cm-1)	intensity
97.673	0
101.854	47.731
106.032	47.643
110.209	27.062
114.384	88.563
118.556	36.632
122.727	71.904
126.895	48.001
131.062	52.258
135.226	37.54
139.388	27.319
143.549	15.443
147.707	123.867
151.863	258.164
156.018	220.1
160.17	99.888
164.32	59.445
168.469	68.03
172.615	20.261
176.759	25.417
180.901	80.591
185.041	100.399
189.18	192.881
193.316	184.189
197.45	62.127
201.582	49.478
205.712	5.672
209.84	27.599
213.967	33.367
218.091	20.619
222.213	23.544
226.333	87.292
230.451	29.586
234.567	11.736
238.682	24.219
242.794	11.347
246.904	17.142
251.012	6.976
255.118	44.897
259.223	77.964
263.325	32.101
267.425	44.457
271.523	115.58
275.62	69.114
279.714	27.74
283.806	32.448
287.897	76.188
291.985	43.472
296.072	17.382
300.156	39.138
304.239	60.718
308.319	40.099
312.398	45.032
316.474	57.074
320.549	80.255
324.622	39.363
328.692	31.663
332.761	57.111
336.828	58.674
340.893	57.165
344.956	27.341
349.017	83.165
353.076	99.415
357.133	39.134
361.188	1.464
365.241	42.026
369.292	78.973
373.341	6.976
377.388	2.214
381.434	48.75
385.477	127.91
389.519	57.562
393.558	34.046
397.596	72.656
401.631	113.926
405.665	49.16
409.697	28.412
413.727	55.793
417.755	133.914
421.781	105.185
425.805	66.401
429.827	166.393
433.847	246.081
437.865	330.878
441.882	500.684
445.896	919.337
449.909	2154.73
453.919	3824.42
457.928	5345.31
461.935	13168.2
465.94	7505.88
469.943	2116.53
473.944	850.374
477.943	423.703
481.94	317.469
485.935	303.254
489.929	183.044
493.92	119.964
497.91	91.785
501.898	123.402
505.883	106.858
509.867	108.487
513.849	15.279
517.829	103.75
521.808	132.253
525.784	91.027
529.758	32.821
533.731	60.76
537.701	104.638
541.67	43.673
545.637	67.443
549.602	35.641
553.565	39.024
557.526	91.049
561.486	84.192
565.443	13.601
569.399	20.781
573.352	88.903
577.304	111.529
581.254	82.959
585.202	44.075
589.148	126.04
593.093	109.601
597.035	120.31
600.976	113.668
604.914	120.457
608.851	279.888
612.786	691.697
616.719	1921.01
620.651	1361.09
624.58	857.945
628.507	1178.75
632.433	1138.14
636.357	511.676
640.279	274.52
644.199	335.841
648.117	575.142
652.034	384.337
655.948	166.871
659.861	70.226
663.772	66.212
667.681	67.235
671.588	99.08
675.493	26.893
679.397	6.964
683.298	50.897
687.198	90.889
691.096	99.483
694.992	23.205
698.886	8.284
702.779	2.847
706.669	71.334
710.558	51.498
714.445	7.676
718.33	59.219
722.214	8.783
726.095	40.725
729.975	76.605
733.852	26.432
737.728	26.793
741.603	12.091
745.475	39.54
749.345	64.098
753.214	16.582
757.081	20.004
760.946	17.335
764.809	61.62
768.671	40.844
772.53	50.01
776.388	12.877
780.244	5.169
784.098	24.164
787.951	28.112
791.801	104.011
795.65	72.872
799.497	23.678
803.342	7.441
807.186	70.164
811.027	78.847
814.867	66.237
818.705	10.433
822.541	10.79
826.375	34.706
830.208	90.621
834.039	117.218
837.868	43.031
841.695	27.073
845.521	62.039
849.344	76.867
853.166	151.535
856.986	204.367
860.804	171.256
864.621	72.102
868.436	71.912
872.248	141.002
876.06	161.191
879.869	130.807
883.677	58.102
887.482	25.214
891.287	83.789
895.089	160.355
898.889	143.259
902.688	129.865
906.485	66.379
910.28	78.265
914.074	90.464
917.865	106.15
921.655	137.066
925.443	137.955
929.23	31.995
933.014	45.405
936.797	96.092
940.578	148.385
944.358	185.438
948.135	186.504
951.911	144.574
955.685	88.169
959.458	170.898
963.228	230.939
966.997	473.035
970.764	467.965
974.529	623.004
978.293	978.103
982.055	2735.32
985.815	18519.5
989.573	45620.8
993.33	5862.05
997.085	1643.34
1000.84	922.64
1004.59	630.96
1008.34	415.288
1012.09	395.63
1015.83	391.991
1019.58	464.385
1023.32	456.807
1027.06	538.251
1030.8	547.724
1034.54	268.212
1038.27	136.722
1042.01	162.25
1045.74	77.792
1049.47	82.396
1053.2	13.066
1056.93	28.025
1060.65	38.968
1064.38	89.288
1068.1	74.979
1071.82	108.305
1075.54	88.105
1079.25	83.09
1082.97	144.789
1086.68	121.395
1090.39	123.062
1094.11	80.099
1097.81	158.782
1101.52	192.823
1105.22	217.521
1108.93	95.506
1112.63	12.251
1116.33	38.899
1120.03	107.545
1123.72	168.184
1127.42	174.881
1131.11	275.582
1134.8	548.286
1138.49	1330.88
1142.18	2148.46
1145.87	2181.03
1149.55	1156.64
1153.23	568.44
1156.91	280.053
1160.59	232.078
1164.27	268.584
1167.95	308.681
1171.62	195.178
1175.3	200.949
1178.97	102.366
1182.64	110.757
1186.3	53.119
1189.97	8.463
1193.63	22.238
1197.3	2.906
1200.96	1.106
1204.62	38.179
1208.27	118.31
1211.93	70.07
1215.58	55.572
1219.24	19.118
1222.89	2.719
1226.54	3.529
1230.18	73.271
1233.83	71.91
1237.47	164.608
1241.12	181.507
1244.76	80.506
1248.4	105.836
1252.04	48.44
1255.67	18.989
1259.31	16.469
1262.94	14.958
1266.57	135.359
1270.2	113.741
1273.83	84.221
1277.45	45.619
1281.08	40.018
1284.7	20.205
1288.32	0.338
1291.94	113.428
1295.56	66.524
1299.17	96.534
1302.79	127.417
1306.4	114.239
1310.01	126.003
1313.62	163.651
1317.23	15.194
1320.84	68.057
1324.44	130.927
1328.04	104.257
1331.64	36.531
1335.24	39.289
1338.84	64.379
1342.44	28.231
1346.03	41.322
1349.63	9.412
1353.22	32.658
1356.81	53.821
1360.4	1.069
1363.98	67.629
1367.57	61.522
1371.15	102.131
1374.73	11.042
1378.32	71.476
1381.89	16.02
1385.47	39.386
1389.05	14.883
1392.62	57.263
1396.19	29.04
1399.76	10.65
1403.33	54.972
1406.9	111.593
1410.46	8.58
1414.03	27.408
1417.59	43.31
1421.15	5.618
1424.71	6.561
1428.27	47.237
1431.82	152.167
1435.38	160.228
1438.93	253.604
1442.48	394.384
1446.03	460.581
1449.58	417.635
1453.13	464.244
1456.67	429.793
1460.21	339.209
1463.76	312.375
1467.3	269.66
1470.83	227.161
1474.37	118.783
1477.91	225.297
1481.44	194.095
1484.97	104.282
1488.5	81.234
1492.03	94.984
1495.56	51.109
1499.08	1.968
1502.61	0
