Measurement: Raman, 514 nm, ccw, Raman Data Processed
Mineral: Baryte
Rruff sample: R050342
Ideal chemistry: BaSO_4_
Locality: Palos Verdes, Los Angeles County, California, USA
Source: California Institute of Technology
Description: Light brown fragment
Measured chemistry: Ba_1.00_S_1.00_O_4_
Pin_id: L00875
Orientation: Laser parallel to c* (0 0 1). Fiducial mark perpendicular to laser is parallel to a [1 0 0]
Raman shift (cm-1)	intensity
93.48	0
98.416	420.602
103.349	309.805
108.28	130.602
113.208	172.58
118.134	149.115
123.058	215.143
127.979	125.407
132.898	229.531
137.814	258.294
142.728	273.832
147.639	384.737
152.549	474.711
157.455	557.689
162.359	174.371
167.261	230.767
172.161	315.969
177.058	253.911
181.952	286.592
186.845	367.046
191.734	687.232
196.622	326.03
201.507	257.418
206.389	196.345
211.269	123.936
216.147	126.724
221.022	207.142
225.895	193.387
230.765	79.8135
235.633	241.033
240.498	84.1992
245.361	49.6045
250.222	22.7109
255.08	206.008
259.936	82.0107
264.789	163.725
269.64	178.391
274.488	84.9751
279.334	196.738
284.178	118.273
289.019	146.301
293.857	73.7686
298.693	38.5474
303.527	43.9404
308.358	54.7031
313.187	10.7036
318.013	51.9883
322.837	168.554
327.659	78.3906
332.478	97.5176
337.294	147.42
342.108	84.2612
346.92	83.9131
351.729	68.1113
356.535	88.1875
361.34	5.42285
366.141	47.0527
370.94	86.418
375.737	34.3652
380.531	41.6963
385.323	31.1777
390.113	59.706
394.9	0.258789
399.684	62.5762
404.466	95.3477
409.245	136.972
414.022	41.9853
418.797	5.42188
423.569	64.6719
428.338	80.8769
433.105	102.583
437.87	170.559
442.632	467.746
447.391	909.643
452.149	2398.25
456.903	1915.44
461.655	1165.62
466.405	382.003
471.152	255.556
475.897	127.232
480.639	139.762
485.378	105.947
490.116	194.949
494.85	91.085
499.582	25.3857
504.312	79.5088
509.039	44.2383
513.764	88.626
518.486	29.8965
523.206	8.04785
527.923	151.798
532.638	105.566
537.35	86.0742
542.059	119.892
546.766	85.5029
551.471	32.418
556.173	2.24316
560.873	2.14453
565.57	51.1826
570.264	19.2559
574.957	111.126
579.646	33.8838
584.333	165.799
589.018	52.4746
593.7	71.2246
598.379	186.718
603.056	84.3106
607.73	111.234
612.402	344.074
617.072	1078.97
621.739	813.367
626.403	787.619
631.065	1488.15
635.724	623.672
640.381	298.801
645.035	197.303
649.687	154.785
654.336	199.258
658.983	144.641
663.627	49.373
668.268	205.068
672.907	67.9043
677.544	86.2061
682.178	236.683
686.809	86.9043
691.438	117.792
696.065	174.179
700.688	135.653
705.31	190.804
709.929	50.9238
714.545	176.935
719.158	35.71
723.77	115.214
728.378	40.9873
732.984	152.52
737.588	142.318
742.189	42.6709
746.787	103.86
751.383	206.419
755.976	139.452
760.567	113.148
765.155	166.588
769.741	29.5879
774.324	87.9121
778.904	104.353
783.482	88.8574
788.058	139.102
792.631	138.069
797.201	26.5322
801.769	29.748
806.334	128.161
810.897	80.332
815.457	129.24
820.014	251.609
824.569	34.293
829.122	136.866
833.671	12.6611
838.219	77.3857
842.763	15.581
847.306	168.371
851.845	91.2217
856.382	45.7744
860.917	196.467
865.448	150.895
869.978	17.3096
874.505	150.641
879.029	52.6875
883.55	166.838
888.069	34.9512
892.586	109.312
897.1	176.661
901.611	208.088
906.12	30.0635
910.626	176.334
915.129	35.0254
919.63	98.124
924.129	58.0508
928.625	7.68359
933.118	43.5283
937.609	53.9199
942.097	227.244
946.582	141.573
951.065	22.208
955.546	178.359
960.023	189.859
964.499	329.043
968.971	414.674
973.441	403.083
977.909	617.061
982.374	2959.97
986.836	22257.4
991.295	19521.4
995.753	2014.38
1000.21	794.301
1004.66	325.873
1009.11	273.913
1013.55	91.7754
1018	46.6738
1022.44	288.683
1026.88	112.469
1031.32	206.121
1035.75	55.7959
1040.18	124.424
1044.61	127.945
1049.04	93.7949
1053.46	36.7207
1057.88	275.631
1062.3	58.4844
1066.71	0.308594
1071.13	55.9941
1075.54	45.8603
1079.94	143.64
1084.35	279.726
1088.75	16.4014
1093.15	95.4463
1097.55	77.0371
1101.94	326.097
1106.34	162.722
1110.73	31.1895
1115.11	219.708
1119.5	350.099
1123.88	313.373
1128.26	312.688
1132.63	580.961
1137.01	1282.2
1141.38	2565.59
1145.75	3364.79
1150.12	1521.91
1154.48	683.133
1158.84	518.29
1163.2	188.885
1167.55	200.378
1171.91	243.758
1176.26	215.575
1180.61	22.002
1184.95	111.012
1189.29	198.1
1193.63	136.421
1197.97	232.686
1202.31	30.584
1206.64	155.307
1210.97	70.1894
1215.29	33.9395
1219.62	83.6602
1223.94	167.734
1228.26	240.234
1232.57	353.988
1236.89	204.705
1241.2	66.8496
1245.51	140.652
1249.81	241.111
1254.12	100.553
1258.42	126.035
1262.72	182.441
1267.01	66.582
1271.3	158.644
1275.59	352.856
1279.88	36.4902
1284.17	297.107
1288.45	123.522
1292.73	335.549
1297.01	202.732
1301.28	228.961
1305.55	129.371
1309.82	49.4766
1314.09	28.9473
1318.35	176.022
1322.61	131.402
1326.87	240.935
1331.13	218.668
1335.38	29.7578
1339.63	239.787
1343.88	305.428
1348.12	141.963
1352.37	198.301
1356.61	201.504
1360.85	185.426
1365.08	219.607
1369.31	131.606
1373.54	71.6387
1377.77	136.719
1381.99	48.9102
1386.22	152.098
1390.43	124.029
1394.65	139.75
1398.87	193.461
1403.08	79.1269
1407.29	8.94727
1411.49	209.295
1415.69	76.7481
1419.89	219.894
1424.09	94.4316
1428.29	165.787
1432.48	75.8555
1436.67	117.1
1440.86	171.584
1445.04	28.0371
1449.23	143.762
1453.4	48.2402
1457.58	153.619
1461.76	124.832
1465.93	179.219
1470.1	186.69
1474.26	180.174
1478.43	133.857
1482.59	113.85
1486.75	288.883
1490.9	255.594
1495.06	310.994
1499.21	313.846
1503.35	322.115
1507.5	115.133
1511.64	172.797
1515.78	161.469
1519.92	208.508
1524.05	167.322
1528.18	409.371
1532.31	197.484
1536.44	169.432
1540.56	334.037
1544.69	56.3184
1548.8	155.32
1552.92	330.631
1557.03	55.4805
1561.14	200.826
1565.25	5.30469
1569.36	28.6973
