Measurement: Raman, 514 nm, ccw, Raman Data Processed
Mineral: Baryte
Rruff sample: R050375
Ideal chemistry: BaSO_4_
Locality: unknown
Source: Eugene Schlepp
Description: Pale green tabular crystals
Measured chemistry: Ba_1.00_SO_4_
Pin_id: L01233
Orientation: Laser parallel to b* (0 1 0). Fiducial mark perpendicular to laser is parallel to -c [0 0 -1]
Raman shift (cm-1)	intensity
51.431	0
56.387	30.4945
61.341	0.290436
66.292	27.8901
71.241	395.47
76.187	1078.76
81.131	501
86.072	660.147
91.012	1002.5
95.948	1182.32
100.883	1292.12
105.815	891.676
110.744	784.876
115.671	693.577
120.596	587.653
125.519	642.993
130.439	594.855
135.356	555.96
140.271	563.616
145.184	589.942
150.094	549.11
155.002	578.133
159.908	520.987
164.811	487.72
169.711	494.085
174.61	437.072
179.505	489.675
184.399	477.885
189.29	627.689
194.178	512.072
199.064	381.474
203.948	405.923
208.829	274.106
213.708	312.427
218.585	257.549
223.459	249.687
228.33	234.286
233.199	236.809
238.066	224.869
242.93	229.483
247.792	201.556
252.651	210.277
257.508	170.258
262.363	208.98
267.215	158.761
272.064	187.356
276.912	160.381
281.756	124.822
286.598	127.653
291.438	93.882
296.276	118.504
301.111	54.5144
305.943	73.8765
310.773	79.6014
315.601	33.6738
320.426	81.063
325.248	46.7588
330.068	25.7527
334.886	73.0362
339.701	127.601
344.514	42.4451
349.324	17.6599
354.132	27.2457
358.938	27.5369
363.741	14.903
368.541	10.3935
373.339	5.36145
378.135	2.32385
382.928	38.0679
387.718	61.5369
392.506	17.0007
397.292	63.6977
402.075	32.081
406.856	10.8613
411.634	38.9067
416.41	18.3955
421.183	18.8179
425.954	141.04
430.722	177.016
435.488	409.644
440.251	1184.65
445.012	3237.29
449.77	7517.04
454.526	11566.7
459.28	3793.79
464.03	1041.99
468.779	379.35
473.525	265.874
478.268	144.55
483.009	98.3682
487.747	72.3386
492.483	62.447
497.217	59.6677
501.948	32.9273
506.676	79.3621
511.402	73.5674
516.125	7.46045
520.846	88.1936
525.565	4.84961
530.281	106.121
534.994	17.1907
539.705	17.398
544.413	59.8667
549.119	24.9902
553.822	69.1089
558.523	24.7151
563.222	87.8926
567.917	46.2112
572.611	1.92847
577.302	7.47583
581.99	49.0684
586.676	74.9932
591.359	8.60767
596.04	93.1443
600.718	75.2827
605.394	89.552
610.067	394.848
614.737	996.023
619.406	1418.16
624.071	453.334
628.734	406.797
633.395	356.938
638.053	341.522
642.708	322.842
647.361	445.11
652.012	338.227
656.66	78.9702
661.305	77.387
665.948	10.6008
670.588	49.5588
675.226	109.573
679.861	30.9106
684.494	62.7798
689.124	3.30713
693.752	50.1938
698.377	6.59082
702.999	84.3005
707.619	9.40161
712.237	8.3291
716.852	116.001
721.464	33.0552
726.074	26.2053
730.681	59.2585
735.286	60.0884
739.888	96.3408
744.488	32.1191
749.085	27.6352
753.68	44.947
758.272	72.0574
762.861	19.1743
767.448	96.2471
772.033	42.2856
776.614	14.3135
781.194	65.3147
785.77	74.2759
790.345	32.3669
794.916	26.29
799.485	1.20459
804.052	34.8213
808.616	1.66431
813.177	56.5176
817.736	43.886
822.292	37.637
826.846	42.0227
831.397	60.1001
835.945	94.8169
840.491	25.6436
845.035	56.8167
849.576	34.0029
854.114	58.7786
858.65	42.5283
863.183	60.9607
867.713	48.5579
872.241	67.6856
876.767	18.4197
881.29	2.021
885.81	46.4988
890.328	87.2107
894.843	58.884
899.356	87.3472
903.866	70.8694
908.373	163.589
912.878	115.388
917.38	92.8101
921.88	45.342
926.377	65.1169
930.872	25.2334
935.364	22.2546
939.853	32.7173
944.34	103.889
948.824	5.18335
953.306	46.7434
957.785	90.6128
962.261	146.453
966.735	315.408
971.207	473.002
975.675	847.055
980.141	3153.78
984.605	14479.9
989.066	57926.9
993.524	7672.1
997.98	1589.42
1002.43	720.78
1006.88	377.146
1011.33	296.619
1015.78	118.415
1020.22	210.894
1024.66	99.4644
1029.1	103.167
1033.53	75.8789
1037.97	0.157227
1042.4	46.4631
1046.82	31.292
1051.25	72.1653
1055.67	39.0986
1060.09	48.4617
1064.51	39.4397
1068.92	71.4287
1073.33	21.7388
1077.74	50.5596
1082.15	55.7217
1086.55	101.144
1090.95	125.427
1095.35	189.783
1099.75	866.212
1104.14	1861.7
1108.53	1142.25
1112.92	396.87
1117.31	242.609
1121.69	162.422
1126.07	200.346
1130.45	109.327
1134.82	443.505
1139.19	909.606
1143.57	288.766
1147.93	184.015
1152.3	81.3648
1156.66	121.826
1161.02	176.358
1165.38	538.943
1169.73	494.559
1174.08	172.22
1178.43	96.2004
1182.78	53.9949
1187.12	13.0791
1191.46	73.6665
1195.8	13.0991
1200.14	46.075
1204.47	53.1443
1208.8	121.713
1213.13	33.2881
1217.46	27.4197
1221.78	28.5764
1226.1	54.438
1230.42	51.6826
1234.73	91.969
1239.04	76.3152
1243.35	91.5759
1247.66	124.655
1251.97	69.0496
1256.27	78.5195
1260.57	61.0364
1264.86	55.05
1269.16	74.6248
1273.45	30.4746
1277.74	32.364
1282.03	52.8267
1286.31	98.4292
1290.59	68.1357
1294.87	87.8616
1299.14	62.6067
1303.42	23.3691
1307.69	53.1782
1311.95	2.01074
1316.22	116.304
1320.48	66.1768
1324.74	57.0772
1329	37.012
1333.26	15.5933
1337.51	10.9863
1341.76	64.9146
1346	15.6487
1350.25	20.5769
1354.49	85.3809
1358.73	69.178
1362.96	49.9727
1367.2	54.7773
1371.43	110.494
1375.66	26.1282
1379.88	26.0181
1384.11	105.633
1388.33	129.444
1392.54	82.1038
1396.76	105.719
1400.97	102.296
1405.18	80.8652
1409.39	58.3977
1413.59	53.5276
1417.8	57.469
1421.99	111.049
1426.19	102.672
1430.38	105.064
1434.58	150.139
1438.77	84.5024
1442.95	105.506
1447.13	68.6052
1451.32	123.786
1455.49	92.3635
1459.67	70.5915
1463.84	95.9473
1468.01	130.167
1472.18	35.2659
1476.35	71.1291
1480.51	79.3638
1484.67	131.221
1488.83	53.7991
1492.98	37.0627
1497.13	88.499
1501.28	0.89502
1505.43	44.2341
1509.57	6.51001
1513.71	64.7871
1517.85	86.072
1521.99	58.1702
1526.12	125.858
1530.25	145.732
1534.38	102.034
1538.5	142.686
1542.62	68.6187
1546.74	41.4722
1550.86	209.989
1554.98	103.082
1559.09	100.808
1563.2	112.228
1567.31	39.1025
