Measurement: Raman, 514 nm, ccw, Raman Data Processed
Mineral: Baryte
Rruff sample: R050342
Ideal chemistry: BaSO_4_
Locality: Palos Verdes, Los Angeles County, California, USA
Source: California Institute of Technology
Description: Light brown fragment
Measured chemistry: Ba_1.00_S_1.00_O_4_
Pin_id: L00875
Orientation: Laser parallel to c* (0 0 1). Fiducial mark perpendicular to laser is parallel to a [1 0 0]
Raman shift (cm-1)	intensity
93.48	0
98.416	143.71
103.349	114.46
108.28	167.601
113.208	94.5972
118.134	191.312
123.058	146.596
127.979	107.07
132.898	125.253
137.814	249.026
142.728	227.646
147.639	252.674
152.549	365.696
157.455	251.415
162.359	163.617
167.261	238.298
172.161	147.611
177.058	238.636
181.952	183.525
186.845	177.018
191.734	267.129
196.622	183.869
201.507	192.045
206.389	61.8413
211.269	167.154
216.147	56.8472
221.022	61.084
225.895	162.042
230.765	73.7529
235.633	113.165
240.498	70.7949
245.361	32.687
250.222	69.8062
255.08	5.28418
259.936	41.2876
264.789	127.988
269.64	37.061
274.488	140.046
279.334	90.6108
284.178	136.617
289.019	154.099
293.857	121.981
298.693	29.2109
303.527	65.2905
308.358	32.4131
313.187	93.667
318.013	77.9907
322.837	46.3984
327.659	12.3213
332.478	32.3032
337.294	60.4692
342.108	93.8003
346.92	131.752
351.729	80.522
356.535	106.595
361.34	29.7021
366.141	9.59961
370.94	2.7085
375.737	52.019
380.531	22.6084
385.323	21.0767
390.113	15.4854
394.9	44.7505
399.684	100.991
404.466	108.911
409.245	6.79883
414.022	90.1377
418.797	182.676
423.569	18.9644
428.338	107.277
433.105	112.502
437.87	186.956
442.632	310.476
447.391	985.064
452.149	2791.06
456.903	2079.78
461.655	1124.54
466.405	436.35
471.152	293.206
475.897	74.1001
480.639	130.079
485.378	135.259
490.116	98.3027
494.85	58.3579
499.582	97.4351
504.312	104.074
509.039	11.4604
513.764	166.485
518.486	71.7881
523.206	78.353
527.923	97.9639
532.638	59.0312
537.35	48.876
542.059	52.3648
546.766	19.0132
551.471	180.724
556.173	141.433
560.873	89.2017
565.57	70.2432
570.264	55.5171
574.957	190.043
579.646	67.6743
584.333	198.337
589.018	132.989
593.7	162.612
598.379	186.209
603.056	165.846
607.73	383.296
612.402	832.791
617.072	2990.24
621.739	1351.65
626.403	806.492
631.065	918.352
635.724	444.991
640.381	267.257
645.035	61.5078
649.687	46.0293
654.336	36.1943
658.983	139.681
663.627	46.7871
668.268	11.5205
672.907	117.54
677.544	77.5391
682.178	118.602
686.809	42.6816
691.438	74.6338
696.065	106.792
700.688	19.4941
705.31	188.124
709.929	14.2812
714.545	159.367
719.158	86.0518
723.77	119.697
728.378	97.7705
732.984	202.086
737.588	102.974
742.189	112.055
746.787	108.821
751.383	154.683
755.976	208.197
760.567	31.6152
765.155	129.002
769.741	136.312
774.324	111.414
778.904	97.5703
783.482	84.207
788.058	65.1894
792.631	110.515
797.201	104.337
801.769	2.48144
806.334	182.697
810.897	252.147
815.457	10.3926
820.014	87.5664
824.569	31.4219
829.122	192.857
833.671	21.6475
838.219	139.947
842.763	265.654
847.306	56.5283
851.845	126.289
856.382	58.5801
860.917	98.29
865.448	23.0635
869.978	105.72
874.505	170.278
879.029	64.7295
883.55	36.0469
888.069	104.251
892.586	108.353
897.1	39.2803
901.611	117.035
906.12	116.991
910.626	108.278
915.129	78.9023
919.63	97.54
924.129	166.357
928.625	12.5
933.118	58.0947
937.609	193.856
942.097	8.88086
946.582	36.8516
951.065	183.799
955.546	102.009
960.023	32.9863
964.499	214.349
968.971	249.022
973.441	497.366
977.909	682.511
982.374	2942.48
986.836	23047
991.295	20141.7
995.753	2103.15
1000.21	619.958
1004.66	380.975
1009.11	284.978
1013.55	270.623
1018	202.322
1022.44	191.096
1026.88	80.9228
1031.32	182.361
1035.75	160.116
1040.18	124.399
1044.61	39.0547
1049.04	41.0732
1053.46	150.9
1057.88	250.321
1062.3	23.9189
1066.71	21.3076
1071.13	61.6807
1075.54	101.918
1079.94	132.684
1084.35	43.0576
1088.75	168.432
1093.15	75.5527
1097.55	168.374
1101.94	174.788
1106.34	226.915
1110.73	128.383
1115.11	99.8477
1119.5	3.84473
1123.88	141.411
1128.26	106.724
1132.63	158.024
1137.01	112.318
1141.38	381.634
1145.75	326.275
1150.12	221.673
1154.48	170.174
1158.84	187.639
1163.2	135.852
1167.55	128.094
1171.91	14.3086
1176.26	157.068
1180.61	76.2373
1184.95	3.60547
1189.29	12.126
1193.63	51.875
1197.97	142.403
1202.31	136.031
1206.64	58.5713
1210.97	99.3916
1215.29	149.127
1219.62	115.913
1223.94	48.8975
1228.26	52.6875
1232.57	112.523
1236.89	172.293
1241.2	155.291
1245.51	94.8936
1249.81	50.9873
1254.12	195.001
1258.42	211.451
1262.72	206.454
1267.01	78.2217
1271.3	108.045
1275.59	84.6338
1279.88	175.357
1284.17	13.3565
1288.45	74.0371
1292.73	130.054
1297.01	153.096
1301.28	88.0234
1305.55	207.789
1309.82	251.587
1314.09	82.9336
1318.35	120.611
1322.61	140.231
1326.87	139.467
1331.13	263.571
1335.38	20.5195
1339.63	208.653
1343.88	127.825
1348.12	7.82519
1352.37	272.294
1356.61	12.7188
1360.85	86.6904
1365.08	125.308
1369.31	104.662
1373.54	76.2432
1377.77	67.5078
1381.99	56.749
1386.22	207.969
1390.43	227.082
1394.65	148.048
1398.87	181.697
1403.08	205.784
1407.29	69.2041
1411.49	156.209
1415.69	37.7275
1419.89	144.805
1424.09	53.8057
1428.29	134.074
1432.48	33.2754
1436.67	203.307
1440.86	127.074
1445.04	65.6533
1449.23	166.055
1453.4	91.2559
1457.58	189.227
1461.76	108.365
1465.93	38.5342
1470.1	114.77
1474.26	130.481
1478.43	150.221
1482.59	238.099
1486.75	106.579
1490.9	214.116
1495.06	31.6953
1499.21	195.409
1503.35	227.665
1507.5	206.935
1511.64	228.242
1515.78	96.8535
1519.92	57.706
1524.05	181.735
1528.18	103.256
1532.31	105.212
1536.44	51.6377
1540.56	157.262
1544.69	141.773
1548.8	161.13
1552.92	159.551
1557.03	137.922
1561.14	11.3662
1565.25	137.959
1569.36	110.169
