Measurement: Raman, 514 nm, ccw, Raman Data Processed
Mineral: Baryte
Rruff sample: R040036
Ideal chemistry: BaSO_4_
Locality: Cumbria County, England
Source: University of Arizona Mineral Museum
Description: Golden brown tabular crystal
Measured chemistry: Ba_1.00_S_1.00_O_4_; trace amounts of Pb
Pin_id: M00021
Orientation: Laser parallel to c* (0 0 1). Fiducial mark perpendicular to laser is parallel to -a [-1 0 0]
Raman shift (cm-1)	intensity
26.288	0
30.504	4.642
34.717	15.095
38.929	52.922
43.138	71.95
47.345	53.186
51.551	29.5
55.754	31.819
59.955	58.592
64.154	73.327
68.351	70.882
72.546	70.332
76.739	39.935
80.93	34.599
85.119	24.227
89.306	12.264
93.49	15.877
97.673	32.59
101.854	15.388
106.032	2.503
110.209	58.446
114.384	115.509
118.556	130.49
122.727	134.042
126.895	191.251
131.062	186.253
135.226	153.097
139.388	136.405
143.549	175.41
147.707	264.053
151.863	380.645
156.018	304.269
160.17	202.868
164.32	132.419
168.469	118.914
172.615	95.152
176.759	97.849
180.901	112.933
185.041	160.869
189.18	259.806
193.316	244.78
197.45	140.805
201.582	141.538
205.712	130.255
209.84	99.785
213.967	74.464
218.091	82.674
222.213	77.81
226.333	73.29
230.451	61.346
234.567	56.331
238.682	57.875
242.794	57.139
246.904	47.886
251.012	51.225
255.118	31.866
259.223	41.752
263.325	51.647
267.425	42.195
271.523	40.821
275.62	48.803
279.714	32.719
283.806	34.569
287.897	33.361
291.985	13.098
296.072	13.785
300.156	26.422
304.239	18.01
308.319	14.55
312.398	35.039
316.474	19.482
320.549	26.876
324.622	22.22
328.692	24.276
332.761	15.36
336.828	30.33
340.893	12.201
344.956	30.986
349.017	21.701
353.076	29.365
357.133	15.982
361.188	34.285
365.241	12.631
369.292	22.846
373.341	31.216
377.388	31.397
381.434	30.678
385.477	36.763
389.519	40.279
393.558	28.169
397.596	29.328
401.631	26.712
405.665	31.999
409.697	45.353
413.727	48.62
417.755	61.856
421.781	74.13
425.805	100.301
429.827	133.486
433.847	187.614
437.865	285.665
441.882	510.612
445.896	942.731
449.909	2230.68
453.919	3834.7
457.928	5657.71
461.935	13156.8
465.94	7239.84
469.943	2246.89
473.944	860.949
477.943	455.943
481.94	308.038
485.935	217.054
489.929	185.205
493.92	130.396
497.91	93.673
501.898	97.828
505.883	76.174
509.867	43.354
513.849	46.585
517.829	63.959
521.808	71.367
525.784	30.691
529.758	49.062
533.731	61.56
537.701	54.075
541.67	31.812
545.637	32.24
549.602	29.61
553.565	33.068
557.526	27.382
561.486	45.091
565.443	13.629
569.399	46.285
573.352	26.876
577.304	16.427
581.254	20.302
585.202	34.207
589.148	64.052
593.093	62.472
597.035	81
600.976	100.26
604.914	153.071
608.851	288.038
612.786	889.906
616.719	2390.38
620.651	1681.73
624.58	928.19
628.507	1093.53
632.433	971.184
636.357	442.671
640.279	257.27
644.199	343.532
648.117	462.284
652.034	237.508
655.948	94.714
659.861	38.891
663.772	14.065
667.681	27.195
671.588	12.493
675.493	4.728
679.397	13.788
683.298	9.822
687.198	26.154
691.096	25.322
694.992	4.727
698.886	8.904
702.779	18.949
706.669	28.943
710.558	1.244
714.445	2.5
718.33	15.688
722.214	12.022
726.095	3.299
729.975	23.335
733.852	0.938
737.728	25.193
741.603	13.66
745.475	7.819
749.345	12.739
753.214	0.165
757.081	11.021
760.946	6.357
764.809	10.665
768.671	24.944
772.53	10.19
776.388	9.597
780.244	13.421
784.098	8.289
787.951	14.795
791.801	4.851
795.65	12.882
799.497	18.89
803.342	6.858
807.186	2.819
811.027	5.255
814.867	26.532
818.705	9.356
822.541	3.123
826.375	0.718
830.208	2.525
834.039	22.183
837.868	7.91
841.695	7.449
845.521	10.132
849.344	17.469
853.166	3.99
856.986	36.129
860.804	2.73
864.621	20.705
868.436	21.026
872.248	25.539
876.06	22.382
879.869	34.352
883.677	29.86
887.482	15.475
891.287	16.051
895.089	52.318
898.889	54.843
902.688	68.282
906.485	52.87
910.28	44.008
914.074	72.078
917.865	75.218
921.655	76.893
925.443	72.191
929.23	63.741
933.014	44.329
936.797	76.919
940.578	74.501
944.358	78.105
948.135	108.411
951.911	89.052
955.685	107.706
959.458	146.292
963.228	255.718
966.997	374.241
970.764	453.45
974.529	681.812
978.293	1165.42
982.055	3332.2
985.815	26943
989.573	43099.8
993.33	8097.62
997.085	1940.49
1000.84	990.393
1004.59	593.32
1008.34	411.271
1012.09	292.363
1015.83	253.954
1019.58	253.419
1023.32	221.069
1027.06	211.174
1030.8	171.305
1034.54	89.461
1038.27	63.644
1042.01	69.855
1045.74	48.1
1049.47	74.376
1053.2	38.684
1056.93	52.103
1060.65	65.488
1064.38	41.905
1068.1	37.414
1071.82	54.973
1075.54	74.727
1079.25	125.368
1082.97	268.95
1086.68	210.574
1090.39	75.215
1094.11	72.885
1097.81	90.586
1101.52	216.323
1105.22	208.097
1108.93	75.914
1112.63	35.761
1116.33	71.636
1120.03	96.536
1123.72	147.459
1127.42	149.406
1131.11	262.379
1134.8	562.38
1138.49	1268.41
1142.18	1826.45
1145.87	1655.53
1149.55	916.629
1153.23	441.747
1156.91	250.885
1160.59	186.058
1164.27	326.237
1167.95	326.436
1171.62	182.807
1175.3	80.218
1178.97	65.537
1182.64	14.818
1186.3	3.501
1189.97	23.777
1193.63	5.152
1197.3	10.161
1200.96	15.185
1204.62	6.663
1208.27	31.261
1211.93	54.976
1215.58	17.581
1219.24	46.092
1222.89	33.482
1226.54	21.046
1230.18	13.94
1233.83	40.508
1237.47	56.859
1241.12	84.586
1244.76	30.935
1248.4	39.543
1252.04	42.841
1255.67	6.201
1259.31	49.514
1262.94	47.481
1266.57	55.894
1270.2	59.499
1273.83	42.216
1277.45	51.552
1281.08	33.861
1284.7	36.147
1288.32	1.736
1291.94	18.091
1295.56	23.633
1299.17	42.837
1302.79	15.024
1306.4	15.175
1310.01	55.28
1313.62	24.359
1317.23	39.396
1320.84	29.376
1324.44	7.636
1328.04	12.303
1331.64	2.15
1335.24	7.929
1338.84	8.494
1342.44	6.164
1346.03	21.889
1349.63	9.566
1353.22	3.783
1356.81	12.831
1360.4	18.59
1363.98	24.05
1367.57	19.479
1371.15	8.998
1374.73	6.41
1378.32	32.323
1381.89	35.149
1385.47	30.622
1389.05	5.276
1392.62	5.792
1396.19	4.162
1399.76	22.832
1403.33	32.612
1406.9	26.224
1410.46	36.546
1414.03	17.303
1417.59	20.045
1421.15	23.107
1424.71	41.717
1428.27	28.94
1431.82	47.676
1435.38	50.288
1438.93	95.819
1442.48	104.543
1446.03	115.632
1449.58	121.93
1453.13	144.983
1456.67	158.413
1460.21	137.878
1463.76	86.78
1467.3	91.801
1470.83	80.825
1474.37	38.766
1477.91	41.622
1481.44	35.507
1484.97	49.552
1488.5	36.721
1492.03	8.026
1495.56	4.612
1499.08	28.867
1502.61	0
