Measurement: Raman, 514 nm, ccw, Raman Data Processed
Mineral: Baryte
Rruff sample: R040036
Ideal chemistry: BaSO_4_
Locality: Cumbria County, England
Source: University of Arizona Mineral Museum
Description: Golden brown tabular crystal
Measured chemistry: Ba_1.00_S_1.00_O_4_; trace amounts of Pb
Pin_id: M00019
Orientation: Laser parallel to b* (0 1 0). Fiducial mark perpendicular to laser is parallel to c [0 0 1]
Raman shift (cm-1)	intensity
26.288	0
30.504	18.857
34.717	19.523
38.929	7.81
43.138	62.71
47.345	17.694
51.551	56.288
55.754	56.638
59.955	42.742
64.154	52.855
68.351	14.106
72.546	34.011
76.739	17.903
80.93	0.341
85.119	12.542
89.306	29.65
93.49	7.933
97.673	32.427
101.854	3.511
106.032	20.033
110.209	18.714
114.384	110.441
118.556	131.414
122.727	70.221
126.895	61.329
131.062	96.572
135.226	66.648
139.388	53.176
143.549	72.303
147.707	114.159
151.863	179.736
156.018	179.234
160.17	123.522
164.32	67.95
168.469	29.778
172.615	25.629
176.759	53.462
180.901	98.658
185.041	248.77
189.18	461.913
193.316	339.717
197.45	155.57
201.582	89.256
205.712	71.555
209.84	39.749
213.967	16.504
218.091	36.713
222.213	17.036
226.333	15.549
230.451	30.427
234.567	19.679
238.682	7.818
242.794	15.301
246.904	25.182
251.012	22.022
255.118	19.562
259.223	31.565
263.325	21.24
267.425	31.049
271.523	25.719
275.62	36.175
279.714	15.723
283.806	13.107
287.897	24.256
291.985	24.427
296.072	6.689
300.156	20.887
304.239	32.027
308.319	19.111
312.398	23.133
316.474	25.723
320.549	1.109
324.622	8.371
328.692	21.349
332.761	20.98
336.828	21.509
340.893	17.945
344.956	30.298
349.017	31.58
353.076	20.801
357.133	17.763
361.188	14.395
365.241	0.915
369.292	14.541
373.341	20.833
377.388	15.383
381.434	24.808
385.477	18.172
389.519	18.575
393.558	31.047
397.596	28.442
401.631	20.876
405.665	41.34
409.697	42.809
413.727	51.198
417.755	62.605
421.781	75.063
425.805	107.448
429.827	180.76
433.847	336.025
437.865	646.467
441.882	1417.7
445.896	3493.84
449.909	8709.28
453.919	9838.55
457.928	3880.81
461.935	1417.05
465.94	610.3
469.943	314.301
473.944	189.586
477.943	137.762
481.94	95.945
485.935	87.128
489.929	81.482
493.92	49.852
497.91	51.183
501.898	44.368
505.883	57.544
509.867	62.62
513.849	63.826
517.829	44.216
521.808	53.364
525.784	64.717
529.758	60.1
533.731	45.466
537.701	47.9
541.67	22.325
545.637	26.807
549.602	25.154
553.565	28.603
557.526	23.08
561.486	29.603
565.443	26.033
569.399	37.658
573.352	16.7
577.304	12.23
581.254	31.818
585.202	5.31
589.148	21.746
593.093	15.358
597.035	27.116
600.976	56.043
604.914	89.798
608.851	192.771
612.786	697.315
616.719	1477.13
620.651	794.719
624.58	422.474
628.507	475.777
632.433	454.377
636.357	389.787
640.279	535.084
644.199	1130.61
648.117	1301.26
652.034	524.684
655.948	211.845
659.861	88.027
663.772	57.945
667.681	30.054
671.588	20.456
675.493	12.738
679.397	17.789
683.298	9.111
687.198	22.348
691.096	34.382
694.992	4.344
698.886	9.574
702.779	14.065
706.669	4.064
710.558	17.076
714.445	1.743
718.33	2.516
722.214	4.263
726.095	0.966
729.975	14.672
733.852	10.336
737.728	1.998
741.603	10.603
745.475	15.784
749.345	7.779
753.214	7.724
757.081	1.733
760.946	7.842
764.809	2.546
768.671	12.092
772.53	4.762
776.388	3.54
780.244	9.819
784.098	6.069
787.951	1.713
791.801	12.473
795.65	6.637
799.497	9.227
803.342	14.873
807.186	2.955
811.027	14.012
814.867	9.036
818.705	10.952
822.541	8.99
826.375	0.921
830.208	4.866
834.039	12.286
837.868	24.423
841.695	4.358
845.521	19.003
849.344	3.319
853.166	14.935
856.986	25.626
860.804	23.24
864.621	14.888
868.436	10.685
872.248	1.791
876.06	10.534
879.869	4.231
883.677	4.337
887.482	34.213
891.287	58.495
895.089	47.959
898.889	57.21
902.688	53.726
906.485	49.804
910.28	48.733
914.074	34.492
917.865	35.212
921.655	5.676
925.443	30.933
929.23	45.571
933.014	46.386
936.797	62.386
940.578	60.217
944.358	58.066
948.135	52.617
951.911	77.282
955.685	97.917
959.458	146.584
963.228	255.484
966.997	347.38
970.764	492.086
974.529	726.506
978.293	1419.47
982.055	4773.51
985.815	41969.4
989.573	29997.5
993.33	5181.65
997.085	1454.8
1000.84	823.972
1004.59	532.175
1008.34	355.39
1012.09	257.656
1015.83	194.918
1019.58	180.218
1023.32	134.594
1027.06	131.003
1030.8	103.45
1034.54	85.934
1038.27	56.454
1042.01	48.008
1045.74	55.6
1049.47	32.228
1053.2	26.889
1056.93	24.587
1060.65	42.325
1064.38	19.1
1068.1	30.91
1071.82	43.765
1075.54	39.669
1079.25	65.365
1082.97	75.606
1086.68	85.647
1090.39	112.73
1094.11	194.856
1097.81	537.021
1101.52	1448.23
1105.22	1545.48
1108.93	596.766
1112.63	276.094
1116.33	128.459
1120.03	115.859
1123.72	108.293
1127.42	123.758
1131.11	315.257
1134.8	1073.79
1138.49	1664.35
1142.18	972.948
1145.87	553.577
1149.55	314.236
1153.23	258.925
1156.91	245.645
1160.59	435.395
1164.27	1038.17
1167.95	1019.98
1171.62	467.813
1175.3	247.763
1178.97	135.802
1182.64	64.709
1186.3	32.639
1189.97	48.591
1193.63	19.565
1197.3	8.785
1200.96	37.913
1204.62	29.312
1208.27	46.167
1211.93	28.623
1215.58	26.681
1219.24	28.405
1222.89	10.963
1226.54	36.237
1230.18	40.911
1233.83	18.57
1237.47	37.903
1241.12	31.091
1244.76	31.454
1248.4	31.764
1252.04	44.981
1255.67	24.263
1259.31	34.487
1262.94	31.966
1266.57	33.212
1270.2	57.479
1273.83	41.992
1277.45	20.268
1281.08	26.556
1284.7	13.855
1288.32	16.162
1291.94	27.604
1295.56	14.869
1299.17	19.24
1302.79	3.539
1306.4	1.34
1310.01	4.843
1313.62	16.014
1317.23	26.179
1320.84	23.331
1324.44	7.473
1328.04	5.594
1331.64	0.302
1335.24	10.223
1338.84	3.18
1342.44	27.16
1346.03	2.169
1349.63	5.798
1353.22	10.741
1356.81	2.336
1360.4	0.432
1363.98	4.547
1367.57	15.32
1371.15	5.182
1374.73	0.141
1378.32	8.209
1381.89	0.517
1385.47	15.818
1389.05	20.111
1392.62	14.391
1396.19	11.663
1399.76	10.921
1403.33	26.167
1406.9	27.081
1410.46	13.304
1414.03	17.524
1417.59	0.758
1421.15	23.635
1424.71	18.558
1428.27	33.771
1431.82	43.487
1435.38	66.069
1438.93	80.442
1442.48	88.864
1446.03	120.328
1449.58	120.265
1453.13	116.971
1456.67	102.119
1460.21	110.043
1463.76	97.49
1467.3	71.06
1470.83	48.138
1474.37	33.183
1477.91	48.162
1481.44	37.158
1484.97	40.271
1488.5	32.509
1492.03	27.284
1495.56	31.463
1499.08	1.525
1502.61	0
