Measurement: Raman, 514 nm, ccw, Raman Data Processed
Mineral: Baryte
Rruff sample: R040036
Ideal chemistry: BaSO_4_
Locality: Cumbria County, England
Source: University of Arizona Mineral Museum
Description: Golden brown tabular crystal
Measured chemistry: Ba_1.00_S_1.00_O_4_; trace amounts of Pb
Pin_id: M00028
Orientation: Laser parallel to -a* (-1 0 0). Fiducial mark perpendicular to laser is parallel to -b [0 -1 0]
Raman shift (cm-1)	intensity
26.288	0
30.504	23.831
34.717	36.098
38.929	62.94
43.138	66.135
47.345	54.367
51.551	57.696
55.754	94.261
59.955	158.73
64.154	169.32
68.351	101.878
72.546	90.707
76.739	57.772
80.93	0.005
85.119	35.729
89.306	60.404
93.49	43.01
97.673	36.466
101.854	129.053
106.032	291.067
110.209	446.477
114.384	660.109
118.556	825.834
122.727	955.552
126.895	1001.23
131.062	1086.75
135.226	924.878
139.388	832.782
143.549	802.774
147.707	1023.87
151.863	1057.06
156.018	783.351
160.17	690.748
164.32	699.25
168.469	718.859
172.615	605.576
176.759	621.999
180.901	645.316
185.041	562.062
189.18	624.203
193.316	697.741
197.45	634.622
201.582	473.922
205.712	460.821
209.84	531.975
213.967	504.799
218.091	379.466
222.213	465.031
226.333	516.328
230.451	424.931
234.567	302.406
238.682	416.426
242.794	454.299
246.904	308.019
251.012	283.435
255.118	413.012
259.223	392.66
263.325	303.378
267.425	294.166
271.523	404.024
275.62	364.954
279.714	224.96
283.806	301.049
287.897	360.224
291.985	293.487
296.072	172.836
300.156	245.272
304.239	297.794
308.319	195.402
312.398	153.097
316.474	243.877
320.549	267.742
324.622	152.685
328.692	149.657
332.761	223.659
336.828	269.701
340.893	160.792
344.956	97.943
349.017	217.164
353.076	233.486
357.133	118.923
361.188	38.403
365.241	168.981
369.292	191.661
373.341	97.488
377.388	57.395
381.434	164.456
385.477	224.695
389.519	115.466
393.558	71.095
397.596	167.794
401.631	208.617
405.665	76.524
409.697	6.832
413.727	112.938
417.755	207.271
421.781	161.596
425.805	69.391
429.827	196.035
433.847	397.667
437.865	505.41
441.882	791.233
445.896	1931.16
449.909	5230.18
453.919	10235.3
457.928	5678.51
461.935	2417.81
465.94	1285.21
469.943	664.691
473.944	327.265
477.943	107.938
481.94	168.701
485.935	198.556
489.929	138.493
493.92	2.482
497.91	60.627
501.898	181.812
505.883	105.069
509.867	19.414
513.849	6.169
517.829	162.319
521.808	220.877
525.784	81.6
529.758	35.712
533.731	65.49
537.701	170.299
541.67	124.63
545.637	10.292
549.602	19.347
553.565	142.772
557.526	172.414
561.486	71.534
565.443	33.084
569.399	60.115
573.352	171.362
577.304	182.626
581.254	99.875
585.202	9.26
589.148	148.608
593.093	234.221
597.035	210.641
600.976	128.01
604.914	259.259
608.851	702.73
612.786	1685.04
616.719	3915.95
620.651	3585.84
624.58	1799.33
628.507	1179.86
632.433	951.937
636.357	476.313
640.279	218.84
644.199	233.313
648.117	375.859
652.034	304.371
655.948	122.125
659.861	28.616
663.772	145.469
667.681	212.934
671.588	178.037
675.493	16.448
679.397	11.498
683.298	96.552
687.198	184.159
691.096	174.83
694.992	22.07
698.886	61.658
702.779	68.349
706.669	179.209
710.558	130.228
714.445	39.081
718.33	35.992
722.214	39.86
726.095	191.682
729.975	182.45
733.852	27.949
737.728	32.389
741.603	8.209
745.475	172.761
749.345	161.261
753.214	45.203
757.081	49.999
760.946	4.687
764.809	187.571
768.671	240.777
772.53	165.934
776.388	48.031
780.244	14.214
784.098	114.228
787.951	222.195
791.801	205.105
795.65	69.972
799.497	6.2
803.342	63.58
807.186	212.227
811.027	243.938
814.867	120.136
818.705	20.524
822.541	4.173
826.375	125.599
830.208	178.688
834.039	163.467
837.868	77.337
841.695	0.194
845.521	50.293
849.344	235.581
853.166	289.833
856.986	274.121
860.804	118.345
864.621	63.487
868.436	95.686
872.248	143.618
876.06	251.811
879.869	202.891
883.677	43.232
887.482	20.642
891.287	124.657
895.089	324.995
898.889	315.77
902.688	212.231
906.485	83.321
910.28	50.869
914.074	129.097
917.865	290.208
921.655	310.318
925.443	208.409
929.23	60.531
933.014	71.363
936.797	179.126
940.578	303.271
944.358	353.424
948.135	235.597
951.911	116.789
955.685	52.603
959.458	173.526
963.228	463.779
966.997	726.508
970.764	693.81
974.529	758.929
978.293	1031.15
982.055	2923.55
985.815	16935
989.573	59059.4
993.33	11313.9
997.085	2602.45
1000.84	1159.04
1004.59	747.026
1008.34	505.89
1012.09	544.57
1015.83	533.281
1019.58	469.84
1023.32	298.681
1027.06	151.478
1030.8	151.401
1034.54	296.269
1038.27	329.506
1042.01	319.51
1045.74	244.464
1049.47	151.747
1053.2	99.872
1056.93	271.93
1060.65	248.477
1064.38	308.56
1068.1	329.24
1071.82	310.373
1075.54	262.525
1079.25	398.446
1082.97	1064.64
1086.68	1129.86
1090.39	724.651
1094.11	591.44
1097.81	591.035
1101.52	967.543
1105.22	1713.9
1108.93	906.28
1112.63	478.738
1116.33	430.175
1120.03	391.631
1123.72	284.145
1127.42	104.977
1131.11	17.527
1134.8	60.005
1138.49	147.426
1142.18	346.041
1145.87	404.513
1149.55	246.983
1153.23	16.58
1156.91	39.79
1160.59	19.69
1164.27	30.747
1167.95	121.074
1171.62	288.412
1175.3	343.979
1178.97	282.559
1182.64	100.796
1186.3	24
1189.97	16.18
1193.63	47.969
1197.3	154.376
1200.96	331.856
1204.62	354.92
1208.27	299.169
1211.93	253.822
1215.58	84.821
1219.24	15.157
1222.89	13.416
1226.54	125.617
1230.18	331.187
1233.83	360.242
1237.47	399.269
1241.12	330.157
1244.76	119.961
1248.4	81.961
1252.04	42.61
1255.67	92.162
1259.31	98.877
1262.94	195.523
1266.57	432.808
1270.2	387.501
1273.83	290.969
1277.45	162.26
1281.08	69.959
1284.7	68.764
1288.32	111.996
1291.94	231.709
1295.56	376.896
1299.17	384.188
1302.79	309.847
1306.4	238.706
1310.01	100.574
1313.62	77.038
1317.23	10.547
1320.84	116.602
1324.44	266.175
1328.04	390.667
1331.64	415.509
1335.24	376.835
1338.84	307.092
1342.44	181.531
1346.03	56.659
1349.63	17.8
1353.22	35.816
1356.81	104.784
1360.4	238.418
1363.98	370.142
1367.57	392.403
1371.15	339.797
1374.73	282.504
1378.32	222.053
1381.89	110.747
1385.47	30.747
1389.05	42.123
1392.62	82.576
1396.19	227.001
1399.76	355.24
1403.33	443.467
1406.9	468.064
1410.46	341.377
1414.03	293.797
1417.59	133.653
1421.15	76.011
1424.71	45.143
1428.27	101.778
1431.82	191.621
1435.38	353.048
1438.93	535.968
1442.48	628.762
1446.03	683.772
1449.58	593.765
1453.13	564.179
1456.67	374.532
1460.21	318.213
1463.76	221.902
1467.3	142.035
1470.83	218.786
1474.37	267.881
1477.91	426.963
1481.44	474.39
1484.97	496.48
1488.5	525.25
1492.03	427.908
1495.56	282.468
1499.08	158.74
1502.61	10.847
