Measurement: Raman, 514 nm, ccw, Raman Data Processed
Mineral: Baryte
Rruff sample: R040036
Ideal chemistry: BaSO_4_
Locality: Cumbria County, England
Source: University of Arizona Mineral Museum
Description: Golden brown tabular crystal
Measured chemistry: Ba_1.00_S_1.00_O_4_; trace amounts of Pb
Pin_id: M00021
Orientation: Laser parallel to c* (0 0 1). Fiducial mark perpendicular to laser is parallel to -a [-1 0 0]
Raman shift (cm-1)	intensity
26.288	0
30.504	19.077
34.717	42.928
38.929	36.396
43.138	48.314
47.345	62.414
51.551	64.067
55.754	99.9
59.955	102.123
64.154	90.84
68.351	70.641
72.546	71.145
76.739	37.543
80.93	14.034
85.119	37.507
89.306	5.142
93.49	29.876
97.673	2.713
101.854	11.38
106.032	31.759
110.209	46.44
114.384	130.23
118.556	281.98
122.727	136.436
126.895	126.715
131.062	160.766
135.226	135.279
139.388	122.361
143.549	133.399
147.707	242.016
151.863	338.892
156.018	278.486
160.17	196.887
164.32	119.295
168.469	94.683
172.615	95.574
176.759	111.701
180.901	116.631
185.041	175.605
189.18	315.831
193.316	251.241
197.45	147.906
201.582	110.681
205.712	119.938
209.84	93.407
213.967	62.318
218.091	59.688
222.213	71.692
226.333	59.495
230.451	58.889
234.567	39.384
238.682	73.327
242.794	42.468
246.904	37.377
251.012	57.557
255.118	49.392
259.223	40.674
263.325	49.51
267.425	54.672
271.523	40.73
275.62	21.718
279.714	11.64
283.806	21.501
287.897	23.308
291.985	33.064
296.072	28.775
300.156	21.437
304.239	26.052
308.319	16.623
312.398	23.15
316.474	37.636
320.549	36.068
324.622	16.474
328.692	31.766
332.761	29.95
336.828	35.035
340.893	21.034
344.956	34.958
349.017	41.818
353.076	24.625
357.133	33.387
361.188	29.919
365.241	32.748
369.292	29.67
373.341	24.99
377.388	34.323
381.434	35.616
385.477	26.076
389.519	24.395
393.558	40.757
397.596	37.286
401.631	40.623
405.665	45.031
409.697	16.505
413.727	24.932
417.755	58.189
421.781	46.467
425.805	85.761
429.827	102.066
433.847	180.441
437.865	243.808
441.882	422.073
445.896	848.309
449.909	1940.51
453.919	3198.69
457.928	4852.03
461.935	11105.4
465.94	5664.8
469.943	1738.08
473.944	670.44
477.943	388.851
481.94	259.255
485.935	179.625
489.929	123.136
493.92	100.61
497.91	102.001
501.898	68.562
505.883	72.721
509.867	58.621
513.849	42.217
517.829	52.801
521.808	45.425
525.784	30.09
529.758	63.905
533.731	42.516
537.701	34.116
541.67	20.893
545.637	27.568
549.602	33.235
553.565	15.861
557.526	35.602
561.486	18.377
565.443	25.166
569.399	19.076
573.352	4.825
577.304	3.491
581.254	5.843
585.202	12.779
589.148	26.927
593.093	37.985
597.035	58.471
600.976	49.24
604.914	98.482
608.851	183.264
612.786	543.143
616.719	1533.82
620.651	1081.6
624.58	676.327
628.507	887.302
632.433	832.157
636.357	387.847
640.279	282.458
644.199	401.166
648.117	534.735
652.034	254.378
655.948	81.135
659.861	49.654
663.772	29.324
667.681	18.813
671.588	13.279
675.493	10.73
679.397	4.314
683.298	10.868
687.198	13.315
691.096	17.98
694.992	0.345
698.886	1.288
702.779	1.159
706.669	3.332
710.558	0.412
714.445	4.637
718.33	12.884
722.214	6.936
726.095	11.781
729.975	15.341
733.852	6.359
737.728	1.093
741.603	5.964
745.475	3.019
749.345	3.572
753.214	5.506
757.081	2.591
760.946	17.287
764.809	11.858
768.671	3.037
772.53	0.244
776.388	6.431
780.244	3.27
784.098	5.992
787.951	14.692
791.801	7.63
795.65	7.019
799.497	5.351
803.342	6.253
807.186	7.785
811.027	5.084
814.867	8.632
818.705	2.897
822.541	10.495
826.375	5.943
830.208	16.379
834.039	0.255
837.868	2.953
841.695	9.654
845.521	19.489
849.344	9.676
853.166	6.06
856.986	16.263
860.804	13.678
864.621	10.575
868.436	4.312
872.248	8.347
876.06	26.887
879.869	18.894
883.677	24.308
887.482	0.234
891.287	28.741
895.089	30.8
898.889	28.957
902.688	37.703
906.485	14.731
910.28	32.726
914.074	34.859
917.865	49.996
921.655	33.051
925.443	42.231
929.23	39.09
933.014	88.272
936.797	64.29
940.578	72.477
944.358	56.673
948.135	73.874
951.911	93.979
955.685	97.052
959.458	132.231
963.228	183.409
966.997	314.357
970.764	345.565
974.529	531.746
978.293	939.735
982.055	2665.56
985.815	21413.8
989.573	35281
993.33	6359.35
997.085	1472.7
1000.84	721.072
1004.59	451.392
1008.34	312.667
1012.09	268.889
1015.83	202.237
1019.58	190.222
1023.32	179.622
1027.06	193.146
1030.8	166.842
1034.54	101.26
1038.27	61.85
1042.01	71.467
1045.74	43.11
1049.47	46.78
1053.2	51.626
1056.93	65.182
1060.65	30.962
1064.38	24.382
1068.1	18.494
1071.82	50.31
1075.54	42.234
1079.25	87.092
1082.97	187.972
1086.68	113.872
1090.39	52.8
1094.11	53.751
1097.81	89.725
1101.52	191.728
1105.22	219.783
1108.93	97.831
1112.63	49.91
1116.33	86.022
1120.03	81.16
1123.72	97.319
1127.42	180.5
1131.11	315.702
1134.8	706.926
1138.49	1546.17
1142.18	2223.43
1145.87	2071.72
1149.55	1076.03
1153.23	539.512
1156.91	328.863
1160.59	238.427
1164.27	379.817
1167.95	392.222
1171.62	206.923
1175.3	117.526
1178.97	65.373
1182.64	12.911
1186.3	5.375
1189.97	22.852
1193.63	13.342
1197.3	19.863
1200.96	42.505
1204.62	37.655
1208.27	38.621
1211.93	31.169
1215.58	19.746
1219.24	33.623
1222.89	42.242
1226.54	44.804
1230.18	31.617
1233.83	41.573
1237.47	59.199
1241.12	64.127
1244.76	40.29
1248.4	56.201
1252.04	10.815
1255.67	26.396
1259.31	29.243
1262.94	17.848
1266.57	27.696
1270.2	22.675
1273.83	20.066
1277.45	14.66
1281.08	12.221
1284.7	14.794
1288.32	33.558
1291.94	1.15
1295.56	14.665
1299.17	1.813
1302.79	0.321
1306.4	4.832
1310.01	2.395
1313.62	17.016
1317.23	23.414
1320.84	26.789
1324.44	6.095
1328.04	4.428
1331.64	9.74
1335.24	20.006
1338.84	21.166
1342.44	4.394
1346.03	15.6
1349.63	5.786
1353.22	9.947
1356.81	7.91
1360.4	11.787
1363.98	8.016
1367.57	14.452
1371.15	37.546
1374.73	9.268
1378.32	3.896
1381.89	32.405
1385.47	2.894
1389.05	23.365
1392.62	6.18
1396.19	30.077
1399.76	42.246
1403.33	10.266
1406.9	21.865
1410.46	17.076
1414.03	1.624
1417.59	10.429
1421.15	27.031
1424.71	25.118
1428.27	47.595
1431.82	36.238
1435.38	40.459
1438.93	49.581
1442.48	79.651
1446.03	90.798
1449.58	87.746
1453.13	114.715
1456.67	107.065
1460.21	109.7
1463.76	90.741
1467.3	74.815
1470.83	47.872
1474.37	46.031
1477.91	60.204
1481.44	56.416
1484.97	65.739
1488.5	22.163
1492.03	34.741
1495.56	15.567
1499.08	3.532
1502.61	0
