Measurement: Raman, 514 nm, ccw, Raman Data Processed
Mineral: Baryte
Rruff sample: R040036
Ideal chemistry: BaSO_4_
Locality: Cumbria County, England
Source: University of Arizona Mineral Museum
Description: Golden brown tabular crystal
Measured chemistry: Ba_1.00_S_1.00_O_4_; trace amounts of Pb
Pin_id: M00019
Orientation: Laser parallel to b* (0 1 0). Fiducial mark perpendicular to laser is parallel to c [0 0 1]
Raman shift (cm-1)	intensity
26.288	0
30.504	1.171
34.717	46.357
38.929	32.815
43.138	56.006
47.345	100.084
51.551	91.92
55.754	130.581
59.955	121.148
64.154	98.589
68.351	84.703
72.546	39.192
76.739	6.524
80.93	9.31
85.119	2.063
89.306	13.487
93.49	24.063
97.673	33.824
101.854	20.026
106.032	18.452
110.209	57.163
114.384	76.982
118.556	115.144
122.727	128.622
126.895	106.881
131.062	128.849
135.226	116.384
139.388	91.779
143.549	83.099
147.707	117.574
151.863	190.881
156.018	206.385
160.17	170.651
164.32	93.916
168.469	78.018
172.615	71.008
176.759	89.634
180.901	143.843
185.041	278.811
189.18	470.737
193.316	371.222
197.45	147.836
201.582	100.95
205.712	102.317
209.84	64.852
213.967	81.778
218.091	58.279
222.213	78.188
226.333	49.795
230.451	67.084
234.567	49.673
238.682	51.316
242.794	48.209
246.904	30.432
251.012	41.128
255.118	41.832
259.223	28.81
263.325	44.226
267.425	39.982
271.523	55.83
275.62	48.483
279.714	42.146
283.806	43.708
287.897	29.021
291.985	38.227
296.072	25.684
300.156	28.09
304.239	27.445
308.319	24.75
312.398	41.986
316.474	29.923
320.549	38.837
324.622	26.644
328.692	12.617
332.761	8.471
336.828	18.219
340.893	24.869
344.956	26.435
349.017	26.924
353.076	27.327
357.133	25.484
361.188	6.564
365.241	12.539
369.292	14.59
373.341	25.42
377.388	20.38
381.434	28.203
385.477	31.082
389.519	40.02
393.558	40.82
397.596	41.735
401.631	42.495
405.665	43.215
409.697	34.21
413.727	46.145
417.755	45.146
421.781	62.041
425.805	88.856
429.827	150.753
433.847	269.573
437.865	535.335
441.882	1107.06
445.896	2798.72
449.909	6771.48
453.919	6912.12
457.928	2729.72
461.935	1015.45
465.94	437.073
469.943	253.755
473.944	135.304
477.943	85.919
481.94	68.543
485.935	64.186
489.929	47.942
493.92	42.644
497.91	42.395
501.898	17.205
505.883	22.872
509.867	47.595
513.849	37.326
517.829	48.098
521.808	33.947
525.784	23.792
529.758	20.729
533.731	44.674
537.701	0.624
541.67	20.549
545.637	10.493
549.602	21.572
553.565	29.582
557.526	45.56
561.486	6.78
565.443	17.788
569.399	16.784
573.352	4.976
577.304	7.998
581.254	30.037
585.202	35.635
589.148	22.67
593.093	7.778
597.035	11.32
600.976	26.324
604.914	70.457
608.851	134.697
612.786	566.027
616.719	1089.05
620.651	567.614
624.58	363.838
628.507	415.834
632.433	395.412
636.357	367.375
640.279	542.323
644.199	1113.76
648.117	1211.8
652.034	489.036
655.948	187.973
659.861	86.97
663.772	50.049
667.681	10.912
671.588	23.88
675.493	25.852
679.397	21.635
683.298	32.075
687.198	0.052
691.096	6.062
694.992	14.819
698.886	4.559
702.779	10.492
706.669	6.368
710.558	4.986
714.445	10.641
718.33	16.485
722.214	1.895
726.095	4.699
729.975	1.738
733.852	10.83
737.728	2.697
741.603	6.597
745.475	7.768
749.345	1.318
753.214	14.093
757.081	11.522
760.946	13.832
764.809	1.156
768.671	12.544
772.53	13.722
776.388	16.965
780.244	12.189
784.098	16.384
787.951	6.447
791.801	4.693
795.65	16.812
799.497	0.089
803.342	8.985
807.186	2.96
811.027	0.074
814.867	6.088
818.705	1.944
822.541	14.027
826.375	23.918
830.208	5.769
834.039	13.663
837.868	9.479
841.695	29.171
845.521	16.968
849.344	37.643
853.166	9.6
856.986	24.15
860.804	46.779
864.621	26.992
868.436	1.628
872.248	25.329
876.06	1.541
879.869	9.839
883.677	0.481
887.482	12.056
891.287	49.47
895.089	61.769
898.889	56.169
902.688	53.537
906.485	29.857
910.28	48.239
914.074	53.882
917.865	23.532
921.655	20.68
925.443	21.027
929.23	42.558
933.014	59.199
936.797	75.721
940.578	61.242
944.358	54.828
948.135	50.47
951.911	64.068
955.685	97.698
959.458	103.851
963.228	233.495
966.997	242.891
970.764	399.639
974.529	553.172
978.293	1166.95
982.055	4077.56
985.815	35102.4
989.573	20829.8
993.33	3633.67
997.085	1108.52
1000.84	630.394
1004.59	429.288
1008.34	286.17
1012.09	204.723
1015.83	175.114
1019.58	143.092
1023.32	118.081
1027.06	90.106
1030.8	95.156
1034.54	53.232
1038.27	67.334
1042.01	68.461
1045.74	50.617
1049.47	20.796
1053.2	24.998
1056.93	22.229
1060.65	9.486
1064.38	11.773
1068.1	5.085
1071.82	34.426
1075.54	29.802
1079.25	21.21
1082.97	79.663
1086.68	66.133
1090.39	90.63
1094.11	118.161
1097.81	405.726
1101.52	1067.32
1105.22	1072.95
1108.93	429.602
1112.63	216.281
1116.33	106.988
1120.03	99.722
1123.72	112.483
1127.42	147.27
1131.11	339.079
1134.8	1088.96
1138.49	1642.82
1142.18	1005.7
1145.87	605.614
1149.55	304.554
1153.23	240.516
1156.91	247.503
1160.59	449.54
1164.27	1008.57
1167.95	918.622
1171.62	468.696
1175.3	199.818
1178.97	122.978
1182.64	82.096
1186.3	49.23
1189.97	45.38
1193.63	32.726
1197.3	35.907
1200.96	9.371
1204.62	23.938
1208.27	28.829
1211.93	2.308
1215.58	46.073
1219.24	32.682
1222.89	24.032
1226.54	29.781
1230.18	35.469
1233.83	14.227
1237.47	52.628
1241.12	34.922
1244.76	23.429
1248.4	11.743
1252.04	38.374
1255.67	29.759
1259.31	14.074
1262.94	4.515
1266.57	50.072
1270.2	3.568
1273.83	33.986
1277.45	2.339
1281.08	15.688
1284.7	19.147
1288.32	2.285
1291.94	30.067
1295.56	9.472
1299.17	23.798
1302.79	0.087
1306.4	21.356
1310.01	19.61
1313.62	20.851
1317.23	26.078
1320.84	25.297
1324.44	11.491
1328.04	2.333
1331.64	13.82
1335.24	6.055
1338.84	12.962
1342.44	11.091
1346.03	13.863
1349.63	1.159
1353.22	17.84
1356.81	11.863
1360.4	16.092
1363.98	6.028
1367.57	13.081
1371.15	6.037
1374.73	2.822
1378.32	11.055
1381.89	0.281
1385.47	9.557
1389.05	12.867
1392.62	31.164
1396.19	0.552
1399.76	8.673
1403.33	9.917
1406.9	17.035
1410.46	16.268
1414.03	3.764
1417.59	11.041
1421.15	34.632
1424.71	37.493
1428.27	20.782
1431.82	51.197
1435.38	60.008
1438.93	78.433
1442.48	81.522
1446.03	81.07
1449.58	67.872
1453.13	99.735
1456.67	104.01
1460.21	88.206
1463.76	82.936
1467.3	61.897
1470.83	57.949
1474.37	49.965
1477.91	32.917
1481.44	56.893
1484.97	29.991
1488.5	41.153
1492.03	29.406
1495.56	0.827
1499.08	16.337
1502.61	0
