Measurement: Raman, 514 nm, ccw, Raman Data Processed
Mineral: Baryte
Rruff sample: R040036
Ideal chemistry: BaSO_4_
Locality: Cumbria County, England
Source: University of Arizona Mineral Museum
Description: Golden brown tabular crystal
Measured chemistry: Ba_1.00_S_1.00_O_4_; trace amounts of Pb
Pin_id: M00019
Orientation: Laser parallel to b* (0 1 0). Fiducial mark perpendicular to laser is parallel to c [0 0 1]
Raman shift (cm-1)	intensity
26.288	0
30.504	19.385
34.717	26.591
38.929	23.668
43.138	39.982
47.345	33.187
51.551	21.59
55.754	11.14
59.955	24.717
64.154	33.241
68.351	53.688
72.546	59.809
76.739	50.153
80.93	54.122
85.119	6.947
89.306	18.641
93.49	23.464
97.673	47.102
101.854	40.417
106.032	7.74
110.209	50.786
114.384	87.223
118.556	57.682
122.727	49.983
126.895	62.006
131.062	48.585
135.226	39.738
139.388	50.011
143.549	46.678
147.707	71.759
151.863	160.378
156.018	125.542
160.17	74.699
164.32	46.83
168.469	26.67
172.615	25.593
176.759	11.475
180.901	38.442
185.041	148.942
189.18	238.007
193.316	142.615
197.45	70.018
201.582	40.492
205.712	21.859
209.84	24.404
213.967	23.955
218.091	17.71
222.213	13.483
226.333	23.152
230.451	13.707
234.567	13.375
238.682	22.218
242.794	13.887
246.904	11.105
251.012	19.072
255.118	9.66
259.223	16.34
263.325	30.464
267.425	24.533
271.523	6.412
275.62	18.222
279.714	11.017
283.806	21.768
287.897	4.438
291.985	2.076
296.072	5.754
300.156	12.242
304.239	13.981
308.319	18.245
312.398	7.036
316.474	1.283
320.549	11.426
324.622	18.409
328.692	7.534
332.761	12.788
336.828	7.975
340.893	6.901
344.956	14.162
349.017	20.14
353.076	22.862
357.133	17.588
361.188	12.151
365.241	10.436
369.292	1.783
373.341	11.192
377.388	20.611
381.434	4.997
385.477	23.441
389.519	27.879
393.558	33.101
397.596	42.465
401.631	43.399
405.665	35.315
409.697	47.897
413.727	43.465
417.755	58.729
421.781	77.025
425.805	118.389
429.827	215.816
433.847	381.228
437.865	737.53
441.882	1549.79
445.896	3715.09
449.909	9663.41
453.919	12292.8
457.928	4747.09
461.935	1639.31
465.94	730.613
469.943	361.963
473.944	244.244
477.943	160.601
481.94	127.868
485.935	105.97
489.929	70.266
493.92	67.708
497.91	78.001
501.898	73.287
505.883	68.581
509.867	70.772
513.849	63.138
517.829	83.458
521.808	64.842
525.784	68.104
529.758	60.516
533.731	55.026
537.701	38.455
541.67	34.909
545.637	32.363
549.602	27.845
553.565	38.351
557.526	15.847
561.486	14.736
565.443	26.149
569.399	36.666
573.352	22.277
577.304	30.201
581.254	24.977
585.202	30.201
589.148	19.708
593.093	21.799
597.035	46.099
600.976	60.125
604.914	99.41
608.851	196.879
612.786	763.34
616.719	1830.98
620.651	892.58
624.58	448.08
628.507	411.958
632.433	389.238
636.357	243.498
640.279	268.924
644.199	445.159
648.117	587.196
652.034	302.444
655.948	126.493
659.861	67.555
663.772	30.628
667.681	10.616
671.588	7.927
675.493	20.89
679.397	20.889
683.298	12.784
687.198	7.71
691.096	0.589
694.992	7.411
698.886	27.224
702.779	6.224
706.669	13.968
710.558	4.668
714.445	11.67
718.33	6.097
722.214	1.507
726.095	4.039
729.975	3.548
733.852	9.019
737.728	5.545
741.603	9.852
745.475	4.716
749.345	4.376
753.214	3.068
757.081	2.793
760.946	0.553
764.809	20.344
768.671	12.821
772.53	3.04
776.388	10.926
780.244	17.158
784.098	16.22
787.951	0.754
791.801	10.236
795.65	0.204
799.497	1.848
803.342	2.6
807.186	1.029
811.027	1.174
814.867	7.647
818.705	12.497
822.541	9.291
826.375	6.05
830.208	0.286
834.039	8.464
837.868	8.835
841.695	1.616
845.521	12.131
849.344	9.682
853.166	12.824
856.986	25.101
860.804	28.488
864.621	15.401
868.436	17.916
872.248	7.863
876.06	7.35
879.869	18.21
883.677	0.013
887.482	15.511
891.287	19.029
895.089	56.332
898.889	76.71
902.688	55.666
906.485	48.222
910.28	45.721
914.074	37.17
917.865	28.918
921.655	34.556
925.443	42.343
929.23	30.997
933.014	44.792
936.797	68.544
940.578	74.363
944.358	76.197
948.135	57.725
951.911	88.617
955.685	131.448
959.458	166.383
963.228	296.283
966.997	405.224
970.764	565.23
974.529	809.107
978.293	1594.05
982.055	5171.14
985.815	44684.3
989.573	37142.4
993.33	5926.6
997.085	1730.83
1000.84	935.098
1004.59	595.4
1008.34	416.743
1012.09	321.121
1015.83	259.54
1019.58	194.924
1023.32	181.414
1027.06	160.94
1030.8	122.506
1034.54	91.112
1038.27	71.759
1042.01	53.449
1045.74	39.177
1049.47	30.943
1053.2	42.747
1056.93	36.588
1060.65	42.478
1064.38	18.408
1068.1	17.38
1071.82	15.388
1075.54	26.448
1079.25	21.551
1082.97	78.703
1086.68	117.899
1090.39	115.142
1094.11	209.428
1097.81	600.759
1101.52	1610.14
1105.22	1845.56
1108.93	789.017
1112.63	313.524
1116.33	154.072
1120.03	81.653
1123.72	53.271
1127.42	77.927
1131.11	179.625
1134.8	632.356
1138.49	1063.12
1142.18	510.915
1145.87	228.743
1149.55	143.602
1153.23	113.494
1156.91	120.417
1160.59	269.372
1164.27	680.355
1167.95	717.366
1171.62	341.404
1175.3	169.467
1178.97	81.555
1182.64	37.667
1186.3	7.801
1189.97	10.956
1193.63	4.133
1197.3	19.659
1200.96	28.874
1204.62	11.351
1208.27	32.501
1211.93	29.309
1215.58	25.004
1219.24	40.05
1222.89	5.968
1226.54	27.433
1230.18	20.878
1233.83	37.742
1237.47	76.285
1241.12	32.126
1244.76	32.02
1248.4	40.423
1252.04	25.801
1255.67	34.408
1259.31	31.579
1262.94	31.137
1266.57	51.546
1270.2	37.049
1273.83	50.476
1277.45	36.969
1281.08	36.49
1284.7	20.015
1288.32	21.586
1291.94	15.063
1295.56	15.533
1299.17	18.93
1302.79	1.298
1306.4	17.631
1310.01	23.939
1313.62	36.22
1317.23	5.484
1320.84	31.711
1324.44	38.921
1328.04	11.109
1331.64	8.266
1335.24	13.61
1338.84	12.532
1342.44	12.487
1346.03	15.475
1349.63	5.497
1353.22	0.554
1356.81	22.642
1360.4	12.234
1363.98	8.078
1367.57	5.898
1371.15	3.305
1374.73	6.548
1378.32	7.683
1381.89	5.905
1385.47	12.524
1389.05	2.154
1392.62	19.202
1396.19	9.538
1399.76	19.854
1403.33	28.152
1406.9	9.437
1410.46	11.713
1414.03	10.983
1417.59	10.912
1421.15	12.234
1424.71	23.855
1428.27	37.64
1431.82	30.374
1435.38	64.876
1438.93	89.626
1442.48	79.153
1446.03	100.458
1449.58	105.359
1453.13	108.228
1456.67	104.713
1460.21	101.718
1463.76	63.843
1467.3	62.227
1470.83	57.714
1474.37	33.936
1477.91	39.753
1481.44	37.232
1484.97	35.844
1488.5	28.557
1492.03	23.379
1495.56	6.417
1499.08	0.187
1502.61	0
