Measurement: Raman, 514 nm, ccw, Raman Data Processed
Mineral: Baryte
Rruff sample: R040036
Ideal chemistry: BaSO_4_
Locality: Cumbria County, England
Source: University of Arizona Mineral Museum
Description: Golden brown tabular crystal
Measured chemistry: Ba_1.00_S_1.00_O_4_; trace amounts of Pb
Pin_id: M00021
Orientation: Laser parallel to c* (0 0 1). Fiducial mark perpendicular to laser is parallel to -a [-1 0 0]
Raman shift (cm-1)	intensity
26.288	0
30.504	40.605
34.717	65.535
38.929	133.812
43.138	144.639
47.345	133.249
51.551	132.012
55.754	139.737
59.955	163.046
64.154	135.897
68.351	94.435
72.546	75.34
76.739	28.068
80.93	32.865
85.119	1.992
89.306	48.025
93.49	38.256
97.673	5.448
101.854	25.115
106.032	60.785
110.209	93.864
114.384	176.794
118.556	187.813
122.727	174.481
126.895	163.799
131.062	196.498
135.226	200.387
139.388	219.277
143.549	199.317
147.707	271.07
151.863	465.608
156.018	439.13
160.17	299.424
164.32	192.582
168.469	174.396
172.615	164.988
176.759	198.035
180.901	209.268
185.041	361.439
189.18	637.303
193.316	509.934
197.45	291.018
201.582	200.47
205.712	182.671
209.84	154.359
213.967	140.194
218.091	143.566
222.213	127.097
226.333	148.97
230.451	151.621
234.567	109.492
238.682	133.785
242.794	93.743
246.904	91.393
251.012	93.382
255.118	86.302
259.223	80.866
263.325	88.451
267.425	87.788
271.523	82.505
275.62	87.422
279.714	76.045
283.806	56.585
287.897	70.275
291.985	60.879
296.072	69.404
300.156	44.853
304.239	56.225
308.319	68.522
312.398	70.749
316.474	64.845
320.549	60.813
324.622	72.812
328.692	43.59
332.761	65.179
336.828	49.581
340.893	45.815
344.956	65.902
349.017	54.865
353.076	54.734
357.133	65.453
361.188	50.787
365.241	54
369.292	42.388
373.341	33.597
377.388	40.845
381.434	66.046
385.477	54.532
389.519	34.71
393.558	66.873
397.596	64.91
401.631	47.374
405.665	46.724
409.697	59
413.727	48.26
417.755	35.43
421.781	48.7
425.805	55.971
429.827	84.853
433.847	110.877
437.865	191.873
441.882	355.006
445.896	773.817
449.909	2010.63
453.919	2983.74
457.928	1843.67
461.935	1953.64
465.94	1156.57
469.943	411.488
473.944	184.252
477.943	102.109
481.94	75.984
485.935	42.827
489.929	58.794
493.92	47.751
497.91	36.697
501.898	32.672
505.883	24.559
509.867	33.533
513.849	32.428
517.829	35.424
521.808	38.486
525.784	32.533
529.758	20.652
533.731	22.152
537.701	26.944
541.67	9.012
545.637	17.209
549.602	26.516
553.565	18.735
557.526	20.768
561.486	1.279
565.443	27.326
569.399	22.623
573.352	29.672
577.304	33.157
581.254	16.635
585.202	38.242
589.148	44.053
593.093	54.305
597.035	52.459
600.976	76.222
604.914	98.478
608.851	155.882
612.786	438.047
616.719	1339.22
620.651	966.654
624.58	761.895
628.507	1401.08
632.433	1500.16
636.357	646.596
640.279	450.828
644.199	597.519
648.117	864.718
652.034	468.852
655.948	190.918
659.861	107.345
663.772	61.29
667.681	26.185
671.588	16.582
675.493	15.587
679.397	19.027
683.298	4.853
687.198	18.193
691.096	0.855
694.992	15.013
698.886	6.596
702.779	14.58
706.669	6.169
710.558	18.328
714.445	5.763
718.33	4.765
722.214	3.786
726.095	2.713
729.975	13.999
733.852	15.38
737.728	12.265
741.603	1.952
745.475	8.67
749.345	0.578
753.214	11.798
757.081	4.008
760.946	11.153
764.809	1.716
768.671	4.384
772.53	7.458
776.388	37.5
780.244	6.518
784.098	25.428
787.951	10.338
791.801	1.218
795.65	3.928
799.497	0.894
803.342	21.688
807.186	11.461
811.027	7.798
814.867	2.911
818.705	2.563
822.541	20.147
826.375	14.75
830.208	25.176
834.039	25.713
837.868	22.982
841.695	7.134
845.521	18.814
849.344	40.771
853.166	19.714
856.986	25.053
860.804	45.145
864.621	37.278
868.436	30.15
872.248	10.52
876.06	2.969
879.869	15.703
883.677	9.883
887.482	31.239
891.287	17.68
895.089	29.922
898.889	73.154
902.688	65.358
906.485	48.756
910.28	77.806
914.074	44.376
917.865	54.35
921.655	51.288
925.443	82.557
929.23	49.882
933.014	57.189
936.797	85.314
940.578	97.839
944.358	94.361
948.135	102.197
951.911	69.767
955.685	123.769
959.458	194.324
963.228	247.281
966.997	403.933
970.764	507.561
974.529	665.647
978.293	1211.28
982.055	3451.05
985.815	26813.8
989.573	48619.7
993.33	8026.54
997.085	2024.43
1000.84	998.363
1004.59	639.33
1008.34	417.326
1012.09	325.354
1015.83	295.419
1019.58	211.517
1023.32	203.649
1027.06	182.819
1030.8	138.025
1034.54	133.27
1038.27	85.555
1042.01	111.882
1045.74	75.248
1049.47	72.66
1053.2	44.131
1056.93	52.648
1060.65	85.207
1064.38	54.805
1068.1	36.468
1071.82	50.154
1075.54	35.877
1079.25	15.634
1082.97	52.438
1086.68	70.282
1090.39	62.171
1094.11	97.099
1097.81	122.091
1101.52	304.101
1105.22	319.158
1108.93	122.257
1112.63	87.393
1116.33	77.561
1120.03	148.762
1123.72	223.992
1127.42	285.251
1131.11	535.539
1134.8	1262.86
1138.49	2731.22
1142.18	4303.6
1145.87	3993.01
1149.55	2034.45
1153.23	955.908
1156.91	561.599
1160.59	397.504
1164.27	580.04
1167.95	602.966
1171.62	355.172
1175.3	212.998
1178.97	125.017
1182.64	44.848
1186.3	29.576
1189.97	8.238
1193.63	41.362
1197.3	16.939
1200.96	14.756
1204.62	47.603
1208.27	54.314
1211.93	27.212
1215.58	81.325
1219.24	27.308
1222.89	11.589
1226.54	21.362
1230.18	49.58
1233.83	68.46
1237.47	73.573
1241.12	86.443
1244.76	56.206
1248.4	46.195
1252.04	18.967
1255.67	22.719
1259.31	16.471
1262.94	1.227
1266.57	39.683
1270.2	46.697
1273.83	28.538
1277.45	1.259
1281.08	13.059
1284.7	2.19
1288.32	11.525
1291.94	19.365
1295.56	10.766
1299.17	10.818
1302.79	10.418
1306.4	9.082
1310.01	19.387
1313.62	43.171
1317.23	14.237
1320.84	15.394
1324.44	27.928
1328.04	25.216
1331.64	31.442
1335.24	17.637
1338.84	31.795
1342.44	6.081
1346.03	4.996
1349.63	6.053
1353.22	9.064
1356.81	31.045
1360.4	21.973
1363.98	14.896
1367.57	19.163
1371.15	47.964
1374.73	57.094
1378.32	24.708
1381.89	22.307
1385.47	39.869
1389.05	42.4
1392.62	20.09
1396.19	1.66
1399.76	32.622
1403.33	29.884
1406.9	55.39
1410.46	55.134
1414.03	23.349
1417.59	0.953
1421.15	70.83
1424.71	30.789
1428.27	18.729
1431.82	55.606
1435.38	55.328
1438.93	93.368
1442.48	143.762
1446.03	163.077
1449.58	158.807
1453.13	150.446
1456.67	157.811
1460.21	141.738
1463.76	147.449
1467.3	134.993
1470.83	62.324
1474.37	40.719
1477.91	115.216
1481.44	111.848
1484.97	89.735
1488.5	83.857
1492.03	94.436
1495.56	88.791
1499.08	0
