Measurement: Raman, 514 nm, ccw, Raman Data Processed
Mineral: Baryte
Rruff sample: R050342
Ideal chemistry: BaSO_4_
Locality: Palos Verdes, Los Angeles County, California, USA
Source: California Institute of Technology
Description: Light brown fragment
Measured chemistry: Ba_1.00_S_1.00_O_4_
Pin_id: L00807
Orientation: Laser parallel to b* (0 1 0). Fiducial mark perpendicular to laser is parallel to c [0 0 1]
Raman shift (cm-1)	intensity
93.48	0
98.416	284.383
103.349	138.905
108.28	169.241
113.208	29.4102
118.134	62.7993
123.058	120.455
127.979	132.133
132.898	143.513
137.814	236.379
142.728	176.047
147.639	193.037
152.549	337.027
157.455	285.794
162.359	216.177
167.261	228.174
172.161	181.965
177.058	205.197
181.952	289.019
186.845	298.55
191.734	432.957
196.622	315.993
201.507	161.159
206.389	163.315
211.269	158.442
216.147	227.477
221.022	189.408
225.895	161.894
230.765	141.156
235.633	150.502
240.498	191.944
245.361	129.711
250.222	153.357
255.08	125.213
259.936	205.524
264.789	66.6665
269.64	140.253
274.488	28.5757
279.334	179.551
284.178	100.932
289.019	35.4224
293.857	66.3911
298.693	87.7744
303.527	88.5264
308.358	206.727
313.187	8.24316
318.013	122.05
322.837	73.1445
327.659	65.5117
332.478	139.138
337.294	139.016
342.108	52.1338
346.92	45.4795
351.729	119.811
356.535	146.394
361.34	18.4062
366.141	34.6748
370.94	66.8779
375.737	79.4394
380.531	54.9385
385.323	76.4492
390.113	10.7295
394.9	11.2646
399.684	29.7939
404.466	52.709
409.245	4.66797
414.022	76.0234
418.797	204.746
423.569	20.6309
428.338	182.591
433.105	221.609
437.87	673.641
442.632	1436.15
447.391	3932.23
452.149	8285
456.903	6173.78
461.655	1624.68
466.405	514.667
471.152	314.573
475.897	166.264
480.639	239.56
485.378	220.929
490.116	156.372
494.85	56.8838
499.582	29.4287
504.312	113.82
509.039	82.834
513.764	194.571
518.486	76.3223
523.206	172.288
527.923	81.0918
532.638	34.8066
537.35	162.996
542.059	115.436
546.766	1.36035
551.471	136.589
556.173	180.641
560.873	11.2266
565.57	55.4609
570.264	29.3623
574.957	75.3594
579.646	171.537
584.333	54.251
589.018	134.891
593.7	47.3389
598.379	123.269
603.056	151.405
607.73	119.756
612.402	630.436
617.072	1461.16
621.739	677.515
626.403	339.168
631.065	408.361
635.724	247.013
640.381	239.201
645.035	218.011
649.687	386.074
654.336	51.1748
658.983	190.9
663.627	139.586
668.268	103.117
672.907	225.988
677.544	94.0713
682.178	144.518
686.809	180.666
691.438	47.8848
696.065	198.923
700.688	101.536
705.31	127.856
709.929	114.113
714.545	167.793
719.158	142.216
723.77	122.019
728.378	204.308
732.984	36.5215
737.588	34.6855
742.189	167.81
746.787	102.996
751.383	58.0264
755.976	84.0938
760.567	29.7441
765.155	60.2393
769.741	43.6523
774.324	159.009
778.904	196.43
783.482	18.8467
788.058	75.5059
792.631	27.126
797.201	22.3857
801.769	4.42676
806.334	9.49414
810.897	136.004
815.457	112.639
820.014	157.468
824.569	23.4814
829.122	31.6045
833.671	77.2998
838.219	228.674
842.763	199.769
847.306	0.962891
851.845	92.8242
856.382	206.298
860.917	103.07
865.448	144.75
869.978	56.2295
874.505	55.0078
879.029	83.5986
883.55	141.6
888.069	48.1133
892.586	164.135
897.1	201.242
901.611	78.5478
906.12	96.5518
910.626	172.589
915.129	188.31
919.63	15.5625
924.129	210.709
928.625	195.809
933.118	165.516
937.609	42.8369
942.097	0.944336
946.582	265.913
951.065	154.421
955.546	16.9531
960.023	242.815
964.499	257.713
968.971	319.819
973.441	540.414
977.909	1111.66
982.374	5462.52
986.836	27213.3
991.295	23509.1
995.753	2469.65
1000.21	741.428
1004.66	437.048
1009.11	360.06
1013.55	256.037
1018	131.017
1022.44	9.66309
1026.88	254.756
1031.32	135.217
1035.75	46.585
1040.18	213.859
1044.61	39.0576
1049.04	136.677
1053.46	8.53516
1057.88	6.60644
1062.3	46.3252
1066.71	43.873
1071.13	18.9658
1075.54	282.393
1079.94	135.736
1084.35	200.454
1088.75	118.26
1093.15	146.619
1097.55	578.657
1101.94	1031.39
1106.34	1563.81
1110.73	616.148
1115.11	194.191
1119.5	203.238
1123.88	25.7266
1128.26	232.237
1132.63	355.216
1137.01	556.156
1141.38	630.029
1145.75	183.168
1150.12	87.2012
1154.48	174.613
1158.84	201.492
1163.2	439.562
1167.55	578.648
1171.91	350.793
1176.26	93.5078
1180.61	302.217
1184.95	6.93164
1189.29	39.0586
1193.63	24.0117
1197.97	23.3379
1202.31	92.7891
1206.64	42.1953
1210.97	66.2051
1215.29	268.451
1219.62	51.8516
1223.94	175.617
1228.26	125.094
1232.57	151.307
1236.89	172.408
1241.2	63.3828
1245.51	117.445
1249.81	137.164
1254.12	229.633
1258.42	144.502
1262.72	188.402
1267.01	14.5059
1271.3	24.2695
1275.59	143.062
1279.88	106.91
1284.17	227.045
1288.45	179.775
1292.73	50.5957
1297.01	137.41
1301.28	147.025
1305.55	60.0293
1309.82	10.625
1314.09	83.0449
1318.35	10.7969
1322.61	42.918
1326.87	109.84
1331.13	230.557
1335.38	227.143
1339.63	130.84
1343.88	31.4902
1348.12	156.365
1352.37	256.484
1356.61	258.58
1360.85	185.938
1365.08	108.953
1369.31	75.5566
1373.54	146.369
1377.77	307.801
1381.99	219.533
1386.22	77.209
1390.43	119.512
1394.65	164.795
1398.87	123.781
1403.08	32.0918
1407.29	51.709
1411.49	86.1367
1415.69	178.361
1419.89	29.5254
1424.09	109.783
1428.29	71.3652
1432.48	118.195
1436.67	185.154
1440.86	281.648
1445.04	55.8457
1449.23	40.9434
1453.4	175.461
1457.58	215.062
1461.76	56.8828
1465.93	248.889
1470.1	2.49609
1474.26	170.586
1478.43	219.027
1482.59	75.1797
1486.75	223.348
1490.9	398.338
1495.06	74.1797
1499.21	203.053
1503.35	155.207
1507.5	235.031
1511.64	181.397
1515.78	188.486
1519.92	78.9062
1524.05	67.9766
1528.18	147.754
1532.31	167.15
1536.44	91.1484
1540.56	92.9902
1544.69	169.184
1548.8	186.891
1552.92	365.115
1557.03	156.24
1561.14	30.0801
1565.25	2.2832
1569.36	71.5
