Measurement: Raman, 514 nm, ccw, Raman Data Processed
Mineral: Baryte
Rruff sample: R040036
Ideal chemistry: BaSO_4_
Locality: Cumbria County, England
Source: University of Arizona Mineral Museum
Description: Golden brown tabular crystal
Measured chemistry: Ba_1.00_S_1.00_O_4_; trace amounts of Pb
Pin_id: M00021
Orientation: Laser parallel to c* (0 0 1). Fiducial mark perpendicular to laser is parallel to -a [-1 0 0]
Raman shift (cm-1)	intensity
26.288	0
30.504	24.676
34.717	40.793
38.929	62.22
43.138	33.767
47.345	45.324
51.551	45.217
55.754	39.906
59.955	26.32
64.154	41.884
68.351	55.373
72.546	40.957
76.739	38.955
80.93	2.962
85.119	21.3
89.306	1.099
93.49	19.721
97.673	21.668
101.854	15.093
106.032	6.666
110.209	28.039
114.384	95.24
118.556	103.406
122.727	84.452
126.895	135.867
131.062	161.614
135.226	103.023
139.388	86.826
143.549	117.154
147.707	222.229
151.863	310.28
156.018	221.015
160.17	117.244
164.32	75.251
168.469	55.506
172.615	64.629
176.759	44.289
180.901	45.13
185.041	92.209
189.18	133.175
193.316	100.218
197.45	65.134
201.582	70.278
205.712	84.675
209.84	38.343
213.967	47.056
218.091	39.464
222.213	45.273
226.333	42.212
230.451	56.172
234.567	54.203
238.682	28.945
242.794	37.22
246.904	26.917
251.012	42.736
255.118	33.778
259.223	40.635
263.325	38.223
267.425	42.022
271.523	24.866
275.62	29.096
279.714	30.638
283.806	21.094
287.897	16.278
291.985	22.573
296.072	7.799
300.156	25.954
304.239	24.044
308.319	26.067
312.398	20.945
316.474	32.498
320.549	12.999
324.622	51.268
328.692	15.339
332.761	25.516
336.828	20.87
340.893	35.107
344.956	28.129
349.017	25.971
353.076	4.747
357.133	11.222
361.188	32.506
365.241	26.618
369.292	21.801
373.341	20.993
377.388	24.161
381.434	17.429
385.477	31.62
389.519	29.739
393.558	35.943
397.596	38.172
401.631	32.306
405.665	27.672
409.697	27.859
413.727	46.099
417.755	44.161
421.781	48.329
425.805	67.498
429.827	88.561
433.847	136.477
437.865	215.515
441.882	337.452
445.896	671.465
449.909	1731.5
453.919	2796.43
457.928	3532.35
461.935	8080.33
465.94	4043.22
469.943	1249.27
473.944	472.223
477.943	266.023
481.94	196
485.935	133.017
489.929	107.033
493.92	86.034
497.91	69.982
501.898	61.837
505.883	40.865
509.867	48.903
513.849	48.936
517.829	62.983
521.808	29.046
525.784	41.083
529.758	38.225
533.731	38.404
537.701	38.083
541.67	25.289
545.637	39.445
549.602	32.566
553.565	41.176
557.526	24.408
561.486	30.94
565.443	17.275
569.399	28.595
573.352	39.886
577.304	32.169
581.254	32.418
585.202	49.311
589.148	70.694
593.093	62.826
597.035	79.502
600.976	107.788
604.914	163.2
608.851	326.375
612.786	949.661
616.719	2496.74
620.651	1596.05
624.58	843.083
628.507	921.164
632.433	714.343
636.357	261.535
640.279	170.498
644.199	209.542
648.117	261.507
652.034	139.501
655.948	66.476
659.861	29.372
663.772	24.359
667.681	28.459
671.588	5.373
675.493	1.203
679.397	10.006
683.298	2.82
687.198	31.596
691.096	2.47
694.992	6.583
698.886	12.267
702.779	16.927
706.669	20.517
710.558	2.903
714.445	3.323
718.33	3.755
722.214	11.223
726.095	7.727
729.975	13.241
733.852	3.817
737.728	5.431
741.603	0.077
745.475	1.251
749.345	11.728
753.214	21.009
757.081	20.267
760.946	9.503
764.809	27.716
768.671	10.908
772.53	7.921
776.388	7.225
780.244	8.353
784.098	0.464
787.951	16.556
791.801	8.63
795.65	6.687
799.497	4.273
803.342	19.747
807.186	7.72
811.027	9.63
814.867	11.974
818.705	2.817
822.541	5.675
826.375	4.418
830.208	11.654
834.039	26.83
837.868	9.651
841.695	5.132
845.521	10.287
849.344	5.329
853.166	1.004
856.986	39.658
860.804	21.178
864.621	25.297
868.436	15.706
872.248	20.702
876.06	12.887
879.869	3.611
883.677	12.904
887.482	13.824
891.287	24.395
895.089	52.164
898.889	56.7
902.688	53.498
906.485	44.242
910.28	45.665
914.074	33.499
917.865	63.339
921.655	20.068
925.443	50.922
929.23	41.715
933.014	50.523
936.797	59.295
940.578	36.005
944.358	68.864
948.135	90.718
951.911	75.649
955.685	117.6
959.458	138.527
963.228	211.407
966.997	321.042
970.764	387.959
974.529	599.992
978.293	1010.04
982.055	2905.12
985.815	24258.2
989.573	35896.3
993.33	5730.44
997.085	1530.59
1000.84	766.773
1004.59	485.955
1008.34	311.19
1012.09	262.452
1015.83	230.737
1019.58	197.872
1023.32	180.203
1027.06	190.557
1030.8	162.931
1034.54	121.329
1038.27	85.749
1042.01	56.191
1045.74	39.657
1049.47	74.146
1053.2	58.655
1056.93	41.302
1060.65	39.856
1064.38	50.54
1068.1	44.254
1071.82	51.027
1075.54	66.786
1079.25	131.572
1082.97	298.27
1086.68	173.991
1090.39	79.795
1094.11	55.586
1097.81	56.401
1101.52	105.247
1105.22	152.123
1108.93	58.019
1112.63	21.932
1116.33	6.863
1120.03	0.813
1123.72	38.782
1127.42	59.769
1131.11	80.773
1134.8	286.795
1138.49	568.835
1142.18	826.894
1145.87	770.969
1149.55	403.058
1153.23	192.166
1156.91	104.29
1160.59	105.428
1164.27	175.578
1167.95	159.74
1171.62	97.913
1175.3	46.095
1178.97	27.288
1182.64	6.488
1186.3	0.213
1189.97	9.002
1193.63	3.221
1197.3	12.691
1200.96	21.916
1204.62	1.344
1208.27	5.119
1211.93	0.199
1215.58	33.452
1219.24	40.822
1222.89	26.185
1226.54	29.717
1230.18	47.416
1233.83	26.489
1237.47	52.798
1241.12	32.031
1244.76	31.241
1248.4	22.506
1252.04	17.031
1255.67	21.263
1259.31	33.569
1262.94	50.867
1266.57	23.332
1270.2	46.754
1273.83	33.095
1277.45	26.321
1281.08	28.771
1284.7	41.068
1288.32	40.345
1291.94	30.536
1295.56	6.71
1299.17	43.861
1302.79	32.962
1306.4	17.03
1310.01	18.076
1313.62	20.111
1317.23	23.121
1320.84	30.005
1324.44	8.972
1328.04	28.787
1331.64	12.406
1335.24	12.304
1338.84	5.997
1342.44	21.756
1346.03	7.45
1349.63	9.689
1353.22	9.017
1356.81	3.329
1360.4	8.667
1363.98	3.966
1367.57	7.579
1371.15	24.182
1374.73	4.9
1378.32	11.72
1381.89	31.802
1385.47	23.868
1389.05	15.907
1392.62	19.924
1396.19	12.914
1399.76	4.882
1403.33	11.832
1406.9	24.767
1410.46	11.567
1414.03	23.477
1417.59	46.022
1421.15	22.13
1424.71	23.609
1428.27	24.826
1431.82	48.133
1435.38	20.993
1438.93	74.48
1442.48	87.19
1446.03	118.296
1449.58	119.749
1453.13	135.973
1456.67	101.145
1460.21	108.295
1463.76	79.75
1467.3	68.256
1470.83	67.928
1474.37	47.496
1477.91	48.01
1481.44	19.616
1484.97	14.368
1488.5	32.202
1492.03	15.19
1495.56	16.442
1499.08	15.167
1502.61	0
