Measurement: Raman, 514 nm, ccw, Raman Data Processed
Mineral: Baryte
Rruff sample: R040036
Ideal chemistry: BaSO_4_
Locality: Cumbria County, England
Source: University of Arizona Mineral Museum
Description: Golden brown tabular crystal
Measured chemistry: Ba_1.00_S_1.00_O_4_; trace amounts of Pb
Pin_id: M00019
Orientation: Laser parallel to b* (0 1 0). Fiducial mark perpendicular to laser is parallel to c [0 0 1]
Raman shift (cm-1)	intensity
26.288	0
30.504	8.086
34.717	24.355
38.929	22.052
43.138	51.916
47.345	40.035
51.551	43.701
55.754	78.877
59.955	112.99
64.154	77.608
68.351	71.547
72.546	61.868
76.739	33.254
80.93	0.344
85.119	14.983
89.306	15.664
93.49	7.64
97.673	59.939
101.854	56.226
106.032	53.744
110.209	80.478
114.384	245.295
118.556	194.113
122.727	125.871
126.895	134.544
131.062	154.051
135.226	167.274
139.388	162.322
143.549	172.442
147.707	306.537
151.863	523.605
156.018	423.958
160.17	256.562
164.32	163.729
168.469	150.824
172.615	138.837
176.759	155.258
180.901	219.696
185.041	506.809
189.18	730.306
193.316	409.346
197.45	202.84
201.582	128.922
205.712	110.673
209.84	86.021
213.967	86.063
218.091	91.813
222.213	66.701
226.333	86.01
230.451	77.509
234.567	73.456
238.682	68.416
242.794	48.55
246.904	62.252
251.012	61.678
255.118	49.093
259.223	38.881
263.325	42.696
267.425	62.64
271.523	46.081
275.62	38.74
279.714	24.378
283.806	16.999
287.897	33.604
291.985	32.193
296.072	19.767
300.156	11.326
304.239	30.867
308.319	27.388
312.398	38.657
316.474	26.381
320.549	20.855
324.622	33.306
328.692	12.7
332.761	2.033
336.828	25.312
340.893	25.548
344.956	27.747
349.017	36.916
353.076	12.073
357.133	17.215
361.188	18.322
365.241	1.419
369.292	10.502
373.341	11.578
377.388	6.656
381.434	21.753
385.477	23.891
389.519	35.049
393.558	26.234
397.596	19.418
401.631	12.545
405.665	14.68
409.697	23.755
413.727	22.036
417.755	34.024
421.781	23.129
425.805	45.933
429.827	88.051
433.847	142.963
437.865	281.924
441.882	587.91
445.896	1502.68
449.909	3615.73
453.919	3743.68
457.928	1643.8
461.935	915.715
465.94	411.621
469.943	158.654
473.944	103.511
477.943	65.28
481.94	32.318
485.935	27.309
489.929	42.273
493.92	11.315
497.91	24.247
501.898	28.227
505.883	28.203
509.867	19.1
513.849	30.997
517.829	23.886
521.808	31.629
525.784	34.615
529.758	43.588
533.731	24.753
537.701	22.915
541.67	22.025
545.637	21.105
549.602	28.12
553.565	33.182
557.526	25.357
561.486	32.786
565.443	35.211
569.399	27.784
573.352	31.933
577.304	22.217
581.254	45.79
585.202	46.4
589.148	52.59
593.093	63.601
597.035	66.884
600.976	80.27
604.914	128.404
608.851	232.402
612.786	719.571
616.719	1452.02
620.651	929.227
624.58	1027.66
628.507	1921.33
632.433	1426.7
636.357	683.722
640.279	591.499
644.199	988.312
648.117	1080.27
652.034	501.23
655.948	192.251
659.861	104.401
663.772	49.694
667.681	29.696
671.588	39.607
675.493	19.618
679.397	32.713
683.298	16.228
687.198	21.715
691.096	4.175
694.992	14.605
698.886	3.994
702.779	14.386
706.669	8.311
710.558	8.972
714.445	4.781
718.33	1.57
722.214	4.402
726.095	1.525
729.975	7.81
733.852	1.866
737.728	14.062
741.603	3.047
745.475	7.992
749.345	7.094
753.214	2.784
757.081	2.625
760.946	3.574
764.809	12.816
768.671	6.108
772.53	2.556
776.388	4.185
780.244	9.786
784.098	2.639
787.951	6.906
791.801	7.42
795.65	5.902
799.497	18.651
803.342	16.25
807.186	4.117
811.027	1.542
814.867	2.287
818.705	0.933
822.541	6.016
826.375	6.365
830.208	12.498
834.039	15.638
837.868	1.423
841.695	16.58
845.521	25.053
849.344	24.94
853.166	38.482
856.986	50.684
860.804	55.166
864.621	35.724
868.436	15.73
872.248	2.742
876.06	36.561
879.869	14.157
883.677	13.056
887.482	46.811
891.287	41.833
895.089	66.342
898.889	59.962
902.688	58.248
906.485	48.664
910.28	43.384
914.074	58.263
917.865	31.377
921.655	45.323
925.443	53.33
929.23	57.224
933.014	55.052
936.797	89.303
940.578	85.913
944.358	95.124
948.135	91.015
951.911	91.818
955.685	110.577
959.458	175.874
963.228	300.195
966.997	360.541
970.764	545.915
974.529	789.302
978.293	1624.74
982.055	5756.21
985.815	50947.7
989.573	32395.3
993.33	5435.83
997.085	1604.45
1000.84	935.103
1004.59	559.797
1008.34	406.527
1012.09	310.121
1015.83	262.008
1019.58	226.781
1023.32	193.671
1027.06	140.601
1030.8	114.577
1034.54	104.599
1038.27	81.958
1042.01	54.79
1045.74	52.961
1049.47	58.176
1053.2	58.432
1056.93	35.73
1060.65	44.073
1064.38	11.461
1068.1	34.895
1071.82	1.384
1075.54	24.929
1079.25	53.531
1082.97	53.182
1086.68	24.89
1090.39	75.655
1094.11	97.475
1097.81	185.344
1101.52	364.269
1105.22	340.246
1108.93	142.275
1112.63	136.351
1116.33	119.473
1120.03	189.638
1123.72	263.843
1127.42	454.086
1131.11	891.371
1134.8	2277.7
1138.49	4295.06
1142.18	5452.46
1145.87	4130.91
1149.55	2017.39
1153.23	1003.92
1156.91	698.481
1160.59	705.084
1164.27	1199.72
1167.95	1090.4
1171.62	554.104
1175.3	281.999
1178.97	177.768
1182.64	93.565
1186.3	75.391
1189.97	58.244
1193.63	36.124
1197.3	33.028
1200.96	30.216
1204.62	30.17
1208.27	30.851
1211.93	45.405
1215.58	49.802
1219.24	79.019
1222.89	38.21
1226.54	16.814
1230.18	44.88
1233.83	49.707
1237.47	67.43
1241.12	90.376
1244.76	50.627
1248.4	67.208
1252.04	35.375
1255.67	34.536
1259.31	6.748
1262.94	26.092
1266.57	19.289
1270.2	43.507
1273.83	66.164
1277.45	26.504
1281.08	41.041
1284.7	27.29
1288.32	25.905
1291.94	22.321
1295.56	37.684
1299.17	42.919
1302.79	9.88
1306.4	23.285
1310.01	23.491
1313.62	39.5
1317.23	43.844
1320.84	30.654
1324.44	28.713
1328.04	12.743
1331.64	8.739
1335.24	9.306
1338.84	23.397
1342.44	9.474
1346.03	6.685
1349.63	14.876
1353.22	13.11
1356.81	13.383
1360.4	14.693
1363.98	6.042
1367.57	20.408
1371.15	5.34
1374.73	16.098
1378.32	15.503
1381.89	7.767
1385.47	21.025
1389.05	1.723
1392.62	21.505
1396.19	21.712
1399.76	11.892
1403.33	13.051
1406.9	5.007
1410.46	39.124
1414.03	5.248
1417.59	2.367
1421.15	10.013
1424.71	35.898
1428.27	31.352
1431.82	49.674
1435.38	87.845
1438.93	117.849
1442.48	125.229
1446.03	150.398
1449.58	150.265
1453.13	182.485
1456.67	157.998
1460.21	148.053
1463.76	126.986
1467.3	78.787
1470.83	79.926
1474.37	71.321
1477.91	56.234
1481.44	66.183
1484.97	69.299
1488.5	55.573
1492.03	21.879
1495.56	2.375
1499.08	14.111
1502.61	0.374
