Measurement: Raman, 514 nm, ccw, Raman Data Processed
Mineral: Baryte
Rruff sample: R040036
Ideal chemistry: BaSO_4_
Locality: Cumbria County, England
Source: University of Arizona Mineral Museum
Description: Golden brown tabular crystal
Measured chemistry: Ba_1.00_S_1.00_O_4_; trace amounts of Pb
Pin_id: M00019
Orientation: Laser parallel to b* (0 1 0). Fiducial mark perpendicular to laser is parallel to c [0 0 1]
Raman shift (cm-1)	intensity
26.288	0
30.504	1.693
34.717	73.291
38.929	49.162
43.138	42.943
47.345	101.935
51.551	107.613
55.754	111.602
59.955	135.149
64.154	145.729
68.351	116.31
72.546	67.315
76.739	25.159
80.93	6.806
85.119	14.337
89.306	0.949
93.49	38.77
97.673	26.832
101.854	21.371
106.032	32.542
110.209	43.063
114.384	90.725
118.556	121.503
122.727	114.022
126.895	129.517
131.062	163.547
135.226	156.085
139.388	124.181
143.549	99.221
147.707	157.402
151.863	256.548
156.018	327.534
160.17	230.378
164.32	118.778
168.469	93.257
172.615	103.313
176.759	140.953
180.901	217.744
185.041	460.269
189.18	778.571
193.316	554.14
197.45	247.973
201.582	150.087
205.712	140.924
209.84	108.158
213.967	87.396
218.091	64.953
222.213	77.99
226.333	81.762
230.451	84.168
234.567	54.367
238.682	61.337
242.794	39.525
246.904	44.606
251.012	49.812
255.118	32.804
259.223	31.856
263.325	55.91
267.425	40.293
271.523	35.563
275.62	32.738
279.714	50.157
283.806	26.479
287.897	31.631
291.985	29.35
296.072	50.397
300.156	40.384
304.239	26.296
308.319	25.133
312.398	34.875
316.474	37.306
320.549	12.695
324.622	29.114
328.692	36.495
332.761	25.721
336.828	32.807
340.893	33.763
344.956	22.603
349.017	40.335
353.076	18.975
357.133	51.438
361.188	40.665
365.241	21.663
369.292	39.666
373.341	36.463
377.388	35.335
381.434	12.152
385.477	48.054
389.519	27.794
393.558	41.627
397.596	56.405
401.631	39.078
405.665	25.712
409.697	49.657
413.727	57.491
417.755	45.195
421.781	72.919
425.805	103.643
429.827	181.16
433.847	276.787
437.865	591.367
441.882	1278.17
445.896	3208.7
449.909	7390.18
453.919	7256.64
457.928	2881.18
461.935	1126.74
465.94	498.073
469.943	254.373
473.944	148.901
477.943	101.432
481.94	74.982
485.935	57.572
489.929	57.147
493.92	51.706
497.91	56.177
501.898	37.777
505.883	47.407
509.867	47.991
513.849	58.541
517.829	35.166
521.808	51.838
525.784	31.514
529.758	31.254
533.731	31.928
537.701	16.818
541.67	17.667
545.637	25.49
549.602	6.334
553.565	2.309
557.526	15.168
561.486	30.05
565.443	35.955
569.399	22.883
573.352	5.858
577.304	5.872
581.254	23.144
585.202	26.312
589.148	24.237
593.093	9.337
597.035	27.225
600.976	55.45
604.914	83.106
608.851	188.038
612.786	662.293
616.719	1233.77
620.651	744.921
624.58	538.927
628.507	694.026
632.433	651.19
636.357	615.201
640.279	960.989
644.199	1997.01
648.117	2137.77
652.034	821.061
655.948	266.789
659.861	115.724
663.772	69.861
667.681	42.517
671.588	25.231
675.493	31.076
679.397	28.314
683.298	44.209
687.198	12.489
691.096	2.245
694.992	20.947
698.886	13.562
702.779	28.032
706.669	6.661
710.558	15.082
714.445	7.448
718.33	3.093
722.214	1.2
726.095	11.418
729.975	7.312
733.852	15.913
737.728	27.126
741.603	4.247
745.475	0.11
749.345	10.999
753.214	6.937
757.081	2.087
760.946	4.926
764.809	9.975
768.671	10.059
772.53	0.177
776.388	6.673
780.244	7.496
784.098	1.289
787.951	6.947
791.801	1.784
795.65	10.483
799.497	13.157
803.342	22.795
807.186	0.405
811.027	15.992
814.867	8.447
818.705	2.969
822.541	19.478
826.375	6.964
830.208	9.704
834.039	5.422
837.868	11.945
841.695	2.728
845.521	11.516
849.344	11.784
853.166	7.076
856.986	36.93
860.804	41.838
864.621	15.805
868.436	17.724
872.248	15.905
876.06	17.946
879.869	3.679
883.677	0.115
887.482	41.92
891.287	12.736
895.089	30.403
898.889	57.07
902.688	48.885
906.485	28.709
910.28	23.684
914.074	54.624
917.865	28.732
921.655	45.56
925.443	58.495
929.23	35.244
933.014	66.391
936.797	62.296
940.578	61.999
944.358	43.133
948.135	60.26
951.911	71.002
955.685	68.691
959.458	125.191
963.228	278.152
966.997	319.895
970.764	443.971
974.529	651.23
978.293	1379.45
982.055	4792.58
985.815	41125.9
989.573	25203.1
993.33	4476.45
997.085	1295.83
1000.84	743.229
1004.59	472.657
1008.34	335.109
1012.09	234.245
1015.83	190.642
1019.58	162.177
1023.32	140.735
1027.06	113.335
1030.8	73.968
1034.54	90.633
1038.27	47.332
1042.01	36.062
1045.74	24.827
1049.47	43.624
1053.2	36.45
1056.93	10.308
1060.65	42.196
1064.38	20.12
1068.1	17.088
1071.82	0.908
1075.54	38.141
1079.25	68.226
1082.97	101.351
1086.68	78.514
1090.39	102.716
1094.11	139.955
1097.81	420.235
1101.52	1128.55
1105.22	1093.91
1108.93	455.308
1112.63	192.733
1116.33	168.192
1120.03	124.685
1123.72	154.207
1127.42	298.758
1131.11	603.339
1134.8	1957.95
1138.49	2915.59
1142.18	2115.26
1145.87	1370.97
1149.55	771.699
1153.23	476.46
1156.91	460.323
1160.59	744.181
1164.27	1616.02
1167.95	1458.03
1171.62	694.92
1175.3	346.073
1178.97	220.051
1182.64	127.028
1186.3	68
1189.97	79.992
1193.63	71.017
1197.3	24.736
1200.96	46.311
1204.62	37.029
1208.27	43.119
1211.93	56.843
1215.58	33.769
1219.24	65.909
1222.89	17.171
1226.54	51.422
1230.18	55.733
1233.83	56.742
1237.47	47.919
1241.12	60.163
1244.76	38.569
1248.4	44.15
1252.04	33.354
1255.67	24.553
1259.31	19.781
1262.94	39.232
1266.57	31.715
1270.2	21.128
1273.83	16.371
1277.45	38.683
1281.08	14.94
1284.7	36.31
1288.32	1.26
1291.94	61.984
1295.56	19.296
1299.17	15.486
1302.79	9.67
1306.4	0.162
1310.01	4.985
1313.62	13.116
1317.23	28.233
1320.84	11.342
1324.44	29.427
1328.04	19.511
1331.64	7.521
1335.24	0.521
1338.84	25.507
1342.44	33.56
1346.03	2.357
1349.63	2.744
1353.22	7.134
1356.81	2.993
1360.4	3.166
1363.98	4.742
1367.57	0.541
1371.15	6.638
1374.73	24.41
1378.32	6.962
1381.89	17.218
1385.47	18.466
1389.05	30.696
1392.62	43.913
1396.19	6.116
1399.76	34.162
1403.33	9.15
1406.9	20.982
1410.46	7.029
1414.03	0.845
1417.59	14.567
1421.15	36.478
1424.71	28.155
1428.27	30.785
1431.82	89.406
1435.38	79.381
1438.93	102.527
1442.48	118.36
1446.03	95.931
1449.58	140.779
1453.13	146.091
1456.67	98.057
1460.21	122.173
1463.76	95.727
1467.3	80.645
1470.83	67.531
1474.37	27.418
1477.91	60.235
1481.44	50.101
1484.97	53.085
1488.5	61.16
1492.03	27.331
1495.56	24.692
1499.08	7.211
1502.61	23.363
