Measurement: Raman, 514 nm, ccw, Raman Data Processed
Mineral: Barysilite
Rruff sample: R050002
Ideal chemistry: Pb_8_Mn(Si_2_O_7_)_3_
Locality: Franklin, Sussex County, New Jersey, USA
Source: University of Arizona Mineral Museum
Description: A lamellar aggregate of platy crystals
Measured chemistry: Pb_8.00_Mn_1.00_(Si_2.00_O_7_)_3_
Pin_id: M00057
Orientation: Laser parallel to c* (0 0 1). Fiducial mark perpendicular to laser is parallel to a [1 0 0]
Raman shift (cm-1)	intensity
92.678	0
96.858	4690.02
101.036	17522
105.212	22064.7
109.387	13023.8
113.559	6744.19
117.729	4891.99
121.897	3520.26
126.063	3246.24
130.228	2689.04
134.39	1863.31
138.55	1112.93
142.709	59.035
146.865	144.469
151.019	231.301
155.171	226.793
159.322	231.085
163.47	146.526
167.617	958.014
171.761	4258.67
175.904	11695.3
180.044	22801.1
184.183	32398.3
188.319	32325.5
192.454	23794.7
196.586	15248.2
200.717	9616.9
204.846	6554.44
208.972	4964.66
213.097	3413.96
217.22	2206.56
221.341	1877.36
225.46	1669.88
229.577	1529.02
233.692	1696.82
237.805	1945.47
241.916	2245.88
246.025	2088.68
250.132	2201.3
254.237	2888.06
258.34	3132.03
262.442	2155.78
266.541	1313.38
270.639	343.744
274.734	141.161
278.828	136.735
282.919	22.448
287.009	85.642
291.097	68.151
295.183	7.339
299.266	9.032
303.348	25.719
307.428	30.003
311.507	89.864
315.583	19.985
319.657	496.079
323.729	917.024
327.8	857.932
331.868	1018.49
335.935	864.986
339.999	700.772
344.062	379.877
348.123	12.974
352.182	4.737
356.239	166.133
360.294	409.268
364.347	709.646
368.398	869.494
372.448	1005.88
376.495	1270.22
380.54	1591.49
384.584	1435.67
388.626	1081.1
392.666	684.117
396.704	391.76
400.74	69.985
404.774	42.562
408.806	109.167
412.836	392.193
416.865	480.529
420.891	592.483
424.916	762.557
428.939	1866.72
432.959	2398.48
436.978	2837.67
440.996	2707.37
445.011	1894.59
449.024	1450.56
453.036	733.424
457.045	280.012
461.053	393.799
465.059	420.965
469.063	535.986
473.065	954.274
477.065	1391.79
481.063	2613.81
485.06	3198.38
489.054	3594.28
493.047	5056.97
497.038	8204.69
501.027	12726.1
505.014	17219.4
508.999	17216
512.982	13597.7
516.964	8956.04
520.944	5718.57
524.921	3590.74
528.897	2209.86
532.871	2236.02
536.844	1974.89
540.814	1380.35
544.783	1106.14
548.749	910.25
552.714	982.656
556.677	744.644
560.638	556.673
564.597	323.196
568.555	111.037
572.511	159.361
576.464	34.412
580.416	17.303
584.366	53.884
588.315	27.523
592.261	227.002
596.206	49.083
600.148	70.55
604.089	10.53
608.028	41.087
611.965	61.788
615.901	6.046
619.834	69.107
623.766	3.63
627.696	251.349
631.624	46.193
635.551	57.173
639.475	209.373
643.398	110.438
647.318	32.79
651.237	34.001
655.155	365.954
659.07	3.229
662.984	24.713
666.895	103.439
670.805	13.364
674.713	34.149
678.62	64.47
682.524	46.256
686.427	359.43
690.328	118.705
694.227	85.865
698.124	424.318
702.02	1059.78
705.913	1338.14
709.805	1680.78
713.695	480.998
717.584	452.866
721.47	477.513
725.355	162.629
729.238	460.651
733.119	189.889
736.998	148.348
740.876	129.49
744.752	88.551
748.626	7.738
752.498	197.795
756.368	258.681
760.237	233.249
764.104	28.927
767.969	31.122
771.832	180.145
775.693	151.919
779.553	197.456
783.411	156.743
787.267	170.174
791.122	202.789
794.974	173.671
798.825	16.047
802.674	276.745
806.522	579.334
810.367	740.524
814.211	628.222
818.053	1027.57
821.893	1385.39
825.732	1524.83
829.568	669.66
833.403	605.42
837.236	388.493
841.068	272.139
844.898	81.844
848.726	80.852
852.552	51.019
856.376	83.863
860.199	226.619
864.02	501.032
867.839	538.511
871.656	598.126
875.472	1043.22
879.286	1312.23
883.098	2764.83
886.909	5056.81
890.717	7204.32
894.524	5774.83
898.33	4355.9
902.133	4714.23
905.935	5476.42
909.735	5276.49
913.533	4127.82
917.33	4968.95
921.124	5133.58
924.918	4259.86
928.709	3541.04
932.499	2765.33
936.286	1866.22
940.073	1816.2
943.857	1329.76
947.64	819.724
951.421	630.987
955.2	668.221
958.978	565.53
962.753	650.933
966.527	773.268
970.3	428.646
974.071	296.286
977.84	512.889
981.607	448.134
985.372	907.385
989.136	549.84
992.898	290.174
996.659	233.584
1000.42	296.446
1004.17	152.886
1007.93	165.672
1011.68	332.331
1015.43	283.388
1019.18	530.986
1022.93	350.366
1026.68	586.993
1030.42	169.906
1034.17	50.73
1037.91	16.785
1041.65	369.603
1045.39	345.911
1049.12	440.367
1052.86	306.005
1056.59	419.389
1060.33	519.563
1064.06	518.551
1067.78	450.929
1071.51	5.867
1075.23	153.486
1078.96	13.403
1082.68	323.883
1086.4	323.121
1090.12	34.295
1093.83	69.965
1097.55	377.625
1101.26	195.453
1104.97	204.396
1108.68	17.133
1112.39	96.506
1116.1	4.774
1119.8	19.013
1123.5	34.564
1127.2	13.825
1130.9	99.132
1134.6	120.607
1138.3	477.254
1141.99	8.394
1145.69	0.285
1149.38	22.767
1153.07	35.646
1156.76	134.317
1160.44	178.839
1164.13	81.869
1167.81	381.209
1171.49	265.542
1175.17	117.703
1178.85	355.501
1182.52	207.172
1186.2	414.632
1189.87	543.128
1193.54	412.171
1197.21	376.323
1200.88	369.277
1204.55	681.839
1208.21	563.388
1211.88	305.061
1215.54	626.453
1219.2	227.234
1222.86	350.443
1226.51	473.786
1230.17	137.393
1233.82	255.072
1237.47	593.673
1241.12	402.036
1244.77	426.831
1248.42	398.568
1252.06	476.378
1255.71	354.066
1259.35	41.997
1262.99	72.257
1266.63	398.582
1270.26	85.925
1273.9	64.671
1277.53	86.731
1281.16	157.242
1284.8	82.893
1288.42	253.515
1292.05	0.981
1295.68	259.665
1299.3	21.074
1302.92	34.38
1306.55	52.206
1310.16	123.964
1313.78	108.056
1317.4	160.737
1321.01	3.888
1324.62	32.304
1328.24	321.608
1331.85	15.994
1335.45	52.969
1339.06	2.084
1342.66	299.11
1346.27	65.881
1349.87	678.425
1353.47	374.603
1357.07	449.208
1360.66	740.231
1364.26	411.99
1367.85	211.058
1371.44	499.392
1375.04	198.74
1378.62	148.367
1382.21	363.346
1385.8	496.614
1389.38	359.559
1392.96	712.525
1396.54	682.107
1400.12	331.339
1403.7	869.294
1407.28	345.778
1410.85	464.908
1414.42	647.422
1417.99	542.932
1421.56	783.539
1425.13	468.677
1428.7	390.898
1432.26	433.097
1435.83	660.372
1439.39	726.535
1442.95	600.927
1446.51	745.071
1450.06	815.533
1453.62	965.034
1457.17	964.087
1460.73	810.646
1464.28	447.364
1467.83	369.889
1471.37	323.517
1474.92	257.312
1478.46	296.506
1482.01	248.728
1485.55	338.578
1489.09	275.088
1492.63	264.702
1496.16	539.254
1499.7	44.411
1503.23	21.462
1506.76	411.267
1510.29	404.432
