Measurement: Raman, 514 nm, ccw, Raman Data Processed
Mineral: Barysilite
Rruff sample: R050002
Ideal chemistry: Pb_8_Mn(Si_2_O_7_)_3_
Locality: Franklin, Sussex County, New Jersey, USA
Source: University of Arizona Mineral Museum
Description: A lamellar aggregate of platy crystals
Measured chemistry: Pb_8.00_Mn_1.00_(Si_2.00_O_7_)_3_
Pin_id: M00298
Orientation: Laser parallel to a* (1 0 0). Fiducial mark perpendicular to laser is parallel to c [0 0 1]
Raman shift (cm-1)	intensity
59.164	0
63.36	344.973
67.554	171.477
71.747	48.162
75.937	179.433
80.125	3308.17
84.311	7661.37
88.496	7647.45
92.678	8133.98
96.858	16787.6
101.036	32672
105.212	41992.5
109.387	33962.1
113.559	22651.4
117.729	19363.9
121.897	15964.7
126.063	12950.3
130.228	11190.1
134.39	10004.8
138.55	8795.3
142.709	6818.4
146.865	5010.78
151.019	3936.71
155.171	3215.1
159.322	3048.13
163.47	3611.48
167.617	5091.92
171.761	8402.66
175.904	17000.1
180.044	31818.8
184.183	48373
188.319	55000.3
192.454	45558.1
196.586	30164.3
200.717	18870.9
204.846	12697.6
208.972	9496.65
213.097	7130.69
217.22	5396.33
221.341	4333.46
225.46	3670.04
229.577	3481.33
233.692	3682.27
237.805	4048.66
241.916	4503.09
246.025	4816.62
250.132	5441.98
254.237	6562.01
258.34	7070.72
262.442	5948.04
266.541	4029.03
270.639	2020.38
274.734	862.818
278.828	197.268
282.919	112.472
287.009	335.236
291.097	185.18
295.183	90.995
299.266	37.319
303.348	11.836
307.428	141.595
311.507	300.003
315.583	63.592
319.657	840.799
323.729	1661.78
327.8	1996.46
331.868	2081.84
335.935	1919.78
339.999	1428.76
344.062	697.48
348.123	162.186
352.182	16.953
356.239	96.01
360.294	373.604
364.347	601.68
368.398	907.187
372.448	1377
376.495	1770.1
380.54	2022.45
384.584	2009.03
388.626	1654.87
392.666	1140.4
396.704	502.713
400.74	68.797
404.774	17.103
408.806	116.564
412.836	57.633
416.865	2.303
420.891	276.102
424.916	823.982
428.939	1790.53
432.959	2966.75
436.978	3934.26
440.996	3960.27
445.011	3012.43
449.024	2076.12
453.036	1311.61
457.045	836.856
461.053	715.769
465.059	724.979
469.063	966.903
473.065	1644.01
477.065	2888.39
481.063	4646.74
485.06	5565.03
489.054	5901.14
493.047	7837.2
497.038	12119.2
501.027	18836
505.014	26378.6
508.999	28208
512.982	23298.8
516.964	15654.7
520.944	9795.3
524.921	6099.47
528.897	4240.41
532.871	3649.64
536.844	3424.16
540.814	2715.67
544.783	1878.74
548.749	1662.35
552.714	1894.49
556.677	1669.15
560.638	1104.8
564.597	670.032
568.555	395.949
572.511	272.82
576.464	143.04
580.416	60.357
584.366	80.437
588.315	38.654
592.261	10.178
596.206	33.479
600.148	38.221
604.089	17.193
608.028	17.102
611.965	10.731
615.901	3.83
619.834	23.421
623.766	2.954
627.696	7.702
631.624	3.42
635.551	10.969
639.475	16.062
643.398	11.479
647.318	25.426
651.237	4.03
655.155	7.013
659.07	6.451
662.984	26.499
666.895	29.156
670.805	41.88
674.713	9.379
678.62	5.699
682.524	2.734
686.427	34.637
690.328	69.47
694.227	167.818
698.124	432.711
702.02	1143.16
705.913	2558.17
709.805	2819.76
713.695	1225.92
717.584	408.675
721.47	126.335
725.355	70.134
729.238	89.083
733.119	80.132
736.998	34.949
740.876	20.362
744.752	68.694
748.626	68.48
752.498	3.358
756.368	2.714
760.237	32.403
764.104	13.506
767.969	10.239
771.832	28.059
775.693	13.578
779.553	6.89
783.411	13.449
787.267	29.342
791.122	45.395
794.974	0.813
798.825	25.047
802.674	33.652
806.522	166.623
810.367	234.008
814.211	473.371
818.053	1090.27
821.893	1941.38
825.732	2180.04
829.568	1356.52
833.403	727.212
837.236	448.317
841.068	281.994
844.898	240.075
848.726	213.49
852.552	225.16
856.376	256.879
860.199	335.66
864.02	451.517
867.839	576.461
871.656	863.518
875.472	1266.67
879.286	1929.59
883.098	3603.59
886.909	7368.91
890.717	11239.6
894.524	9508.2
898.33	7498.68
902.133	7654.21
905.935	9178.99
909.735	8867.06
913.533	7057
917.33	7601.15
921.124	9093.41
924.918	7744.35
928.709	5677.16
932.499	4216.86
936.286	3144.98
940.073	2436.2
943.857	1881.59
947.64	1400.27
951.421	1235.58
955.2	1068.31
958.978	992.381
962.753	877.75
966.527	813.408
970.3	746.034
974.071	610.87
977.84	545.661
981.607	475.948
985.372	429.948
989.136	352.717
992.898	251.865
996.659	242.302
1000.42	201.299
1004.17	112.247
1007.93	114.931
1011.68	93.781
1015.43	78.755
1019.18	73.047
1022.93	1.929
1026.68	3.163
1030.42	37.114
1034.17	16.117
1037.91	4.495
1041.65	44.92
1045.39	52.249
1049.12	107.576
1052.86	136.813
1056.59	274.018
1060.33	246.38
1064.06	247.437
1067.78	176.295
1071.51	239.859
1075.23	250.748
1078.96	190.196
1082.68	227.551
1086.4	233.138
1090.12	177.549
1093.83	140.075
1097.55	91.782
1101.26	110.32
1104.97	90.412
1108.68	20.122
1112.39	11.633
1116.1	16.666
1119.8	25.244
1123.5	15.599
1127.2	3.852
1130.9	19.115
1134.6	14.852
1138.3	15.944
1141.99	9.251
1145.69	5.391
1149.38	0.002
1153.07	1.734
1156.76	7.579
1160.44	2.098
1164.13	8.458
1167.81	22.368
1171.49	0.223
1175.17	0.712
1178.85	4.53
1182.52	5.695
1186.2	18.02
1189.87	43.305
1193.54	25.879
1197.21	11.978
1200.88	9.954
1204.55	23.53
1208.21	1.006
1211.88	6.17
1215.54	28.06
1219.2	2.744
1222.86	57.205
1226.51	50.465
1230.17	11.496
1233.82	50.309
1237.47	70.894
1241.12	10.444
1244.77	77.312
1248.42	36.186
1252.06	44.847
1255.71	55.3
1259.35	33.538
1262.99	14.538
1266.63	49.112
1270.26	30.54
1273.9	23.026
1277.53	61.292
1281.16	52.538
1284.8	38.882
1288.42	72.124
1292.05	28.942
1295.68	74.181
1299.3	14.051
1302.92	15.63
1306.55	63.976
1310.16	55.92
1313.78	89.085
1317.4	74.936
1321.01	16.658
1324.62	62.954
1328.24	69.472
1331.85	15.777
1335.45	2.104
1339.06	68.207
1342.66	52.466
1346.27	57.256
1349.87	63.151
1353.47	66.49
1357.07	60.754
1360.66	75.106
1364.26	62.464
1367.85	34.73
1371.44	63.111
1375.04	56.399
1378.62	86.605
1382.21	52.372
1385.8	69.519
1389.38	72.402
1392.96	108.776
1396.54	142.338
1400.12	191.144
1403.7	168.66
1407.28	186.37
1410.85	203.169
1414.42	125.04
1417.99	153.248
1421.56	155.023
1425.13	70.941
1428.7	59.031
1432.26	13.215
1435.83	58.438
1439.39	9.817
1442.95	8.588
1446.51	70.559
1450.06	65.779
1453.62	82.269
1457.17	27.266
1460.73	63.821
1464.28	75.916
1467.83	114.7
1471.37	22.342
1474.92	45.081
1478.46	5.728
1482.01	82.407
1485.55	48.367
1489.09	1.965
1492.63	0.117
