Measurement: Raman, 514 nm, ccw, Raman Data Processed
Mineral: Baryte
Rruff sample: R040036
Ideal chemistry: BaSO_4_
Locality: Cumbria County, England
Source: University of Arizona Mineral Museum
Description: Golden brown tabular crystal
Measured chemistry: Ba_1.00_S_1.00_O_4_; trace amounts of Pb
Pin_id: M00019
Orientation: Laser parallel to b* (0 1 0). Fiducial mark perpendicular to laser is parallel to c [0 0 1]
Raman shift (cm-1)	intensity
26.288	0
30.504	11.753
34.717	20.504
38.929	49.869
43.138	32.924
47.345	45.646
51.551	45.253
55.754	62.792
59.955	82.602
64.154	84.567
68.351	95.414
72.546	75.018
76.739	23.68
80.93	3.362
85.119	24.965
89.306	6.337
93.49	12.731
97.673	15.83
101.854	35.364
106.032	58.136
110.209	60.116
114.384	158.184
118.556	143.239
122.727	117.212
126.895	128.125
131.062	157.922
135.226	153.663
139.388	160.218
143.549	169.77
147.707	273.001
151.863	443.521
156.018	410.113
160.17	281.413
164.32	157.523
168.469	150.857
172.615	107.037
176.759	154.646
180.901	242.557
185.041	513.825
189.18	875.51
193.316	551.744
197.45	241.548
201.582	146.848
205.712	123.706
209.84	89.93
213.967	76.007
218.091	69.851
222.213	69.635
226.333	63.822
230.451	56.036
234.567	53.259
238.682	51.842
242.794	43.331
246.904	33.175
251.012	37.728
255.118	27.703
259.223	43.893
263.325	53.393
267.425	23.95
271.523	28.411
275.62	29.781
279.714	22.078
283.806	5.336
287.897	22.558
291.985	25.745
296.072	28.903
300.156	32.029
304.239	12.122
308.319	12.18
312.398	17.208
316.474	23.205
320.549	2.171
324.622	3.099
328.692	13.947
332.761	30.719
336.828	20.425
340.893	6.07
344.956	4.661
349.017	21.203
353.076	24.75
357.133	5.219
361.188	3.659
365.241	26.073
369.292	7.434
373.341	12.807
377.388	36.135
381.434	39.465
385.477	28.777
389.519	32.017
393.558	35.261
397.596	33.57
401.631	27.694
405.665	11.003
409.697	15.309
413.727	17.556
417.755	17.689
421.781	36.749
425.805	59.85
429.827	93.771
433.847	170.794
437.865	354.93
441.882	736.035
445.896	1869.17
449.909	4324.13
453.919	4286.09
457.928	1894.02
461.935	970.058
465.94	411.928
469.943	177.803
473.944	118.739
477.943	72.815
481.94	39.875
485.935	36.849
489.929	32.808
493.92	33.903
497.91	28.899
501.898	30.875
505.883	34.791
509.867	30.951
513.849	34.026
517.829	23.097
521.808	29.171
525.784	21.614
529.758	28.507
533.731	42.718
537.701	25.943
541.67	12.141
545.637	29.339
549.602	40.476
553.565	23.633
557.526	19.675
561.486	16.825
565.443	10.127
569.399	37.729
573.352	17.13
577.304	29.535
581.254	29.237
585.202	57.69
589.148	48.036
593.093	56.158
597.035	64.536
600.976	75.877
604.914	140.445
608.851	207.602
612.786	668.676
616.719	1342.9
620.651	913.975
624.58	940.724
628.507	1674.28
632.433	1332.74
636.357	742.806
640.279	870.13
644.199	1646.14
648.117	1918.62
652.034	798.046
655.948	289.314
659.861	131.513
663.772	80.339
667.681	59.143
671.588	36.923
675.493	24.678
679.397	37.471
683.298	47.569
687.198	21.512
691.096	23.189
694.992	17.247
698.886	14.434
702.779	3.079
706.669	2.663
710.558	11.176
714.445	20.651
718.33	1.091
722.214	4.51
726.095	3.264
729.975	8.175
733.852	11.47
737.728	5.734
741.603	9.236
745.475	8.571
749.345	10.864
753.214	6.99
757.081	8.914
760.946	7.867
764.809	3.872
768.671	1.079
772.53	25.009
776.388	14.845
780.244	11.664
784.098	17.448
787.951	2.799
791.801	15.091
795.65	13.424
799.497	12.209
803.342	5.867
807.186	8.407
811.027	9.974
814.867	2.48
818.705	0.979
822.541	1.482
826.375	1.015
830.208	16.429
834.039	5.853
837.868	4.745
841.695	3.481
845.521	10.725
849.344	25.682
853.166	32.792
856.986	39.771
860.804	46.394
864.621	39.531
868.436	9.621
872.248	21.907
876.06	3.877
879.869	12.092
883.677	9.329
887.482	18.842
891.287	42.055
895.089	68.836
898.889	49.069
902.688	58.676
906.485	60.035
910.28	32.661
914.074	50.472
917.865	55.315
921.655	60.51
925.443	43.104
929.23	41.578
933.014	46.528
936.797	57.844
940.578	87.174
944.358	75.519
948.135	66.88
951.911	100.194
955.685	118.564
959.458	172.579
963.228	271.755
966.997	346.206
970.764	523.684
974.529	766.105
978.293	1544.59
982.055	5343.14
985.815	46310.7
989.573	30728.3
993.33	5419.99
997.085	1593.68
1000.84	856.402
1004.59	535.156
1008.34	362.943
1012.09	279.763
1015.83	220.202
1019.58	217.997
1023.32	169.896
1027.06	143.865
1030.8	118.873
1034.54	91.93
1038.27	70.035
1042.01	64.184
1045.74	32.38
1049.47	45.627
1053.2	50.916
1056.93	51.247
1060.65	24.622
1064.38	37.047
1068.1	42.518
1071.82	21.036
1075.54	11.593
1079.25	25.195
1082.97	64.842
1086.68	61.538
1090.39	49.287
1094.11	89.09
1097.81	207.952
1101.52	493.864
1105.22	467.823
1108.93	183.824
1112.63	136.873
1116.33	147.966
1120.03	178.106
1123.72	283.286
1127.42	454.504
1131.11	917.759
1134.8	2521.05
1138.49	4404.39
1142.18	5009.77
1145.87	3705.18
1149.55	1872.64
1153.23	980.137
1156.91	698.674
1160.59	852.247
1164.27	1586.85
1167.95	1448.49
1171.62	734.162
1175.3	373.864
1178.97	224.596
1182.64	141.356
1186.3	101.144
1189.97	68.959
1193.63	53.8
1197.3	52.666
1200.96	43.816
1204.62	30.728
1208.27	34.788
1211.93	43.257
1215.58	64.519
1219.24	54.667
1222.89	41.405
1226.54	76.369
1230.18	44.736
1233.83	72.792
1237.47	81.93
1241.12	65.619
1244.76	45.731
1248.4	55.589
1252.04	40.055
1255.67	22.178
1259.31	43.316
1262.94	31.469
1266.57	29.054
1270.2	17.62
1273.83	56.021
1277.45	49.226
1281.08	32.441
1284.7	20.767
1288.32	20.204
1291.94	9.532
1295.56	11.769
1299.17	15.985
1302.79	9.17
1306.4	14.318
1310.01	26.445
1313.62	15.549
1317.23	41.627
1320.84	43.7
1324.44	9.747
1328.04	3.237
1331.64	1.759
1335.24	2.28
1338.84	11.348
1342.44	4.551
1346.03	29.576
1349.63	3.258
1353.22	17.058
1356.81	3.177
1360.4	18.446
1363.98	0.748
1367.57	4.94
1371.15	10.784
1374.73	10.483
1378.32	11.931
1381.89	35.322
1385.47	20.573
1389.05	15.804
1392.62	3.985
1396.19	2.214
1399.76	3.387
1403.33	30.551
1406.9	44.704
1410.46	14.85
1414.03	1.992
1417.59	7.971
1421.15	29.801
1424.71	44.61
1428.27	43.05
1431.82	58.18
1435.38	56.034
1438.93	91.518
1442.48	118.866
1446.03	130.308
1449.58	150.126
1453.13	164.318
1456.67	174.153
1460.21	144.966
1463.76	126.897
1467.3	91.072
1470.83	74.404
1474.37	55.795
1477.91	41.995
1481.44	51.432
1484.97	51.879
1488.5	50.45
1492.03	34.128
1495.56	30.02
1499.08	25.947
1502.61	25.918
