Measurement: Raman, 514 nm, ccw, Raman Data Processed
Mineral: Baryte
Rruff sample: R040036
Ideal chemistry: BaSO_4_
Locality: Cumbria County, England
Source: University of Arizona Mineral Museum
Description: Golden brown tabular crystal
Measured chemistry: Ba_1.00_S_1.00_O_4_; trace amounts of Pb
Pin_id: M00019
Orientation: Laser parallel to b* (0 1 0). Fiducial mark perpendicular to laser is parallel to c [0 0 1]
Raman shift (cm-1)	intensity
26.288	0
30.504	7.71
34.717	41.676
38.929	28.48
43.138	26.425
47.345	16.728
51.551	6.864
55.754	34.392
59.955	48.538
64.154	71.886
68.351	65.142
72.546	58.487
76.739	16.882
80.93	12.286
85.119	27.329
89.306	12.98
93.49	15.657
97.673	28.634
101.854	10.901
106.032	30.38
110.209	71.061
114.384	204.801
118.556	148.52
122.727	132.187
126.895	147.777
131.062	182.43
135.226	164.488
139.388	119.377
143.549	147.198
147.707	236.157
151.863	366.169
156.018	415.502
160.17	296.667
164.32	174.688
168.469	120.658
172.615	122.661
176.759	151.967
180.901	249.164
185.041	541.818
189.18	928.429
193.316	681.129
197.45	297.162
201.582	161.81
205.712	114.32
209.84	86.386
213.967	72.254
218.091	72.004
222.213	61.715
226.333	67.785
230.451	41.29
234.567	50.536
238.682	45.964
242.794	39.317
246.904	27.541
251.012	36.297
255.118	34.153
259.223	19.325
263.325	57.668
267.425	36.978
271.523	28.254
275.62	29.498
279.714	16.709
283.806	6.889
287.897	32.038
291.985	25.154
296.072	23.243
300.156	22.305
304.239	18.339
308.319	14.341
312.398	30.316
316.474	4.264
320.549	11.184
324.622	10.067
328.692	27.88
332.761	1.373
336.828	1.695
340.893	21.922
344.956	10.496
349.017	0.97
353.076	8.527
357.133	5.993
361.188	1.421
365.241	12.834
369.292	18.205
373.341	13.577
377.388	13.882
381.434	6.248
385.477	19.607
389.519	21.973
393.558	23.237
397.596	38.504
401.631	31.747
405.665	33.873
409.697	24.167
413.727	32.465
417.755	44.689
421.781	46.913
425.805	67.042
429.827	104.991
433.847	204.011
437.865	403.11
441.882	911.14
445.896	2250.25
449.909	5243.32
453.919	5198.35
457.928	2194.4
461.935	1022.32
465.94	428.26
469.943	186.086
473.944	108.142
477.943	59.984
481.94	78.519
485.935	45.605
489.929	22.563
493.92	39.468
497.91	36.35
501.898	45.313
505.883	25.182
509.867	40.202
513.849	47.253
517.829	43.211
521.808	30.201
525.784	37.147
529.758	21.176
533.731	27.315
537.701	25.461
541.67	16.548
545.637	17.688
549.602	31.846
553.565	22.989
557.526	35.456
561.486	21.63
565.443	31.021
569.399	44.293
573.352	14.513
577.304	11.775
581.254	22.043
585.202	55.195
589.148	39.726
593.093	22.779
597.035	42.149
600.976	69.404
604.914	97.788
608.851	203.22
612.786	598.269
616.719	1264.89
620.651	811.218
624.58	784.188
628.507	1284.54
632.433	1094.59
636.357	709.837
640.279	933.097
644.199	1950.52
648.117	2284.78
652.034	927.956
655.948	322.791
659.861	158.597
663.772	70.655
667.681	56.605
671.588	38.387
675.493	25.784
679.397	21.877
683.298	39.866
687.198	25.831
691.096	30.492
694.992	34.226
698.886	8.017
702.779	22.717
706.669	8.23
710.558	1.733
714.445	0.819
718.33	20.592
722.214	22.98
726.095	10.663
729.975	11.655
733.852	9.945
737.728	2.206
741.603	2.43
745.475	12.621
749.345	26.227
753.214	0.132
757.081	18.92
760.946	22.935
764.809	11.079
768.671	8.87
772.53	11.208
776.388	7.677
780.244	8.406
784.098	3.651
787.951	1.129
791.801	3.876
795.65	10.595
799.497	8.291
803.342	10.963
807.186	17.605
811.027	12.777
814.867	6.196
818.705	6.647
822.541	2.128
826.375	0.637
830.208	0.809
834.039	8.758
837.868	9.717
841.695	8.663
845.521	25.73
849.344	25.877
853.166	11.055
856.986	28.357
860.804	38.495
864.621	43.369
868.436	32.553
872.248	13.839
876.06	7.749
879.869	2.8
883.677	5.775
887.482	8.911
891.287	25.734
895.089	45.453
898.889	56.36
902.688	20.273
906.485	38.466
910.28	43.282
914.074	58.554
917.865	20.213
921.655	21.064
925.443	49.081
929.23	44.066
933.014	50.375
936.797	59.693
940.578	64.752
944.358	47.91
948.135	62.912
951.911	85.768
955.685	100.755
959.458	145.956
963.228	277.096
966.997	323.509
970.764	449.649
974.529	683.936
978.293	1337.44
982.055	4637.97
985.815	41076.5
989.573	29384.1
993.33	4905.7
997.085	1453.34
1000.84	805.004
1004.59	482.704
1008.34	378.432
1012.09	259.191
1015.83	213.984
1019.58	166.81
1023.32	182.676
1027.06	116.586
1030.8	108.535
1034.54	68.521
1038.27	60.541
1042.01	49.6
1045.74	25.697
1049.47	36.831
1053.2	35.003
1056.93	36.218
1060.65	30.471
1064.38	10.763
1068.1	3.319
1071.82	13.473
1075.54	38.89
1079.25	37.348
1082.97	69.843
1086.68	69.395
1090.39	78.993
1094.11	117.644
1097.81	251.341
1101.52	711.085
1105.22	680.87
1108.93	305.695
1112.63	168.561
1116.33	150.463
1120.03	176.399
1123.72	206.372
1127.42	412.38
1131.11	801.423
1134.8	2313.5
1138.49	4047.61
1142.18	4014.76
1145.87	2861.94
1149.55	1516.88
1153.23	814.4
1156.91	621.678
1160.59	880.989
1164.27	1677.33
1167.95	1566.7
1171.62	759.22
1175.3	400.794
1178.97	226.253
1182.64	142.745
1186.3	112.255
1189.97	82.79
1193.63	69.353
1197.3	56.231
1200.96	59.942
1204.62	49.227
1208.27	45.996
1211.93	39.668
1215.58	67.977
1219.24	44.997
1222.89	43.707
1226.54	42.685
1230.18	66.304
1233.83	58.412
1237.47	66.206
1241.12	73.145
1244.76	46.316
1248.4	43.125
1252.04	54.053
1255.67	43.958
1259.31	26.815
1262.94	15.905
1266.57	24.793
1270.2	37.895
1273.83	34.847
1277.45	9.797
1281.08	31.795
1284.7	9.733
1288.32	12.821
1291.94	35.788
1295.56	11.721
1299.17	26.927
1302.79	3.189
1306.4	4.673
1310.01	14.524
1313.62	4.371
1317.23	31.212
1320.84	29.041
1324.44	11.859
1328.04	9.66
1331.64	5.56
1335.24	2.806
1338.84	0.085
1342.44	5.623
1346.03	13.687
1349.63	15.022
1353.22	8.383
1356.81	16.766
1360.4	8.17
1363.98	0.426
1367.57	4.997
1371.15	14.254
1374.73	14.297
1378.32	13.305
1381.89	2.311
1385.47	17.313
1389.05	3.692
1392.62	8.296
1396.19	9.277
1399.76	13.246
1403.33	22.872
1406.9	3.815
1410.46	26.746
1414.03	17.682
1417.59	8.144
1421.15	25.684
1424.71	7.01
1428.27	46.697
1431.82	34.111
1435.38	107.371
1438.93	73.161
1442.48	118.277
1446.03	115.108
1449.58	140.296
1453.13	154.67
1456.67	134.371
1460.21	130.565
1463.76	137.218
1467.3	104.961
1470.83	83.11
1474.37	60.414
1477.91	67.061
1481.44	55.741
1484.97	79.661
1488.5	73.717
1492.03	63.05
1495.56	34.865
1499.08	16.563
