Measurement: Raman, 514 nm, ccw, Raman Data Processed
Mineral: Baryte
Rruff sample: R040036
Ideal chemistry: BaSO_4_
Locality: Cumbria County, England
Source: University of Arizona Mineral Museum
Description: Golden brown tabular crystal
Measured chemistry: Ba_1.00_S_1.00_O_4_; trace amounts of Pb
Pin_id: M00028
Orientation: Laser parallel to -a* (-1 0 0). Fiducial mark perpendicular to laser is parallel to -b [0 -1 0]
Raman shift (cm-1)	intensity
26.288	0
30.504	13.78
34.717	19.298
38.929	25.968
43.138	40.435
47.345	31.853
51.551	36.177
55.754	43.38
59.955	84.81
64.154	106.623
68.351	65.95
72.546	69.42
76.739	26.016
80.93	1.303
85.119	18.59
89.306	40.849
93.49	14.068
97.673	52.758
101.854	88.642
106.032	136.738
110.209	286.033
114.384	417.449
118.556	438.917
122.727	559.383
126.895	524.838
131.062	493.217
135.226	458.367
139.388	437.423
143.549	390.529
147.707	453.689
151.863	551.901
156.018	446.166
160.17	337.484
164.32	354.857
168.469	365.286
172.615	299.772
176.759	282.076
180.901	346.788
185.041	314.247
189.18	351.442
193.316	350.351
197.45	340.973
201.582	270.391
205.712	247.468
209.84	286.167
213.967	277.7
218.091	206.233
222.213	198.718
226.333	257.04
230.451	249.477
234.567	166.723
238.682	208.485
242.794	235.368
246.904	191.169
251.012	128.062
255.118	171.993
259.223	219.962
263.325	160.995
267.425	129.036
271.523	200.114
275.62	183.229
279.714	147.385
283.806	114.583
287.897	175.825
291.985	160.113
296.072	85.447
300.156	101.825
304.239	161.249
308.319	146.717
312.398	64.231
316.474	118.789
320.549	143.392
324.622	100.036
328.692	36.698
332.761	100.379
336.828	158.082
340.893	109.812
344.956	31.573
349.017	70.371
353.076	133.209
357.133	90.093
361.188	15.028
365.241	49.018
369.292	106.057
373.341	89.15
377.388	23.306
381.434	48.542
385.477	119.882
389.519	89.322
393.558	37.927
397.596	74.506
401.631	120.136
405.665	74.821
409.697	1.621
413.727	13.403
417.755	130.238
421.781	130.35
425.805	55.295
429.827	86.31
433.847	266.36
437.865	438.505
441.882	705.668
445.896	1601.89
449.909	4434.15
453.919	8687.47
457.928	4524.84
461.935	1721.27
465.94	806.744
469.943	481.278
473.944	248.865
477.943	126.509
481.94	97.201
485.935	133.939
489.929	105.723
493.92	28.549
497.91	7.418
501.898	86.332
505.883	101.289
509.867	43.285
513.849	24.319
517.829	57.379
521.808	144.485
525.784	77.641
529.758	16.809
533.731	2.686
537.701	77.912
541.67	109.499
545.637	33.117
549.602	8.577
553.565	53.726
557.526	82.081
561.486	45.806
565.443	5.001
569.399	2.592
573.352	101.391
577.304	118.068
581.254	71.256
585.202	3.871
589.148	24.433
593.093	132.919
597.035	148.026
600.976	66.57
604.914	106.59
608.851	308.151
612.786	819.053
616.719	2080.04
620.651	1813.56
624.58	861.914
628.507	621.876
632.433	540.363
636.357	283.227
640.279	159.699
644.199	133.005
648.117	212.769
652.034	245.29
655.948	109.728
659.861	22.368
663.772	37.858
667.681	88.235
671.588	111.811
675.493	62.139
679.397	12.301
683.298	13.972
687.198	63.607
691.096	117.121
694.992	34.523
698.886	11.052
702.779	10.126
706.669	84.101
710.558	108.153
714.445	45.214
718.33	26.789
722.214	21.88
726.095	70.016
729.975	119.875
733.852	63.704
737.728	38.64
741.603	0.085
745.475	78.774
749.345	114.416
753.214	93.02
757.081	8.546
760.946	29.971
764.809	54.459
768.671	93.857
772.53	97.217
776.388	26.542
780.244	26.164
784.098	15.079
787.951	83.291
791.801	147.468
795.65	110.617
799.497	2.734
803.342	13.82
807.186	77.863
811.027	142.897
814.867	97.224
818.705	20.866
822.541	11.184
826.375	6.394
830.208	100.284
834.039	123.145
837.868	86.627
841.695	0.435
845.521	16.419
849.344	121.189
853.166	175.379
856.986	188.133
860.804	159.223
864.621	60.405
868.436	45.006
872.248	46.677
876.06	132.672
879.869	159.161
883.677	47.418
887.482	1.005
891.287	46.245
895.089	183.394
898.889	211.184
902.688	172.825
906.485	112.997
910.28	21.643
914.074	34.905
917.865	134.79
921.655	144.376
925.443	139.729
929.23	82.315
933.014	8.979
936.797	64.339
940.578	117.036
944.358	163.739
948.135	158.234
951.911	126.968
955.685	62.374
959.458	52.745
963.228	199.5
966.997	394.943
970.764	458.542
974.529	586.108
978.293	811.81
982.055	2154.66
985.815	12782.5
989.573	43479.4
993.33	8174.31
997.085	1907.39
1000.84	887.356
1004.59	539.342
1008.34	316.345
1012.09	300.511
1015.83	317.572
1019.58	354.77
1023.32	243.158
1027.06	133.297
1030.8	62.097
1034.54	120.295
1038.27	147.523
1042.01	203.301
1045.74	155.591
1049.47	135.889
1053.2	94.371
1056.93	224.712
1060.65	131.112
1064.38	135.65
1068.1	168.196
1071.82	243.067
1075.54	200.496
1079.25	194.95
1082.97	487.84
1086.68	538.314
1090.39	355.806
1094.11	329.539
1097.81	464.101
1101.52	860.046
1105.22	1414.61
1108.93	725.196
1112.63	294.809
1116.33	220.432
1120.03	210.067
1123.72	201.711
1127.42	100.365
1131.11	26.269
1134.8	13.942
1138.49	36.622
1142.18	73.312
1145.87	171.024
1149.55	153.748
1153.23	50.475
1156.91	18.163
1160.59	28.114
1164.27	7.55
1167.95	21.624
1171.62	59.293
1175.3	116.959
1178.97	141.227
1182.64	112.882
1186.3	62.514
1189.97	0.809
1193.63	6.159
1197.3	2.551
1200.96	75.092
1204.62	142.769
1208.27	162.345
1211.93	109.916
1215.58	97.472
1219.24	26.018
1222.89	7.403
1226.54	28.771
1230.18	94.351
1233.83	153.878
1237.47	217.823
1241.12	246.134
1244.76	153.608
1248.4	68.308
1252.04	14.765
1255.67	21.215
1259.31	75.656
1262.94	76.98
1266.57	179.611
1270.2	213.566
1273.83	181.513
1277.45	99.985
1281.08	41.356
1284.7	49.657
1288.32	6.019
1291.94	81.138
1295.56	122.47
1299.17	183.793
1302.79	221.139
1306.4	139.896
1310.01	117.13
1313.62	68.351
1317.23	5.397
1320.84	10.555
1324.44	77.566
1328.04	133.618
1331.64	190.66
1335.24	203.277
1338.84	151.327
1342.44	145.347
1346.03	80.929
1349.63	10.924
1353.22	22.319
1356.81	8.637
1360.4	56.557
1363.98	108.107
1367.57	202.082
1371.15	159.198
1374.73	198.443
1378.32	140.206
1381.89	78.43
1385.47	33.367
1389.05	14.533
1392.62	2.344
1396.19	14.216
1399.76	132.881
1403.33	151.507
1406.9	195.821
1410.46	174.921
1414.03	166.911
1417.59	98.969
1421.15	32.97
1424.71	33.117
1428.27	16.22
1431.82	32.146
1435.38	126.411
1438.93	202.9
1442.48	353.446
1446.03	369.438
1449.58	377.828
1453.13	371.994
1456.67	304.495
1460.21	252.109
1463.76	199.332
1467.3	111.458
1470.83	75.699
1474.37	73.996
1477.91	160.213
1481.44	195.661
1484.97	221.461
1488.5	270.551
1492.03	218.094
1495.56	163.388
1499.08	104.252
1502.61	0
