Measurement: Raman, 514 nm, ccw, Raman Data Processed
Mineral: Baryte
Rruff sample: R040036
Ideal chemistry: BaSO_4_
Locality: Cumbria County, England
Source: University of Arizona Mineral Museum
Description: Golden brown tabular crystal
Measured chemistry: Ba_1.00_S_1.00_O_4_; trace amounts of Pb
Pin_id: M00021
Orientation: Laser parallel to c* (0 0 1). Fiducial mark perpendicular to laser is parallel to -a [-1 0 0]
Raman shift (cm-1)	intensity
26.288	0
30.504	40.605
34.717	65.535
38.929	133.812
43.138	144.639
47.345	133.249
51.551	132.011
55.754	139.736
59.955	163.046
64.154	135.897
68.351	94.434
72.546	75.339
76.739	28.067
80.93	32.863
85.119	1.994
89.306	48.026
93.49	38.258
97.673	5.446
101.854	25.112
106.032	60.782
110.209	93.861
114.384	176.791
118.556	187.81
122.727	174.478
126.895	163.796
131.062	196.494
135.226	200.383
139.388	219.273
143.549	199.313
147.707	271.066
151.863	465.603
156.018	439.125
160.17	299.419
164.32	192.577
168.469	174.391
172.615	164.982
176.759	198.029
180.901	209.262
185.041	361.433
189.18	637.297
193.316	509.928
197.45	291.012
201.582	200.463
205.712	182.665
209.84	154.352
213.967	140.187
218.091	143.558
222.213	127.089
226.333	148.962
230.451	151.613
234.567	109.484
238.682	133.777
242.794	93.734
246.904	91.384
251.012	93.374
255.118	86.292
259.223	80.857
263.325	88.441
267.425	87.779
271.523	82.495
275.62	87.412
279.714	76.035
283.806	56.574
287.897	70.264
291.985	60.869
296.072	69.393
300.156	44.842
304.239	56.214
308.319	68.511
312.398	70.738
316.474	64.834
320.549	60.802
324.622	72.8
328.692	43.578
332.761	65.167
336.828	49.569
340.893	45.803
344.956	65.889
349.017	54.853
353.076	54.721
357.133	65.44
361.188	50.774
365.241	53.987
369.292	42.375
373.341	33.584
377.388	40.832
381.434	66.032
385.477	54.518
389.519	34.696
393.558	66.859
397.596	64.896
401.631	47.36
405.665	46.71
409.697	58.986
413.727	48.245
417.755	35.415
421.781	48.685
425.805	55.956
429.827	84.838
433.847	110.862
437.865	191.858
441.882	354.991
445.896	773.802
449.909	2010.61
453.919	2983.72
457.928	1843.65
461.935	1953.62
465.94	1156.56
469.943	411.472
473.944	184.236
477.943	102.093
481.94	75.968
485.935	42.81
489.929	58.777
493.92	47.735
497.91	36.68
501.898	32.655
505.883	24.542
509.867	33.517
513.849	32.412
517.829	35.407
521.808	38.469
525.784	32.516
529.758	20.635
533.731	22.135
537.701	26.926
541.67	8.995
545.637	17.192
549.602	26.499
553.565	18.718
557.526	20.751
561.486	1.261
565.443	27.308
569.399	22.605
573.352	29.654
577.304	33.138
581.254	16.616
585.202	38.223
589.148	44.034
593.093	54.286
597.035	52.44
600.976	76.204
604.914	98.459
608.851	155.863
612.786	438.028
616.719	1339.2
620.651	966.636
624.58	761.877
628.507	1401.06
632.433	1500.14
636.357	646.578
640.279	450.81
644.199	597.501
648.117	864.7
652.034	468.834
655.948	190.9
659.861	107.326
663.772	61.272
667.681	26.167
671.588	16.564
675.493	15.57
679.397	19.01
683.298	4.836
687.198	18.177
691.096	0.841
694.992	14.999
698.886	6.609
702.779	14.593
706.669	6.158
710.558	18.338
714.445	5.771
718.33	4.759
722.214	3.79
726.095	2.711
729.975	13.999
733.852	15.382
737.728	12.261
741.603	1.945
745.475	8.661
749.345	0.59
753.214	11.813
757.081	3.991
760.946	11.174
764.809	1.693
768.671	4.41
772.53	7.487
776.388	37.468
780.244	6.482
784.098	25.467
787.951	10.38
791.801	1.263
795.65	3.879
799.497	0.947
803.342	21.744
807.186	11.521
811.027	7.734
814.867	2.979
818.705	2.635
822.541	20.224
826.375	14.831
830.208	25.261
834.039	25.802
837.868	22.889
841.695	7.035
845.521	18.917
849.344	40.879
853.166	19.827
856.986	25.171
860.804	45.269
864.621	37.406
868.436	30.284
872.248	10.658
876.06	3.113
879.869	15.852
883.677	10.037
887.482	31.397
891.287	17.844
895.089	30.091
898.889	73.329
902.688	65.538
906.485	48.942
910.28	77.996
914.074	44.572
917.865	54.552
921.655	51.496
925.443	82.77
929.23	50.101
933.014	57.414
936.797	85.546
940.578	98.076
944.358	94.603
948.135	102.445
951.911	70.021
955.685	124.028
959.458	194.589
963.228	247.55
966.997	404.208
970.764	507.841
974.529	665.933
978.293	1211.57
982.055	3451.34
985.815	26814.1
989.573	48620
993.33	8026.85
997.085	2024.75
1000.84	998.678
1004.59	639.648
1008.34	417.647
1012.09	325.678
1015.83	295.746
1019.58	211.847
1023.32	203.982
1027.06	183.155
1030.8	138.364
1034.54	133.611
1038.27	85.899
1042.01	112.229
1045.74	75.598
1049.47	73.012
1053.2	44.487
1056.93	53.006
1060.65	85.568
1064.38	55.168
1068.1	36.831
1071.82	50.519
1075.54	36.243
1079.25	16.001
1082.97	52.807
1086.68	70.652
1090.39	62.542
1094.11	97.47
1097.81	122.462
1101.52	304.472
1105.22	319.529
1108.93	122.627
1112.63	87.761
1116.33	77.928
1120.03	149.126
1123.72	224.354
1127.42	285.609
1131.11	535.893
1134.8	1263.21
1138.49	2731.56
1142.18	4303.94
1145.87	3993.34
1149.55	2034.77
1153.23	956.229
1156.91	561.932
1160.59	397.852
1164.27	580.379
1167.95	603.316
1171.62	355.525
1175.3	213.353
1178.97	125.387
1182.64	45.219
1186.3	29.948
1189.97	8.596
1193.63	41.72
1197.3	17.296
1200.96	15.104
1204.62	47.941
1208.27	54.636
1211.93	27.53
1215.58	81.633
1219.24	27.61
1222.89	11.88
1226.54	21.624
1230.18	49.833
1233.83	68.712
1237.47	73.803
1241.12	86.638
1244.76	56.366
1248.4	46.341
1252.04	19.075
1255.67	22.795
1259.31	16.52
1262.94	1.248
1266.57	39.69
1270.2	46.669
1273.83	28.454
1277.45	1.144
1281.08	12.899
1284.7	2.397
1288.32	11.772
1291.94	19.092
1295.56	11.062
1299.17	10.489
1302.79	10.031
1306.4	9.501
1310.01	18.929
1313.62	43.668
1317.23	13.7
1320.84	15.968
1324.44	27.315
1328.04	24.564
1331.64	30.757
1335.24	16.919
1338.84	31.04
1342.44	6.872
1346.03	5.823
1349.63	5.191
1353.22	8.168
1356.81	30.115
1360.4	21.011
1363.98	13.901
1367.57	18.089
1371.15	46.896
1374.73	55.772
1378.32	23.346
1381.89	20.904
1385.47	38.43
1389.05	40.921
1392.62	21.611
1396.19	0.204
1399.76	30.959
1403.33	28.153
1406.9	53.572
1410.46	53.269
1414.03	22.747
1417.59	2.727
1421.15	69.081
1424.71	28.662
1428.27	16.566
1431.82	54.776
1435.38	53.099
1438.93	91.107
1442.48	141.517
1446.03	160.816
1449.58	156.684
1453.13	148.251
1456.67	155.692
1460.21	139.647
1463.76	145.348
1467.3	132.951
1470.83	60.351
1474.37	38.797
1477.91	113.357
1481.44	109.972
1484.97	87.919
1488.5	82.092
1492.03	92.709
1495.56	87.089
1499.08	32.28
