Measurement: Raman, 514 nm, ccw, Raman Data Processed
Mineral: Baryte
Rruff sample: R040036
Ideal chemistry: BaSO_4_
Locality: Cumbria County, England
Source: University of Arizona Mineral Museum
Description: Golden brown tabular crystal
Measured chemistry: Ba_1.00_S_1.00_O_4_; trace amounts of Pb
Pin_id: M00019
Orientation: Laser parallel to b* (0 1 0). Fiducial mark perpendicular to laser is parallel to c [0 0 1]
Raman shift (cm-1)	intensity
26.288	0
30.504	51.375
34.717	49.214
38.929	18.252
43.138	91.312
47.345	50.613
51.551	110.25
55.754	104.391
59.955	130.409
64.154	134.453
68.351	123.498
72.546	105.625
76.739	72.221
80.93	28.875
85.119	40.543
89.306	33.098
93.49	22.743
97.673	6.422
101.854	41.85
106.032	78.695
110.209	131.013
114.384	311.521
118.556	301.008
122.727	226.425
126.895	217.615
131.062	235.491
135.226	248.091
139.388	236.14
143.549	256.88
147.707	371.391
151.863	620.104
156.018	579.934
160.17	379.978
164.32	279.384
168.469	213.306
172.615	230.695
176.759	200.742
180.901	273.978
185.041	487.713
189.18	762.64
193.316	548.843
197.45	293.903
201.582	219.921
205.712	205.779
209.84	179.259
213.967	152.707
218.091	124.651
222.213	138.102
226.333	145.331
230.451	133.309
234.567	112.197
238.682	100.331
242.794	104.271
246.904	98.716
251.012	93.287
255.118	91.519
259.223	97.536
263.325	98.384
267.425	94.253
271.523	85.999
275.62	64.8
279.714	68.476
283.806	81.108
287.897	61.666
291.985	58.188
296.072	56.676
300.156	68.129
304.239	54.546
308.319	53.923
312.398	70.257
316.474	54.556
320.549	57.822
324.622	57.04
328.692	56.113
332.761	55.045
336.828	35.86
340.893	29.575
344.956	45.201
349.017	53.817
353.076	23.377
357.133	19.862
361.188	32.429
365.241	31.814
369.292	26.123
373.341	19.575
377.388	24.918
381.434	47.217
385.477	18.528
389.519	61.874
393.558	58.264
397.596	75.027
401.631	47.434
405.665	31.887
409.697	34.436
413.727	47.712
417.755	37.378
421.781	50.726
425.805	33.939
429.827	82.288
433.847	141.476
437.865	239.62
441.882	460.548
445.896	1082.6
449.909	2826.64
453.919	4670.65
457.928	2457.96
461.935	1262.19
465.94	643.323
469.943	274.523
473.944	133.577
477.943	77.622
481.94	47.674
485.935	56.739
489.929	56.815
493.92	22.045
497.91	36.15
501.898	31.968
505.883	28.987
509.867	32.974
513.849	5.002
517.829	38.894
521.808	57.836
525.784	36.941
529.758	38.021
533.731	40.387
537.701	31.64
541.67	6.016
545.637	22.567
549.602	21.279
553.565	37.746
557.526	47.946
561.486	33.333
565.443	53.662
569.399	50.453
573.352	41.126
577.304	75.736
581.254	44.792
585.202	80.79
589.148	83.56
593.093	77.644
597.035	94.819
600.976	111.928
604.914	142.524
608.851	240.77
612.786	582.832
616.719	1667.79
620.651	1292.44
624.58	1184.32
628.507	2024.17
632.433	2292.99
636.357	1026.22
640.279	554.764
644.199	638.043
648.117	855.615
652.034	567.385
655.948	276.416
659.861	135.191
663.772	73.751
667.681	71.279
671.588	20.075
675.493	40.129
679.397	25.546
683.298	5.113
687.198	30.149
691.096	5.418
694.992	8.648
698.886	7.819
702.779	16.937
706.669	0.01
710.558	7.966
714.445	30.02
718.33	9.191
722.214	16.4
726.095	21.674
729.975	9.988
733.852	1.389
737.728	2.191
741.603	10.268
745.475	9.223
749.345	1.666
753.214	9.067
757.081	0.57
760.946	3.747
764.809	14.016
768.671	4.251
772.53	0.548
776.388	29.391
780.244	17.293
784.098	1.242
787.951	11.76
791.801	19.715
795.65	5.635
799.497	17.516
803.342	8.367
807.186	9.192
811.027	6.036
814.867	11.658
818.705	3.624
822.541	1.279
826.375	34.327
830.208	52.318
834.039	43.587
837.868	36.207
841.695	32.642
845.521	68.888
849.344	75.588
853.166	86.117
856.986	122.68
860.804	157.117
864.621	135.635
868.436	85.07
872.248	50.463
876.06	56.935
879.869	54.093
883.677	50.334
887.482	49.55
891.287	53.009
895.089	111.434
898.889	119.284
902.688	112.856
906.485	95.392
910.28	63.916
914.074	66.312
917.865	67.393
921.655	40.806
925.443	67.479
929.23	83.987
933.014	80.287
936.797	84.867
940.578	89.615
944.358	106.389
948.135	93.765
951.911	132.375
955.685	154.905
959.458	166.78
963.228	263.71
966.997	469.68
970.764	574.694
974.529	883.757
978.293	1497.86
982.055	4080.01
985.815	28604.2
989.573	64360.5
993.33	11566.8
997.085	2678.17
1000.84	1342.6
1004.59	855.09
1008.34	560.624
1012.09	410.205
1015.83	287.834
1019.58	304.517
1023.32	261.254
1027.06	204.04
1030.8	162.875
1034.54	104.769
1038.27	103.715
1042.01	87.711
1045.74	61.758
1049.47	41.449
1053.2	67.038
1056.93	43.266
1060.65	18.559
1064.38	21.909
1068.1	27.478
1071.82	15.936
1075.54	73.482
1079.25	53.066
1082.97	58.712
1086.68	57.431
1090.39	48.207
1094.11	112.049
1097.81	160.961
1101.52	329.943
1105.22	399.997
1108.93	146.108
1112.63	127.269
1116.33	135.482
1120.03	173.75
1123.72	302.067
1127.42	476.432
1131.11	793.848
1134.8	1732.31
1138.49	3959.82
1142.18	5948.38
1145.87	5799.99
1149.55	3107.64
1153.23	1503.34
1156.91	858.077
1160.59	687.859
1164.27	947.681
1167.95	1120.54
1171.62	689.445
1175.3	333.384
1178.97	207.358
1182.64	110.365
1186.3	97.406
1189.97	8.478
1193.63	19.58
1197.3	15.289
1200.96	23.753
1204.62	50.18
1208.27	29.637
1211.93	41.911
1215.58	59.24
1219.24	25.871
1222.89	15.463
1226.54	30.568
1230.18	24.695
1233.83	42.791
1237.47	86.049
1241.12	126.654
1244.76	46.104
1248.4	65.097
1252.04	35.57
1255.67	56.986
1259.31	54.881
1262.94	38.568
1266.57	57.051
1270.2	73.585
1273.83	84.177
1277.45	103.28
1281.08	58.87
1284.7	23.399
1288.32	23.975
1291.94	48.529
1295.56	49.083
1299.17	46.613
1302.79	33.101
1306.4	35.495
1310.01	70.847
1313.62	37.18
1317.23	29.495
1320.84	61.782
1324.44	47.048
1328.04	64.152
1331.64	50.089
1335.24	9.477
1338.84	2.43
1342.44	23.641
1346.03	4.322
1349.63	7.678
1353.22	31.356
1356.81	15.438
1360.4	35.559
1363.98	35.724
1367.57	6.9
1371.15	6.893
1374.73	15.815
1378.32	23.983
1381.89	8.526
1385.47	31.049
1389.05	33.561
1392.62	9.043
1396.19	6.508
1399.76	18.955
1403.33	17.616
1406.9	8.801
1410.46	24.212
1414.03	22.621
1417.59	30.034
1421.15	17.622
1424.71	67.59
1428.27	40.729
1431.82	42.328
1435.38	106.345
1438.93	174.444
1442.48	226.669
1446.03	242.341
1449.58	271.722
1453.13	319.326
1456.67	318.224
1460.21	284.385
1463.76	241.23
1467.3	168.98
1470.83	141.3
1474.37	131.608
1477.91	118.871
1481.44	90.241
1484.97	101.778
1488.5	86.561
1492.03	3.611
1495.56	8.154
1499.08	26.907
1502.61	0
