Measurement: Raman, 514 nm, ccw, Raman Data Processed
Mineral: Baryte
Rruff sample: R040036
Ideal chemistry: BaSO_4_
Locality: Cumbria County, England
Source: University of Arizona Mineral Museum
Description: Golden brown tabular crystal
Measured chemistry: Ba_1.00_S_1.00_O_4_; trace amounts of Pb
Pin_id: M00028
Orientation: Laser parallel to -a* (-1 0 0). Fiducial mark perpendicular to laser is parallel to -b [0 -1 0]
Raman shift (cm-1)	intensity
26.288	0
30.504	31.601
34.717	32.336
38.929	23.646
43.138	50.265
47.345	66.335
51.551	51.29
55.754	61.304
59.955	54.732
64.154	21.092
68.351	1.166
72.546	5.34
76.739	3.41
80.93	1.869
85.119	5.86
89.306	18.595
93.49	7.668
97.673	8.934
101.854	43.216
106.032	118.712
110.209	188.406
114.384	315.192
118.556	341.985
122.727	500.714
126.895	621.329
131.062	705.831
135.226	463.188
139.388	359.473
143.549	434.767
147.707	709.08
151.863	698.412
156.018	446.76
160.17	281.122
164.32	300.499
168.469	292.892
172.615	230.301
176.759	238.723
180.901	238.927
185.041	224.753
189.18	216.181
193.316	256.203
197.45	206.814
201.582	144.036
205.712	148.846
209.84	177.27
213.967	157.248
218.091	102.647
222.213	129.166
226.333	175.404
230.451	136.58
234.567	102.705
238.682	134.848
242.794	133.152
246.904	75.602
251.012	73.033
255.118	113.599
259.223	125.204
263.325	74.784
267.425	103.517
271.523	107.171
275.62	99.772
279.714	52.385
283.806	89.01
287.897	116.65
291.985	82.304
296.072	36.974
300.156	48.659
304.239	102.359
308.319	57.074
312.398	11.805
316.474	41.551
320.549	85.312
324.622	30.085
328.692	31.837
332.761	81.571
336.828	80.291
340.893	31.004
344.956	22.715
349.017	58.431
353.076	70.157
357.133	13.9
361.188	2.663
365.241	33.457
369.292	57.283
373.341	29.139
377.388	21.969
381.434	31.952
385.477	73.922
389.519	12.933
393.558	8.977
397.596	44.045
401.631	58.133
405.665	21.243
409.697	12.626
413.727	28.525
417.755	66.699
421.781	43.893
425.805	20.124
429.827	84.364
433.847	162.627
437.865	253.918
441.882	400.231
445.896	1064.57
449.909	2967.93
453.919	5412.31
457.928	3119.71
461.935	1880.13
465.94	1015.57
469.943	398.035
473.944	165.521
477.943	69.031
481.94	76.561
485.935	99.114
489.929	75.684
493.92	40.27
497.91	30.876
501.898	96.469
505.883	81.12
509.867	16.796
513.849	12.4
517.829	76.831
521.808	106.177
525.784	82.909
529.758	17.654
533.731	56.239
537.701	94.021
541.67	79.883
545.637	21.992
549.602	9.785
553.565	70.939
557.526	77.9
561.486	68.219
565.443	1.526
569.399	37.324
573.352	90.742
577.304	103.616
581.254	62.405
585.202	46.825
589.148	115.769
593.093	175.089
597.035	173.931
600.976	186.921
604.914	307.427
608.851	757.636
612.786	2002.73
616.719	4773.97
620.651	4233.31
624.58	2068.63
628.507	1384.49
632.433	961.341
636.357	431.108
640.279	186.339
644.199	197.96
648.117	231.509
652.034	168.221
655.948	77.175
659.861	18.054
663.772	60.748
667.681	69.583
671.588	72.257
675.493	7.265
679.397	0.137
683.298	18.944
687.198	86.358
691.096	66.449
694.992	1.058
698.886	15.248
702.779	33.178
706.669	57.564
710.558	63.93
714.445	7.26
718.33	35.439
722.214	7.81
726.095	75.03
729.975	111.213
733.852	15.846
737.728	0.723
741.603	3.635
745.475	51.418
749.345	77.43
753.214	33.407
757.081	17.582
760.946	10.314
764.809	55.181
768.671	80.014
772.53	73.818
776.388	15.401
780.244	12.658
784.098	34.045
787.951	91.709
791.801	73.335
795.65	17.934
799.497	5.506
803.342	13.053
807.186	58.579
811.027	80.08
814.867	40.374
818.705	18.257
822.541	17.839
826.375	48.23
830.208	76.568
834.039	66.286
837.868	40.123
841.695	11.331
845.521	36.188
849.344	101.44
853.166	119.085
856.986	106.377
860.804	86.575
864.621	41.244
868.436	21.35
872.248	60.067
876.06	84.098
879.869	85.05
883.677	31.758
887.482	19.539
891.287	61.421
895.089	137.63
898.889	140.773
902.688	109.433
906.485	53.53
910.28	38.625
914.074	89.324
917.865	120.102
921.655	125.839
925.443	99.234
929.23	49.466
933.014	25.454
936.797	63.497
940.578	145.776
944.358	159.885
948.135	132.149
951.911	99.076
955.685	62.898
959.458	117.751
963.228	239.744
966.997	455.564
970.764	482.975
974.529	597.06
978.293	958.515
982.055	2601.99
985.815	16141.5
989.573	50419
993.33	9266.56
997.085	2090.14
1000.84	962.755
1004.59	610.397
1008.34	378.581
1012.09	363.959
1015.83	343.675
1019.58	328.42
1023.32	231.194
1027.06	226.995
1030.8	175.286
1034.54	173.147
1038.27	199.362
1042.01	155.389
1045.74	125.327
1049.47	88.881
1053.2	68.292
1056.93	215.084
1060.65	134.342
1064.38	186.162
1068.1	191.861
1071.82	201.378
1075.54	277.525
1079.25	505.759
1082.97	1238.96
1086.68	1131.19
1090.39	492.439
1094.11	302.95
1097.81	305.735
1101.52	562.078
1105.22	858.429
1108.93	431.808
1112.63	214.203
1116.33	213.621
1120.03	142.062
1123.72	111.518
1127.42	53.993
1131.11	2.543
1134.8	17.046
1138.49	117.561
1142.18	272.099
1145.87	280.653
1149.55	176.222
1153.23	39.806
1156.91	22.404
1160.59	25.987
1164.27	16.616
1167.95	65.227
1171.62	88.843
1175.3	95.459
1178.97	69.076
1182.64	4.686
1186.3	34.715
1189.97	10.138
1193.63	27.566
1197.3	0.011
1200.96	71.555
1204.62	98.086
1208.27	97.06
1211.93	85.217
1215.58	28.734
1219.24	6.263
1222.89	9.095
1226.54	28.771
1230.18	82.262
1233.83	111.738
1237.47	137.564
1241.12	128.031
1244.76	65.761
1248.4	31.114
1252.04	8.568
1255.67	72.015
1259.31	44.959
1262.94	96.381
1266.57	132.789
1270.2	154.63
1273.83	121.025
1277.45	79.413
1281.08	27.166
1284.7	26.91
1288.32	16.459
1291.94	91.353
1295.56	144.688
1299.17	136.009
1302.79	116.014
1306.4	114.196
1310.01	38.475
1313.62	18.131
1317.23	11.165
1320.84	19.164
1324.44	113.739
1328.04	142.767
1331.64	143.312
1335.24	106.02
1338.84	83.098
1342.44	55.092
1346.03	4.123
1349.63	1.862
1353.22	12.095
1356.81	16.888
1360.4	53.389
1363.98	111.359
1367.57	121.411
1371.15	85.427
1374.73	79.461
1378.32	78.683
1381.89	26.95
1385.47	18.952
1389.05	34.234
1392.62	23.392
1396.19	41.511
1399.76	97.607
1403.33	99.692
1406.9	81.766
1410.46	105.852
1414.03	47.977
1417.59	27.103
1421.15	16.595
1424.71	13.742
1428.27	1.633
1431.82	52.135
1435.38	125.623
1438.93	174.215
1442.48	263.432
1446.03	220.288
1449.58	262.196
1453.13	238.956
1456.67	221.692
1460.21	154.667
1463.76	114.873
1467.3	45.154
1470.83	55.434
1474.37	84.825
1477.91	114.246
1481.44	136.821
1484.97	185.798
1488.5	149.085
1492.03	151.89
1495.56	78.561
1499.08	38.926
1502.61	0
