Measurement: Raman, 785 nm, ccw, Raman Data Processed
Mineral: Baryte
Rruff sample: R040036
Ideal chemistry: BaSO_4_
Locality: Cumbria County, England
Source: University of Arizona Mineral Museum
Description: Golden brown tabular crystal
Measured chemistry: Ba_1.00_S_1.00_O_4_; trace amounts of Pb
Pin_id: M00021
Orientation: Laser parallel to c* (0 0 1). Fiducial mark perpendicular to laser is parallel to -a [-1 0 0]
Raman shift (cm-1)	intensity
26.288	0
30.504	83.222
34.717	62.808
38.929	46.212
43.138	41.273
47.345	84.132
51.551	43.038
55.754	62.282
59.955	153.863
64.154	121.427
68.351	150.332
72.546	141.191
76.739	72.294
80.93	27.844
85.119	9.966
89.306	10.336
93.49	17.272
97.673	45.511
101.854	38.413
106.032	7.079
110.209	49.938
114.384	65.742
118.556	102.469
122.727	131.296
126.895	204.912
131.062	218.615
135.226	121.146
139.388	100.031
143.549	176.031
147.707	320.339
151.863	383.001
156.018	291.07
160.17	172.82
164.32	89.112
168.469	65.944
172.615	61.339
176.759	55.595
180.901	53.036
185.041	76.561
189.18	99.278
193.316	103.264
197.45	87.818
201.582	104.358
205.712	111.654
209.84	107.259
213.967	80.201
218.091	94.082
222.213	90.493
226.333	80.136
230.451	87.191
234.567	94.333
238.682	86.977
242.794	103.706
246.904	91.183
251.012	76.023
255.118	64.112
259.223	66.061
263.325	68.655
267.425	49.657
271.523	74.436
275.62	78.31
279.714	69.902
283.806	59.479
287.897	70.224
291.985	62.787
296.072	51.575
300.156	81.209
304.239	51.702
308.319	68.035
312.398	69.422
316.474	63.245
320.549	66.426
324.622	48.287
328.692	69.91
332.761	60.316
336.828	54.27
340.893	70.151
344.956	62.601
349.017	65.773
353.076	60.895
357.133	61.082
361.188	30.629
365.241	60.211
369.292	36.807
373.341	54.19
377.388	39.513
381.434	27.897
385.477	66.221
389.519	35.623
393.558	23.847
397.596	36.086
401.631	45.229
405.665	45.515
409.697	33.414
413.727	40.911
417.755	37.035
421.781	57.233
425.805	42.407
429.827	61.399
433.847	111.271
437.865	181.311
441.882	279.104
445.896	660.123
449.909	1791.86
453.919	2972.87
457.928	1829.69
461.935	1971.56
465.94	1056.42
469.943	397.029
473.944	180.78
477.943	120.489
481.94	72.186
485.935	50.834
489.929	34.4
493.92	52.126
497.91	22.789
501.898	30.326
505.883	28.673
509.867	25.319
513.849	58.868
517.829	36.512
521.808	50.137
525.784	40.698
529.758	64.38
533.731	44.433
537.701	35.423
541.67	52.198
545.637	34.999
549.602	17.824
553.565	28.481
557.526	20.692
561.486	11.475
565.443	19.449
569.399	34.552
573.352	37.151
577.304	45.899
581.254	40.142
585.202	56.186
589.148	121.517
593.093	117.477
597.035	156.346
600.976	182.879
604.914	276.918
608.851	521.849
612.786	1519
616.719	4023.84
620.651	2574.96
624.58	1341.8
628.507	1333.58
632.433	1019.37
636.357	355.146
640.279	178.054
644.199	129.114
648.117	122.843
652.034	72.584
655.948	59.458
659.861	45.53
663.772	23.262
667.681	25.127
671.588	15.041
675.493	14.378
679.397	6.355
683.298	19.349
687.198	27.231
691.096	9.05
694.992	8.044
698.886	34.594
702.779	4.013
706.669	2.481
710.558	8.956
714.445	7.298
718.33	9.08
722.214	25.423
726.095	34.739
729.975	15.034
733.852	13.292
737.728	4.47
741.603	5.266
745.475	4.906
749.345	3.057
753.214	5.181
757.081	0.718
760.946	5.359
764.809	13.411
768.671	29.444
772.53	25.459
776.388	2.455
780.244	4.57
784.098	8.379
787.951	0.696
791.801	8.211
795.65	3.903
799.497	24.961
803.342	13.806
807.186	7.563
811.027	3.009
814.867	3.329
818.705	14.98
822.541	0.343
826.375	7.311
830.208	17.958
834.039	6.581
837.868	11.758
841.695	13.28
845.521	2.215
849.344	18.88
853.166	24.821
856.986	17.743
860.804	23.996
864.621	22.413
868.436	4.899
872.248	22.002
876.06	28.413
879.869	25.272
883.677	16.75
887.482	20.194
891.287	37.431
895.089	58.911
898.889	64.191
902.688	89.717
906.485	38.276
910.28	47.817
914.074	72.343
917.865	70.609
921.655	92.844
925.443	94.368
929.23	77.953
933.014	102.283
936.797	124.852
940.578	109.195
944.358	110.632
948.135	104.099
951.911	139.731
955.685	131.947
959.458	196.547
963.228	326.961
966.997	465.387
970.764	603.575
974.529	857.318
978.293	1473.08
982.055	4233.83
985.815	34434.6
989.573	52462.1
993.33	8594.02
997.085	2205.01
1000.84	1081.91
1004.59	691.825
1008.34	536.771
1012.09	410.737
1015.83	363.732
1019.58	318.754
1023.32	302.8
1027.06	394.871
1030.8	364.963
1034.54	226.08
1038.27	177.219
1042.01	101.394
1045.74	102.579
1049.47	79.786
1053.2	92.048
1056.93	101.328
1060.65	71.636
1064.38	72.053
1068.1	73.609
1071.82	83.051
1075.54	106.454
1079.25	218.878
1082.97	461.335
1086.68	296.821
1090.39	121.339
1094.11	55.886
1097.81	73.459
1101.52	125.058
1105.22	159.69
1108.93	66.343
1112.63	45.015
1116.33	11.708
1120.03	26.421
1123.72	18.155
1127.42	11.093
1131.11	2.673
1134.8	105.457
1138.49	258.259
1142.18	356.081
1145.87	370.922
1149.55	202.781
1153.23	92.564
1156.91	44.97
1160.59	47.873
1164.27	70.789
1167.95	73.718
1171.62	64.658
1175.3	30.85
1178.97	3.81
1182.64	4.818
1186.3	2.194
1189.97	8.79
1193.63	1.219
1197.3	8.224
1200.96	3.811
1204.62	14.949
1208.27	20.234
1211.93	21.023
1215.58	28.342
1219.24	41.184
1222.89	27.501
1226.54	24.776
1230.18	29.781
1233.83	17.3
1237.47	21.33
1241.12	41.394
1244.76	34.505
1248.4	20.56
1252.04	23.557
1255.67	39.552
1259.31	22.47
1262.94	30.597
1266.57	27.641
1270.2	35.851
1273.83	49.175
1277.45	23.298
1281.08	16.541
1284.7	11.434
1288.32	34.402
1291.94	38.393
1295.56	30.31
1299.17	17.193
1302.79	10.05
1306.4	9.874
1310.01	13.692
1313.62	12.494
1317.23	35.232
1320.84	20.003
1324.44	16.718
1328.04	42.218
1331.64	19.789
1335.24	1.64
1338.84	4.034
1342.44	4.557
1346.03	13.878
1349.63	1.303
1353.22	2.799
1356.81	20.68
1360.4	4.861
1363.98	8.576
1367.57	8.989
1371.15	7.547
1374.73	13.963
1378.32	13.799
1381.89	23.354
1385.47	6.207
1389.05	9.039
1392.62	24.84
1396.19	30.112
1399.76	42.854
1403.33	17.579
1406.9	24.971
1410.46	17.591
1414.03	32.267
1417.59	12.881
1421.15	28.352
1424.71	18.145
1428.27	29.706
1431.82	39.62
1435.38	55.21
1438.93	70.886
1442.48	94.97
1446.03	68.993
1449.58	90.611
1453.13	99.142
1456.67	84.992
1460.21	86.47
1463.76	66.842
1467.3	54.381
1470.83	43.97
1474.37	6.474
1477.91	54.874
1481.44	77.455
1484.97	52.141
1488.5	54.88
1492.03	60.261
1495.56	26.124
1499.08	10.26
1502.61	0
