Measurement: Raman, 514 nm, ccw, Raman Data Processed
Mineral: Barysilite
Rruff sample: R050002
Ideal chemistry: Pb_8_Mn(Si_2_O_7_)_3_
Locality: Franklin, Sussex County, New Jersey, USA
Source: University of Arizona Mineral Museum
Description: A lamellar aggregate of platy crystals
Measured chemistry: Pb_8.00_Mn_1.00_(Si_2.00_O_7_)_3_
Pin_id: M00057
Orientation: Laser parallel to c* (0 0 1). Fiducial mark perpendicular to laser is parallel to a [1 0 0]
Raman shift (cm-1)	intensity
91.284	0
95.465	2525.74
99.644	13881.8
103.82	21807.9
107.995	17395.7
112.168	9545.23
116.339	6805.33
120.508	5286.59
124.675	3834.73
128.84	2936.54
133.003	2625.13
137.164	1559.04
141.323	917.785
145.48	152.452
149.635	322.545
153.788	6.821
157.939	56.337
162.088	422.287
166.235	757.493
170.38	2907.69
174.523	8252.01
178.664	17287.6
182.803	27135.4
186.94	30770.2
191.076	24995.4
195.209	16560.3
199.34	10675.8
203.47	6963.47
207.597	5144.34
211.722	3615.54
215.846	2638.61
219.967	2004.76
224.087	1682.68
228.204	1592.98
232.32	1642.38
236.434	1953.01
240.545	1976.8
244.655	2186.71
248.763	2294.72
252.869	2773.2
256.973	3003.64
261.075	2714.96
265.175	1782.86
269.273	701.47
273.369	134.551
277.463	227.537
281.556	4.413
285.646	184.91
289.734	51.367
293.821	83.913
297.905	29.176
301.988	105.809
306.069	85.091
310.147	100.06
314.224	265.344
318.299	693.906
322.372	1126.43
326.443	1355.04
330.512	1211.99
334.579	1410.96
338.645	929.16
342.708	651.602
346.769	417.321
350.829	163.397
354.887	214.155
358.942	330.61
362.996	597.409
367.048	825.501
371.098	1231.06
375.146	1302.36
379.192	1405.4
383.236	1264.29
387.279	1238.6
391.319	807.383
395.358	653.755
399.394	645.706
403.429	347.194
407.462	320.303
411.493	410.411
415.522	293.87
419.549	648.264
423.575	979.882
427.598	1544.57
431.619	2097.6
435.639	3080.32
439.657	2644.84
443.673	2249.24
447.687	1708.91
451.699	1038.95
455.709	949.028
459.717	550.678
463.724	488.334
467.728	473.549
471.731	685.456
475.732	1557.1
479.731	2341.98
483.728	2894.31
487.723	3341.73
491.716	4470.28
495.708	6398.2
499.697	10103.6
503.685	14450.1
507.671	16540.6
511.655	14234.2
515.637	9579.16
519.617	6278.74
523.596	4031.32
527.572	2602.4
531.547	2058.91
535.52	1831.63
539.491	1703.32
543.46	1053.2
547.427	1004.53
551.393	1013.29
555.356	923.471
559.318	818.11
563.278	280.375
567.236	190.789
571.192	251.736
575.147	66.142
579.099	36.752
583.05	158.378
586.999	41.336
590.946	102.419
594.891	63.105
598.834	26.749
602.776	83.064
606.715	36.496
610.653	72.626
614.589	7.31
618.523	83.531
622.456	59.76
626.386	11.933
630.315	86.736
634.242	262.729
638.167	33.007
642.09	0.306
646.012	15.259
649.931	53.556
653.849	10.255
657.765	30.462
661.679	203.907
665.592	235.718
669.502	37.066
673.411	31.387
677.318	6.718
681.223	20.976
685.126	251.244
689.028	75.016
692.927	318.687
696.825	576.331
700.721	699.471
704.616	1403.45
708.508	1808.13
712.399	964.516
716.288	257.621
720.175	6.51
724.06	301.02
727.944	32.637
731.825	265.616
735.705	87.978
739.584	92.205
743.46	48.013
747.334	259.003
751.207	243.845
755.078	62.135
758.947	42.26
762.815	148.945
766.68	16.602
770.544	32.25
774.406	13.541
778.267	60.898
782.125	75.509
785.982	73.849
789.837	36.741
793.69	71.129
797.542	139.698
801.391	63.365
805.239	35.896
809.085	476.842
812.93	475.234
816.772	867.628
820.613	1040.5
824.452	1190.37
828.29	743.957
832.125	808.023
835.959	286.633
839.791	383.574
843.621	476.788
847.45	369.255
851.277	84.161
855.102	34.686
858.925	462.693
862.746	521.899
866.566	529.155
870.384	670.468
874.2	803.946
878.015	1063.58
881.828	1918.64
885.639	3902.83
889.448	5756.55
893.256	5691.62
897.061	4554.03
900.865	4349.5
904.668	4742.8
908.468	4905.81
912.267	4196.4
916.064	3976.7
919.86	4528.06
923.653	4332.07
927.445	3484.85
931.236	2757.24
935.024	1914.5
938.811	1398.85
942.596	1167.81
946.379	826.982
950.161	853.646
953.94	762.315
957.719	639.997
961.495	531.203
965.27	248.183
969.043	634.389
972.814	483.491
976.583	517.536
980.351	273.184
984.117	163.197
987.882	496.581
991.644	406.164
995.405	334.715
999.165	282.976
1002.92	515.845
1006.68	220.015
1010.43	108.482
1014.18	349.401
1017.93	57.238
1021.68	47.911
1025.43	269.455
1029.18	298.972
1032.92	198.588
1036.66	497.565
1040.4	457.04
1044.14	281.268
1047.88	279.846
1051.62	645.221
1055.35	387.855
1059.08	661.851
1062.81	250.26
1066.54	361.315
1070.27	477.418
1073.99	435.007
1077.72	463.337
1081.44	609.653
1085.16	295.362
1088.88	224.628
1092.59	214.349
1096.31	31.815
1100.02	225.034
1103.73	38.184
1107.44	285.61
1111.15	78.859
1114.86	56.227
1118.57	63.729
1122.27	18.883
1125.97	91.701
1129.67	15.996
1133.37	83.733
1137.07	23.238
1140.76	184.875
1144.45	56.257
1148.15	203.241
1151.84	66.003
1155.53	181.431
1159.21	34.417
1162.9	247.591
1166.58	121.325
1170.26	220.651
1173.94	2.409
1177.62	358.019
1181.3	404.015
1184.97	418.399
1188.65	232.227
1192.32	124.134
1195.99	249.371
1199.66	439.198
1203.33	282.468
1206.99	434.732
1210.65	202.917
1214.32	251.877
1217.98	454.2
1221.64	190.146
1225.29	206.187
1228.95	382.533
1232.6	453.027
1236.26	410.119
1239.91	631.092
1243.56	332.798
1247.2	311.872
1250.85	256.896
1254.49	287.318
1258.13	162.271
1261.78	457.868
1265.41	350.897
1269.05	454.365
1272.69	36.614
1276.32	149.881
1279.95	34.005
1283.59	207.717
1287.21	268.079
1290.84	227.512
1294.47	228.704
1298.09	5.531
1301.72	195.657
1305.34	26.896
1308.96	101.525
1312.58	296.915
1316.19	60.86
1319.81	138.537
1323.42	64.902
1327.03	117.757
1330.64	22.903
1334.25	223.662
1337.86	130
1341.46	226.684
1345.07	174.189
1348.67	335.791
1352.27	128.755
1355.87	448.337
1359.46	512.298
1363.06	245.399
1366.65	533.141
1370.25	440.778
1373.84	419.257
1377.43	454.773
1381.02	289.23
1384.6	244.894
1388.18	320.354
1391.77	349.348
1395.35	261.171
1398.93	562.045
1402.51	355.749
1406.08	423.285
1409.66	16.529
1413.23	8.765
1416.8	307.304
1420.37	9.807
1423.94	111.072
1427.51	346.88
1431.08	278.536
1434.64	291.223
1438.2	522.268
1441.76	342.03
1445.32	129.245
1448.88	367.678
1452.43	34.419
1455.99	119.06
1459.54	440.842
1463.09	581.256
1466.64	403.129
1470.19	77.416
1473.74	338.794
1477.28	300.445
1480.83	287.785
