Measurement: Raman, 514 nm, ccw, Raman Data Processed
Mineral: Barysilite
Rruff sample: R050002
Ideal chemistry: Pb_8_Mn(Si_2_O_7_)_3_
Locality: Franklin, Sussex County, New Jersey, USA
Source: University of Arizona Mineral Museum
Description: A lamellar aggregate of platy crystals
Measured chemistry: Pb_8.00_Mn_1.00_(Si_2.00_O_7_)_3_
Pin_id: M00298
Orientation: Laser parallel to a* (1 0 0). Fiducial mark perpendicular to laser is parallel to c [0 0 1]
Raman shift (cm-1)	intensity
59.164	0
63.36	156.777
67.554	115.076
71.747	23.057
75.937	271.063
80.125	2711.27
84.311	6229.65
88.496	5537.14
92.678	5148.36
96.858	11222.1
101.036	24369.3
105.212	34201.6
109.387	29288.2
113.559	20330.3
117.729	17567.6
121.897	14760.9
126.063	11575.1
130.228	8913.96
134.39	7238.23
138.55	5996.63
142.709	4907.85
146.865	4090.74
151.019	3479.57
155.171	3087.91
159.322	3015.73
163.47	3745.79
167.617	5068.01
171.761	8182.48
175.904	15581.9
180.044	29378
184.183	45476.4
188.319	52393.7
192.454	43388.9
196.586	28881.4
200.717	18176.1
204.846	12497
208.972	9313.05
213.097	7041.13
217.22	5433.22
221.341	4293.28
225.46	3689.74
229.577	3498.23
233.692	3611.18
237.805	3935.23
241.916	4337.79
246.025	4379.74
250.132	4428.16
254.237	4827.38
258.34	5206.33
262.442	4740.2
266.541	3406.6
270.639	1956.38
274.734	971.409
278.828	569.605
282.919	282.861
287.009	32.088
291.097	48.805
295.183	155.907
299.266	154.359
303.348	125.277
307.428	39.687
311.507	153.485
315.583	546.332
319.657	1263.84
323.729	2229.98
327.8	2479.68
331.868	2273.94
335.935	1943.72
339.999	1509.97
344.062	879.439
348.123	422.91
352.182	258.703
356.239	290.921
360.294	438.502
364.347	644.458
368.398	901.756
372.448	1270.34
376.495	1551.16
380.54	1374.18
384.584	928.389
388.626	592.805
392.666	255.693
396.704	31.104
400.74	196.125
404.774	243.781
408.806	239.268
412.836	150.58
416.865	21.565
420.891	326.662
424.916	826.969
428.939	1792.45
432.959	2953.18
436.978	3975.81
440.996	3998.12
445.011	2995.34
449.024	2083.05
453.036	1476.26
457.045	982.166
461.053	840.589
465.059	821.429
469.063	927.957
473.065	1276.94
477.065	1953.28
481.063	2881.44
485.06	3782.22
489.054	4785.93
493.047	6974.33
497.038	11009.7
501.027	17429.8
505.014	24611.7
508.999	26917.4
512.982	22469.9
516.964	14924.5
520.944	9212.41
524.921	5904.32
528.897	3955.24
532.871	3130.23
536.844	2585.07
540.814	2055.36
544.783	1614.39
548.749	1558.16
552.714	1855.66
556.677	1743.11
560.638	1126.6
564.597	683.409
568.555	418.137
572.511	294.27
576.464	202.569
580.416	168.206
584.366	127.015
588.315	72.867
592.261	75.368
596.206	27.351
600.148	34.006
604.089	35.21
608.028	16.812
611.965	23.293
615.901	7.936
619.834	19.442
623.766	11.558
627.696	18.391
631.624	6.84
635.551	0.755
639.475	18.891
643.398	9.124
647.318	10.645
651.237	29.017
655.155	13.183
659.07	5.142
662.984	41.941
666.895	3.267
670.805	15.06
674.713	20.668
678.62	27.019
682.524	4.805
686.427	44.206
690.328	60.262
694.227	142.017
698.124	367.492
702.02	856.691
705.913	1922.62
709.805	2442.28
713.695	1059.68
717.584	332.042
721.47	108.654
725.355	65.621
729.238	46.835
733.119	54.129
736.998	39.221
740.876	28.054
744.752	44.643
748.626	48.895
752.498	41.243
756.368	30.877
760.237	65.281
764.104	21.379
767.969	47.584
771.832	66.032
775.693	73.591
779.553	41.858
783.411	57.646
787.267	57.59
791.122	62.124
794.974	55.782
798.825	36.525
802.674	46.268
806.522	83.973
810.367	144.415
814.211	218.295
818.053	430.916
821.893	774.103
825.732	835.195
829.568	648.118
833.403	354.889
837.236	249.362
841.068	187.42
844.898	210.703
848.726	181.998
852.552	220.361
856.376	235.748
860.199	323.141
864.02	378.552
867.839	530.994
871.656	688.467
875.472	959.973
879.286	1501.24
883.098	2888.75
886.909	5878.58
890.717	9100.08
894.524	7798.17
898.33	5798.2
902.133	5651.27
905.935	6353.6
909.735	5976.98
913.533	4212.77
917.33	3683.57
921.124	3911.49
924.918	3438.82
928.709	2748.35
932.499	2162.05
936.286	1705.87
940.073	1334.83
943.857	1102.99
947.64	921.35
951.421	782.65
955.2	753.389
958.978	768.324
962.753	675.437
966.527	650.713
970.3	603.166
974.071	505.486
977.84	493.32
981.607	431.991
985.372	389.52
989.136	369.042
992.898	270.153
996.659	224.036
1000.42	241.408
1004.17	155.084
1007.93	173.804
1011.68	150.989
1015.43	134.942
1019.18	95.591
1022.93	70.15
1026.68	52.457
1030.42	58.176
1034.17	37.446
1037.91	85.555
1041.65	58.061
1045.39	116.946
1049.12	147.362
1052.86	191.052
1056.59	226.243
1060.33	234.993
1064.06	201.647
1067.78	257.063
1071.51	291.34
1075.23	249.963
1078.96	226.655
1082.68	229.96
1086.4	227.936
1090.12	197.049
1093.83	180.031
1097.55	151.693
1101.26	119.497
1104.97	112.645
1108.68	33.723
1112.39	40.475
1116.1	35.273
1119.8	28.17
1123.5	18.01
1127.2	7.993
1130.9	16.397
1134.6	28.984
1138.3	6.171
1141.99	31.907
1145.69	19.004
1149.38	1.823
1153.07	22.452
1156.76	27.688
1160.44	2.856
1164.13	7.498
1167.81	2.104
1171.49	4.161
1175.17	7.516
1178.85	31.339
1182.52	5.385
1186.2	32.287
1189.87	37.834
1193.54	1.599
1197.21	49.779
1200.88	1.88
1204.55	1.83
1208.21	13.613
1211.88	29.262
1215.54	18.779
1219.2	11.135
1222.86	0.321
1226.51	30.376
1230.17	5.324
1233.82	15.136
1237.47	46.857
1241.12	30.445
1244.77	32.927
1248.42	30.292
1252.06	30.532
1255.71	20.645
1259.35	66.625
1262.99	48.485
1266.63	27.227
1270.26	25.157
1273.9	34.618
1277.53	24.738
1281.16	50.89
1284.8	60.994
1288.42	45.721
1292.05	25.919
1295.68	62.761
1299.3	10.437
1302.92	53.997
1306.55	76.765
1310.16	48.745
1313.78	53.498
1317.4	46.307
1321.01	71.137
1324.62	13.58
1328.24	38.167
1331.85	46.26
1335.45	40.776
1339.06	51.121
1342.66	40.43
1346.27	50.029
1349.87	61.71
1353.47	46.37
1357.07	68.749
1360.66	74.289
1364.26	43.591
1367.85	57.238
1371.44	57.346
1375.04	72.176
1378.62	38.778
1382.21	97.816
1385.8	103.593
1389.38	101.045
1392.96	101.25
1396.54	151.301
1400.12	133.791
1403.7	216.691
1407.28	151.144
1410.85	177.416
1414.42	186.887
1417.99	117.119
1421.56	117.921
1425.13	75.693
1428.7	51.033
1432.26	72.869
1435.83	65.823
1439.39	114.088
1442.95	59.381
1446.51	87.804
1450.06	53.274
1453.62	81.698
1457.17	99.125
1460.73	96.578
1464.28	98.129
1467.83	77.737
1471.37	43.408
1474.92	111.188
1478.46	78.125
1482.01	44.24
1485.55	39.498
1489.09	31.902
1492.63	48.498
1496.16	18.332
1499.7	67.481
1503.23	36.995
1506.76	47.96
1510.29	24.527
1513.82	24.154
1517.35	1.927
1520.88	41.569
1524.4	0
