Measurement: Raman, 514 nm, ccw, Raman Data Processed
Mineral: Baryte
Rruff sample: R050342
Ideal chemistry: BaSO_4_
Locality: Palos Verdes, Los Angeles County, California, USA
Source: California Institute of Technology
Description: Light brown fragment
Measured chemistry: Ba_1.00_S_1.00_O_4_
Pin_id: L01107
Orientation: Laser parallel to -a* (-1 0 0). Fiducial mark perpendicular to laser is parallel to b [0 1 0]
Raman shift (cm-1)	intensity
140.271	0
145.184	209.435
150.094	418.262
155.002	254.329
159.908	104.759
164.811	17.2593
169.711	43.2803
174.61	134.296
179.505	39.5835
184.399	130.721
189.29	198.449
194.178	139.65
199.064	39.4575
203.948	12.4204
208.829	62.6245
213.708	68.8887
218.585	106.2
223.459	99.5381
228.33	150.843
233.199	30.1953
238.066	55.6397
242.93	110.207
247.792	136.843
252.651	36.2935
257.508	250.238
262.363	67.9067
267.215	40.9917
272.064	130.905
276.912	30.6855
281.756	47.8867
286.598	58.54
291.438	73.9941
296.276	76.7519
301.111	21.3852
305.943	118.172
310.773	26.2095
315.601	106.256
320.426	12.5098
325.248	48.8721
330.068	81.2373
334.886	30.7832
339.701	60.4082
344.514	41.0977
349.324	147.439
354.132	99.2148
358.938	38.9697
363.741	155.844
368.541	101.864
373.339	61.2012
378.135	107.474
382.928	32.5557
387.718	53.377
392.506	14.5498
397.292	4.42773
402.075	53.4815
406.856	126.156
411.634	74.3272
416.41	47.2295
421.183	115.454
425.954	104.406
430.722	157.983
435.488	268.045
440.251	612.498
445.012	1616.56
449.77	3910.26
454.526	5964.42
459.28	2613.58
464.03	1474.78
468.779	441.989
473.525	306.214
478.268	113.453
483.009	144.706
487.747	142.958
492.483	81.2285
497.217	148.505
501.948	8.66504
506.676	25.9297
511.402	25.9609
516.125	71.2861
520.846	139.464
525.565	90.2441
530.281	66.5635
534.994	80.0049
539.705	162.286
544.413	46.2422
549.119	143.757
553.822	30.2207
558.523	133.222
563.222	10.5078
567.917	152.946
572.611	163.828
577.302	20.0361
581.99	111.878
586.676	7.15039
591.359	26.7695
596.04	292.773
600.718	214.857
605.394	342.295
610.067	1066.13
614.737	3028.43
619.406	3488.79
624.071	1624.92
628.734	680.294
633.395	436.023
638.053	394.533
642.708	224.974
647.361	163.879
652.012	57.9004
656.66	189.309
661.305	21.2861
665.948	152.028
670.588	64.2012
675.226	138.345
679.861	0.722656
684.494	16.8164
689.124	26.708
693.752	221.273
698.377	179.12
702.999	85.3223
707.619	23.252
712.237	217.058
716.852	200.143
721.464	67.4981
726.074	146.223
730.681	154.459
735.286	127.151
739.888	12.0918
744.488	93.2168
749.085	155.07
753.68	136.529
758.272	30.0664
762.861	3.91992
767.448	188.086
772.033	235.802
776.614	165.376
781.194	121.325
785.77	10.3408
790.345	177.411
794.916	193.525
799.485	213.535
804.052	144.452
808.616	183.556
813.177	11.8604
817.736	3.90527
822.292	170.982
826.846	288.852
831.397	84.9453
835.945	55.4307
840.491	58.9365
845.035	111.599
849.576	163.055
854.114	104.77
858.65	3.36328
863.183	138.695
867.713	44.8272
872.241	158.627
876.767	176.567
881.29	15.1816
885.81	22
890.328	46.6435
894.843	120.523
899.356	51.3838
903.866	165.906
908.373	156.08
912.878	68.3242
917.38	124.497
921.88	105.576
926.377	110.374
930.872	257.383
935.364	40.9541
939.853	46.6719
944.34	130.636
948.824	112.785
953.306	146.815
957.785	142.529
962.261	49.0273
966.735	470.18
971.207	466.072
975.675	651.144
980.141	1962.81
984.605	11198.5
989.066	40441.6
993.524	5657.09
997.98	1095.56
1002.43	590.691
1006.88	332.997
1011.33	229.647
1015.78	180.484
1020.22	81.9795
1024.66	192.584
1029.1	15.2529
1033.53	175.109
1037.97	130.923
1042.4	256.016
1046.82	61.0879
1051.25	108.769
1055.67	21.0889
1060.09	161.454
1064.51	106.523
1068.92	124.432
1073.33	326.137
1077.74	517.773
1082.15	867.318
1086.55	831.445
1090.95	264.5
1095.35	383.506
1099.75	538.41
1104.14	1051.89
1108.53	728.469
1112.92	191.418
1117.31	160.33
1121.69	22.2031
1126.07	39.3359
1130.45	8.85156
1134.82	88.8203
1139.19	319.752
1143.57	324.438
1147.93	231.156
1152.3	171.428
1156.66	15.5586
1161.02	63.7676
1165.38	139.644
1169.73	0.847656
1174.08	97.6348
1178.43	153.865
1182.78	126.047
1187.12	103.324
1191.46	117.92
1195.8	86.6055
1200.14	74.2188
1204.47	8.2168
1208.8	100.258
1213.13	151.807
1217.46	91.4492
1221.78	173.332
1226.1	111.783
1230.42	80.7832
1234.73	6.83594
1239.04	166.656
1243.35	140.803
1247.66	154.549
1251.97	199.463
1256.27	168.088
1260.57	91.8926
1264.86	12.959
1269.16	131.256
1273.45	124.18
1277.74	10.2266
1282.03	288.713
1286.31	355.67
1290.59	224.557
1294.87	204.941
1299.14	197.883
1303.42	220.506
1307.69	235.633
1311.95	59.4297
1316.22	195.197
1320.48	243.725
1324.74	237.984
1329	190.289
1333.26	157.525
1337.51	192.67
1341.76	195.924
1346	262.281
1350.25	100.828
1354.49	395.129
1358.73	159.369
1362.96	242.299
1367.2	5.86523
1371.43	165.086
1375.66	275.176
1379.88	292.141
1384.11	88.6738
1388.33	241.291
1392.54	74.3106
1396.76	13.6738
1400.97	57.0977
1405.18	197.334
1409.39	44.6465
1413.59	250.834
1417.8	192.551
1421.99	92.3144
1426.19	162.234
1430.38	88.9453
1434.58	116.869
1438.77	264.334
1442.95	118.141
1447.13	35.6738
1451.32	250.703
1455.49	230.031
1459.67	24.9316
1463.84	220.275
1468.01	230.938
1472.18	197.603
1476.35	294.713
1480.51	261.594
1484.67	438.086
1488.83	278.377
1492.98	295.047
1497.13	238.836
1501.28	271.336
1505.43	199.647
1509.57	257.65
1513.71	98.7148
1517.85	304.822
1521.99	119.486
1526.12	279.06
1530.25	165.346
1534.38	108.582
1538.5	245.295
1542.62	360.504
1546.74	73.5977
1550.86	245.994
1554.98	268.519
1559.09	253.703
1563.2	340.684
1567.31	23.1562
