Measurement: Raman, 514 nm, ccw, Raman Data Processed
Mineral: Baryte
Rruff sample: R050375
Ideal chemistry: BaSO_4_
Locality: unknown
Source: Eugene Schlepp
Description: Pale green tabular crystals
Measured chemistry: Ba_1.00_SO_4_
Pin_id: L01233
Orientation: Laser parallel to b* (0 1 0). Fiducial mark perpendicular to laser is parallel to -c [0 0 -1]
Raman shift (cm-1)	intensity
51.431	0
56.387	42.9629
61.341	13.3514
66.292	9.62528
71.241	86.6124
76.187	251.424
81.131	542.951
86.072	759.06
91.012	1124.01
95.948	1372.96
100.883	1575.32
105.815	1187.82
110.744	1066.33
115.671	1004.87
120.596	994.85
125.519	962.639
130.439	877.201
135.356	936.082
140.271	871.631
145.184	969.077
150.094	1070.47
155.002	1158.83
159.908	1012.25
164.811	835.769
169.711	743.251
174.61	767.654
179.505	757.949
184.399	847.125
189.29	1122.16
194.178	978.046
199.064	715.885
203.948	610.985
208.829	533.396
213.708	462.859
218.585	535.605
223.459	423.46
228.33	422.315
233.199	387.299
238.066	405.841
242.93	375.356
247.792	402.904
252.651	331.172
257.508	310.144
262.363	261.616
267.215	254.911
272.064	261.577
276.912	228.853
281.756	260.243
286.598	171.855
291.438	158.933
296.276	202.573
301.111	171.783
305.943	237.571
310.773	197.871
315.601	165.663
320.426	165.932
325.248	168.662
330.068	115.843
334.886	138.461
339.701	108.505
344.514	68.9736
349.324	54.9707
354.132	51.481
358.938	9.8562
363.741	44.6323
368.541	35.0486
373.339	27.7183
378.135	37.1873
382.928	60.698
387.718	2.13916
392.506	8.12085
397.292	9.0918
402.075	26.8118
406.856	57.6157
411.634	51.4817
416.41	48.5579
421.183	0.052246
425.954	17.2524
430.722	41.4062
435.488	122.223
440.251	345.47
445.012	872.002
449.77	2087.71
454.526	3676.4
459.28	1554.78
464.03	882.025
468.779	333.511
473.525	158.243
478.268	93.2288
483.009	108.455
487.747	49.9099
492.483	29.4236
497.217	52.385
501.948	13.3264
506.676	96.4236
511.402	80.6968
516.125	59.1389
520.846	17.873
525.565	55.3276
530.281	12.5024
534.994	21.7954
539.705	101.743
544.413	19.228
549.119	88.3484
553.822	79.0571
558.523	40.5523
563.222	61.8792
567.917	161.295
572.611	26.0083
577.302	64.1506
581.99	43.1719
586.676	19.8254
591.359	68.0852
596.04	22.5393
600.718	46.041
605.394	204.393
610.067	344.584
614.737	925.827
619.406	1331.46
624.071	935.204
628.734	1477.36
633.395	1501.8
638.053	637.415
642.708	519.249
647.361	481.097
652.012	384.354
656.66	149.667
661.305	69.4778
665.948	26.4067
670.588	51.0649
675.226	12.9138
679.861	82.457
684.494	84.8769
689.124	14.6328
693.752	17.6692
698.377	47.6809
702.999	75.6218
707.619	31.6521
712.237	5.0918
716.852	57.4873
721.464	80.1545
726.074	56.3596
730.681	79.7637
735.286	68.9299
739.888	21.3901
744.488	26.6997
749.085	101.766
753.68	8.06958
758.272	59.3943
762.861	59.4143
767.448	48.3813
772.033	106.315
776.614	63.7683
781.194	40.7148
785.77	20.6367
790.345	43.5166
794.916	79.3152
799.485	86.0984
804.052	14.9336
808.616	89.1291
813.177	37.9072
817.736	100.48
822.292	131.358
826.846	35.9219
831.397	116.524
835.945	49.7293
840.491	75.116
845.035	54.7263
849.576	41.9477
854.114	0.276123
858.65	123.952
863.183	67.6326
867.713	29.3325
872.241	53.5149
876.767	76.3936
881.29	19.793
885.81	36.4519
890.328	5.41748
894.843	37.8572
899.356	118.736
903.866	41.991
908.373	63.5981
912.878	36.1167
917.38	87.0957
921.88	70.5757
926.377	80.9221
930.872	84.2398
935.364	111.602
939.853	64.1145
944.34	85.7571
948.824	97.4773
953.306	43.2761
957.785	108.738
962.261	154.568
966.735	280.23
971.207	454.676
975.675	749.818
980.141	2543.14
984.605	12231.2
989.066	57673.9
993.524	8932.14
997.98	1505.75
1002.43	628.037
1006.88	467.205
1011.33	208.465
1015.78	226.846
1020.22	163.591
1024.66	209.727
1029.1	104.557
1033.53	45.3496
1037.97	74.6914
1042.4	114.436
1046.82	59.4067
1051.25	56.5518
1055.67	35.561
1060.09	52.6323
1064.51	44.1904
1068.92	60.4697
1073.33	31.9741
1077.74	35.313
1082.15	75.7725
1086.55	53.291
1090.95	31.8911
1095.35	24.9702
1099.75	219.815
1104.14	297.857
1108.53	124.792
1112.92	59.8965
1117.31	146.723
1121.69	217.453
1126.07	355.878
1130.45	539.411
1134.82	1451.95
1139.19	3257.74
1143.57	4650.52
1147.93	3438.38
1152.3	1363.33
1156.66	734.444
1161.02	581.646
1165.38	740.918
1169.73	647.31
1174.08	261.769
1178.43	167.994
1182.78	137.975
1187.12	30.7334
1191.46	77.4922
1195.8	26.2832
1200.14	54.9595
1204.47	15.8369
1208.8	7.78564
1213.13	100.486
1217.46	144.502
1221.78	31.8013
1226.1	89.9292
1230.42	22.1079
1234.73	123.568
1239.04	88.8477
1243.35	147.625
1247.66	20.002
1251.97	67.7607
1256.27	2.2207
1260.57	84.7183
1264.86	101.641
1269.16	52.251
1273.45	157.885
1277.74	100.549
1282.03	17.7593
1286.31	170.094
1290.59	97.7969
1294.87	157.468
1299.14	187.211
1303.42	169.041
1307.69	56.8301
1311.95	46.6636
1316.22	122.53
1320.48	30.6196
1324.74	117.308
1329	86.0127
1333.26	100.807
1337.51	44.938
1341.76	119.842
1346	19.9951
1350.25	58.6001
1354.49	45.5283
1358.73	25.7227
1362.96	47.8984
1367.2	49.231
1371.43	122.707
1375.66	55.4351
1379.88	73.0278
1384.11	46.6528
1388.33	1.49756
1392.54	71.0435
1396.76	78.3374
1400.97	59.8008
1405.18	79.2339
1409.39	36.6406
1413.59	85.022
1417.8	15.3774
1421.99	46.7881
1426.19	53.8818
1430.38	98.9409
1434.58	189.652
1438.77	96.6787
1442.95	119.314
1447.13	153.628
1451.32	167.739
1455.49	48.8765
1459.67	14.1172
1463.84	134.974
1468.01	6.19971
1472.18	121.586
1476.35	46.1416
1480.51	116.353
1484.67	124.946
1488.83	34.521
1492.98	102.681
1497.13	167.184
1501.28	50.1792
1505.43	103.292
1509.57	81.354
1513.71	90.3628
1517.85	130.962
1521.99	100.304
1526.12	94.8198
1530.25	111.442
1534.38	95.4619
1538.5	42.2046
1542.62	2.48047
1546.74	101.839
1550.86	48.6738
1554.98	55.4839
1559.09	134.037
1563.2	0.805664
1567.31	146.428
