Measurement: Raman, 514 nm, ccw, Raman Data Processed
Mineral: Baryte
Rruff sample: R050342
Ideal chemistry: BaSO_4_
Locality: Palos Verdes, Los Angeles County, California, USA
Source: California Institute of Technology
Description: Light brown fragment
Measured chemistry: Ba_1.00_S_1.00_O_4_
Pin_id: L00807
Orientation: Laser parallel to b* (0 1 0). Fiducial mark perpendicular to laser is parallel to c [0 0 1]
Raman shift (cm-1)	intensity
93.48	0
98.416	213.376
103.349	37.0796
108.28	211.845
113.208	274.4
118.134	215.641
123.058	308.218
127.979	355.714
132.898	327.619
137.814	454.538
142.728	469.619
147.639	496.353
152.549	611.521
157.455	576.938
162.359	542.283
167.261	406.569
172.161	588.139
177.058	478.223
181.952	725.109
186.845	885.996
191.734	759.663
196.622	670.118
201.507	482.934
206.389	404.9
211.269	356.211
216.147	366.106
221.022	242.555
225.895	230.811
230.765	363.975
235.633	187.872
240.498	342.363
245.361	216.539
250.222	260.249
255.08	244.714
259.936	267.012
264.789	174.222
269.64	168.378
274.488	230.82
279.334	196.958
284.178	95.7295
289.019	195.092
293.857	131.986
298.693	123.367
303.527	98.208
308.358	131.443
313.187	55.0996
318.013	159.162
322.837	65.4453
327.659	22.7578
332.478	167.234
337.294	51.4775
342.108	14.9316
346.92	135.871
351.729	177.32
356.535	2.48926
361.34	118.265
366.141	86.8164
370.94	93.4941
375.737	67.2852
380.531	120.935
385.323	89.9853
390.113	32.582
394.9	77.7031
399.684	119.728
404.466	7.75488
409.245	186.991
414.022	15.6797
418.797	49.002
423.569	244.356
428.338	215.217
433.105	375.789
437.87	664.953
442.632	1926.61
447.391	3906.1
452.149	5806.76
456.903	4313.77
461.655	2759.39
466.405	1185.53
471.152	467.853
475.897	175.537
480.639	193.101
485.378	188.487
490.116	98.3926
494.85	28.1494
499.582	17.1973
504.312	143.039
509.039	76.6113
513.764	76.2061
518.486	15.4824
523.206	83.3301
527.923	38.8623
532.638	135.999
537.35	6.95215
542.059	54.7275
546.766	213.865
551.471	37.9668
556.173	45.3223
560.873	17.3223
565.57	213.994
570.264	4.54981
574.957	111.716
579.646	101.499
584.333	15.0508
589.018	141.815
593.7	59.4111
598.379	68.7529
603.056	310.702
607.73	429.321
612.402	740.873
617.072	1058.7
621.739	912.804
626.403	859.459
631.065	820.707
635.724	701.438
640.381	1142.91
645.035	1692.53
649.687	1606.94
654.336	583.066
658.983	307.934
663.627	254.69
668.268	238.316
672.907	233.707
677.544	144.949
682.178	92.3379
686.809	141.635
691.438	268.353
696.065	120.154
700.688	180.065
705.31	189.412
709.929	70.707
714.545	246.215
719.158	172.447
723.77	123.586
728.378	11.2539
732.984	76.3106
737.588	0.507813
742.189	202.978
746.787	224.893
751.383	45.8281
755.976	30.457
760.567	46.2773
765.155	128.457
769.741	135.775
774.324	282.779
778.904	260.836
783.482	144.668
788.058	127.09
792.631	117.443
797.201	42.9922
801.769	233.033
806.334	184.332
810.897	114.674
815.457	176.625
820.014	265.801
824.569	173.492
829.122	11.5723
833.671	16.0508
838.219	162.883
842.763	66.2441
847.306	135.117
851.845	127.305
856.382	285.256
860.917	138.998
865.448	105.875
869.978	90.6113
874.505	91.9707
879.029	247.647
883.55	103.068
888.069	75.9766
892.586	159.998
897.1	98.5488
901.611	33.1191
906.12	118.242
910.626	99.1953
915.129	147.139
919.63	39.7969
924.129	309.941
928.625	148.121
933.118	33.4121
937.609	12.7012
942.097	33.6699
946.582	109.121
951.065	312.371
955.546	183.478
960.023	97.3691
964.499	459.305
968.971	365.66
973.441	626.541
977.909	1620.84
982.374	10147.9
986.836	31831.9
991.295	18945.1
995.753	2261.25
1000.21	642.441
1004.66	427.519
1009.11	443.9
1013.55	243.684
1018	25.0762
1022.44	196.076
1026.88	13.1973
1031.32	8.16406
1035.75	4.09766
1040.18	46.8809
1044.61	97.5508
1049.04	103.857
1053.46	2.97852
1057.88	142.467
1062.3	120.91
1066.71	177.047
1071.13	25.8164
1075.54	152.603
1079.94	153.022
1084.35	142.928
1088.75	121.225
1093.15	32.2559
1097.55	296.379
1101.94	599.887
1106.34	795.293
1110.73	425.644
1115.11	82.1269
1119.5	111.264
1123.88	278.477
1128.26	474.389
1132.63	942.217
1137.01	2596.04
1141.38	2749.67
1145.75	2039.32
1150.12	1006.61
1154.48	372.941
1158.84	513.406
1163.2	1356.43
1167.55	1483.89
1171.91	812.641
1176.26	372.332
1180.61	161.572
1184.95	71.5703
1189.29	243.387
1193.63	169.389
1197.97	78.4805
1202.31	94.6269
1206.64	274.863
1210.97	229.164
1215.29	233.883
1219.62	130.988
1223.94	48.7715
1228.26	90
1232.57	244.596
1236.89	63.1484
1241.2	10.6738
1245.51	247.236
1249.81	89.3945
1254.12	158.816
1258.42	209.356
1262.72	351.793
1267.01	241.141
1271.3	172.635
1275.59	20.8086
1279.88	124.613
1284.17	172.697
1288.45	81.1875
1292.73	165.531
1297.01	215.682
1301.28	33.7109
1305.55	201.242
1309.82	281.56
1314.09	23.9414
1318.35	331.185
1322.61	202.357
1326.87	24.6016
1331.13	94.2734
1335.38	184.004
1339.63	322.394
1343.88	93.457
1348.12	232.637
1352.37	83.5918
1356.61	128.195
1360.85	245.617
1365.08	278.014
1369.31	12.3281
1373.54	106.742
1377.77	192.957
1381.99	136.361
1386.22	100.102
1390.43	138.76
1394.65	71.1484
1398.87	300.777
1403.08	3.04492
1407.29	213.572
1411.49	109.832
1415.69	118.227
1419.89	160.715
1424.09	175.768
1428.29	161.131
1432.48	203.578
1436.67	190.223
1440.86	146.434
1445.04	275.281
1449.23	58.9961
1453.4	193.769
1457.58	216.418
1461.76	103.973
1465.93	196.945
1470.1	33.9141
1474.26	190.383
1478.43	118.981
1482.59	229.527
1486.75	353.644
1490.9	309.625
1495.06	259.664
1499.21	230.438
1503.35	655.527
1507.5	417.074
1511.64	297.445
1515.78	15.6445
1519.92	313.731
1524.05	525.539
1528.18	169.984
1532.31	313.773
1536.44	352.106
1540.56	288.769
1544.69	298.738
1548.8	408.688
1552.92	517.172
1557.03	160.93
1561.14	460.043
1565.25	528.648
1569.36	2.04297
