Measurement: Raman, 514 nm, ccw, Raman Data Processed
Mineral: Baryte
Rruff sample: R050375
Ideal chemistry: BaSO_4_
Locality: unknown
Source: Eugene Schlepp
Description: Pale green tabular crystals
Measured chemistry: Ba_1.00_SO_4_
Pin_id: L01098
Orientation: Laser parallel to -a* (-1 0 0). Fiducial mark perpendicular to laser is parallel to -b [0 -1 0]
Raman shift (cm-1)	intensity
51.431	0
56.387	29.1046
61.341	23.2166
66.292	258.229
71.241	592.378
76.187	700.688
81.131	290.402
86.072	353.49
91.012	536.267
95.948	575.095
100.883	602.576
105.815	458.485
110.744	471.706
115.671	379.827
120.596	442.525
125.519	434.887
130.439	454.607
135.356	401.604
140.271	419.135
145.184	574.239
150.094	594.802
155.002	613.947
159.908	436.869
164.811	342.377
169.711	290.891
174.61	296.601
179.505	313.293
184.399	329.357
189.29	317.781
194.178	326.611
199.064	267.423
203.948	230.56
208.829	174.278
213.708	139.425
218.585	147.731
223.459	138.308
228.33	141.11
233.199	134.66
238.066	136.144
242.93	97.0308
247.792	94.286
252.651	93.0928
257.508	121.915
262.363	63.4116
267.215	67.4537
272.064	66.0868
276.912	71.0662
281.756	94.721
286.598	67.7633
291.438	73.4662
296.276	48.3875
301.111	50.5194
305.943	54.8505
310.773	33.3699
315.601	30.0706
320.426	68.947
325.248	33.9937
330.068	46.2048
334.886	65.5754
339.701	22.0991
344.514	44.7771
349.324	8.67725
354.132	21.1886
358.938	16.1653
363.741	8.63538
368.541	43.5429
373.339	44.2889
378.135	8.82459
382.928	27.1991
387.718	11.7047
392.506	9.75354
397.292	50.7532
402.075	16.5254
406.856	30.2294
411.634	19.4957
416.41	36.256
421.183	61.2439
425.954	61.9323
430.722	191.539
435.488	449.82
440.251	1180.21
445.012	3332.72
449.77	4615.34
454.526	6970.06
459.28	4721.89
464.03	4042.82
468.779	1168.86
473.525	431.995
478.268	208.172
483.009	137.495
487.747	119.892
492.483	92.8533
497.217	13.7719
501.948	62.4305
506.676	34.1749
511.402	44.5983
516.125	70.9619
520.846	13.6459
525.565	31.4383
530.281	48.4163
534.994	53.5592
539.705	58.7532
544.413	23.3467
549.119	8.68396
553.822	24.9209
558.523	24.4314
563.222	2.7218
567.917	21.1096
572.611	31.583
577.302	42.0481
581.99	81.6995
586.676	112.308
591.359	161.157
596.04	186.993
600.718	284.746
605.394	836.062
610.067	2801.22
614.737	3644.27
619.406	4037.15
624.071	1944.12
628.734	1254.16
633.395	795.62
638.053	236.478
642.708	136.278
647.361	131.548
652.012	148.516
656.66	74.4622
661.305	51.694
665.948	24.6277
670.588	7.6908
675.226	42.0505
679.861	5.06067
684.494	50.114
689.124	86.396
693.752	56.1486
698.377	2.15076
702.999	65.5577
707.619	60.172
712.237	34.8945
716.852	42.5963
721.464	78.7731
726.074	27.321
730.681	52.8049
735.286	67.3959
739.888	20.9503
744.488	25.2395
749.085	76.1014
753.68	61.3029
758.272	26.4485
762.861	40.5382
767.448	3.57214
772.033	89.531
776.614	35.6613
781.194	11.2752
785.77	80.0178
790.345	78.7104
794.916	111.351
799.485	21.9648
804.052	33.3852
808.616	83.0308
813.177	55.8359
817.736	8.53784
822.292	18.4002
826.846	5.74561
831.397	12.9606
835.945	6.53332
840.491	20.1454
845.035	3.82581
849.576	47.0896
854.114	3.0083
858.65	21.6887
863.183	112.303
867.713	27.7417
872.241	14.8591
876.767	10.5891
881.29	65.2876
885.81	87.3723
890.328	49.4492
894.843	66.5962
899.356	74.8359
903.866	78.3381
908.373	58.5608
912.878	95.8135
917.38	119.881
921.88	110.137
926.377	101.353
930.872	158.232
935.364	164.439
939.853	156.801
944.34	137.226
948.824	137.701
953.306	103.957
957.785	246.192
962.261	366.551
966.735	573.407
971.207	860.165
975.675	1930.79
980.141	10353.7
984.605	48074.5
989.066	60879.2
993.524	12507.6
997.98	2226.6
1002.43	956.637
1006.88	561.556
1011.33	372.85
1015.78	271.841
1020.22	167.547
1024.66	262.927
1029.1	114.381
1033.53	107.913
1037.97	90.5229
1042.4	33.221
1046.82	22.023
1051.25	21.4282
1055.67	43.7954
1060.09	4.12256
1064.51	45.1216
1068.92	49.8272
1073.33	83.4294
1077.74	271.784
1082.15	442.281
1086.55	473.869
1090.95	108.541
1095.35	82.2925
1099.75	283.141
1104.14	283.119
1108.53	189.194
1112.92	32.3799
1117.31	43.6531
1121.69	131.999
1126.07	95.4663
1130.45	67.0708
1134.82	163.773
1139.19	414.55
1143.57	446.444
1147.93	289.428
1152.3	137.484
1156.66	51.6084
1161.02	101.069
1165.38	96.3206
1169.73	82.6348
1174.08	22.8423
1178.43	7.47681
1182.78	3.97998
1187.12	6.54688
1191.46	6.36035
1195.8	6.22632
1200.14	25.6465
1204.47	58.9932
1208.8	70.4714
1213.13	99.7141
1217.46	66.2605
1221.78	83.1233
1226.1	125.763
1230.42	43.2361
1234.73	84.9314
1239.04	30.7852
1243.35	72.5388
1247.66	24.3061
1251.97	37.1265
1256.27	61.9329
1260.57	32.3042
1264.86	55.1323
1269.16	69.0442
1273.45	35.8816
1277.74	17.7195
1282.03	75.5554
1286.31	65.3879
1290.59	108.307
1294.87	76.4817
1299.14	100.28
1303.42	24.0647
1307.69	56.1265
1311.95	42.6135
1316.22	0.815186
1320.48	45.865
1324.74	16.6555
1329	9.80688
1333.26	104.036
1337.51	51.3782
1341.76	18.1165
1346	15.3125
1350.25	119.744
1354.49	53.0964
1358.73	21.4192
1362.96	42.8767
1367.2	79.3835
1371.43	24.6282
1375.66	46.4348
1379.88	88.574
1384.11	40.7315
1388.33	77.9424
1392.54	12.957
1396.76	55.9387
1400.97	50.8628
1405.18	30.752
1409.39	56.5803
1413.59	37.3147
1417.8	25.7754
1421.99	71.4334
1426.19	50.1668
1430.38	4.74194
1434.58	61.7637
1438.77	44.7344
1442.95	85.4673
1447.13	35.7554
1451.32	28.1975
1455.49	110.889
1459.67	63.9665
1463.84	62.8418
1468.01	33.9973
1472.18	17.3569
1476.35	89.1824
1480.51	77.2344
1484.67	10.8452
1488.83	48.5168
1492.98	83.1477
1497.13	53.9795
1501.28	88.0498
1505.43	38.0017
1509.57	5.31982
1513.71	66.5906
1517.85	91.9902
1521.99	74.7219
1526.12	24.8643
1530.25	109.416
1534.38	93.2886
1538.5	35.6389
1542.62	52.0708
1546.74	16.1677
1550.86	83.0649
1554.98	52.3623
1559.09	24.6267
1563.2	47.9749
1567.31	37
