Measurement: Raman, 514 nm, ccw, Raman Data Processed
Mineral: Baryte
Rruff sample: R040036
Ideal chemistry: BaSO_4_
Locality: Cumbria County, England
Source: University of Arizona Mineral Museum
Description: Golden brown tabular crystal
Measured chemistry: Ba_1.00_S_1.00_O_4_; trace amounts of Pb
Pin_id: M00021
Orientation: Laser parallel to c* (0 0 1). Fiducial mark perpendicular to laser is parallel to -a [-1 0 0]
Raman shift (cm-1)	intensity
26.288	0
30.504	29.984
34.717	56.353
38.929	46.93
43.138	40.932
47.345	49.558
51.551	25.278
55.754	32.178
59.955	33.69
64.154	15.526
68.351	5.832
72.546	13.809
76.739	10.828
80.93	1.136
85.119	7.891
89.306	12.095
93.49	16.089
97.673	27.911
101.854	39.923
106.032	44.066
110.209	50.323
114.384	98.897
118.556	121.941
122.727	112.213
126.895	103.42
131.062	112.571
135.226	126.627
139.388	123.592
143.549	149.556
147.707	231.524
151.863	429.496
156.018	403.47
160.17	258.481
164.32	172.461
168.469	137.446
172.615	124.456
176.759	139.388
180.901	166.091
185.041	273.565
189.18	570.807
193.316	371.789
197.45	161.531
201.582	111.058
205.712	98.413
209.84	82.428
213.967	67.198
218.091	68.711
222.213	64.215
226.333	64.841
230.451	65.674
234.567	70.344
238.682	71.466
242.794	61.58
246.904	44.73
251.012	34.77
255.118	42.715
259.223	51.758
263.325	35.8
267.425	54.841
271.523	44.88
275.62	49.92
279.714	49.961
283.806	15.004
287.897	28.051
291.985	11.102
296.072	36.157
300.156	28.216
304.239	33.057
308.319	20.346
312.398	33.417
316.474	28.492
320.549	19.57
324.622	25.641
328.692	5.002
332.761	15.73
336.828	19.752
340.893	19.763
344.956	18.767
349.017	15.768
353.076	5.768
357.133	1.771
361.188	16.86
365.241	16.799
369.292	3.832
373.341	2.876
377.388	0.931
381.434	31.998
385.477	11.083
389.519	5.197
393.558	19.339
397.596	31.485
401.631	17.741
405.665	23.9
409.697	17.069
413.727	23.247
417.755	28.432
421.781	14.631
425.805	15.835
429.827	55.055
433.847	94.272
437.865	160.467
441.882	336.696
445.896	757.93
449.909	2035.17
453.919	3355.41
457.928	2092.65
461.935	2248.89
465.94	1255.83
469.943	442.096
473.944	176.307
477.943	105.588
481.94	71.854
485.935	70.149
489.929	52.456
493.92	21.768
497.91	42.026
501.898	32.309
505.883	14.642
509.867	17.982
513.849	14.311
517.829	6.643
521.808	26.972
525.784	49.179
529.758	14.535
533.731	9.804
537.701	19.191
541.67	5.4
545.637	17.022
549.602	8.745
553.565	8.237
557.526	17.855
561.486	4.867
565.443	9.238
569.399	3.715
573.352	21.213
577.304	31.679
581.254	32.035
585.202	18.506
589.148	38.862
593.093	38.176
597.035	65.479
600.976	51.937
604.914	82.588
608.851	150.222
612.786	419.796
616.719	1282.23
620.651	928.67
624.58	735.053
628.507	1415.92
632.433	1538.26
636.357	586.478
640.279	317.273
644.199	358.565
648.117	483.293
652.034	240.416
655.948	129.618
659.861	62.326
663.772	28.383
667.681	27.536
671.588	13.026
675.493	17.602
679.397	4.89
683.298	21.837
687.198	7.794
691.096	4.122
694.992	6.91
698.886	6.411
702.779	10.236
706.669	4.012
710.558	0.831
714.445	0.524
718.33	10.17
722.214	2.839
726.095	18.48
729.975	19.095
733.852	8.889
737.728	3.545
741.603	6.007
745.475	4.756
749.345	4.558
753.214	14.879
757.081	2.287
760.946	1.665
764.809	25.013
768.671	0.672
772.53	23.605
776.388	16.141
780.244	0.927
784.098	0.74
787.951	4.413
791.801	20.537
795.65	15.363
799.497	5.7
803.342	3.26
807.186	2.751
811.027	13.26
814.867	6.326
818.705	3.453
822.541	10.437
826.375	9.755
830.208	2.723
834.039	7.789
837.868	1.007
841.695	22.151
845.521	19.884
849.344	11.273
853.166	3.046
856.986	14.76
860.804	10.422
864.621	25.038
868.436	15.705
872.248	22.387
876.06	37.905
879.869	3.638
883.677	14.136
887.482	23.726
891.287	38.534
895.089	71.967
898.889	46.408
902.688	48.953
906.485	51.858
910.28	20.46
914.074	26.641
917.865	40.032
921.655	54.566
925.443	65.713
929.23	58.396
933.014	72.575
936.797	59.048
940.578	70.646
944.358	84.362
948.135	73.295
951.911	73.634
955.685	69.157
959.458	162.935
963.228	246.477
966.997	384.1
970.764	461.678
974.529	656.213
978.293	1178.1
982.055	3316.01
985.815	25454.9
989.573	45981.9
993.33	7051.89
997.085	1827.89
1000.84	900.925
1004.59	576.982
1008.34	417.86
1012.09	304.968
1015.83	280.073
1019.58	225.803
1023.32	214.011
1027.06	138.259
1030.8	132.55
1034.54	89.875
1038.27	88.235
1042.01	96.636
1045.74	89.075
1049.47	84.998
1053.2	66.055
1056.93	61.597
1060.65	45.178
1064.38	59.793
1068.1	69.45
1071.82	71.148
1075.54	33.881
1079.25	44.647
1082.97	62.83
1086.68	44.311
1090.39	38.219
1094.11	90.169
1097.81	152.15
1101.52	286.165
1105.22	303.212
1108.93	102.297
1112.63	91.413
1116.33	105.556
1120.03	135.252
1123.72	206.93
1127.42	324.159
1131.11	552.415
1134.8	1222.33
1138.49	2488.01
1142.18	4188.35
1145.87	4026.71
1149.55	2053.1
1153.23	962.182
1156.91	492.636
1160.59	388.281
1164.27	406
1167.95	371.797
1171.62	213.398
1175.3	128.443
1178.97	87.066
1182.64	42.65
1186.3	48.314
1189.97	19.044
1193.63	18.697
1197.3	44.755
1200.96	12.968
1204.62	42.752
1208.27	31.735
1211.93	19.807
1215.58	34.563
1219.24	39.428
1222.89	37.366
1226.54	40.171
1230.18	45.936
1233.83	37.607
1237.47	53.492
1241.12	73.352
1244.76	41.019
1248.4	32.744
1252.04	30.728
1255.67	23.404
1259.31	15.221
1262.94	39.044
1266.57	4.714
1270.2	24.453
1273.83	40.349
1277.45	39.931
1281.08	15.885
1284.7	6.032
1288.32	20.237
1291.94	4.691
1295.56	32.828
1299.17	10.538
1302.79	6.101
1306.4	0.496
1310.01	19.706
1313.62	9.242
1317.23	2.429
1320.84	30.873
1324.44	1.853
1328.04	20.617
1331.64	32.563
1335.24	9.306
1338.84	5.783
1342.44	34.825
1346.03	14.17
1349.63	32.099
1353.22	0.799
1356.81	9.654
1360.4	20.471
1363.98	29.246
1367.57	30.096
1371.15	30.785
1374.73	45.63
1378.32	42.22
1381.89	29.697
1385.47	4.149
1389.05	15.577
1392.62	28.973
1396.19	13.56
1399.76	31.286
1403.33	22.014
1406.9	41.378
1410.46	4.394
1414.03	8.302
1417.59	25.855
1421.15	28.104
1424.71	21.286
1428.27	5.51
1431.82	28.296
1435.38	91.823
1438.93	33.587
1442.48	61.245
1446.03	55.313
1449.58	98.978
1453.13	79.817
1456.67	74.404
1460.21	96.06
1463.76	94.494
1467.3	34.751
1470.83	44.135
1474.37	2.361
1477.91	30.421
1481.44	26.367
1484.97	28.49
1488.5	36.724
1492.03	34.782
1495.56	18.686
1499.08	3.035
1502.61	4.25
