Measurement: Raman, 514 nm, ccw, Raman Data Processed
Mineral: Baryte
Rruff sample: R050335
Ideal chemistry: BaSO_4_
Locality: Bullion Mountains, San Bernardino County, California, USA
Source: California Institute of Technology
Description: Colorless cleavage fragment
Measured chemistry: (Ba_0.95_Sr_0.05_)_Î£=1_S_1.00_O_4_
Pin_id: M00174
Orientation: Laser parallel to -c* (0 0 -1). Fiducial mark perpendicular to laser is parallel to a [1 0 0]
Raman shift (cm-1)	intensity
93.48	0
98.416	252.228
103.349	168.688
108.28	133.554
113.208	17.5725
118.134	16.7175
123.058	99.7148
127.979	16.063
132.898	39.4194
137.814	70.4907
142.728	163.116
147.639	280.427
152.549	400.449
157.455	333.836
162.359	185.576
167.261	154.421
172.161	198.387
177.058	148.325
181.952	340.25
186.845	483.606
191.734	518.73
196.622	271.256
201.507	192.188
206.389	142.673
211.269	65.7629
216.147	88.9604
221.022	62.613
225.895	87.5911
230.765	95.1077
235.633	56.5801
240.498	83.9993
245.361	61.0896
250.222	38.3262
255.08	9.45142
259.936	202.06
264.789	68.157
269.64	25.1072
274.488	55.9727
279.334	59.9526
284.178	69.0396
289.019	108.217
293.857	14.5215
298.693	5.2041
303.527	57.1558
308.358	24.5264
313.187	91.9497
318.013	82.4146
322.837	51.8984
327.659	80.4365
332.478	72.0225
337.294	122.66
342.108	67.6665
346.92	132.923
351.729	57.0195
356.535	83.6289
361.34	98.2915
366.141	38.9526
370.94	5.94678
375.737	3.67969
380.531	96.3144
385.323	10.0977
390.113	107.774
394.9	124.671
399.684	114.633
404.466	38.6699
409.245	134.782
414.022	59.0332
418.797	65.0088
423.569	155.583
428.338	164.907
433.105	267.328
437.87	502.144
442.632	1406.48
447.391	2869.63
452.149	4252.31
456.903	3270.05
461.655	1980.24
466.405	910.096
471.152	378.004
475.897	162.97
480.639	172.997
485.378	94.2749
490.116	85.4238
494.85	108.007
499.582	62.1792
504.312	99.4346
509.039	80.6494
513.764	31.0523
518.486	89.5381
523.206	93.1226
527.923	64.9453
532.638	8.51123
537.35	157.17
542.059	23.9282
546.766	63.7642
551.471	21.1387
556.173	170.76
560.873	113.795
565.57	75.4819
570.264	45.0708
574.957	117.402
579.646	186.085
584.333	122.463
589.018	88.9282
593.7	124.488
598.379	104.125
603.056	171.831
607.73	464.604
612.402	1232.05
617.072	1670.37
621.739	1436.43
626.403	1721.57
631.065	1989.87
635.724	980.66
640.381	521.982
645.035	478.34
649.687	282.131
654.336	354.76
658.983	125.123
663.627	12.7651
668.268	69.9575
672.907	50.6172
677.544	89.7344
682.178	83.3511
686.809	102.28
691.438	64.9351
696.065	54.5102
700.688	15.127
705.31	28.4839
709.929	17.0898
714.545	39.8608
719.158	89.1211
723.77	67.7124
728.378	135.641
732.984	93.3125
737.588	139.836
742.189	54.0371
746.787	148.762
751.383	136.292
755.976	91.9902
760.567	39.4106
765.155	44.5171
769.741	86.8945
774.324	61.2681
778.904	99.0181
783.482	12.0093
788.058	22.2964
792.631	74.5942
797.201	53.8569
801.769	59.0752
806.334	51.2949
810.897	33.4648
815.457	142.52
820.014	3.51221
824.569	100.437
829.122	50.3296
833.671	43.2002
838.219	43.0205
842.763	150.227
847.306	1.56299
851.845	69.791
856.382	41.4497
860.917	9.06445
865.448	90.6562
869.978	113.188
874.505	74.6694
879.029	76.4546
883.55	8.60742
888.069	83.936
892.586	53.2632
897.1	143.397
901.611	118.485
906.12	57.4912
910.626	88.5708
915.129	155.657
919.63	95.0586
924.129	149.454
928.625	80.5049
933.118	81.668
937.609	43.1103
942.097	102.601
946.582	126.741
951.065	163.507
955.546	202.283
960.023	182.875
964.499	345.256
968.971	612.676
973.441	961.242
977.909	2628.77
982.374	17900.9
986.836	47003.6
991.295	32843.9
995.753	3656.52
1000.21	1207.11
1004.66	614.913
1009.11	439.928
1013.55	256.077
1018	159.218
1022.44	174.961
1026.88	106.625
1031.32	132.084
1035.75	87.9253
1040.18	81.5635
1044.61	40.2969
1049.04	20.125
1053.46	37.0352
1057.88	14.9873
1062.3	47.9595
1066.71	69.1304
1071.13	156.356
1075.54	47.498
1079.94	63.1445
1084.35	134.463
1088.75	5.15625
1093.15	170.979
1097.55	168.923
1101.94	375.674
1106.34	401.905
1110.73	238.615
1115.11	272.687
1119.5	434.244
1123.88	440.959
1128.26	603.788
1132.63	1228.3
1137.01	2883.51
1141.38	5068.56
1145.75	5116.02
1150.12	2618.58
1154.48	1198.27
1158.84	627.175
1163.2	509.203
1167.55	455.373
1171.91	362.669
1176.26	170.069
1180.61	156.592
1184.95	153.526
1189.29	76.4902
1193.63	46.3857
1197.97	1.29102
1202.31	11.0459
1206.64	27.2061
1210.97	84.2012
1215.29	137.651
1219.62	25.8271
1223.94	80.0742
1228.26	58.9541
1232.57	12.3291
1236.89	214.752
1241.2	133.242
1245.51	111.798
1249.81	20.5205
1254.12	15.8096
1258.42	9.42969
1262.72	23.6973
1267.01	110.566
1271.3	55.5127
1275.59	55.4424
1279.88	160.393
1284.17	13.6162
1288.45	83.5147
1292.73	87.5117
1297.01	53.5469
1301.28	192.874
1305.55	17.8496
1309.82	82.1543
1314.09	17.0801
1318.35	190.998
1322.61	44.8965
1326.87	137.405
1331.13	101.081
1335.38	202.493
1339.63	0.415039
1343.88	175.557
1348.12	226.51
1352.37	138.443
1356.61	85.2598
1360.85	37.2207
1365.08	154.737
1369.31	112.858
1373.54	75.2324
1377.77	2.60547
1381.99	90.7822
1386.22	211.596
1390.43	13.2793
1394.65	3.68848
1398.87	81.1465
1403.08	72.1397
1407.29	15.1729
1411.49	155.039
1415.69	50.1846
1419.89	98.6367
1424.09	20.9609
1428.29	157.356
1432.48	48.2109
1436.67	103.49
1440.86	73.8154
1445.04	129.554
1449.23	92.6318
1453.4	122.304
1457.58	214.551
1461.76	151.158
1465.93	120.353
1470.1	114.686
1474.26	124.933
1478.43	137.093
1482.59	296.319
1486.75	102.962
1490.9	51.6406
1495.06	109.976
1499.21	146.587
1503.35	99
1507.5	131.171
1511.64	49.4336
1515.78	162.892
1519.92	226.165
1524.05	43.2158
1528.18	21.0068
1532.31	31.3135
1536.44	75.876
1540.56	128.048
1544.69	147.249
1548.8	4.84668
1552.92	127.607
1557.03	153.043
1561.14	91.9502
1565.25	12.9033
1569.36	33.2031
