Measurement: Raman, 514 nm, ccw, Raman Data Processed
Mineral: Bertrandite
Rruff sample: R060800
Ideal chemistry: Be_4_Si_2_O_7_(OH)_2_
Locality: Golconda mine, Governador Valadares, Minas Gerais, Brazil
Source: Bob Jenkins
Description: Colorless pseudohexagonal prisms
Measured chemistry: Be_4.00_Si_2.00_O_7_(OH)_2_
Pin_id: M00406
Orientation: Laser parallel to b* (0 1 0). Fiducial mark perpendicular to laser is parallel to c [0 0 1]
Raman shift (cm-1)	intensity
123.058	0
127.979	6.30908
132.898	5.75586
137.814	31.9004
142.728	65.6182
147.639	70.5386
152.549	25.3638
157.455	56.2925
162.359	198.27
167.261	407.438
172.161	1562.88
177.058	5334.63
181.952	18275.3
186.845	6704.57
191.734	5274.31
196.622	16775.3
201.507	49836.3
206.389	24054.6
211.269	5886.6
216.147	1511.22
221.022	2432.85
225.895	10089.8
230.765	6759.27
235.633	4631.42
240.498	6239.98
245.361	2352.95
250.222	583.345
255.08	286.308
259.936	330.637
264.789	84.2773
269.64	40.4683
274.488	14.4487
279.334	137.16
284.178	146.267
289.019	251.455
293.857	1247.52
298.693	1749.26
303.527	533.701
308.358	195.691
313.187	65.1626
318.013	33.1216
322.837	77.3506
327.659	351.516
332.478	268.666
337.294	127.626
342.108	104.838
346.92	457.539
351.729	984.436
356.535	2896.58
361.34	3891.99
366.141	1686.59
370.94	431.308
375.737	108.627
380.531	233.621
385.323	291.272
390.113	338.471
394.9	410.75
399.684	430.825
404.466	382.506
409.245	823.053
414.022	1410.75
418.797	1079.89
423.569	495.853
428.338	193.412
433.105	185.513
437.87	285.707
442.632	560.98
447.391	1263.32
452.149	491.705
456.903	73.1392
461.655	68.2153
466.405	1.76465
471.152	106.564
475.897	98.3965
480.639	49.417
485.378	575.201
490.116	805.97
494.85	734.477
499.582	719.806
504.312	176.802
509.039	47.4937
513.764	46.293
518.486	4.43408
523.206	22.9487
527.923	269.258
532.638	1227.52
537.35	1446.73
542.059	404.897
546.766	121.015
551.471	49.0303
556.173	18.835
560.873	120.456
565.57	273.008
570.264	1057.58
574.957	3355.14
579.646	3296.64
584.333	1026.08
589.018	221.599
593.7	204.111
598.379	198.556
603.056	116.701
607.73	13.1738
612.402	101.984
617.072	450.427
621.739	638.53
626.403	339.028
631.065	10.2388
635.724	4.47119
640.381	44.3047
645.035	53.7744
649.687	15.165
654.336	111.83
658.983	1.2041
663.627	272.873
668.268	423.609
672.907	967.505
677.544	2067.44
682.178	3354.34
686.809	6422.23
691.438	6544.03
696.065	3612.08
700.688	2752.23
705.31	4312.17
709.929	7307.51
714.545	4843.97
719.158	2074.97
723.77	1116.9
728.378	1011.6
732.984	1225.73
737.588	724.935
742.189	655.907
746.787	1167.16
751.383	2661.78
755.976	2497.7
760.567	2025.43
765.155	3003.9
769.741	5694.1
774.324	3749
778.904	1576.88
783.482	684.125
788.058	505.352
792.631	288.748
797.201	184.309
801.769	116.814
806.334	33.3833
810.897	155.006
815.457	244.68
820.014	256.408
824.569	235.195
829.122	76.083
833.671	58.125
838.219	105.288
842.763	71.4795
847.306	6.33301
851.845	46.8213
856.382	2.0459
860.917	99.6963
865.448	88.3066
869.978	43.3574
874.505	84.4814
879.029	62.6143
883.55	90.8144
888.069	68.1191
892.586	29.4961
897.1	98.8769
901.611	41.1943
906.12	83.5527
910.626	2.81055
915.129	67.0732
919.63	191.453
924.129	735.92
928.625	641.515
933.118	486.221
937.609	615.067
942.097	950.057
946.582	1840.25
951.065	1519.49
955.546	927.892
960.023	600.441
964.499	589.08
968.971	709.277
973.441	1167.1
977.909	2285.61
982.374	5350.04
986.836	9294.13
991.295	6394.29
995.753	2688.69
1000.21	1220.43
1004.66	731.625
1009.11	463.917
1013.55	286.374
1018	228.284
1022.44	273.268
1026.88	231.352
1031.32	272.99
1035.75	292.112
1040.18	177.594
1044.61	132.73
1049.04	315.116
1053.46	353.021
1057.88	395.157
1062.3	593.287
1066.71	1347.73
1071.13	1641.03
1075.54	1114.19
1079.94	761.713
1084.35	785.324
1088.75	382.364
1093.15	275.143
1097.55	129.998
1101.94	124.364
1106.34	23.5605
1110.73	169.621
1115.11	155.787
1119.5	356.137
1123.88	333.361
1128.26	126.22
1132.63	42.0264
1137.01	144.615
1141.38	29.3076
1145.75	47.9297
1150.12	68.9121
1154.48	143.871
1158.84	6.87598
1163.2	179.315
1167.55	247.541
1171.91	229.831
1176.26	159.291
1180.61	242.814
1184.95	203.367
1189.29	134.942
1193.63	114.498
1197.97	51.9424
1202.31	25.4902
1206.64	80.791
1210.97	47.0117
1215.29	115.142
1219.62	121.199
1223.94	108.147
1228.26	151.094
1232.57	6.55762
1236.89	54.4756
1241.2	120.517
1245.51	102.431
1249.81	183.355
1254.12	62.2617
1258.42	71.1406
1262.72	140.053
1267.01	94.9541
1271.3	64.8965
1275.59	142.659
1279.88	38.9023
1284.17	112.459
1288.45	50.0147
1292.73	157.572
1297.01	106.199
1301.28	58.5137
1305.55	124.589
1309.82	142.228
1314.09	101.145
1318.35	262.935
1322.61	232.797
1326.87	182.886
1331.13	34.2236
1335.38	11.252
1339.63	104.987
1343.88	127.701
1348.12	105.373
1352.37	49.0469
1356.61	122.804
1360.85	108.975
1365.08	147.425
1369.31	81.9629
1373.54	61.9492
1377.77	160.562
1381.99	113.957
1386.22	109.259
1390.43	161.689
1394.65	161.054
1398.87	167.507
1403.08	15.9297
1407.29	93.2637
1411.49	184.488
1415.69	36.2871
1419.89	112.003
1424.09	60.126
1428.29	191.539
1432.48	4.51758
1436.67	124.417
1440.86	196.672
1445.04	56.6172
1449.23	94.5547
1453.4	252.919
1457.58	174.503
1461.76	80.2461
1465.93	190.136
1470.1	2.96777
1474.26	142.903
1478.43	134.728
1482.59	211.641
1486.75	219.619
1490.9	90.1084
1495.06	119.231
1499.21	9.6709
1503.35	133.162
1507.5	37.0566
1511.64	28.1689
1515.78	145.61
1519.92	66.0098
1524.05	124.638
1528.18	136.769
1532.31	157.23
1536.44	139.536
1540.56	174.312
1544.69	168.69
1548.8	2.7832
1552.92	274.26
1557.03	146.225
1561.14	5.08496
1565.25	79.8467
1569.36	252.486
