Measurement: Raman, 514 nm, ccw, Raman Data Processed
Mineral: Bertrandite
Rruff sample: R060800
Ideal chemistry: Be_4_Si_2_O_7_(OH)_2_
Locality: Golconda mine, Governador Valadares, Minas Gerais, Brazil
Source: Bob Jenkins
Description: Colorless pseudohexagonal prisms
Measured chemistry: Be_4.00_Si_2.00_O_7_(OH)_2_
Pin_id: M00454
Orientation: Laser parallel to a* (1 0 0). Fiducial mark perpendicular to laser is parallel to b [0 1 0]
Raman shift (cm-1)	intensity
123.058	0
127.979	111.712
132.898	295.482
137.814	1450.94
142.728	1911.75
147.639	541.849
152.549	178.304
157.455	121.342
162.359	298.163
167.261	515
172.161	3093.17
177.058	8925.9
181.952	21546.5
186.845	10341
191.734	5730.05
196.622	17453.4
201.507	49580.2
206.389	34472.6
211.269	7932.42
216.147	3233.22
221.022	8028.69
225.895	25365.6
230.765	18735.7
235.633	6210.55
240.498	4434.84
245.361	2045.63
250.222	455.559
255.08	202.093
259.936	344.839
264.789	84.2334
269.64	118.984
274.488	67.4434
279.334	9.10156
284.178	16.3682
289.019	564.316
293.857	1693.53
298.693	2492.74
303.527	611.749
308.358	101.407
313.187	34.4775
318.013	16.1172
322.837	166.33
327.659	287.435
332.478	491.797
337.294	511.096
342.108	521.643
346.92	1830.06
351.729	3770.45
356.535	4542.01
361.34	3293.7
366.141	1372.24
370.94	262.713
375.737	226.274
380.531	516.239
385.323	803.231
390.113	662.209
394.9	343.139
399.684	398.998
404.466	429.776
409.245	686.044
414.022	1173.85
418.797	1185.24
423.569	628.528
428.338	436.218
433.105	686.025
437.87	894.788
442.632	661.485
447.391	709.795
452.149	340.636
456.903	463.445
461.655	153.411
466.405	230.351
471.152	109.872
475.897	105.323
480.639	84.9473
485.378	639.707
490.116	867.333
494.85	555.827
499.582	422.185
504.312	18.4023
509.039	2.2832
513.764	48.877
518.486	230.548
523.206	336.188
527.923	451.742
532.638	1582.88
537.35	2155.85
542.059	669.639
546.766	277.26
551.471	93.7217
556.173	32.0381
560.873	253.144
565.57	204.994
570.264	1175.62
574.957	2445.21
579.646	2472.78
584.333	831.549
589.018	125.689
593.7	251.022
598.379	208.504
603.056	341.016
607.73	102.406
612.402	244.182
617.072	225.357
621.739	266.799
626.403	305.701
631.065	244.527
635.724	330.348
640.381	425.955
645.035	243.768
649.687	61.6113
654.336	25.9688
658.983	33.5078
663.627	102.963
668.268	178.41
672.907	717.822
677.544	1646.22
682.178	3071.6
686.809	6566.99
691.438	7442.11
696.065	4534.85
700.688	4593.33
705.31	8581.73
709.929	14396.6
714.545	10440.6
719.158	4587.65
723.77	2113.35
728.378	1422.35
732.984	1222.79
737.588	1095.32
742.189	982.719
746.787	1538.16
751.383	2822.9
755.976	2909.08
760.567	1980.79
765.155	2616.57
769.741	4034.36
774.324	3067.14
778.904	1279.91
783.482	432.707
788.058	403.662
792.631	261.891
797.201	323.215
801.769	362.315
806.334	358.641
810.897	754.15
815.457	1757.79
820.014	2989.5
824.569	1899.27
829.122	813.123
833.671	255.121
838.219	232.279
842.763	358.684
847.306	104.822
851.845	10.5449
856.382	148.522
860.917	97.3242
865.448	74.0293
869.978	40.1504
874.505	59.625
879.029	348.559
883.55	525.639
888.069	457.871
892.586	314.238
897.1	481.738
901.611	464.373
906.12	445.15
910.626	748.078
915.129	1773.16
919.63	5791.4
924.129	16767.8
928.625	14333.6
933.118	5634.72
937.609	2717.16
942.097	1986.92
946.582	2304.85
951.065	1825.96
955.546	1399.26
960.023	1319.74
964.499	1271.42
968.971	1607.42
973.441	1939.21
977.909	4006.45
982.374	9075.69
986.836	16203.5
991.295	12034.6
995.753	5081.02
1000.21	2367.87
1004.66	1502.03
1009.11	1045.9
1013.55	823.496
1018	656.814
1022.44	727.133
1026.88	586.746
1031.32	459.644
1035.75	241.963
1040.18	108.695
1044.61	349.865
1049.04	219.324
1053.46	189.065
1057.88	418.1
1062.3	731.414
1066.71	1079
1071.13	1188.01
1075.54	849.393
1079.94	705.213
1084.35	632.816
1088.75	433.664
1093.15	183.756
1097.55	51.9141
1101.94	143.498
1106.34	10.1094
1110.73	65.8106
1115.11	241.824
1119.5	886.543
1123.88	933.172
1128.26	293.262
1132.63	43.1289
1137.01	168.316
1141.38	214.361
1145.75	188.91
1150.12	118.635
1154.48	388.926
1158.84	728.236
1163.2	789.545
1167.55	724.357
1171.91	489.334
1176.26	411.543
1180.61	288.418
1184.95	346.123
1189.29	114.103
1193.63	51.1289
1197.97	104.191
1202.31	223.203
1206.64	174
1210.97	86.0644
1215.29	85.1035
1219.62	93.4297
1223.94	144.576
1228.26	105.045
1232.57	359.213
1236.89	213.074
1241.2	257.742
1245.51	100.522
1249.81	70.9434
1254.12	46.3477
1258.42	13.666
1262.72	88.4883
1267.01	107.934
1271.3	15.1289
1275.59	77.3144
1279.88	77.4844
1284.17	80.9082
1288.45	141.445
1292.73	155.246
1297.01	141.303
1301.28	427.641
1305.55	361.592
1309.82	282.981
1314.09	108.902
1318.35	366.633
1322.61	384.619
1326.87	311.002
1331.13	350.432
1335.38	342.461
1339.63	301.633
1343.88	321.518
1348.12	197.215
1352.37	368.951
1356.61	83.3301
1360.85	284.719
1365.08	230.762
1369.31	337.701
1373.54	395.611
1377.77	52.623
1381.99	129.594
1386.22	414.881
1390.43	197.625
1394.65	248.219
1398.87	270.68
1403.08	137.799
1407.29	75.9082
1411.49	180.648
1415.69	110.215
1419.89	135.062
1424.09	397.326
1428.29	76.5176
1432.48	46.3145
1436.67	356.836
1440.86	166.348
1445.04	259.461
1449.23	216.312
1453.4	321.836
1457.58	144.4
1461.76	38.2637
1465.93	121.217
1470.1	344.932
1474.26	87.3711
1478.43	214.582
1482.59	342.353
1486.75	79.4941
1490.9	66.8828
1495.06	269.627
1499.21	129.996
1503.35	207.443
1507.5	111.572
1511.64	153.906
1515.78	80.9844
1519.92	167.242
1524.05	425.209
1528.18	96.1953
1532.31	180.127
1536.44	159.125
1540.56	93.7266
1544.69	567.631
1548.8	91.7227
1552.92	507.34
1557.03	238.617
1561.14	189.719
1565.25	137.697
1569.36	163.877
