Measurement: Raman, 514 nm, ccw, Raman Data Processed
Mineral: Bertrandite
Rruff sample: R060800
Ideal chemistry: Be_4_Si_2_O_7_(OH)_2_
Locality: Golconda mine, Governador Valadares, Minas Gerais, Brazil
Source: Bob Jenkins
Description: Colorless pseudohexagonal prisms
Measured chemistry: Be_4.00_Si_2.00_O_7_(OH)_2_
Pin_id: M00406
Orientation: Laser parallel to b* (0 1 0). Fiducial mark perpendicular to laser is parallel to c [0 0 1]
Raman shift (cm-1)	intensity
123.058	0
127.979	45.3799
132.898	16.165
137.814	181.966
142.728	33.4853
147.639	103.044
152.549	294.677
157.455	404.492
162.359	657.512
167.261	1112.86
172.161	4831.52
177.058	11368.2
181.952	26101.2
186.845	10529.3
191.734	7952.96
196.622	22081.9
201.507	48680.5
206.389	26542.4
211.269	6174.06
216.147	4748.89
221.022	16035.7
225.895	41924.1
230.765	25709.5
235.633	7457.76
240.498	3338.11
245.361	1433.1
250.222	815.982
255.08	495.456
259.936	407.334
264.789	328.228
269.64	200.259
274.488	192.012
279.334	56.8672
284.178	362.868
289.019	1297.76
293.857	2669.15
298.693	2835.77
303.527	644.441
308.358	199.335
313.187	72.9971
318.013	11.9385
322.837	203.567
327.659	55.0723
332.478	157.531
337.294	179.408
342.108	343.161
346.92	828.431
351.729	2192.09
356.535	4289.62
361.34	1410.39
366.141	362.8
370.94	156.089
375.737	293.716
380.531	782.757
385.323	1100.77
390.113	484.802
394.9	83.8135
399.684	102.793
404.466	290.704
409.245	121.803
414.022	556.316
418.797	564.519
423.569	428.945
428.338	380.188
433.105	546.394
437.87	762.609
442.632	314.17
447.391	114.33
452.149	46.7158
456.903	86.7578
461.655	109.955
466.405	11.7266
471.152	30.832
475.897	94.4394
480.639	48.1484
485.378	88.3984
490.116	95.6484
494.85	4.26953
499.582	173.846
504.312	62.9082
509.039	118.953
513.764	6.86523
518.486	101.408
523.206	331.168
527.923	847.986
532.638	2351.31
537.35	2401.4
542.059	642.287
546.766	402.336
551.471	265.783
556.173	11.0137
560.873	208.836
565.57	107.356
570.264	247.629
574.957	326.732
579.646	286.783
584.333	188.685
589.018	181.51
593.7	335.115
598.379	342.984
603.056	305.361
607.73	383.873
612.402	374.119
617.072	27.8652
621.739	239.084
626.403	10.9766
631.065	61.1719
635.724	72.5918
640.381	116.603
645.035	169.191
649.687	39.3867
654.336	74.8359
658.983	95.5566
663.627	21.9082
668.268	104.6
672.907	424.984
677.544	1177.73
682.178	2653.39
686.809	5103.13
691.438	5040.96
696.065	4215.03
700.688	6077.54
705.31	12817.2
709.929	19276.5
714.545	12265.2
719.158	5207.7
723.77	2429.63
728.378	1208
732.984	836.465
737.588	674.557
742.189	817.297
746.787	1211.3
751.383	2341.86
755.976	2065.51
760.567	1057.69
765.155	868.336
769.741	1082.72
774.324	667.963
778.904	411.91
783.482	101.17
788.058	77.8477
792.631	140.6
797.201	61.0762
801.769	266.619
806.334	553.801
810.897	1415.38
815.457	3908.32
820.014	5592.59
824.569	3023.23
829.122	978.438
833.671	472.08
838.219	136.168
842.763	130.685
847.306	60.4375
851.845	155.326
856.382	135.772
860.917	140.121
865.448	40.373
869.978	141.482
874.505	103.615
879.029	122.959
883.55	310.713
888.069	102.022
892.586	178.682
897.1	321.693
901.611	771.053
906.12	828.756
910.626	1573.87
915.129	4117.06
919.63	13674.9
924.129	32266.4
928.625	21227.4
933.118	6224.56
937.609	2606.79
942.097	1439.6
946.582	856.928
951.065	796.394
955.546	601.019
960.023	1102.66
964.499	1059.18
968.971	1277.7
973.441	2486.02
977.909	4887.01
982.374	11222.2
986.836	16747.5
991.295	11028.2
995.753	4804.64
1000.21	2501.72
1004.66	1455.23
1009.11	828.867
1013.55	662.805
1018	467.885
1022.44	543.297
1026.88	380.914
1031.32	187.957
1035.75	167.201
1040.18	197.607
1044.61	139.736
1049.04	268.402
1053.46	155.334
1057.88	35.1738
1062.3	173.943
1066.71	292.783
1071.13	33.2793
1075.54	100.631
1079.94	71.8769
1084.35	155.471
1088.75	199.486
1093.15	92.5195
1097.55	243.059
1101.94	43.6602
1106.34	84.3086
1110.73	34.9492
1115.11	244.672
1119.5	91.5703
1123.88	600.58
1128.26	235.945
1132.63	209.236
1137.01	247.481
1141.38	182.818
1145.75	333.324
1150.12	183.519
1154.48	260.453
1158.84	325.736
1163.2	352.861
1167.55	520.844
1171.91	29.9004
1176.26	350.008
1180.61	310.344
1184.95	237.346
1189.29	305.066
1193.63	513.76
1197.97	249.731
1202.31	380.721
1206.64	100.856
1210.97	300.488
1215.29	85.2578
1219.62	217.141
1223.94	196.217
1228.26	135.42
1232.57	105.588
1236.89	275.822
1241.2	227.625
1245.51	70.6894
1249.81	141.557
1254.12	313.543
1258.42	174.445
1262.72	271.807
1267.01	400.678
1271.3	164.047
1275.59	104.906
1279.88	317.9
1284.17	175.781
1288.45	113.387
1292.73	172.926
1297.01	190.781
1301.28	18.5449
1305.55	289.861
1309.82	285.203
1314.09	68.4824
1318.35	167.844
1322.61	288.303
1326.87	261.074
1331.13	393.266
1335.38	304.881
1339.63	92.793
1343.88	124.561
1348.12	222.383
1352.37	284.312
1356.61	162.508
1360.85	339.148
1365.08	350.154
1369.31	101.43
1373.54	255.809
1377.77	250.867
1381.99	308.598
1386.22	238.242
1390.43	344.43
1394.65	293.15
1398.87	178.596
1403.08	170.352
1407.29	66.5391
1411.49	435.902
1415.69	82.4043
1419.89	228.984
1424.09	301.147
1428.29	173.6
1432.48	97.7324
1436.67	170.514
1440.86	411.998
1445.04	281.857
1449.23	399.818
1453.4	346.459
1457.58	343.348
1461.76	39.4082
1465.93	241.594
1470.1	179.897
1474.26	376.496
1478.43	365.58
1482.59	293.617
1486.75	191.473
1490.9	281.572
1495.06	100.758
1499.21	342.666
1503.35	460.586
1507.5	399.701
1511.64	81.5391
1515.78	114.789
1519.92	83.8086
1524.05	195.557
1528.18	571.834
1532.31	510.602
1536.44	239.191
1540.56	440.133
1544.69	117.17
1548.8	310.744
1552.92	248.812
1557.03	173.461
1561.14	116.312
1565.25	279.291
1569.36	33.6484
