Measurement: Raman, 514 nm, ccw, Raman Data Processed
Mineral: Bertrandite
Rruff sample: R060800
Ideal chemistry: Be_4_Si_2_O_7_(OH)_2_
Locality: Golconda mine, Governador Valadares, Minas Gerais, Brazil
Source: Bob Jenkins
Description: Colorless pseudohexagonal prisms
Measured chemistry: Be_4.00_Si_2.00_O_7_(OH)_2_
Pin_id: M00454
Orientation: Laser parallel to a* (1 0 0). Fiducial mark perpendicular to laser is parallel to b [0 1 0]
Raman shift (cm-1)	intensity
123.058	0
127.979	161.68
132.898	8.32812
137.814	132.47
142.728	104.126
147.639	150.455
152.549	62.7695
157.455	127.783
162.359	284.585
167.261	766.356
172.161	3995.99
177.058	11331.7
181.952	27052.5
186.845	14278.9
191.734	6233.6
196.622	18950.3
201.507	52510.5
206.389	37530
211.269	8736.25
216.147	4169.41
221.022	15406.2
225.895	46971
230.765	34608.8
235.633	9278.36
240.498	3497.68
245.361	1850.54
250.222	667.836
255.08	375.742
259.936	446.93
264.789	146.707
269.64	97.6362
274.488	77.0303
279.334	38.605
284.178	96.5459
289.019	915.223
293.857	2638.26
298.693	3367.39
303.527	1204.42
308.358	124.225
313.187	23.0269
318.013	18.7915
322.837	42.6846
327.659	79.1548
332.478	143.859
337.294	177.798
342.108	345.929
346.92	756.067
351.729	2361.89
356.535	4718.2
361.34	2212.8
366.141	381.077
370.94	100.941
375.737	261.971
380.531	867.364
385.323	1190.23
390.113	775.078
394.9	192.869
399.684	25.2178
404.466	116.212
409.245	215.735
414.022	513.391
418.797	709.803
423.569	507.576
428.338	483.273
433.105	665.973
437.87	1030.64
442.632	611.33
447.391	145.877
452.149	53.332
456.903	51.5478
461.655	47.8486
466.405	73.3086
471.152	34.1826
475.897	160.753
480.639	1.78711
485.378	3.11816
490.116	6.94727
494.85	173.314
499.582	215.498
504.312	110.495
509.039	40.456
513.764	28.0234
518.486	124.199
523.206	191.473
527.923	650.946
532.638	2056.57
537.35	2900
542.059	1047.22
546.766	331.899
551.471	137.719
556.173	233.293
560.873	103.593
565.57	225.627
570.264	271.463
574.957	551.162
579.646	276.839
584.333	241.4
589.018	368.839
593.7	388.246
598.379	411.197
603.056	374.417
607.73	309.361
612.402	193.248
617.072	235.221
621.739	192.602
626.403	30.4688
631.065	167.372
635.724	47.9062
640.381	165.366
645.035	54.3477
649.687	56.044
654.336	30.8906
658.983	44.9551
663.627	93.2939
668.268	187.073
672.907	320.876
677.544	778.71
682.178	2374.58
686.809	5418.51
691.438	6235.5
696.065	4562.32
700.688	5997.53
705.31	13068.7
709.929	21998
714.545	16470.1
719.158	6943.94
723.77	3095.35
728.378	1552.99
732.984	1187.74
737.588	831.908
742.189	896.345
746.787	1348.76
751.383	2581.47
755.976	2393.67
760.567	1192.33
765.155	1070.29
769.741	1425.1
774.324	975.538
778.904	347.141
783.482	166.141
788.058	57.6348
792.631	107.905
797.201	163.211
801.769	251.965
806.334	528.398
810.897	1400.08
815.457	3826.98
820.014	6374.11
824.569	3900.5
829.122	1594.17
833.671	581.098
838.219	222.315
842.763	64.8047
847.306	264.562
851.845	99.3359
856.382	47.8984
860.917	87.9394
865.448	141.091
869.978	4.19434
874.505	15.8779
879.029	77.1357
883.55	95.6523
888.069	128.422
892.586	269.441
897.1	349.704
901.611	506.208
906.12	755.958
910.626	1424.95
915.129	3352.21
919.63	12374.7
924.129	33633.5
928.625	27783.6
933.118	8509.16
937.609	2998.02
942.097	1431.9
946.582	911.357
951.065	783.088
955.546	783.027
960.023	801.816
964.499	1043.19
968.971	1224.82
973.441	2179.64
977.909	4666.94
982.374	11094.2
986.836	19418.9
991.295	14526
995.753	6211.96
1000.21	2926.31
1004.66	1827.67
1009.11	1176.08
1013.55	802.112
1018	655.893
1022.44	616.846
1026.88	532.98
1031.32	314.283
1035.75	217.793
1040.18	168.472
1044.61	141.978
1049.04	129.625
1053.46	148.835
1057.88	32.8662
1062.3	264.166
1066.71	251.019
1071.13	107.728
1075.54	102.907
1079.94	160.011
1084.35	225.702
1088.75	100.469
1093.15	76.2119
1097.55	114.98
1101.94	41.8164
1106.34	28.7051
1110.73	0.605469
1115.11	153.518
1119.5	477.644
1123.88	670.9
1128.26	166.267
1132.63	65.1191
1137.01	67.8008
1141.38	64.2637
1145.75	115.879
1150.12	82.3818
1154.48	155.399
1158.84	237
1163.2	365.753
1167.55	281.142
1171.91	282.228
1176.26	159.787
1180.61	196.211
1184.95	161.385
1189.29	102.63
1193.63	108.83
1197.97	46.8086
1202.31	47.0508
1206.64	124.25
1210.97	128.221
1215.29	170.505
1219.62	167.72
1223.94	30.7773
1228.26	120.296
1232.57	237.158
1236.89	87.9268
1241.2	147.206
1245.51	63.8184
1249.81	229.852
1254.12	160.294
1258.42	17.6543
1262.72	48.4199
1267.01	31.6016
1271.3	16.2939
1275.59	127.647
1279.88	92.5166
1284.17	45.1123
1288.45	46.5459
1292.73	10.1504
1297.01	188.093
1301.28	71.8672
1305.55	13.0371
1309.82	114.769
1314.09	163.316
1318.35	250.811
1322.61	209.661
1326.87	289.632
1331.13	163.94
1335.38	225.703
1339.63	71.1973
1343.88	119.305
1348.12	69.3457
1352.37	28.8086
1356.61	47.6025
1360.85	215.025
1365.08	180.976
1369.31	200.616
1373.54	44.0957
1377.77	140.514
1381.99	169.756
1386.22	12.9336
1390.43	90.041
1394.65	149.85
1398.87	196.367
1403.08	52.2227
1407.29	47.8984
1411.49	152.787
1415.69	69.4082
1419.89	123.461
1424.09	328.842
1428.29	0.75
1432.48	86.6113
1436.67	215.09
1440.86	76.7637
1445.04	122.877
1449.23	106.754
1453.4	19.9707
1457.58	1.22852
1461.76	128.703
1465.93	70.0352
1470.1	103.559
1474.26	16.9707
1478.43	291.844
1482.59	146.842
1486.75	131.432
1490.9	217.699
1495.06	113.648
1499.21	126.518
1503.35	181.707
1507.5	5.31641
1511.64	48.5371
1515.78	303.188
1519.92	143.463
1524.05	114.463
1528.18	123.199
1532.31	122.115
1536.44	185.772
1540.56	289.463
1544.69	241.822
1548.8	123.391
1552.92	113.502
1557.03	151.328
1561.14	122.908
1565.25	218.932
1569.36	242.42
