Measurement: Raman, 514 nm, ccw, Raman Data Processed
Mineral: Bertrandite
Rruff sample: R060800
Ideal chemistry: Be_4_Si_2_O_7_(OH)_2_
Locality: Golconda mine, Governador Valadares, Minas Gerais, Brazil
Source: Bob Jenkins
Description: Colorless pseudohexagonal prisms
Measured chemistry: Be_4.00_Si_2.00_O_7_(OH)_2_
Pin_id: M00212
Orientation: Laser parallel to c* (0 0 1). Fiducial mark perpendicular to laser is parallel to a [1 0 0]
Raman shift (cm-1)	intensity
123.058	0
127.979	214.203
132.898	334.385
137.814	237.727
142.728	285.91
147.639	463.353
152.549	207.822
157.455	371.316
162.359	147.807
167.261	269.533
172.161	614.572
177.058	1092.29
181.952	4328.32
186.845	2057.22
191.734	1182.6
196.622	3170.04
201.507	8178.93
206.389	18346.8
211.269	3384.23
216.147	912.449
221.022	1541.66
225.895	5225.03
230.765	4891.25
235.633	2652.17
240.498	5430.58
245.361	1980.44
250.222	686.658
255.08	350.861
259.936	545.508
264.789	385.603
269.64	256.586
274.488	357.348
279.334	165.076
284.178	183.342
289.019	435.065
293.857	649.623
298.693	2016.27
303.527	815.287
308.358	466.633
313.187	199.609
318.013	111.002
322.837	470.076
327.659	821.453
332.478	422.211
337.294	323.898
342.108	497.816
346.92	666.449
351.729	955.291
356.535	2888.3
361.34	1434.44
366.141	564.945
370.94	176.441
375.737	126.154
380.531	242.859
385.323	628.029
390.113	501.953
394.9	229.002
399.684	211.963
404.466	7.16797
409.245	245.586
414.022	156.342
418.797	193.26
423.569	140.488
428.338	66.8281
433.105	117.5
437.87	54.3574
442.632	163.346
447.391	12.5137
452.149	261.473
456.903	44.7422
461.655	67.1973
466.405	71.3652
471.152	60.6289
475.897	241.555
480.639	151.047
485.378	133.494
490.116	434.779
494.85	1128.14
499.582	1019.87
504.312	440.33
509.039	1.49609
513.764	4.29883
518.486	130.449
523.206	185.139
527.923	328.012
532.638	437.217
537.35	1287.16
542.059	1020.77
546.766	257.906
551.471	125.856
556.173	250.477
560.873	334.703
565.57	231.34
570.264	386.004
574.957	1165.71
579.646	1426.83
584.333	531.258
589.018	358.59
593.7	317.125
598.379	366.211
603.056	271.527
607.73	151.18
612.402	329.324
617.072	650.824
621.739	421.691
626.403	328.156
631.065	263.559
635.724	503.742
640.381	259.66
645.035	454.34
649.687	393.957
654.336	282.359
658.983	80.9844
663.627	16.3281
668.268	346.113
672.907	185.477
677.544	428.141
682.178	453.074
686.809	1507.79
691.438	2573.73
696.065	2393.67
700.688	2092.59
705.31	1641.13
709.929	1576.98
714.545	1433.75
719.158	1038.42
723.77	1264.09
728.378	1108.78
732.984	694.012
737.588	80.9961
742.189	291.457
746.787	415.773
751.383	1180
755.976	1449.14
760.567	1357.65
765.155	1492.94
769.741	1393.82
774.324	718.637
778.904	295.559
783.482	315.68
788.058	33.0117
792.631	137.375
797.201	299.004
801.769	534.809
806.334	50.7695
810.897	296.652
815.457	306.641
820.014	316.453
824.569	364.117
829.122	19.9297
833.671	368.144
838.219	295.297
842.763	239.383
847.306	522.43
851.845	723.266
856.382	459.949
860.917	603.477
865.448	274.848
869.978	258.027
874.505	456.441
879.029	408.156
883.55	165.348
888.069	275.984
892.586	369.469
897.1	60.4336
901.611	341.629
906.12	184.297
910.626	132.191
915.129	292.461
919.63	97.625
924.129	182.617
928.625	338.602
933.118	1.74219
937.609	295.816
942.097	139.664
946.582	514.945
951.065	520.793
955.546	395.637
960.023	113.484
964.499	264.383
968.971	180.457
973.441	199.797
977.909	814.961
982.374	1814.02
986.836	2384.91
991.295	1586.66
995.753	738.297
1000.21	623.844
1004.66	466.66
1009.11	162.945
1013.55	298.57
1018	146.129
1022.44	482.957
1026.88	39.8477
1031.32	161.398
1035.75	180.273
1040.18	185.309
1044.61	56.2734
1049.04	66.8242
1053.46	35.5586
1057.88	92.5977
1062.3	484.852
1066.71	467.074
1071.13	159.973
1075.54	436.856
1079.94	380.496
1084.35	424.551
1088.75	503.336
1093.15	523.977
1097.55	314.957
1101.94	292.188
1106.34	128.828
1110.73	210.438
1115.11	373.012
1119.5	386.481
1123.88	104.062
1128.26	366.141
1132.63	25.6172
1137.01	30.8945
1141.38	400.504
1145.75	188.785
1150.12	89.1016
1154.48	41.4805
1158.84	229.09
1163.2	222.883
1167.55	484.844
1171.91	232.031
1176.26	422.551
1180.61	466.285
1184.95	9.28906
1189.29	147.828
1193.63	266.285
1197.97	327.75
1202.31	289.535
1206.64	463.348
1210.97	155.152
1215.29	494.945
1219.62	567.719
1223.94	539.484
1228.26	246.254
1232.57	367.031
1236.89	411.812
1241.2	333.598
1245.51	696.375
1249.81	748.281
1254.12	577.402
1258.42	380.492
1262.72	450.387
1267.01	564.102
1271.3	300.188
1275.59	336.992
1279.88	278.465
1284.17	428.172
1288.45	489.152
1292.73	674.996
1297.01	586.977
1301.28	835.086
1305.55	708.621
1309.82	624.144
1314.09	705.617
1318.35	892.797
1322.61	664.055
1326.87	683.18
1331.13	807.336
1335.38	575.488
1339.63	949.652
1343.88	778.836
1348.12	468
1352.37	776.191
1356.61	941.391
1360.85	387.332
1365.08	682.606
1369.31	751.574
1373.54	656.543
1377.77	403.309
1381.99	707.106
1386.22	738.75
1390.43	467.941
1394.65	539.824
1398.87	828.094
1403.08	244.543
1407.29	246.504
1411.49	425.691
1415.69	133.875
1419.89	238.934
1424.09	580.727
1428.29	533.062
1432.48	164.93
1436.67	1022.38
1440.86	870.156
1445.04	707.773
1449.23	838.176
1453.4	984.734
1457.58	499.731
1461.76	678.75
1465.93	452.789
1470.1	559.816
1474.26	309.816
1478.43	625.074
1482.59	632.141
1486.75	328.25
1490.9	295.719
1495.06	376.82
1499.21	35.0938
1503.35	58.1523
1507.5	100.531
1511.64	201.84
1515.78	451.945
1519.92	108.199
1524.05	207.617
1528.18	422.309
1532.31	645.07
1536.44	190.453
1540.56	86.4219
1544.69	414.297
1548.8	88.2656
1552.92	494.57
1557.03	750.965
1561.14	419.164
1565.25	116.695
1569.36	1.33594
