Measurement: Raman, 514 nm, ccw, Raman Data Processed
Mineral: Bertrandite
Rruff sample: R060800
Ideal chemistry: Be_4_Si_2_O_7_(OH)_2_
Locality: Golconda mine, Governador Valadares, Minas Gerais, Brazil
Source: Bob Jenkins
Description: Colorless pseudohexagonal prisms
Measured chemistry: Be_4.00_Si_2.00_O_7_(OH)_2_
Pin_id: M00212
Orientation: Laser parallel to c* (0 0 1). Fiducial mark perpendicular to laser is parallel to a [1 0 0]
Raman shift (cm-1)	intensity
123.058	0
127.979	26.5
132.898	193.492
137.814	235.848
142.728	231.441
147.639	277.31
152.549	287.537
157.455	140.445
162.359	172.904
167.261	431.822
172.161	492.475
177.058	1256.58
181.952	4027.02
186.845	2243.47
191.734	1491.7
196.622	3299.58
201.507	7595.09
206.389	18648.9
211.269	3274.46
216.147	1033.85
221.022	1074.12
225.895	3690.25
230.765	3993.58
235.633	1756.02
240.498	3744
245.361	1418.52
250.222	606.562
255.08	613.256
259.936	366.603
264.789	218.4
269.64	456.559
274.488	355.85
279.334	175.871
284.178	183.795
289.019	76.3965
293.857	463.147
298.693	1411.83
303.527	513.109
308.358	448.051
313.187	251.266
318.013	156.529
322.837	230.988
327.659	424.633
332.478	590.18
337.294	197.891
342.108	342.027
346.92	404.69
351.729	811.637
356.535	1781.89
361.34	1792.42
366.141	1129.17
370.94	317.344
375.737	239.887
380.531	129.32
385.323	560.086
390.113	496.369
394.9	283.574
399.684	179.848
404.466	131.897
409.245	71.4043
414.022	534.389
418.797	160.588
423.569	30.8398
428.338	219.525
433.105	149.699
437.87	61.416
442.632	168.078
447.391	294.916
452.149	190.684
456.903	105.299
461.655	53.082
466.405	3.78516
471.152	88.543
475.897	72.3965
480.639	56.9902
485.378	135.25
490.116	291.088
494.85	533.238
499.582	634.311
504.312	255.935
509.039	247.553
513.764	85.9394
518.486	16.7129
523.206	188.83
527.923	211.572
532.638	473.881
537.35	787.293
542.059	506.691
546.766	328.742
551.471	174.273
556.173	21.4473
560.873	57.0059
565.57	292.731
570.264	100.566
574.957	1069.92
579.646	1282.74
584.333	401.043
589.018	292.102
593.7	113.992
598.379	39.0508
603.056	434.078
607.73	72.8535
612.402	113.291
617.072	326.275
621.739	424.481
626.403	531.453
631.065	53.123
635.724	163.475
640.381	189.42
645.035	310.641
649.687	49.4121
654.336	109.379
658.983	210.115
663.627	164.154
668.268	237.074
672.907	9.79883
677.544	447.547
682.178	810.652
686.809	1409.64
691.438	2050.62
696.065	2191
700.688	1569.63
705.31	1238.98
709.929	1267.3
714.545	1170.01
719.158	895.115
723.77	1092.12
728.378	663.627
732.984	355.83
737.588	110.152
742.189	186.596
746.787	416.01
751.383	956.635
755.976	817.398
760.567	1205.85
765.155	1246.08
769.741	1026.59
774.324	828.541
778.904	339.459
783.482	139.772
788.058	144.658
792.631	199.502
797.201	148.023
801.769	260.068
806.334	185.541
810.897	494.289
815.457	300.361
820.014	211.268
824.569	12.5
829.122	289.559
833.671	98.3027
838.219	21.5703
842.763	256.236
847.306	540.084
851.845	290.15
856.382	467.428
860.917	200.873
865.448	132.484
869.978	176.309
874.505	150.441
879.029	63.8203
883.55	149.769
888.069	97.7031
892.586	0.859375
897.1	129.887
901.611	26.3477
906.12	135.422
910.626	74.6289
915.129	265.652
919.63	106.594
924.129	144.078
928.625	216.805
933.118	293.582
937.609	12.7422
942.097	462.34
946.582	700.281
951.065	515.973
955.546	257.234
960.023	238.691
964.499	141.172
968.971	282.812
973.441	418.938
977.909	861.492
982.374	1763.41
986.836	3052.91
991.295	1940.49
995.753	821
1000.21	617.117
1004.66	334.887
1009.11	215.547
1013.55	143.043
1018	383.934
1022.44	211.391
1026.88	344.84
1031.32	232.473
1035.75	50.3945
1040.18	224.656
1044.61	383.738
1049.04	171.379
1053.46	30.7969
1057.88	572.184
1062.3	299.699
1066.71	346.652
1071.13	904.055
1075.54	642.422
1079.94	501.129
1084.35	936.383
1088.75	492.91
1093.15	563.707
1097.55	523.547
1101.94	437.598
1106.34	137.555
1110.73	437.523
1115.11	43.3555
1119.5	189.445
1123.88	477.738
1128.26	296.539
1132.63	1.375
1137.01	259.262
1141.38	152.606
1145.75	67.2266
1150.12	293.211
1154.48	97.1836
1158.84	92.6406
1163.2	411.012
1167.55	272.168
1171.91	166.043
1176.26	279.449
1180.61	173.887
1184.95	49.6289
1189.29	430.731
1193.63	150.09
1197.97	10.3438
1202.31	69.8594
1206.64	354.18
1210.97	196.269
1215.29	531.949
1219.62	148.234
1223.94	115.981
1228.26	303.383
1232.57	326.312
1236.89	321.547
1241.2	306.144
1245.51	646.805
1249.81	540.981
1254.12	414.562
1258.42	564.656
1262.72	270.016
1267.01	466.434
1271.3	671.438
1275.59	101.809
1279.88	269.652
1284.17	300.078
1288.45	206.254
1292.73	288.586
1297.01	541.738
1301.28	515.102
1305.55	173.727
1309.82	676.836
1314.09	644.988
1318.35	257.773
1322.61	645.68
1326.87	214.418
1331.13	591.578
1335.38	611.508
1339.63	199.227
1343.88	578.555
1348.12	279.238
1352.37	683.617
1356.61	435.352
1360.85	533.957
1365.08	550.109
1369.31	77.4414
1373.54	456.512
1377.77	420.848
1381.99	458.266
1386.22	266.527
1390.43	305.375
1394.65	355.746
1398.87	313.945
1403.08	342.223
1407.29	88.9688
1411.49	268.512
1415.69	242.434
1419.89	329.836
1424.09	21.0391
1428.29	363.551
1432.48	413.914
1436.67	391.898
1440.86	656.984
1445.04	938.125
1449.23	515.019
1453.4	855.516
1457.58	763.543
1461.76	623.84
1465.93	287.691
1470.1	646.859
1474.26	456.438
1478.43	106.883
1482.59	810.625
1486.75	282.504
1490.9	16.9609
1495.06	102.066
1499.21	322.5
1503.35	105.734
1507.5	167.562
1511.64	614.254
1515.78	137.758
1519.92	152.617
1524.05	495.785
1528.18	390.289
1532.31	241.816
1536.44	460.688
1540.56	477.781
1544.69	4.84375
1548.8	328.34
1552.92	574.762
1557.03	229.941
1561.14	565.625
1565.25	437.617
1569.36	574.879
