Measurement: Raman, 514 nm, ccw, Raman Data Processed
Mineral: Bertrandite
Rruff sample: R060800
Ideal chemistry: Be_4_Si_2_O_7_(OH)_2_
Locality: Golconda mine, Governador Valadares, Minas Gerais, Brazil
Source: Bob Jenkins
Description: Colorless pseudohexagonal prisms
Measured chemistry: Be_4.00_Si_2.00_O_7_(OH)_2_
Pin_id: M00212
Orientation: Laser parallel to c* (0 0 1). Fiducial mark perpendicular to laser is parallel to a [1 0 0]
Raman shift (cm-1)	intensity
123.058	0
127.979	114.975
132.898	35.0059
137.814	214.416
142.728	44.0352
147.639	121.916
152.549	194.703
157.455	180.512
162.359	106.844
167.261	375.506
172.161	506.238
177.058	1394.69
181.952	4919.61
186.845	2392.37
191.734	1121.85
196.622	3265.08
201.507	8439.71
206.389	17817.5
211.269	3103.92
216.147	773.941
221.022	552.529
225.895	1446.4
230.765	1329.57
235.633	796.957
240.498	1094.94
245.361	549.031
250.222	311.935
255.08	154.728
259.936	310.299
264.789	174.277
269.64	95.084
274.488	42.9082
279.334	212.471
284.178	79.7266
289.019	100.356
293.857	267.791
298.693	312.027
303.527	107.988
308.358	20.8047
313.187	79.7246
318.013	5.07227
322.837	240.328
327.659	631.59
332.478	398.553
337.294	74.1484
342.108	176.236
346.92	209.519
351.729	31.0879
356.535	306.299
361.34	919.393
366.141	602.43
370.94	34.8379
375.737	62.2637
380.531	206.143
385.323	505.438
390.113	399.279
394.9	258.519
399.684	267.715
404.466	274.902
409.245	14.0234
414.022	408.35
418.797	403.783
423.569	249.01
428.338	242.32
433.105	292.336
437.87	128.398
442.632	35.8574
447.391	528.543
452.149	125.904
456.903	257.15
461.655	225.68
466.405	278.207
471.152	153.695
475.897	254.391
480.639	163.631
485.378	412.785
490.116	192.326
494.85	236.551
499.582	1.72266
504.312	179.383
509.039	105.875
513.764	167.008
518.486	82.9512
523.206	61.4023
527.923	34.6641
532.638	346.193
537.35	186.144
542.059	217.125
546.766	248.775
551.471	43.4355
556.173	50.7539
560.873	297.533
565.57	11.9219
570.264	522.934
574.957	1169.95
579.646	1283.17
584.333	358.566
589.018	521.498
593.7	22.2148
598.379	132.234
603.056	68.1387
607.73	95.793
612.402	285.158
617.072	350.682
621.739	298.99
626.403	237.65
631.065	199.68
635.724	65.0117
640.381	131.664
645.035	660.445
649.687	91.6992
654.336	257.371
658.983	153.102
663.627	109.061
668.268	189.894
672.907	261.178
677.544	258.467
682.178	897.91
686.809	1124.19
691.438	2105.09
696.065	1832.89
700.688	1127.64
705.31	674.129
709.929	889.227
714.545	519.672
719.158	788.598
723.77	554.957
728.378	713.059
732.984	555.859
737.588	10.5664
742.189	119.109
746.787	665.91
751.383	972.754
755.976	875.566
760.567	309.621
765.155	364.441
769.741	611.117
774.324	385.137
778.904	383.949
783.482	237.383
788.058	255.023
792.631	229.019
797.201	425.793
801.769	607.859
806.334	811.059
810.897	651.824
815.457	542.856
820.014	352.902
824.569	248.773
829.122	516.496
833.671	16.8945
838.219	121.703
842.763	107.117
847.306	255.367
851.845	234.383
856.382	532.152
860.917	262.695
865.448	309.004
869.978	419.195
874.505	66.1562
879.029	190.633
883.55	414.359
888.069	58.1992
892.586	105.012
897.1	20.9609
901.611	11.7891
906.12	38.3984
910.626	178.438
915.129	35.4688
919.63	61.6094
924.129	53.2422
928.625	343.129
933.118	453.238
937.609	298.785
942.097	246.598
946.582	569.394
951.065	451.32
955.546	322.129
960.023	49.1641
964.499	450.277
968.971	180.695
973.441	556.152
977.909	779.953
982.374	2144.93
986.836	3016.89
991.295	1945.85
995.753	833.75
1000.21	627.566
1004.66	373.379
1009.11	179.805
1013.55	29.6719
1018	187.453
1022.44	450.121
1026.88	440.684
1031.32	190.977
1035.75	26
1040.18	166.449
1044.61	87.0508
1049.04	267.379
1053.46	385.602
1057.88	14.8867
1062.3	384.496
1066.71	581.598
1071.13	616.562
1075.54	505.606
1079.94	709.719
1084.35	605.312
1088.75	645.582
1093.15	697.727
1097.55	603.184
1101.94	514.762
1106.34	195.711
1110.73	131.816
1115.11	457.051
1119.5	278.426
1123.88	273.941
1128.26	132.606
1132.63	93.418
1137.01	87.3945
1141.38	55.6523
1145.75	91.7578
1150.12	265.445
1154.48	51.5977
1158.84	1.80078
1163.2	336.195
1167.55	40.0508
1171.91	223.93
1176.26	404.191
1180.61	302.746
1184.95	54.8984
1189.29	154.098
1193.63	30.1758
1197.97	248.934
1202.31	220.688
1206.64	178.773
1210.97	260.875
1215.29	427.527
1219.62	356.238
1223.94	190.254
1228.26	370.644
1232.57	194.519
1236.89	80.2148
1241.2	397.508
1245.51	176.094
1249.81	60.9883
1254.12	268.164
1258.42	88.6445
1262.72	125.426
1267.01	524.586
1271.3	151.074
1275.59	332.102
1279.88	194.875
1284.17	673.691
1288.45	142.75
1292.73	141.277
1297.01	703.16
1301.28	452.949
1305.55	468.289
1309.82	816.883
1314.09	293.758
1318.35	378.887
1322.61	415.113
1326.87	281.848
1331.13	489.863
1335.38	672.16
1339.63	607.734
1343.88	642.195
1348.12	481.348
1352.37	776.367
1356.61	348.086
1360.85	551.578
1365.08	623.305
1369.31	530.863
1373.54	216.066
1377.77	331.148
1381.99	282.426
1386.22	309.812
1390.43	271.356
1394.65	268.523
1398.87	288.445
1403.08	175.008
1407.29	426.742
1411.49	229.129
1415.69	209.07
1419.89	413.32
1424.09	128.066
1428.29	280.746
1432.48	163.188
1436.67	418.336
1440.86	445.457
1445.04	605.809
1449.23	167.293
1453.4	499.055
1457.58	445.262
1461.76	227.957
1465.93	441.918
1470.1	539.191
1474.26	306.598
1478.43	172.234
1482.59	172.09
1486.75	465.902
1490.9	175.391
1495.06	94.5
1499.21	212.969
1503.35	30.6602
1507.5	34.1094
1511.64	140.906
1515.78	49.4062
1519.92	19.918
1524.05	307.914
1528.18	461.344
1532.31	456.394
1536.44	384.156
1540.56	424.43
1544.69	257.875
1548.8	83.7617
1552.92	329.688
1557.03	423.414
1561.14	324.41
1565.25	166.859
1569.36	36.793
