Measurement: Raman, 514 nm, ccw, Raman Data Processed
Mineral: Bertrandite
Rruff sample: R060800
Ideal chemistry: Be_4_Si_2_O_7_(OH)_2_
Locality: Golconda mine, Governador Valadares, Minas Gerais, Brazil
Source: Bob Jenkins
Description: Colorless pseudohexagonal prisms
Measured chemistry: Be_4.00_Si_2.00_O_7_(OH)_2_
Pin_id: M00406
Orientation: Laser parallel to b* (0 1 0). Fiducial mark perpendicular to laser is parallel to c [0 0 1]
Raman shift (cm-1)	intensity
123.058	0
127.979	33.4605
132.898	1.73535
137.814	88.2954
142.728	68.1367
147.639	72.4648
152.549	139.604
157.455	193.863
162.359	311.327
167.261	806.566
172.161	3609.04
177.058	8724.74
181.952	22072.3
186.845	11005.4
191.734	7856.99
196.622	20637.8
201.507	47069
206.389	29840.4
211.269	8152.62
216.147	3747.37
221.022	9003.88
225.895	22729.8
230.765	18420.1
235.633	6721.49
240.498	4864.06
245.361	2348.85
250.222	596.58
255.08	420.612
259.936	514.72
264.789	195.883
269.64	102.751
274.488	36.835
279.334	59.666
284.178	47.6035
289.019	564.974
293.857	1450.17
298.693	2322.95
303.527	889.371
308.358	157.269
313.187	86.5801
318.013	23.1221
322.837	175.108
327.659	461.733
332.478	624.421
337.294	529.47
342.108	597.005
346.92	1879.56
351.729	4745.09
356.535	4904.68
361.34	3356.9
366.141	1180.14
370.94	300.644
375.737	192.315
380.531	372.43
385.323	689.352
390.113	527.174
394.9	324.877
399.684	225.446
404.466	389.873
409.245	655.914
414.022	1067.32
418.797	945.261
423.569	527.379
428.338	461.953
433.105	537.841
437.87	612.609
442.632	563.248
447.391	600.739
452.149	204.686
456.903	202.943
461.655	206.049
466.405	43.8232
471.152	107.34
475.897	28.8203
480.639	192.572
485.378	463.555
490.116	560.315
494.85	397.85
499.582	267.155
504.312	97.2227
509.039	38.9219
513.764	10.8535
518.486	114.452
523.206	403.393
527.923	515.284
532.638	1328.9
537.35	1914.25
542.059	582.334
546.766	245.145
551.471	184.624
556.173	26.7559
560.873	208.507
565.57	536.928
570.264	1217.12
574.957	2369.12
579.646	2108.09
584.333	675.003
589.018	306.714
593.7	190.287
598.379	231.775
603.056	271.2
607.73	123.694
612.402	218.517
617.072	173.618
621.739	392.61
626.403	304.915
631.065	133.071
635.724	197.083
640.381	173.956
645.035	28.9766
649.687	67.1836
654.336	86.7842
658.983	8.90625
663.627	68.2227
668.268	132.35
672.907	649.404
677.544	1755.39
682.178	3271.32
686.809	6051.21
691.438	6214.28
696.065	4203.87
700.688	4623.73
705.31	8411.07
709.929	13403.6
714.545	9498.36
719.158	4392.06
723.77	1953.52
728.378	1353.09
732.984	1063.4
737.588	1017.56
742.189	1075.36
746.787	1692.17
751.383	2679.65
755.976	2543.6
760.567	1824.94
765.155	2070.37
769.741	3526.84
774.324	2419.37
778.904	914.968
783.482	364.624
788.058	328.735
792.631	254.776
797.201	395.013
801.769	330.737
806.334	408.366
810.897	869.125
815.457	1829.03
820.014	3004.07
824.569	1840.26
829.122	610.671
833.671	224.331
838.219	157.266
842.763	3.44531
847.306	158.842
851.845	198.737
856.382	52.709
860.917	9.75488
865.448	3.76465
869.978	64.8242
874.505	66.9619
879.029	265.882
883.55	280.019
888.069	312.391
892.586	226.981
897.1	407.766
901.611	332.747
906.12	369.216
910.626	791.598
915.129	1893.31
919.63	6932.1
924.129	17208.5
928.625	13781
933.118	5410.8
937.609	2928.97
942.097	1997.4
946.582	2249.19
951.065	1591.24
955.546	1394.57
960.023	1297.2
964.499	1295.62
968.971	1440.97
973.441	1948.47
977.909	4104.71
982.374	9318.15
986.836	14875.7
991.295	10452.7
995.753	4516.64
1000.21	2240.89
1004.66	1305.34
1009.11	855.319
1013.55	323.833
1018	456.562
1022.44	542.498
1026.88	339.643
1031.32	131.989
1035.75	45.5312
1040.18	154.26
1044.61	23.1699
1049.04	52.2607
1053.46	196.524
1057.88	152.956
1062.3	678.436
1066.71	829.288
1071.13	788.365
1075.54	670.279
1079.94	501.332
1084.35	518.697
1088.75	241.443
1093.15	51.541
1097.55	45.623
1101.94	154.934
1106.34	64.5215
1110.73	5.90039
1115.11	177.711
1119.5	184.197
1123.88	254.287
1128.26	17.25
1132.63	208.773
1137.01	125.295
1141.38	66.9805
1145.75	334.045
1150.12	268.914
1154.48	459.857
1158.84	321.264
1163.2	468.129
1167.55	490.039
1171.91	555.639
1176.26	295.467
1180.61	304.123
1184.95	180.324
1189.29	174.238
1193.63	60.8516
1197.97	169.371
1202.31	24.2402
1206.64	94.9199
1210.97	153.248
1215.29	78.1074
1219.62	150.481
1223.94	148.732
1228.26	19.5332
1232.57	25.0098
1236.89	269.178
1241.2	139.625
1245.51	79.8848
1249.81	169.961
1254.12	126.562
1258.42	252.109
1262.72	208.717
1267.01	166.008
1271.3	111.752
1275.59	313.096
1279.88	220.818
1284.17	53.4766
1288.45	188.647
1292.73	192.109
1297.01	248.955
1301.28	217.117
1305.55	164.674
1309.82	212.07
1314.09	437.305
1318.35	270.365
1322.61	323.242
1326.87	221.945
1331.13	159.598
1335.38	144.844
1339.63	324.219
1343.88	91.9414
1348.12	113.947
1352.37	24.2422
1356.61	108.715
1360.85	139.336
1365.08	121.193
1369.31	146.615
1373.54	295.602
1377.77	213.123
1381.99	375.596
1386.22	137.441
1390.43	76.1582
1394.65	93.2207
1398.87	66.5547
1403.08	88.6738
1407.29	51.6133
1411.49	22.3867
1415.69	13.3066
1419.89	121.353
1424.09	182.945
1428.29	138.152
1432.48	206.809
1436.67	361.228
1440.86	332.594
1445.04	288.506
1449.23	534.801
1453.4	609.82
1457.58	490.432
1461.76	406.422
1465.93	108.311
1470.1	287.965
1474.26	265.207
1478.43	142.572
1482.59	162.525
1486.75	349.227
1490.9	38.4336
1495.06	215.398
1499.21	229.258
1503.35	181.889
1507.5	112.24
1511.64	134.685
1515.78	140.166
1519.92	126.539
1524.05	19.3047
1528.18	234.779
1532.31	121.377
1536.44	73.2617
1540.56	259.764
1544.69	136.315
1548.8	21.1035
1552.92	276.092
1557.03	57.2148
1561.14	265.334
1565.25	162.861
1569.36	129.082
