Measurement: Raman, 514 nm, ccw, Raman Data Processed
Mineral: Bertrandite
Rruff sample: R060800
Ideal chemistry: Be_4_Si_2_O_7_(OH)_2_
Locality: Golconda mine, Governador Valadares, Minas Gerais, Brazil
Source: Bob Jenkins
Description: Colorless pseudohexagonal prisms
Measured chemistry: Be_4.00_Si_2.00_O_7_(OH)_2_
Pin_id: M00454
Orientation: Laser parallel to a* (1 0 0). Fiducial mark perpendicular to laser is parallel to b [0 1 0]
Raman shift (cm-1)	intensity
123.058	0
127.979	65.3242
132.898	110.049
137.814	271.612
142.728	467.835
147.639	92.0396
152.549	129.992
157.455	161.175
162.359	203.149
167.261	410.471
172.161	2679.99
177.058	7320.95
181.952	16385.3
186.845	8444.7
191.734	6278.07
196.622	21078.2
201.507	50478.8
206.389	33661.4
211.269	6794.75
216.147	1790.9
221.022	3566.51
225.895	9398.87
230.765	8417.31
235.633	4928.77
240.498	5714.82
245.361	2317.49
250.222	564.225
255.08	391.223
259.936	275.615
264.789	177.377
269.64	15.6846
274.488	98.2519
279.334	19.5693
284.178	8.93066
289.019	394.81
293.857	1749.9
298.693	1942.99
303.527	534.92
308.358	107.586
313.187	51.8897
318.013	35.7725
322.837	12.6924
327.659	215.106
332.478	192.94
337.294	104.115
342.108	132.963
346.92	464.051
351.729	1016.42
356.535	2906.1
361.34	4011.06
366.141	2257.4
370.94	499.264
375.737	198.318
380.531	67.2588
385.323	138.173
390.113	364.219
394.9	412.383
399.684	446.637
404.466	485.971
409.245	1145.69
414.022	1797.19
418.797	1505.82
423.569	582.666
428.338	308.856
433.105	234.218
437.87	422.723
442.632	775.355
447.391	1401.1
452.149	553.941
456.903	126.934
461.655	59.5986
466.405	7.37598
471.152	121.783
475.897	27.9336
480.639	251.462
485.378	802.878
490.116	942.34
494.85	834.25
499.582	627.321
504.312	182.998
509.039	105.5
513.764	97.8359
518.486	137.773
523.206	151.264
527.923	353.685
532.638	1284.11
537.35	1541.54
542.059	483.982
546.766	138.425
551.471	85.8389
556.173	85.1934
560.873	150.855
565.57	402.956
570.264	1346.35
574.957	3817.78
579.646	4001.31
584.333	1183.92
589.018	416.672
593.7	349.576
598.379	1.50586
603.056	48.5176
607.73	73.125
612.402	179.164
617.072	338.169
621.739	677.912
626.403	534.395
631.065	32.918
635.724	3.43066
640.381	8.22266
645.035	51.9121
649.687	104.474
654.336	11.334
658.983	106.17
663.627	120.345
668.268	316.058
672.907	1103.85
677.544	2267.71
682.178	3745.65
686.809	7238.68
691.438	7883.46
696.065	4574.63
700.688	3097.9
705.31	4892.25
709.929	7634.48
714.545	5904.82
719.158	2442.97
723.77	965.361
728.378	1063.13
732.984	1208
737.588	1005.52
742.189	962.681
746.787	1633.82
751.383	2953.12
755.976	2975.02
760.567	2465.8
765.155	3749.98
769.741	6124.28
774.324	4688.62
778.904	1926.84
783.482	930.679
788.058	613.176
792.631	510.369
797.201	413.728
801.769	89.9424
806.334	278.217
810.897	196.553
815.457	227.951
820.014	374.411
824.569	275.933
829.122	186.544
833.671	95.5518
838.219	218.535
842.763	31.832
847.306	102.696
851.845	54.4531
856.382	13.1953
860.917	43.2412
865.448	127.012
869.978	24.8379
874.505	60.415
879.029	67.5332
883.55	180.618
888.069	249.647
892.586	198.746
897.1	33.751
901.611	53.6455
906.12	126.556
910.626	90.3897
915.129	279.312
919.63	459.298
924.129	707.351
928.625	917.482
933.118	611.734
937.609	694.144
942.097	1090.63
946.582	2107.2
951.065	1718.85
955.546	1131.58
960.023	840.434
964.499	787.456
968.971	827.592
973.441	1389.03
977.909	2619.12
982.374	6378.73
986.836	10884.8
991.295	7913.42
995.753	3427.44
1000.21	1516.88
1004.66	988.434
1009.11	623.176
1013.55	357.235
1018	308.842
1022.44	217.483
1026.88	210.345
1031.32	173.7
1035.75	268.844
1040.18	163.105
1044.61	189.595
1049.04	268.231
1053.46	147.565
1057.88	538.501
1062.3	935.587
1066.71	1631.82
1071.13	1824.2
1075.54	1196.32
1079.94	979.042
1084.35	898.931
1088.75	493.231
1093.15	288.428
1097.55	112.008
1101.94	63.3555
1106.34	62.0176
1110.73	52.8145
1115.11	204.773
1119.5	348.918
1123.88	394.33
1128.26	106.137
1132.63	64.0762
1137.01	70.4512
1141.38	47.2285
1145.75	88.7734
1150.12	48.0449
1154.48	112.453
1158.84	315.959
1163.2	109.684
1167.55	148.006
1171.91	180.033
1176.26	83.2207
1180.61	165.566
1184.95	176.004
1189.29	18.5137
1193.63	5.0957
1197.97	46.7461
1202.31	55.4531
1206.64	153.254
1210.97	61.0234
1215.29	120.93
1219.62	41.8379
1223.94	107.777
1228.26	101.01
1232.57	89.832
1236.89	185.744
1241.2	13.6855
1245.51	92.6523
1249.81	142.641
1254.12	100.65
1258.42	35.5879
1262.72	88.9648
1267.01	254.129
1271.3	110.344
1275.59	216.228
1279.88	81.6465
1284.17	101.049
1288.45	142.463
1292.73	2.85156
1297.01	27.334
1301.28	189.869
1305.55	287.523
1309.82	77.0449
1314.09	107.08
1318.35	124.068
1322.61	117.287
1326.87	226.154
1331.13	127.959
1335.38	43.5547
1339.63	215.199
1343.88	311.984
1348.12	131.459
1352.37	323.379
1356.61	66.7207
1360.85	202.955
1365.08	231.199
1369.31	135.738
1373.54	263.764
1377.77	156.647
1381.99	246.533
1386.22	183.322
1390.43	257.127
1394.65	264.838
1398.87	81.9883
1403.08	145.793
1407.29	75.2227
1411.49	110.598
1415.69	222.732
1419.89	154.334
1424.09	182.779
1428.29	48.793
1432.48	97.1231
1436.67	193.139
1440.86	163.019
1445.04	58.1836
1449.23	113.658
1453.4	195.975
1457.58	331.93
1461.76	112.883
1465.93	32.7168
1470.1	303.373
1474.26	58.8828
1478.43	120.273
1482.59	193.678
1486.75	222.375
1490.9	271.922
1495.06	277.801
1499.21	220.918
1503.35	219.545
1507.5	72.3516
1511.64	200.445
1515.78	142.236
1519.92	199.584
1524.05	68.1914
1528.18	207.391
1532.31	49.4473
1536.44	150.498
1540.56	74.875
1544.69	199.861
1548.8	200.215
1552.92	319.623
1557.03	133.775
1561.14	117.1
1565.25	162.904
1569.36	42.3281
