Measurement: Raman, 514 nm, ccw, Raman Data Processed
Mineral: Beryl
Rruff sample: R050368
Ideal chemistry: Be_3_Al_2_Si_6_O_18_
Locality: Wah Wah Mountains, Utah, USA
Source: Eugene Schlepp
Description: Red-violet hexagonal prism
Measured chemistry: (Be_0.99_Li_0.01_)_3_(Al_0.95_Fe^3+^_0.05_)_2_Si_6.00_O_18_Î‡K_0.02_Na_0.01_
Pin_id: L01133
Orientation: Laser parallel to -a* (-1 0 0). Fiducial mark perpendicular to laser is parallel to -c [0 0 -1]
Raman shift (cm-1)	intensity
82.367	0
87.308	208
92.246	1757.99
97.182	1323.13
102.116	1114.86
107.047	1277.22
111.976	1072.98
116.903	1171.18
121.827	1727.92
126.749	1823.24
131.668	2406.09
136.585	2741.85
141.5	1818.46
146.412	664.202
151.321	118.754
156.229	238.822
161.134	261.067
166.036	384.303
170.936	394.551
175.834	502.957
180.729	1024.63
185.622	1395.86
190.512	1260.06
195.4	1689.48
200.286	1917.93
205.169	794.005
210.049	236.454
214.928	220.58
219.803	855.179
224.677	699.392
229.548	1074.34
234.416	1306.93
239.282	1504.44
244.146	2033.93
249.007	2900.52
253.866	1818.94
258.722	1247.91
263.576	763.005
268.427	861.065
273.276	912.174
278.123	1664.34
282.967	967.751
287.809	962.29
292.648	1173.24
297.485	1393.8
302.319	1882.52
307.151	2953.52
311.98	6690.07
316.807	11870
321.631	9942.5
326.454	2694.06
331.273	541.757
336.09	99.4277
340.905	129.917
345.717	32.792
350.527	126.001
355.334	127.806
360.139	49.957
364.941	124.982
369.741	346.033
374.538	1193.45
379.333	2742.06
384.126	4381.66
388.916	8903.3
393.703	10880
398.488	5188.92
403.271	1832.05
408.051	940.019
412.828	1089.91
417.603	1099.45
422.376	765.767
427.146	552.465
431.914	880.846
436.679	2227.94
441.442	3710.85
446.202	3019.86
450.96	1391.21
455.715	866.367
460.467	531.634
465.218	218.455
469.965	359.371
474.711	403.937
479.454	496.4
484.194	705.664
488.932	786.429
493.667	819.974
498.4	1111.04
503.13	1309.6
507.858	1218.52
512.583	1536.58
517.306	3068.1
522.026	4753.34
526.744	4528.18
531.459	2377.59
536.172	1255.99
540.882	491.264
545.59	104.351
550.295	78.8623
554.998	34.419
559.698	11.0508
564.396	57.5537
569.091	245.053
573.784	570.244
578.474	1124.15
583.162	1705.68
587.847	1967.73
592.529	2339.28
597.209	2368.29
601.887	2138.76
606.562	2081.67
611.235	2282.03
615.905	2576.84
620.572	2111.23
625.237	1494.67
629.9	1201.25
634.56	1514.02
639.217	2004.19
643.872	2120.7
648.524	1921.07
653.174	1989.42
657.821	2846.42
662.466	5073.43
667.108	8058.17
671.748	14258.1
676.385	30880.7
681.02	43145.4
685.652	25004.2
690.281	10665.2
694.908	5808.98
699.533	3439.81
704.155	2220.21
708.774	1294.02
713.391	753.187
718.005	241.025
722.617	247.539
727.226	90.7344
731.833	145.614
736.437	513.263
741.039	483.664
745.638	592.797
750.234	774.649
754.828	940.205
759.419	1407.46
764.008	2187.39
768.595	2358.98
773.178	1554.21
777.759	903.057
782.338	410.486
786.914	260.471
791.488	88.9863
796.059	76.2109
800.627	73.3398
805.193	10.249
809.756	117.157
814.317	44.1582
818.875	6.54492
823.431	53.9297
827.984	17.5889
832.534	113.525
837.082	122.253
841.627	92.9258
846.17	79.1885
850.71	17.5518
855.248	84.7129
859.783	162.298
864.316	258.31
868.846	350.772
873.373	564.589
877.898	951.104
882.42	1236.02
886.94	1547.51
891.457	1573.93
895.971	1994.38
900.483	2511.78
904.993	3761.35
909.5	5474.8
914.004	6818.93
918.505	5849.62
923.004	3768.86
927.501	2227.84
931.995	1349.03
936.486	1016.51
940.975	821.927
945.461	462.084
949.945	349.714
954.426	180.853
958.904	276.655
963.38	359.188
967.853	402.275
972.324	594.472
976.792	722.339
981.258	927.201
985.72	1577.88
990.181	2599.58
994.639	4174.31
999.094	5979.17
1003.55	8618.85
1008	9093.57
1012.44	7323.4
1016.89	5057.51
1021.33	3581.75
1025.77	3083.93
1030.21	2905.23
1034.64	3309.93
1039.07	3976.03
1043.5	5194.08
1047.93	7460.93
1052.35	11718.4
1056.78	20315.8
1061.19	34777.3
1065.61	43349.1
1070.02	33734.2
1074.43	21056.5
1078.84	13610.2
1083.25	9316.49
1087.65	6684.08
1092.05	4764.96
1096.45	3621.18
1100.85	2802.84
1105.24	2242.16
1109.63	1971.07
1114.02	1694.12
1118.4	1583.24
1122.78	1311.57
1127.16	1235.96
1131.54	889.34
1135.92	726.989
1140.29	472.813
1144.66	1.9043
1149.02	14.2051
1153.39	144.652
1157.75	181.735
1162.11	37.5156
1166.46	165.425
1170.82	66.2363
1175.17	217.324
1179.52	251.44
1183.86	493.91
1188.21	638.342
1192.55	875.311
1196.89	799.969
1201.22	769.576
1205.55	718.667
1209.88	985.863
1214.21	1183.62
1218.54	1908.1
1222.86	2145.93
1227.18	1929.83
1231.5	1883.89
1235.81	1522.82
1240.12	1714.77
1244.43	1401.61
1248.74	813.517
1253.04	490.554
1257.34	419.94
1261.64	333.517
1265.94	366.406
1270.23	266.532
1274.52	334.381
1278.81	355.705
1283.1	281.085
1287.38	370.444
1291.66	230.904
1295.94	232.056
1300.21	388.834
1304.48	153.084
1308.75	13.3008
1313.02	190.415
1317.29	26.1025
1321.55	114.051
1325.81	107.67
1330.06	184.092
1334.32	235.424
1338.57	262.191
1342.82	371.191
1347.06	270.397
1351.31	313.941
1355.55	284.469
1359.79	305.172
1364.02	239.391
1368.26	304.49
1372.49	216.775
1376.71	156.756
1380.94	1.61914
1385.16	8.21094
1389.38	71.4531
1393.6	100.527
1397.81	56.8984
1402.02	37.1191
1406.23	24.8164
1410.44	71.6348
1414.64	31.4473
1418.85	43.1738
1423.04	17.6797
1427.24	77.4336
1431.43	20.7383
1435.62	210.301
1439.81	166.279
1444	166.492
1448.18	92.4336
1452.36	157.363
1456.54	221.992
1460.71	75.5215
1464.89	175.803
1469.06	76.8711
1473.22	223.119
1477.39	97.0371
1481.55	287.584
1485.71	22.5586
1489.86	212.467
1494.02	184.568
1498.17	113.482
1502.32	162.533
1506.46	321.121
1510.61	279.053
1514.75	355.566
1518.88	71.7754
1523.02	307.201
1527.15	177.109
1531.28	138.309
1535.41	183.086
1539.53	153.068
1543.66	112.732
1547.78	75.0547
1551.89	368.891
1556.01	210.377
1560.12	162.053
1564.23	192.955
1568.33	107.246
