Measurement: Raman, 514 nm, ccw, Raman Data Processed
Mineral: Beryl
Rruff sample: R040002
Ideal chemistry: Be_3_Al_2_Si_6_O_18_
Locality: Usakos, Namibia
Source: University of Arizona Mineral Museum
Description: Light blue hexagonal prism, variety aquamarine
Measured chemistry: (Be_0.97_Li_0.03_)_3_(Al_0.97_Fe^3+^_0.03_)_2_Si_6_O_18_Î‡Na_0.01_
Pin_id: M00004
Orientation: Laser parallel to -c* (0 0 -1). Fiducial mark perpendicular to laser is parallel to a [1 0 0]
Raman shift (cm-1)	intensity
94.768	0
98.947	154.235
103.124	40.505
107.3	159.082
111.473	297.02
115.644	1040.86
119.813	702.29
123.981	310.412
128.146	169.338
132.309	196.886
136.47	155.137
140.63	424.597
144.787	713.58
148.942	233.086
153.096	62.136
157.247	49.335
161.396	83.955
165.544	56.052
169.689	6.259
173.833	66.478
177.974	238.335
182.114	563.834
186.251	726.991
190.387	324.671
194.52	153.693
198.652	155.872
202.782	132.167
206.909	86.573
211.035	33.34
215.159	26.49
219.281	34.439
223.4	11.13
227.518	41.961
231.634	113.979
235.748	120.045
239.86	144.244
243.97	196.281
248.079	197.897
252.185	142.479
256.289	161.778
260.391	285.098
264.492	257.484
268.59	286.72
272.687	345.909
276.781	472.354
280.874	611.021
284.964	931.979
289.053	1437.31
293.14	1000.44
297.225	768.686
301.308	960.426
305.389	1381.6
309.468	1828.81
313.545	3432.82
317.62	6755.96
321.693	9030.74
325.765	3354.36
329.834	644.591
333.902	244.724
337.967	137.927
342.031	117.828
346.093	146.141
350.153	267.835
354.21	354.378
358.267	338.793
362.321	252.616
366.373	276.136
370.423	184.669
374.471	266.334
378.518	310.727
382.563	805.363
386.605	2700.51
390.646	8179.86
394.685	16967.1
398.722	11761.8
402.757	4646.14
406.79	2182.13
410.821	1675.52
414.851	2122.1
418.878	3799.02
422.904	4038.37
426.927	2017.64
430.949	900.66
434.969	1049.38
438.987	2207.82
443.003	3989.03
447.018	2085.02
451.03	822.74
455.041	395.19
459.049	262.387
463.056	212.327
467.061	150.999
471.064	98.382
475.065	175.475
479.064	189.326
483.062	207.051
487.057	173.584
491.051	242.939
495.043	150.164
499.032	250.304
503.02	228.162
507.007	362.627
510.991	223.689
514.973	169.928
518.954	29.924
522.933	266.192
526.91	326.301
530.885	162.19
534.858	53.528
538.829	10.239
542.799	181.866
546.766	126.246
550.732	28.57
554.696	83.208
558.658	312.344
562.618	636.675
566.576	501.938
570.533	554.209
574.488	1055.98
578.44	1564.79
582.391	2207.51
586.341	1876.61
590.288	1313.54
594.233	1191.23
598.177	1308.99
602.119	1155.11
606.059	1082.62
609.997	745.518
613.933	720.228
617.868	926.561
621.801	1251.44
625.731	1201.95
629.66	714.776
633.588	531.903
637.513	506.726
641.437	740.438
645.358	903.968
649.278	839.959
653.196	791.32
657.113	783.164
661.027	771.546
664.94	1071.16
668.851	2099.94
672.76	3930.68
676.667	9240.78
680.572	26004.6
684.476	42237.8
688.378	20757.2
692.278	8145.78
696.176	4609.37
700.072	2746.98
703.967	1821.11
707.86	1026.38
711.751	792.901
715.64	283.297
719.527	78.243
723.413	36.147
727.297	28.991
731.179	75.783
735.059	2.479
738.937	20.294
742.814	83.78
746.689	209.25
750.562	142.755
754.433	19.174
758.303	21.542
762.17	312.659
766.036	1032.86
769.901	2106.06
773.763	1460.27
777.624	730.484
781.482	286.729
785.339	258.014
789.195	1.312
793.048	31.454
796.9	68.833
800.75	14.006
804.598	182.846
808.445	10.071
812.289	5.838
816.132	1.819
819.973	26.88
823.813	58.031
827.65	50.781
831.486	108.21
835.32	193.317
839.152	20.393
842.983	276.224
846.812	447.37
850.639	598.869
854.464	815.622
858.288	1026.42
862.11	951.525
865.93	671.031
869.748	365.84
873.564	306.693
877.379	248.158
881.192	188.596
885.004	270.693
888.813	301.1
892.621	226.299
896.427	321.154
900.232	425.623
904.034	547.15
907.835	893.184
911.634	903.91
915.432	835.521
919.227	720.24
923.021	578.984
926.813	373.748
930.604	299.525
934.393	322.512
938.18	257.104
941.965	241.203
945.749	268.146
949.53	118.939
953.311	66.08
957.089	166.762
960.866	97.355
964.641	67.76
968.414	248.254
972.185	234.65
975.955	249.334
979.723	359.191
983.49	301.248
987.254	570.9
991.017	902.283
994.779	1424.48
998.538	1909.41
1002.3	3566.12
1006.05	2616.55
1009.81	2005.48
1013.56	1601.18
1017.31	1353.14
1021.06	1344.1
1024.81	1051.41
1028.55	1157.27
1032.3	934.621
1036.04	894.191
1039.78	1060.65
1043.52	1038.5
1047.26	908.414
1050.99	1363.36
1054.73	1378.43
1058.46	2060.89
1062.19	3434.69
1065.92	5638.6
1069.65	6407.44
1073.37	4749.4
1077.1	3259.28
1080.82	2515.49
1084.54	1939.62
1088.26	1476.46
1091.97	1046.04
1095.69	744.389
1099.4	850.348
1103.12	664.117
1106.83	563.656
1110.54	459.955
1114.24	581.766
1117.95	624.432
1121.65	671.838
1125.35	405.965
1129.06	250.541
1132.75	179.949
1136.45	72.145
1140.15	130.986
1143.84	142.779
1147.53	18.348
1151.22	8.629
1154.91	170.545
1158.6	112.068
1162.28	12.17
1165.97	82.271
1169.65	212.764
1173.33	170.543
1177.01	244.559
1180.69	229.578
1184.36	226.725
1188.04	327.58
1191.71	418.404
1195.38	238.395
1199.05	352.852
1202.71	191.217
1206.38	483.002
1210.04	370.625
1213.71	332.217
1217.37	694.275
1221.03	690.975
1224.68	1345.46
1228.34	1567.67
1231.99	1391.38
1235.65	1642.79
1239.3	2477.35
1242.95	4250.32
1246.59	4973.81
1250.24	2583.02
1253.88	1260.86
1257.53	690.145
1261.17	706.049
1264.81	568.404
1268.45	896.264
1272.08	669.467
1275.72	701.799
1279.35	502.359
1282.98	468.08
1286.61	411.301
1290.24	397.572
1293.87	351.143
1297.49	168.041
1301.11	254.301
1304.73	120.973
1308.36	149.543
1311.97	353.273
1315.59	341.262
1319.2	426.432
1322.82	313.318
1326.43	293.023
1330.04	80.852
1333.65	16.951
1337.26	96.318
1340.86	121.961
1344.47	212.85
1348.07	156.957
1351.67	240.119
1355.27	32.236
1358.87	72.018
1362.46	227.334
1366.06	295.9
1369.65	127.656
1373.24	153.246
1376.83	201.486
1380.42	483.516
1384	346.098
1387.59	311.529
1391.17	253.215
1394.75	171.615
1398.33	254.18
1401.91	237.389
1405.49	259.852
1409.06	362.021
1412.64	57.014
1416.21	324.816
1419.78	168.891
1423.35	151.492
1426.91	128.186
1430.48	0.229
