Measurement: Raman, 514 nm, ccw, Raman Data Processed
Mineral: Beryl
Rruff sample: R060943
Ideal chemistry: Be_3_Al_2_Si_6_O_18_
Locality: Xinjiang, China
Source: Lawrence W. Snee
Description: Green hexagonal prisms, variety emerald
Measured chemistry: (Be_2.96_Li_0.04_)_Σ=3_(Al_1.64_Mg_0.21_V^3+^_0.06_Fe^3+^_0.04_Sc^3+^_0.03_Cr^3+^_0.02_)_Σ=2_Si_6.00_O_18_·Na_0.25_
Pin_id: L00265
Orientation: Laser parallel to a* (1 0 0). Fiducial mark perpendicular to laser is parallel to -c [0 0 -1]
Raman shift (cm-1)	intensity
167.334	0
172.265	147.358
177.193	61.3662
182.117	114.038
187.039	379.65
191.958	492.61
196.874	632.642
201.787	601.586
206.696	118.704
211.603	15.0928
216.506	34.1621
221.407	130.657
226.304	47.8115
231.199	204.357
236.091	410.79
240.979	362.254
245.864	306.442
250.747	239.6
255.626	146.403
260.503	709.5
265.376	537.32
270.247	858.894
275.114	600.215
279.979	739.559
284.84	1142.24
289.699	1508.86
294.554	1109
299.407	625.657
304.257	780.384
309.103	1188.86
313.947	1963.66
318.788	3030.06
323.626	3969.52
328.461	1658.27
333.292	363.243
338.121	78.1006
342.947	74.7227
347.771	62.7549
352.591	3.73731
357.408	14.4102
362.222	136.475
367.034	91.8662
371.842	235.476
376.648	552.344
381.45	1189
386.25	2947.47
391.047	6865.76
395.841	13131
400.632	12588
405.42	6399.84
410.205	4202.62
414.988	3655.3
419.767	2950.84
424.544	1767.27
429.318	1330.6
434.089	1449.8
438.857	2016.84
443.622	2143.74
448.384	961.484
453.143	401.094
457.9	278.562
462.654	350.805
467.405	255.802
472.153	168.556
476.898	332.08
481.64	334.458
486.38	358.803
491.116	353.664
495.85	219.149
500.581	162.074
505.309	366.108
510.035	232.884
514.757	272.441
519.477	302.898
524.194	398.34
528.908	324.71
533.62	104.042
538.328	49.543
543.034	113.728
547.737	60.9893
552.437	111.97
557.134	485.808
561.829	1042.73
566.521	1091.85
571.21	1291.93
575.896	1569.97
580.58	1329.98
585.261	1049.96
589.939	1093.89
594.614	1202.8
599.286	920.709
603.956	784.592
608.623	469.375
613.287	565.952
617.949	427.833
622.608	314.757
627.264	254.845
631.917	142.102
636.568	238.737
641.215	371.518
645.861	406.464
650.503	520.438
655.143	598.437
659.78	771.529
664.414	1543.56
669.046	2914.86
673.674	6148.31
678.301	15981.3
682.924	34800.5
687.545	41315.6
692.163	18039
696.778	7758.17
701.391	4501.99
706.001	2835.87
710.609	2066.21
715.213	1249.89
719.815	946.277
724.415	708.688
729.011	593.122
733.606	527.097
738.197	364.118
742.786	257.153
747.372	546.696
751.955	515.269
756.536	680.874
761.114	878.51
765.69	1009.18
770.262	631.877
774.833	437.606
779.4	323.361
783.965	259.139
788.528	126.943
793.087	88.7725
797.645	76.4072
802.199	30.2266
806.751	88.8545
811.3	35.2705
815.847	36.5645
820.391	40.8027
824.933	12.4844
829.471	24.5254
834.008	22.7246
838.541	14.1787
843.073	83.9824
847.601	50.1953
852.127	241.455
856.65	158.734
861.171	77.0801
865.69	2.49707
870.205	0.956055
874.718	19.4355
879.229	133.966
883.737	22.4883
888.242	62.1123
892.745	265.976
897.246	250.041
901.743	505.258
906.239	688.607
910.731	775.082
915.221	666.688
919.709	774.432
924.194	526.32
928.677	434.36
933.157	321.446
937.634	228.815
942.109	226.061
946.582	76.2773
951.052	24.9951
955.519	20.4316
959.984	17.4277
964.447	1.26172
968.906	140.988
973.364	109.689
977.819	114.655
982.271	325.886
986.721	680.06
991.169	1341.84
995.614	2109.9
1000.06	2631.8
1004.5	2560.89
1008.93	2292.81
1013.37	1811.54
1017.8	1339.11
1022.23	1094.12
1026.66	831.756
1031.09	634.636
1035.51	538.821
1039.93	411.171
1044.35	534.941
1048.76	910.106
1053.17	1356.71
1057.58	2457.7
1061.99	4302.08
1066.4	5684.88
1070.8	5405.15
1075.2	4387.79
1079.6	3184.99
1084	2234.2
1088.39	1739.63
1092.78	1382.13
1097.17	994.586
1101.56	824.102
1105.94	726.115
1110.32	722.665
1114.7	681.564
1119.08	649.826
1123.45	868.445
1127.82	839.407
1132.19	934.711
1136.56	553.375
1140.92	322.394
1145.29	259.774
1149.65	190.513
1154	44.4824
1158.36	61.4395
1162.71	46.1641
1167.06	66.4805
1171.41	180.972
1175.76	167.278
1180.1	262.365
1184.44	467.042
1188.78	385.455
1193.11	375.657
1197.45	441.335
1201.78	515.374
1206.11	586.472
1210.43	927.143
1214.76	1064.32
1219.08	1327.1
1223.4	1552.11
1227.72	1452.05
1232.03	1175.86
1236.35	816.502
1240.66	535.303
1244.96	462.26
1249.27	372.373
1253.57	264.483
1257.88	186.977
1262.17	119.449
1266.47	211.023
1270.76	419.717
1275.06	253.524
1279.35	104.408
1283.63	157.014
1287.92	17.2295
1292.2	34.3516
1296.48	51.3955
1300.76	48.5977
1305.04	14.3672
1309.31	135.842
1313.58	52.1943
1317.85	96.4228
1322.12	31.5723
1326.38	24.707
1330.64	344.815
1334.9	9.04688
1339.16	62.084
1343.41	159.623
1347.67	72.583
1351.92	101.795
1356.17	222.086
1360.41	156.311
1364.66	193.768
1368.9	143.999
1373.14	233.481
1377.38	326.259
1381.61	1484.85
1385.84	3283.59
1390.08	592.858
1394.3	199.159
1398.53	182.467
1402.75	92.4102
1406.97	216.351
1411.19	37.0225
1415.41	148.386
1419.63	151.415
1423.84	123.153
1428.05	127.87
1432.26	93.5322
1436.46	65.7412
1440.67	207.236
1444.87	134.43
1449.07	186.259
1453.27	267.095
1457.46	248.013
1461.66	244.806
1465.85	256.441
1470.04	121.927
1474.22	102.259
1478.41	121.492
1482.59	86.5625
1486.77	62.4697
1490.95	101.863
1495.12	68.5381
1499.3	146.662
1503.47	66.5264
1507.63	38.751
1511.8	223.863
1515.97	78.5498
1520.13	137.256
1524.29	173.06
1528.45	125.617
1532.61	173.455
1536.76	186.853
1540.91	175.726
1545.06	85.3652
1549.21	104.908
1553.35	159.383
1557.5	138.954
1561.64	83.4033
