Measurement: Raman, 514 nm, ccw, Raman Data Processed
Mineral: Beryl
Rruff sample: R040002
Ideal chemistry: Be_3_Al_2_Si_6_O_18_
Locality: Usakos, Namibia
Source: University of Arizona Mineral Museum
Description: Light blue hexagonal prism, variety aquamarine
Measured chemistry: (Be_0.97_Li_0.03_)_3_(Al_0.97_Fe^3+^_0.03_)_2_Si_6_O_18_Î‡Na_0.01_
Pin_id: m00036
Orientation: Laser parallel to a* (1 0 0). Fiducial mark perpendicular to laser is parallel to c [0 0 1]
Raman shift (cm-1)	intensity
93.375	0
97.554	21.151
101.732	34.368
105.908	108.362
110.082	345.1
114.254	1772.49
118.424	949.898
122.592	125.103
126.758	54.691
130.922	59.374
135.083	57.489
139.243	78.541
143.401	123.357
147.557	66.827
151.711	10.123
155.863	20.551
160.013	44.5
164.161	32.994
168.308	13.899
172.452	29.222
176.594	29.986
180.734	80.906
184.872	101.951
189.008	121.17
193.143	117.584
197.275	127.199
201.405	137.023
205.534	147.052
209.66	137.26
213.784	34.661
217.907	76.258
222.027	28.042
226.146	51.019
230.263	82.169
234.377	149.486
238.49	193.224
242.601	248.665
246.709	213.841
250.816	268.606
254.921	248.714
259.024	192.753
263.125	173.423
267.224	271.796
271.321	352.595
275.416	342.727
279.51	457.126
283.601	417.761
287.69	525.599
291.778	583.587
295.863	704.732
299.947	840.042
304.029	1004.61
308.108	1303.21
312.186	2190.94
316.262	5224.59
320.336	12452.1
324.408	7348.96
328.478	1965.13
332.546	548.404
336.612	216.764
340.677	164.206
344.739	118.727
348.799	116.324
352.858	112.256
356.915	135.999
360.969	182.81
365.022	234.686
369.073	383.625
373.122	482.624
377.169	800.681
381.215	1195.79
385.258	2210.54
389.299	5388.31
393.339	11241
397.376	9115.93
401.412	3123.7
405.446	1089.73
409.478	493.509
413.508	303.57
417.536	208.423
421.562	108.432
425.586	118.813
429.609	70.264
433.629	19.744
437.648	83.246
441.665	100.765
445.68	153.296
449.693	163.836
453.704	109.382
457.713	25.93
461.721	28.477
465.726	9.018
469.73	49.55
473.731	14.072
477.731	44.583
481.729	46.082
485.725	84.57
489.72	23.046
493.712	13.497
497.703	29.925
501.691	16.356
505.678	44.782
509.663	0.811
513.646	22.559
517.627	113.915
521.607	240.273
525.584	336.645
529.56	322.014
533.534	175.393
537.506	63.748
541.476	63.075
545.444	13.633
549.41	8.493
553.375	40.551
557.337	37.474
561.298	27.477
565.257	3.286
569.214	17.77
573.17	38.677
577.123	48.451
581.075	6.125
585.024	73.702
588.972	116.215
592.918	203.661
596.863	243.574
600.805	215.353
604.746	234.597
608.685	273.771
612.621	308.875
616.557	604.909
620.49	1372.87
624.421	1985.66
628.351	949.479
632.279	493.225
636.205	380.897
640.129	341.498
644.051	386.754
647.972	480.072
651.89	565.512
655.807	720.059
659.722	897.099
663.636	1285.94
667.547	1957.3
671.457	3373.83
675.365	7157.12
679.271	19085.5
683.175	41888.3
687.077	25869.1
690.978	10173.1
694.877	4621.13
698.774	2673.58
702.669	1675.02
706.562	1185.99
710.454	804.65
714.344	575.238
718.232	491.079
722.118	424.767
726.002	307.361
729.885	280.19
733.766	203.88
737.645	156.07
741.522	178.796
745.397	182.471
749.271	102.099
753.143	78.681
757.013	75.219
760.881	108.713
764.748	171.167
768.613	166.582
772.476	164.959
776.337	157.302
780.196	138.613
784.054	69.893
787.91	51.883
791.764	95.368
795.616	23.568
799.467	34.737
803.316	90.874
807.163	48.992
811.008	29.079
814.851	46.083
818.693	22.045
822.533	44.978
826.371	17.896
830.208	42.743
834.042	19.489
837.875	7.813
841.706	21.234
845.536	11.723
849.363	10.746
853.189	24.796
857.013	56.64
860.836	30.163
864.656	37.209
868.475	19.512
872.292	45.646
876.108	21.203
879.922	1.11
883.733	10.933
887.544	0.046
891.352	35.149
895.159	69.28
898.964	33.463
902.767	34.7
906.568	75.995
910.368	80.349
914.166	279.764
917.962	213.242
921.757	141.787
925.55	116.399
929.341	78.082
933.13	91.851
936.918	83.694
940.703	52.615
944.488	95.615
948.27	103.692
952.051	125.127
955.83	151.381
959.607	137.712
963.383	191.758
967.156	219.867
970.928	238.962
974.699	269.314
978.468	295.782
982.234	315.733
986	337.835
989.763	382.794
993.525	463.486
997.285	622.282
1001.04	732.198
1004.8	1053.63
1008.55	1640.55
1012.31	2085.59
1016.06	1820.93
1019.81	1537.22
1023.56	1522.88
1027.31	1617.84
1031.05	1769.56
1034.79	2159.09
1038.53	2672.36
1042.27	3385.79
1046.01	4421.34
1049.75	6030.02
1053.48	8793.81
1057.22	13965.7
1060.95	23726.7
1064.68	40830.9
1068.4	53589.1
1072.13	43106.5
1075.86	26439
1079.58	16597.5
1083.3	11515.2
1087.02	8268.96
1090.74	5844.06
1094.45	4283.07
1098.17	3210.19
1101.88	2452.83
1105.59	1814.03
1109.3	1417.71
1113.01	1162.01
1116.71	967.935
1120.42	908.98
1124.12	912.92
1127.82	680.044
1131.52	617.214
1135.22	640.839
1138.91	587.339
1142.61	603.844
1146.3	456.88
1149.99	287.564
1153.68	149.327
1157.37	98.243
1161.06	58.403
1164.74	122.922
1168.42	73.768
1172.1	84.304
1175.78	109.34
1179.46	93.741
1183.14	206.963
1186.81	153.685
1190.48	203.198
1194.15	241.009
1197.83	142.563
1201.49	155.958
1205.16	175.364
1208.82	40.776
1212.49	102.285
1216.15	30.71
1219.81	39.145
1223.46	0.423
1227.12	39.994
1230.78	48.426
1234.43	9.126
1238.08	54.091
1241.73	41.579
1245.38	26.944
1249.03	68.382
1252.67	52.305
1256.31	72.951
1259.95	2.482
1263.6	10.146
1267.23	3.817
1270.87	14.258
1274.51	25.9
1278.14	29.757
1281.77	19.338
1285.4	39.583
1289.03	13.318
1292.66	39.697
1296.28	93.655
1299.91	85.552
1303.53	13.731
1307.15	26.864
1310.77	77.754
1314.38	7.722
1318	12.958
1321.61	30.083
1325.23	34.569
1328.84	39.257
1332.45	72.343
1336.06	59.843
1339.66	117.333
1343.27	78.662
1346.87	114.906
1350.47	79.062
1354.07	95.133
1357.67	153.14
1361.26	110.581
1364.86	102.179
1368.45	111.973
1372.04	133.748
1375.63	126.203
1379.22	135.446
1382.81	124.499
1386.39	93.841
1389.98	72.469
1393.56	83.922
1397.14	47.97
1400.72	62.177
1404.3	7.007
1407.87	72.141
1411.45	134.17
1415.02	43.682
1418.59	91.091
1422.16	89.694
1425.73	75.9
1429.29	79.377
1432.86	109.003
1436.42	87.069
1439.98	99.204
1443.54	91.952
1447.1	79.588
1450.66	190.944
1454.21	191.006
1457.77	183.767
1461.32	159.698
1464.87	142.047
1468.42	115.318
1471.96	100.64
1475.51	74.857
1479.06	12.052
1482.6	76.166
1486.14	76.073
1489.68	137.808
1493.22	55.472
1496.75	19.604
1500.29	37.487
1503.82	124.293
1507.35	112.897
1510.88	103.11
1514.41	14.827
1517.94	0.606
1521.46	23.126
