Measurement: Raman, 514 nm, ccw, Raman Data Processed
Mineral: Beryl
Rruff sample: R060944
Ideal chemistry: Be_3_Al_2_Si_6_O_18_
Locality: Habachtal, Salzburg, Austria
Source: Lawrence W. Snee
Description: Green hexagonal prisms in a muscovite schist, variety emerald. Note that there are micro inclusions of actinolite. The Raman signal is a mixture of the two phases.
Measured chemistry: Be_3.00_(Al_1.59_Mg_0.33_Fe^3+^_0.04_Cr^3+^_0.04_)_Σ=2_Si_6.00_O_18_·Na_0.33_ ; bright inclusions are actinolite
Pin_id: L01278
Orientation: Laser parallel to a* (1 0 0). Fiducial mark perpendicular to laser is parallel to c [0 0 1]
Raman shift (cm-1)	intensity
130.439	0
135.356	16.0957
140.271	300.772
145.184	49.4941
150.094	259.973
155.002	2421.67
159.908	3190.01
164.811	1757.2
169.711	2039.94
174.61	4606.5
179.505	5580.82
184.399	2170.62
189.29	1376
194.178	1750.45
199.064	1553.62
203.948	1567.19
208.829	1786.51
213.708	3263.61
218.585	6392.71
223.459	7355.56
228.33	4191.02
233.199	2220.55
238.066	1165.62
242.93	1101.95
247.792	1016.48
252.651	634.197
257.508	375.113
262.363	233.205
267.215	562.467
272.064	51.8906
276.912	273.94
281.756	52.9277
286.598	190.81
291.438	513.396
296.276	433.391
301.111	583.938
305.943	438.551
310.773	629.762
315.601	1164.19
320.426	2140.02
325.248	2277.55
330.068	1024.56
334.886	278.131
339.701	651.039
344.514	719.125
349.324	783.867
354.132	776.088
358.938	855.508
363.741	1099.11
368.541	1479.87
373.339	1165.73
378.135	1160.64
382.928	1723.51
387.718	3687.36
392.506	7123.17
397.292	9697.95
402.075	6495.72
406.856	3494.32
411.634	2705.1
416.41	2091.7
421.183	1511.35
425.954	858.133
430.722	950.996
435.488	1404.94
440.251	1075.64
445.012	564.943
449.77	123.947
454.526	81.1602
459.28	152.062
464.03	184.977
468.779	222.965
473.525	24.9785
478.268	186.6
483.009	187.922
487.747	190.166
492.483	362.344
497.217	277.44
501.948	442.844
506.676	588.412
511.402	887.283
516.125	1649.08
520.846	2125.71
525.565	1766.03
530.281	1033.17
534.994	660.414
539.705	301.805
544.413	87.2598
549.119	62.5566
553.822	235.869
558.523	588.252
563.222	893.939
567.917	662.766
572.611	1045.48
577.302	703.09
581.99	448.644
586.676	728.248
591.359	246.984
596.04	224.361
600.718	179.967
605.394	12.1406
610.067	461.141
614.737	485.914
619.406	125.805
624.071	218.781
628.734	3.73828
633.395	309.664
638.053	559.559
642.708	1253.42
647.361	1791.24
652.012	2405.33
656.66	3666.29
661.305	6651.16
665.948	13438.3
670.588	23596.7
675.226	21849.8
679.861	19615.4
684.494	29175.7
689.124	25839.2
693.752	11260.7
698.377	5481.39
702.999	3170.01
707.619	2159.46
712.237	1340.73
716.852	784.773
721.464	611.678
726.074	543.176
730.681	438.463
735.286	438.881
739.888	346.324
744.488	633.863
749.085	520.166
753.68	523.648
758.272	313.398
762.861	380.924
767.448	467.188
772.033	500.217
776.614	376.004
781.194	181.539
785.77	187.305
790.345	63.8809
794.916	47.584
799.485	13.3652
804.052	107.012
808.616	61.1855
813.177	25.0488
817.736	39.3496
822.292	131.272
826.846	62.8867
831.397	236.744
835.945	108.166
840.491	136.018
845.035	165.272
849.576	3.05664
854.114	51.3652
858.65	97.1348
863.183	162.441
867.713	154.356
872.241	17.4961
876.767	286.234
881.29	165.647
885.81	102.846
890.328	314.705
894.843	365.5
899.356	626.322
903.866	573.174
908.373	597.033
912.878	1039.92
917.38	1434.8
921.88	1907.68
926.377	2691.05
930.872	2347.52
935.364	1566.65
939.853	742.299
944.34	675.602
948.824	632.539
953.306	555.533
957.785	346.978
962.261	299.543
966.735	255.982
971.207	208.35
975.675	196.981
980.141	313.902
984.605	661.66
989.066	1102.51
993.524	2380.72
997.98	2490.4
1002.43	2647.33
1006.88	2603.31
1011.33	3154.6
1015.78	2839.88
1020.22	2933.48
1024.66	3107.25
1029.1	3083.68
1033.53	2542.47
1037.97	2650.91
1042.4	3173.8
1046.82	4518.41
1051.25	7694.53
1055.67	10794.1
1060.09	11222.3
1064.51	11585
1068.92	11363.6
1073.33	9506.01
1077.74	6901.18
1082.15	4992.08
1086.55	3618.77
1090.95	2632.11
1095.35	2434.06
1099.75	1859.86
1104.14	1612.01
1108.53	1572.12
1112.92	1238.72
1117.31	1305.82
1121.69	1459.45
1126.07	1673.16
1130.45	1239.76
1134.82	1104.84
1139.19	744.615
1143.57	283.365
1147.93	377.225
1152.3	175.482
1156.66	1.91797
1161.02	51.627
1165.38	128.162
1169.73	45.0137
1174.08	45.7148
1178.43	269.502
1182.78	151.256
1187.12	203.047
1191.46	64.4785
1195.8	196.199
1200.14	156.053
1204.47	220.781
1208.8	315.494
1213.13	689.232
1217.46	553.967
1221.78	663.994
1226.1	427.107
1230.42	405.162
1234.73	276.285
1239.04	346.242
1243.35	264.326
1247.66	98.1875
1251.97	50.5059
1256.27	28.5312
1260.57	66.7695
1264.86	100.809
1269.16	233.414
1273.45	43.6016
1277.74	126.016
1282.03	32.5488
1286.31	119.928
1290.59	106.51
1294.87	34.0723
1299.14	306.391
1303.42	250.447
1307.69	274
1311.95	88.2148
1316.22	137.299
1320.48	279.353
1324.74	37.3008
1329	222.422
1333.26	137.766
1337.51	104.711
1341.76	78.2832
1346	74.3223
1350.25	327.328
1354.49	206.609
1358.73	80.3301
1362.96	115.385
1367.2	188.941
1371.43	180.641
1375.66	459.981
1379.88	347.09
1384.11	729.338
1388.33	444.557
1392.54	219.391
1396.76	92.959
1400.97	283.916
1405.18	168.221
1409.39	282.685
1413.59	167.5
1417.8	12.4512
1421.99	226.783
1426.19	176.113
1430.38	144.269
1434.58	337.539
1438.77	296.451
1442.95	279.721
1447.13	279.315
1451.32	334.262
1455.49	503.797
1459.67	350.17
1463.84	358.935
1468.01	461.787
1472.18	211.647
1476.35	461.986
1480.51	185.484
1484.67	170.809
1488.83	140.016
1492.98	317.9
1497.13	234.539
1501.28	28.541
1505.43	248.672
1509.57	284.693
1513.71	50.3828
1517.85	146.943
1521.99	127.561
1526.12	26.2988
1530.25	203.133
1534.38	80.5664
1538.5	16.9531
1542.62	276.514
1546.74	62.4414
1550.86	458.287
1554.98	610.676
1559.09	45.8984
1563.2	315.225
1567.31	89.5898
1571.41	0
