Measurement: Raman, 514 nm, ccw, Raman Data Processed
Mineral: Beryl
Rruff sample: R050368
Ideal chemistry: Be_3_Al_2_Si_6_O_18_
Locality: Wah Wah Mountains, Utah, USA
Source: Eugene Schlepp
Description: Red-violet hexagonal prism
Measured chemistry: (Be_0.99_Li_0.01_)_3_(Al_0.95_Fe^3+^_0.05_)_2_Si_6.00_O_18_Î‡K_0.02_Na_0.01_
Pin_id: L01802
Orientation: Laser parallel to -c* (0 0 -1). Fiducial mark perpendicular to laser is parallel to b [0 1 0]
Raman shift (cm-1)	intensity
82.367	0
87.308	316.547
92.246	1193.87
97.182	771.171
102.116	505.45
107.047	1470.83
111.976	572.243
116.903	655.115
121.827	292.639
126.749	513.74
131.668	583.627
136.585	738.557
141.5	1337.07
146.412	716.318
151.321	131.951
156.229	144.344
161.134	261.621
166.036	493.669
170.936	695.925
175.834	913.487
180.729	1772.12
185.622	2478.93
190.512	2642.97
195.4	3096.79
200.286	3044.86
205.169	2245.44
210.049	1575.17
214.928	1540.15
219.803	1681.38
224.677	1787.45
229.548	1719.71
234.416	1793.3
239.282	1544.86
244.146	1072.15
249.007	1225.09
253.866	1415.9
258.722	1795.38
263.576	1553.48
268.427	2195.24
273.276	2663.25
278.123	2057.84
282.967	2248.92
287.809	1893.4
292.648	1473.24
297.485	1749.4
302.319	2363.16
307.151	3445.08
311.98	6540.43
316.807	11149.6
321.631	14083.2
326.454	4301.43
331.273	1287.75
336.09	853.627
340.905	661.562
345.717	570.575
350.527	345.664
355.334	196.812
360.139	87.8496
364.941	213.469
369.741	217.44
374.538	74.1953
379.333	503.86
384.126	2544.36
388.916	7653.89
393.703	17264.6
398.488	11430.4
403.271	4932.28
408.051	3648.47
412.828	4088.4
417.603	4574.88
422.376	3546.35
427.146	2617.99
431.914	2592.71
436.679	4572.59
441.442	7397.6
446.202	3755.78
450.96	1025.61
455.715	284.315
460.467	167.386
465.218	77.6592
469.965	86.1543
474.711	111.603
479.454	322.465
484.194	648.454
488.932	815.57
493.667	636.81
498.4	582.175
503.13	707.617
507.858	918.477
512.583	928.811
517.306	1009.86
522.026	1331.11
526.744	1536.91
531.459	1126.3
536.172	638.408
540.882	256.263
545.59	151.589
550.295	30.2529
554.998	16.7295
559.698	416.548
564.396	582.078
569.091	971.63
573.784	1657.84
578.474	2812.02
583.162	4000.39
587.847	5238.98
592.529	6704.05
597.209	6759.17
601.887	5682.02
606.562	4532
611.235	3945.44
615.905	3943.4
620.572	4132.6
625.237	2699.85
629.9	1286.14
634.56	924.448
639.217	1169.77
643.872	1497.25
648.524	1376.52
653.174	1278.84
657.821	1397.95
662.466	2354.87
667.108	4702.96
671.748	9916.97
676.385	24139.6
681.02	47235.5
685.652	32689.6
690.281	12506.9
694.908	6173.9
699.533	3341.84
704.155	1895.73
708.774	1138.67
713.391	531.3
718.005	403.387
722.617	157.564
727.226	22.4424
731.833	42.6279
736.437	2.60254
741.039	13.8047
745.638	111.707
750.234	125.998
754.828	402.913
759.419	1229.37
764.008	3026.37
768.595	4951.9
773.178	2991.95
777.759	1088.52
782.338	386.603
786.914	151.17
791.488	14.4199
796.059	66.3984
800.627	103.17
805.193	44.5967
809.756	56.8193
814.317	43.7949
818.875	8.80273
823.431	15.5205
827.984	35.5283
832.534	201.578
837.082	58.0684
841.627	55.9522
846.17	317.247
850.71	327.002
855.248	346.338
859.783	308.945
864.316	220.567
868.846	204.499
873.373	128.157
877.898	162.886
882.42	255.552
886.94	221
891.457	271.447
895.971	482.69
900.483	525.731
904.993	1073.47
909.5	1683.37
914.004	1896.01
918.505	2015.77
923.004	1326.86
927.501	989.672
931.995	859.197
936.486	519.933
940.975	260.058
945.461	80.7539
949.945	51.0068
954.426	41.0791
958.904	224.654
963.38	412.178
967.853	399.014
972.324	705.064
976.792	1006.04
981.258	1123.34
985.72	1304.84
990.181	1956.51
994.639	2690.19
999.094	3604.71
1003.55	4078.29
1008	3620.17
1012.44	3060.44
1016.89	2452.31
1021.33	2112.88
1025.77	1682.99
1030.21	1586.83
1034.64	1428.23
1039.07	1438.96
1043.5	1304.09
1047.93	1335.01
1052.35	1656.74
1056.78	2462.68
1061.19	3937.11
1065.61	5323.98
1070.02	4593.52
1074.43	3272.02
1078.84	2193.01
1083.25	1732.08
1087.65	1337.59
1092.05	1069.45
1096.45	717.084
1100.85	526.041
1105.24	466.033
1109.63	293.054
1114.02	373.077
1118.4	449.056
1122.78	359.988
1127.16	446.887
1131.54	298.722
1135.92	62.5117
1140.29	94.2432
1144.66	75.1553
1149.02	168.962
1153.39	37.0049
1157.75	10.3867
1162.11	117.067
1166.46	80.5781
1170.82	14.4209
1175.17	140.133
1179.52	341.225
1183.86	523.454
1188.21	637.801
1192.55	790.718
1196.89	1018.57
1201.22	955.873
1205.55	1387.31
1209.88	1550.47
1214.21	2200.12
1218.54	3504.26
1222.86	5166.8
1227.18	5407.81
1231.5	4679.49
1235.81	5126.75
1240.12	6351.77
1244.43	5423.41
1248.74	3104.2
1253.04	1674.54
1257.34	1216.88
1261.64	1141.46
1265.94	698.467
1270.23	763.136
1274.52	610.736
1278.81	578.303
1283.1	335.365
1287.38	261.842
1291.66	175.525
1295.94	141.019
1300.21	122.236
1304.48	72.6592
1308.75	172.163
1313.02	128.374
1317.29	19.5918
1321.55	98.5537
1325.81	189.621
1330.06	313.182
1334.32	257.203
1338.57	346.425
1342.82	371.422
1347.06	348.992
1351.31	216.811
1355.55	353.417
1359.79	254.088
1364.02	290.613
1368.26	280.335
1372.49	259.492
1376.71	233.517
1380.94	79.4131
1385.16	178.394
1389.38	98.0518
1393.6	67.9961
1397.81	33.4092
1402.02	36.3418
1406.23	37.7832
1410.44	0.242188
1414.64	24.6836
1418.85	6.51758
1423.04	86.2734
1427.24	43.1006
1431.43	43.2744
1435.62	16.957
1439.81	57.3154
1444	18.2393
1448.18	22.5566
1452.36	67.332
1456.54	3.45703
1460.71	163.932
1464.89	35.3916
1469.06	79.6719
1473.22	196.237
1477.39	215.63
1481.55	244.666
1485.71	375.06
1489.86	244.865
1494.02	285.178
1498.17	262.441
1502.32	718.822
1506.46	292.572
1510.61	505
1514.75	314.324
1518.88	301.894
1523.02	574.496
1527.15	429.332
1531.28	319.935
1535.41	359.588
1539.53	347.647
1543.66	289.244
1547.78	128.01
1551.89	244.34
1556.01	277.93
1560.12	284.775
1564.23	12.9688
1568.33	140.516
