Measurement: Raman, 514 nm, ccw, Raman Data Processed
Mineral: Beryl
Rruff sample: R060942
Ideal chemistry: Be_3_Al_2_Si_6_O_18_
Locality: Mingore mine, Swat Valley, Pakistan
Source: Lawrence W. Snee
Description: Green hexagonal prisms, variety emerald
Measured chemistry: (Be_2.94_Li_0.06_)_Σ=3_(Al_1.55_Mg_0.37_Fe^3+^_0.06_Cr^3+^_0.02_)_Σ=2_Si_6.00_O_18_·Na_0.42_; Be and Li not measured but estimated by stoichiometry
Pin_id: L01655
Orientation: Laser parallel to c* (0 0 1). Fiducial mark perpendicular to laser is parallel to [-1 -1 0]
Raman shift (cm-1)	intensity
130.439	0
135.356	131.514
140.271	424.865
145.184	348.224
150.094	293.85
155.002	128.786
159.908	35.5898
164.811	436.677
169.711	420.619
174.61	492.621
179.505	491.397
184.399	495.006
189.29	607.375
194.178	738.912
199.064	1102.53
203.948	1004.99
208.829	37.1172
213.708	137.273
218.585	65.8809
223.459	31.2451
228.33	121.841
233.199	231.263
238.066	376.32
242.93	387.092
247.792	491.565
252.651	334.833
257.508	815.423
262.363	753.209
267.215	1935.46
272.064	1188.93
276.912	712.129
281.756	864.779
286.598	1197.49
291.438	1254.5
296.276	901.894
301.111	332.998
305.943	314.492
310.773	537.141
315.601	983.225
320.426	1441.53
325.248	1921.31
330.068	758.982
334.886	201.583
339.701	4.07617
344.514	59.875
349.324	19.4434
354.132	37.6953
358.938	78.5029
363.741	9.84766
368.541	182.076
373.339	372.517
378.135	669.368
382.928	1418.13
387.718	3197.64
392.506	7685.37
397.292	15323.9
402.075	14321.9
406.856	8042.27
411.634	5407.73
416.41	3755.83
421.183	2687.57
425.954	1998.84
430.722	1808.55
435.488	2128.7
440.251	2211.3
445.012	1502.15
449.77	738.354
454.526	572.965
459.28	388.454
464.03	315.448
468.779	306.941
473.525	450.945
478.268	551.446
483.009	446.731
487.747	345.684
492.483	359.967
497.217	305.616
501.948	272.171
506.676	429.917
511.402	346.816
516.125	207.732
520.846	261.603
525.565	31.5029
530.281	12.7812
534.994	174.652
539.705	26.9355
544.413	1.19434
549.119	308.473
553.822	782.997
558.523	1882.68
563.222	2312.58
567.917	2264.45
572.611	2128.3
577.302	1871.29
581.99	1730.31
586.676	1536.44
591.359	1413.68
596.04	1273.09
600.718	867.567
605.394	643.83
610.067	1385.08
614.737	933.187
619.406	206.334
624.071	32.7598
628.734	35.1465
633.395	36.3086
638.053	16.0566
642.708	93.7207
647.361	40.9639
652.012	155.364
656.66	407.839
661.305	769.331
665.948	1581.4
670.588	3245.45
675.226	7186.5
679.861	18474.4
684.494	42225.1
689.124	46576
693.752	21121.3
698.377	9467.45
702.999	5270.32
707.619	3293.77
712.237	2201.74
716.852	1523.98
721.464	1174.92
726.074	988.22
730.681	774.445
735.286	720.612
739.888	828.118
744.488	803.299
749.085	865.686
753.68	760.79
758.272	594.335
762.861	607.659
767.448	624.825
772.033	505.799
776.614	492.018
781.194	306.356
785.77	250.424
790.345	300.61
794.916	125.122
799.485	336.353
804.052	159.308
808.616	110.008
813.177	3.42969
817.736	44.331
822.292	64.7422
826.846	26.2256
831.397	33.251
835.945	20.9355
840.491	97.5176
845.035	15.6836
849.576	60.5137
854.114	97.6436
858.65	22.5273
863.183	84.7656
867.713	55.3828
872.241	302.894
876.767	171.142
881.29	75.959
885.81	58.3935
890.328	84.7793
894.843	237.808
899.356	460.706
903.866	550.498
908.373	734.247
912.878	598.946
917.38	533.581
921.88	411.16
926.377	359.709
930.872	271.239
935.364	185.763
939.853	128.293
944.34	202.74
948.824	88.1894
953.306	21.0684
957.785	12.9395
962.261	45.415
966.735	99.1221
971.207	119.311
975.675	277.31
980.141	374.707
984.605	778.03
989.066	1414.12
993.524	2235.66
997.98	2869.41
1002.43	2614.6
1006.88	1995.82
1011.33	1414.46
1015.78	1187.14
1020.22	798.385
1024.66	728.999
1029.1	659.378
1033.53	451.745
1037.97	433.963
1042.4	671.719
1046.82	787.958
1051.25	1261.7
1055.67	2019.04
1060.09	3574.97
1064.51	5481.44
1068.92	6679.43
1073.33	6600.94
1077.74	5090.96
1082.15	3996.62
1086.55	3246.95
1090.95	2701.94
1095.35	2431.45
1099.75	2073.95
1104.14	1892.16
1108.53	1779.23
1112.92	1711.86
1117.31	1953.12
1121.69	2212.15
1126.07	1999.09
1130.45	1693.54
1134.82	1252.6
1139.19	985.658
1143.57	768.744
1147.93	766.009
1152.3	471.769
1156.66	273.002
1161.02	422.419
1165.38	391.332
1169.73	499.026
1174.08	642.985
1178.43	1079.94
1182.78	1245.57
1187.12	1354.76
1191.46	1393.51
1195.8	1496.76
1200.14	1727.17
1204.47	1939.21
1208.8	2176.48
1213.13	2261.96
1217.46	2011.23
1221.78	1380.11
1226.1	904.151
1230.42	680.938
1234.73	411.115
1239.04	406.915
1243.35	200.87
1247.66	40.1328
1251.97	24.9561
1256.27	2.42773
1260.57	45.3672
1264.86	73.4531
1269.16	18.8936
1273.45	84.7666
1277.74	91.4424
1282.03	43
1286.31	39.3828
1290.59	22.2627
1294.87	109.986
1299.14	86.2295
1303.42	30.9688
1307.69	67.8779
1311.95	79.3276
1316.22	33.4204
1320.48	75.0776
1324.74	103.566
1329	108.938
1333.26	201.697
1337.51	123.227
1341.76	194.549
1346	149.355
1350.25	328.406
1354.49	182.583
1358.73	73.5508
1362.96	95.8916
1367.2	154.001
1371.43	153.558
1375.66	130.724
1379.88	171.182
1384.11	584.523
1388.33	263.25
1392.54	163.602
1396.76	38.6289
1400.97	69.2139
1405.18	53.9868
1409.39	119.13
1413.59	138.866
1417.8	53.6807
1421.99	35.1338
1426.19	7.83936
1430.38	118.844
1434.58	112.36
1438.77	298.6
1442.95	183.865
1447.13	187.731
1451.32	51.5518
1455.49	151.467
1459.67	902.132
1463.84	838.727
1468.01	48.7119
1472.18	235.752
1476.35	22.4072
1480.51	112.131
1484.67	59.707
1488.83	216.309
1492.98	298.272
1497.13	143.617
1501.28	41.9453
1505.43	100.922
1509.57	87.1523
1513.71	118.423
1517.85	44.9219
1521.99	14.1924
1526.12	153.254
1530.25	18.2983
1534.38	117.551
1538.5	44.2886
1542.62	11.1855
1546.74	267.396
1550.86	111.204
1554.98	250.24
1559.09	18.0591
1563.2	147.059
1567.31	1.52539
1571.41	0
