Measurement: Raman, 514 nm, ccw, Raman Data Processed
Mineral: Beryl
Rruff sample: R060944
Ideal chemistry: Be_3_Al_2_Si_6_O_18_
Locality: Habachtal, Salzburg, Austria
Source: Lawrence W. Snee
Description: Green hexagonal prisms in a muscovite schist, variety emerald. Note that there are micro inclusions of actinolite. The Raman signal is a mixture of the two phases.
Measured chemistry: Be_3.00_(Al_1.59_Mg_0.33_Fe^3+^_0.04_Cr^3+^_0.04_)_Σ=2_Si_6.00_O_18_·Na_0.33_ ; bright inclusions are actinolite
Pin_id: L01950
Orientation: Laser parallel to c* (0 0 1). Fiducial mark perpendicular to laser is parallel to -b [0 -1 0]
Raman shift (cm-1)	intensity
130.439	0
135.356	97.1982
140.271	263.885
145.184	12.4375
150.094	909.377
155.002	5852.37
159.908	7457.55
164.811	3148.46
169.711	3613.78
174.61	12218.8
179.505	13075.8
184.399	3696.52
189.29	2490.23
194.178	1818.43
199.064	1441.6
203.948	1717.6
208.829	2644.01
213.708	5994.47
218.585	14136.1
223.459	16608.8
228.33	6112.2
233.199	2029.99
238.066	722.077
242.93	542.368
247.792	712.161
252.651	284.912
257.508	315.596
262.363	87.1826
267.215	633.659
272.064	261.923
276.912	188.659
281.756	39.7773
286.598	629.727
291.438	1045.92
296.276	754.328
301.111	973.311
305.943	620.461
310.773	736.313
315.601	996.963
320.426	2003.91
325.248	2101.62
330.068	970.516
334.886	267.798
339.701	571.697
344.514	784.655
349.324	777.472
354.132	628.558
358.938	590.833
363.741	982.148
368.541	1098.23
373.339	1173.15
378.135	1054.87
382.928	1466.33
387.718	3520.49
392.506	6599.33
397.292	9226.83
402.075	6341.86
406.856	3979.38
411.634	3320.89
416.41	2465.87
421.183	1620.89
425.954	909.223
430.722	888.968
435.488	1149.55
440.251	1205.9
445.012	631.004
449.77	70.1856
454.526	33.0147
459.28	11.5645
464.03	82.1689
468.779	136.568
473.525	12.7197
478.268	39.1641
483.009	129.288
487.747	69.9375
492.483	122.805
497.217	10.9082
501.948	214.415
506.676	307.525
511.402	543.242
516.125	816.568
520.846	940.518
525.565	1163.11
530.281	685.455
534.994	401.614
539.705	214.608
544.413	73.4648
549.119	321.079
553.822	550.655
558.523	1369.16
563.222	1655.93
567.917	1525.97
572.611	1518.83
577.302	1232.42
581.99	1026.68
586.676	968.719
591.359	618.371
596.04	702.062
600.718	620.048
605.394	529.307
610.067	436.134
614.737	470.912
619.406	309.733
624.071	464.803
628.734	533.601
633.395	761.928
638.053	1102.55
642.708	1724.64
647.361	2419.93
652.012	3607.16
656.66	5660.23
661.305	10343.7
665.948	22757.7
670.588	46778.9
675.226	38158.8
679.861	23972.2
684.494	32292.3
689.124	28891.8
693.752	12873
698.377	6345.65
702.999	3759.6
707.619	2262.66
712.237	1717.08
716.852	1262.31
721.464	1063.63
726.074	817.606
730.681	691.006
735.286	681.615
739.888	752.45
744.488	754.898
749.085	849.116
753.68	786.145
758.272	669.136
762.861	516.06
767.448	454.768
772.033	417.265
776.614	344.536
781.194	248.477
785.77	216.027
790.345	201.185
794.916	72.9541
799.485	152.278
804.052	43.1299
808.616	29.2588
813.177	42.3848
817.736	15.1025
822.292	32.29
826.846	125.459
831.397	9.75195
835.945	25.8906
840.491	111.826
845.035	42.6709
849.576	24.8564
854.114	126.879
858.65	62.5898
863.183	110.637
867.713	97.5508
872.241	17.3906
876.767	1.92285
881.29	56.0117
885.81	191.783
890.328	141.423
894.843	464.931
899.356	669.343
903.866	843.236
908.373	1017.01
912.878	1318.25
917.38	1858.42
921.88	3018.56
926.377	4845.67
930.872	5098.38
935.364	2868.19
939.853	1503.24
944.34	1248.24
948.824	1145.83
953.306	793.264
957.785	627.751
962.261	512.678
966.735	413.769
971.207	545.036
975.675	589.61
980.141	831.779
984.605	1019.49
989.066	1461.12
993.524	2163.18
997.98	2874.26
1002.43	2900.21
1006.88	2528.38
1011.33	2560.4
1015.78	2651.9
1020.22	2908.92
1024.66	2908.64
1029.1	2796.48
1033.53	2672.09
1037.97	3121.12
1042.4	4320.56
1046.82	7537.63
1051.25	14485.3
1055.67	22604.5
1060.09	17426.4
1064.51	11326.9
1068.92	8819.1
1073.33	7118.95
1077.74	5025.69
1082.15	3531.11
1086.55	2896.45
1090.95	2141.69
1095.35	1991.78
1099.75	1546.85
1104.14	1317.79
1108.53	1131.58
1112.92	978.213
1117.31	2001.58
1121.69	3048.61
1126.07	2311.27
1130.45	1095.93
1134.82	973.726
1139.19	473.057
1143.57	259.954
1147.93	180.169
1152.3	142.522
1156.66	10.4365
1161.02	46.8818
1165.38	71.2891
1169.73	29.0928
1174.08	231.509
1178.43	312.909
1182.78	479.912
1187.12	525.926
1191.46	480.643
1195.8	579.448
1200.14	689.463
1204.47	806.366
1208.8	987.816
1213.13	1296.96
1217.46	1308.38
1221.78	1042.53
1226.1	694.676
1230.42	516.183
1234.73	352.047
1239.04	178.864
1243.35	139.082
1247.66	50.0742
1251.97	17.0527
1256.27	11.3701
1260.57	189.547
1264.86	79.8984
1269.16	35.6514
1273.45	106.406
1277.74	42.2637
1282.03	36.5908
1286.31	4.61328
1290.59	3.28223
1294.87	52.6719
1299.14	91.1924
1303.42	18.8457
1307.69	143.011
1311.95	53.8721
1316.22	106.689
1320.48	139.197
1324.74	38.748
1329	205.916
1333.26	176.859
1337.51	243.302
1341.76	230.41
1346	238.088
1350.25	304.398
1354.49	234.976
1358.73	209.191
1362.96	221.219
1367.2	282.421
1371.43	295.162
1375.66	290.981
1379.88	229.19
1384.11	934.1
1388.33	273.162
1392.54	203.766
1396.76	151.849
1400.97	89.1436
1405.18	167.539
1409.39	121.421
1413.59	204.394
1417.8	66.6553
1421.99	30.4434
1426.19	80.2852
1430.38	105.487
1434.58	217.327
1438.77	122.476
1442.95	159.39
1447.13	214.715
1451.32	155.226
1455.49	153.002
1459.67	171.97
1463.84	122.276
1468.01	112.618
1472.18	56.3955
1476.35	234.05
1480.51	171.397
1484.67	173.784
1488.83	116.235
1492.98	186.035
1497.13	116.259
1501.28	128.786
1505.43	59.6152
1509.57	130.643
1513.71	160.317
1517.85	228.423
1521.99	52.9336
1526.12	99.6318
1530.25	102.938
1534.38	213.959
1538.5	123.686
1542.62	163.95
1546.74	145.847
1550.86	106.203
1554.98	259.192
1559.09	93.2441
1563.2	88.8408
1567.31	0.9375
1571.41	0
