Measurement: Raman, 514 nm, ccw, Raman Data Processed
Mineral: Beryl
Rruff sample: R050065
Ideal chemistry: Be_3_Al_2_Si_6_O_18_
Locality: Xuebaoding, Sichuan Province, China
Source: Rock Currier
Description: Light blue colored tabular single crystal
Measured chemistry: (Be_2.78_Li_0.22_)_Σ=3_Al_2.00_Si_6.00_O_18_·Na_0.22_
Pin_id: L00371
Orientation: Laser parallel to c* (0 0 1). Fiducial mark perpendicular to laser is parallel to a [1 0 0]
Raman shift (cm-1)	intensity
91.981	0
96.161	112.421
100.34	239.32
104.516	631.723
108.691	1201.57
112.864	1857.63
117.034	2742.91
121.203	2772.06
125.369	2546.36
129.534	2554.4
133.696	2296.15
137.857	2416.73
142.016	1994.91
146.172	1681.68
150.327	1490.58
154.48	1501.5
158.63	1419.96
162.779	1577.06
166.926	1440.11
171.07	1392.74
175.213	1242.98
179.354	988.511
183.493	852.766
187.63	620.112
191.765	574.238
195.898	631.23
200.029	442.109
204.158	279.989
208.285	41.09
212.41	44.979
216.533	2.176
220.654	90.137
224.773	168.188
228.891	257.082
233.006	350.222
237.119	180.123
241.231	306.67
245.34	249.479
249.448	30.531
253.553	9.61
257.657	71.077
261.758	40.857
265.858	55.346
269.956	98.348
274.052	19.322
278.146	114.062
282.237	346.206
286.327	703.509
290.416	1224.83
294.502	1118.05
298.586	540.986
302.668	442.513
306.749	329.607
310.827	601.767
314.903	893.002
318.978	1782.04
323.051	2448.59
327.121	1410.39
331.19	483.811
335.257	103.763
339.322	192.496
343.385	14.63
347.446	46.258
351.505	89.667
355.563	97.489
359.618	162.777
363.672	210.748
367.723	291.893
371.773	359.505
375.821	538.522
379.866	987.913
383.91	1732.63
387.952	3220.23
391.992	6501.05
396.031	12898.8
400.067	15188.4
404.101	9217.9
408.134	4567.28
412.165	2942.14
416.193	2780.25
420.22	2912.25
424.245	2449.35
428.268	1522.61
432.289	1226.93
436.309	985.078
440.326	746.156
444.342	552.82
448.355	424.318
452.367	538.778
456.377	120.832
460.385	150.341
464.391	166.557
468.395	41.566
472.398	319.347
476.398	38.14
480.397	188.926
484.394	302.344
488.389	229.44
492.382	313.96
496.373	170.005
500.362	133.628
504.349	76.26
508.335	59.238
512.319	17.232
516.3	56.693
520.28	11.922
524.259	74.586
528.235	164.01
532.209	105.211
536.182	7.125
540.152	51.521
544.121	231.432
548.088	216.957
552.053	379.158
556.017	619.051
559.978	768.637
563.938	908.947
567.895	1196.97
571.851	1267.72
575.805	1315.15
579.758	1365.26
583.708	1053.09
587.657	741.594
591.603	435.795
595.548	386.668
599.491	338.205
603.432	316.398
607.372	62.232
611.309	114.549
615.245	366.385
619.179	391.861
623.111	342.994
627.041	356.18
630.97	380.582
634.896	423.771
638.821	463.516
642.744	387.236
646.665	625.424
650.584	640.598
654.502	754.908
658.418	912.58
662.331	1009.19
666.244	1595.49
670.154	2378.74
674.062	4468.98
677.969	9773.68
681.874	23297
685.777	39149.6
689.678	27838.5
693.577	13182.1
697.475	6551.24
701.371	4121.69
705.265	3196
709.157	2354.8
713.047	1659.36
716.936	1398.16
720.823	1255.38
724.708	975.119
728.591	1081.74
732.472	727.129
736.352	933.301
740.23	627.258
744.106	747.006
747.98	703.547
751.853	575.885
755.723	498.031
759.592	661.312
763.459	603.775
767.325	358.158
771.188	479.297
775.05	361.473
778.91	298.604
782.768	116.604
786.625	47.549
790.479	275.137
794.332	210.77
798.183	133.746
802.033	142.252
805.88	137.42
809.726	85.699
813.57	38.332
817.413	49.578
821.253	32.676
825.092	45.645
828.929	77.414
832.764	42.533
836.598	56.646
840.429	205.928
844.259	357.049
848.088	45.877
851.914	230.803
855.739	243.418
859.562	165.607
863.383	98.803
867.203	28.998
871.02	76.17
874.836	34.309
878.65	75.389
882.463	145.469
886.274	112.602
890.083	197.791
893.89	309.049
897.695	367.381
901.499	385.793
905.301	434.289
909.102	365.877
912.9	356.568
916.697	83.385
920.492	391.408
924.285	210.59
928.077	186.889
931.867	66.307
935.655	59.732
939.442	109.203
943.226	188.348
947.009	216.014
950.791	97.596
954.57	227.148
958.348	606.318
962.124	55.898
965.899	254.752
969.671	199.082
973.442	157.525
977.211	51.279
980.979	178.406
984.745	581.359
988.509	846.59
992.271	1111.67
996.032	1937.15
999.791	2553.76
1003.55	2124.94
1007.3	1585.45
1011.06	1393.31
1014.81	847.557
1018.56	690.373
1022.31	545.922
1026.06	586.277
1029.8	590.27
1033.55	642.494
1037.29	587.199
1041.03	473.285
1044.77	635.602
1048.5	1176.13
1052.24	1302.87
1055.97	1725.47
1059.7	2750.03
1063.43	3896.39
1067.16	4799.91
1070.89	4906.58
1074.61	4437.4
1078.34	3693.35
1082.06	2772.43
1085.78	2089.66
1089.5	1472.26
1093.21	1300.57
1096.93	1070.24
1100.64	900.072
1104.35	879.789
1108.06	687.729
1111.77	556.66
1115.48	563.795
1119.18	707.301
1122.89	578.279
1126.59	675.031
1130.29	622.949
1133.99	599.445
1137.68	887.732
1141.38	757.27
1145.07	816.668
1148.76	648.02
1152.45	616.047
1156.14	272.24
1159.83	91.492
1163.51	126.436
1167.19	400.922
1170.88	162.914
1174.56	357.666
1178.23	425.385
1181.91	513.889
1185.59	546.328
1189.26	653.043
1192.93	591.75
1196.6	749.408
1200.27	838.439
1203.94	1007.03
1207.6	482.676
1211.27	691.371
1214.93	925.676
1218.59	1025.94
1222.25	875.803
1225.9	1192.46
1229.56	1216.9
1233.21	1328.22
1236.86	1159.43
1240.51	943.543
1244.16	574.525
1247.81	296.367
1251.45	320.971
1255.1	93.35
1258.74	438.463
1262.38	240.9
1266.02	148.906
1269.66	115.822
1273.29	166.309
1276.93	157.828
1280.56	157.029
1284.19	137.627
1287.82	42.355
1291.45	3.154
1295.07	119.498
1298.7	37.682
1302.32	41.309
1305.94	75.312
1309.56	52.656
1313.18	50.799
1316.8	149.977
1320.41	39.064
1324.02	45.402
1327.63	309.854
1331.24	153.08
1334.85	204.535
1338.46	77.568
1342.06	136.203
1345.67	16.432
1349.27	5.688
1352.87	452.91
1356.47	404.348
1360.07	568.719
1363.66	461.152
1367.25	492.641
1370.85	515.875
1374.44	564.641
1378.03	301.387
1381.61	549.984
1385.2	374.375
1388.78	390.863
1392.37	471.422
1395.95	613.449
1399.53	605.07
1403.1	377.051
1406.68	393.219
1410.26	475.398
1413.83	406.848
1417.4	306.652
1420.97	603.336
1424.54	436.105
1428.1	411.406
1431.67	317.184
1435.23	562.121
1438.8	590.121
1442.36	404.707
1445.91	695.891
1449.47	573.695
1453.03	793.703
1456.58	676.223
1460.13	1073.83
1463.68	775.461
1467.23	365.516
1470.78	930.504
1474.33	428.84
1477.87	380.066
1481.42	336.395
1484.96	275.75
1488.5	290.906
1492.04	588.461
1495.57	497.246
1499.11	89.199
1502.64	264.473
1506.17	162
1509.71	36.48
1513.23	478.602
