Measurement: Raman, 514 nm, ccw, Raman Data Processed
Mineral: Beryl
Rruff sample: R050368
Ideal chemistry: Be_3_Al_2_Si_6_O_18_
Locality: Wah Wah Mountains, Utah, USA
Source: Eugene Schlepp
Description: Red-violet hexagonal prism
Measured chemistry: (Be_0.99_Li_0.01_)_3_(Al_0.95_Fe^3+^_0.05_)_2_Si_6.00_O_18_Î‡K_0.02_Na_0.01_
Pin_id: L01133
Orientation: Laser parallel to -a* (-1 0 0). Fiducial mark perpendicular to laser is parallel to -c [0 0 -1]
Raman shift (cm-1)	intensity
82.367	0
87.308	13.2266
92.246	1583.67
97.182	914.297
102.116	709.003
107.047	1993.24
111.976	688.592
116.903	795.975
121.827	764.576
126.749	534.247
131.668	872.585
136.585	1286.61
141.5	1369.33
146.412	580.028
151.321	164.532
156.229	60.6035
161.134	86.0518
166.036	533.382
170.936	910.935
175.834	1201.62
180.729	1948.25
185.622	2361.84
190.512	2607.48
195.4	2952.27
200.286	3178.92
205.169	2105.2
210.049	1213.65
214.928	1407.27
219.803	1234.84
224.677	1442.6
229.548	1548.44
234.416	1446.28
239.282	1125.79
244.146	998.851
249.007	1115.68
253.866	1248.57
258.722	1801.53
263.576	1546.65
268.427	2185.53
273.276	2209.06
278.123	2100.14
282.967	2118.42
287.809	1793.11
292.648	1531.09
297.485	1948.33
302.319	2504.82
307.151	4250.58
311.98	8194.9
316.807	12595.5
321.631	10576.5
326.454	3367.17
331.273	1147.45
336.09	751.258
340.905	602.122
345.717	553.075
350.527	209.116
355.334	33.2188
360.139	93.8799
364.941	57.7568
369.741	210.367
374.538	84.8232
379.333	847.83
384.126	3932.98
388.916	10807.2
393.703	16682.6
398.488	9664.05
403.271	4386.62
408.051	3544.64
412.828	4278.41
417.603	4468.4
422.376	3184.55
427.146	2181.88
431.914	2898.38
436.679	5339.04
441.442	6206.86
446.202	2964.16
450.96	1136.48
455.715	380.522
460.467	168.894
465.218	123.474
469.965	112.307
474.711	244.555
479.454	408.562
484.194	639.733
488.932	632.068
493.667	512.566
498.4	555.575
503.13	809.347
507.858	722.584
512.583	1036.56
517.306	1305.56
522.026	1693.36
526.744	1750.74
531.459	1259.86
536.172	782.649
540.882	306.048
545.59	71.0478
550.295	139.537
554.998	214.028
559.698	488.874
564.396	562.1
569.091	1159.6
573.784	1985.33
578.474	3080.27
583.162	4125.67
587.847	5277.4
592.529	6525.95
597.209	6105.04
601.887	5184
606.562	4241.3
611.235	3760.14
615.905	3970.95
620.572	3518
625.237	2248.11
629.9	1133.28
634.56	966.497
639.217	1247.77
643.872	1489.47
648.524	1391.34
653.174	1312.95
657.821	1672
662.466	3052.95
667.108	5793.57
671.748	12866.7
676.385	31485.2
681.02	47214.2
685.652	28186
690.281	11227.1
694.908	5660.35
699.533	3260.49
704.155	1947.64
708.774	1044.45
713.391	598.739
718.005	291.648
722.617	29.8252
727.226	18.6064
731.833	95.0459
736.437	57.5147
741.039	27.4316
745.638	131.843
750.234	150.177
754.828	391.234
759.419	1355.89
764.008	3300.14
768.595	4463.97
773.178	2347.39
777.759	915.385
782.338	341.953
786.914	108.572
791.488	72.46
796.059	77.9141
800.627	4.09961
805.193	151.379
809.756	106.331
814.317	69.4502
818.875	23.2324
823.431	46.874
827.984	73.833
832.534	132.282
837.082	79.8213
841.627	234.299
846.17	295.943
850.71	380.129
855.248	342.86
859.783	274.603
864.316	352.901
868.846	212.537
873.373	216.06
877.898	276.581
882.42	759.619
886.94	518.455
891.457	512.58
895.971	741.8
900.483	1094.03
904.993	1643.09
909.5	2340.95
914.004	3062.57
918.505	2843.93
923.004	1995.29
927.501	1403.46
931.995	1042.6
936.486	622.128
940.975	563.813
945.461	244.33
949.945	202.715
954.426	192.38
958.904	224.756
963.38	430.611
967.853	619.35
972.324	689.764
976.792	843.964
981.258	1191.41
985.72	1418.04
990.181	2198.69
994.639	3135.37
999.094	4478.03
1003.55	5184.9
1008	5074.92
1012.44	4366.48
1016.89	2975.06
1021.33	2367.56
1025.77	2072.07
1030.21	1763.63
1034.64	1609.88
1039.07	1381.91
1043.5	1558.61
1047.93	1516.06
1052.35	2089.99
1056.78	2978.92
1061.19	4773.05
1065.61	6213.73
1070.02	4921.82
1074.43	3484.23
1078.84	2564.08
1083.25	2024.17
1087.65	1475.57
1092.05	1219.1
1096.45	955.572
1100.85	582.938
1105.24	597.222
1109.63	441.628
1114.02	423.49
1118.4	497.309
1122.78	643.976
1127.16	393.611
1131.54	372.132
1135.92	312.443
1140.29	39.544
1144.66	43.9697
1149.02	139.03
1153.39	56.7002
1157.75	109.989
1162.11	12.0977
1166.46	12.6738
1170.82	211.867
1175.17	334.234
1179.52	378.591
1183.86	717.483
1188.21	723.965
1192.55	860.276
1196.89	884.952
1201.22	1108.17
1205.55	1120.82
1209.88	1424.37
1214.21	2152.89
1218.54	3247
1222.86	4293.97
1227.18	4278.01
1231.5	3959.67
1235.81	4270.14
1240.12	4992.82
1244.43	4113.73
1248.74	2200.56
1253.04	1523.68
1257.34	1099.04
1261.64	869.997
1265.94	861.589
1270.23	832.043
1274.52	615.972
1278.81	595.824
1283.1	378.319
1287.38	363.559
1291.66	380.545
1295.94	389.573
1300.21	273.735
1304.48	502.253
1308.75	188.878
1313.02	251.644
1317.29	165.66
1321.55	261.111
1325.81	334.769
1330.06	142.752
1334.32	315.674
1338.57	289.086
1342.82	283.51
1347.06	305.666
1351.31	416.147
1355.55	505.383
1359.79	199.184
1364.02	321.266
1368.26	313.709
1372.49	502.799
1376.71	4.27539
1380.94	63.5234
1385.16	73.0664
1389.38	23.209
1393.6	133.232
1397.81	83.1113
1402.02	86.2051
1406.23	57.7832
1410.44	49.2988
1414.64	21.3223
1418.85	6.60938
1423.04	41.0391
1427.24	187.33
1431.43	240.219
1435.62	313.084
1439.81	340.033
1444	41.9453
1448.18	71.4004
1452.36	229.35
1456.54	173.248
1460.71	208.047
1464.89	194.637
1469.06	213.527
1473.22	201.731
1477.39	388.57
1481.55	229.941
1485.71	334.748
1489.86	170.461
1494.02	152.041
1498.17	225.312
1502.32	238.412
1506.46	391.805
1510.61	7.67188
1514.75	282.975
1518.88	235.434
1523.02	217.875
1527.15	365.445
1531.28	366.236
1535.41	215.359
1539.53	132.289
1543.66	237.025
1547.78	291.385
1551.89	354.576
1556.01	581.428
1560.12	293.443
1564.23	210.793
1568.33	69.7637
