Measurement: Raman, 514 nm, ccw, Raman Data Processed
Mineral: Beryl
Rruff sample: R050120
Ideal chemistry: Be_3_Al_2_Si_6_O_18_
Locality: Cruziero mine, San Jose, Minas Gerais, Brazil
Source: Carlos and Paulo Vasconcelos
Description: Yellow gemmy fragment
Measured chemistry: (Be_2.76_Li_0.24_)_Σ=3_Al_2.00_Si_6.00_O_18_·Na_0.24_
Pin_id: L00520
Orientation: Laser parallel to a* (1 0 0). Fiducial mark perpendicular to laser is parallel to c [0 0 1]
Raman shift (cm-1)	intensity
87.798	0
91.981	39.849
96.161	201.434
100.34	238.554
104.516	427.539
108.691	954.91
112.864	1844.66
117.034	3204.37
121.203	2498.53
125.369	2202.25
129.534	2507
133.696	2413.37
137.857	2554.69
142.016	2165.1
146.172	1907.47
150.327	1725.12
154.48	1614.81
158.63	1606.15
162.779	1422.53
166.926	1376.7
171.07	1330.8
175.213	1322.73
179.354	1277.5
183.493	1344.76
187.63	865.509
191.765	696.963
195.898	516.689
200.029	487.648
204.158	367.016
208.285	251.721
212.41	120.385
216.533	260.04
220.654	353.624
224.773	343.452
228.891	393.905
233.006	530.599
237.119	617.113
241.231	964.574
245.34	1384.95
249.448	1301.28
253.553	462.796
257.657	43.64
261.758	210.119
265.858	81.277
269.956	86.628
274.052	201.823
278.146	132.035
282.237	92.941
286.327	197.087
290.416	433.381
294.502	446.754
298.586	667.133
302.668	709.396
306.749	909.501
310.827	1120.11
314.903	2056.04
318.978	3930.69
323.051	6140.25
327.121	4382.54
331.19	1882.66
335.257	527.603
339.322	112.206
343.385	205.148
347.446	84.953
351.505	5.711
355.563	112.698
359.618	32.016
363.672	63.468
367.723	103.81
371.773	43.05
375.821	305.212
379.866	601.252
383.91	988.852
387.952	1845.85
391.992	3748.5
396.031	7768.08
400.067	10181.6
404.101	6395.24
408.134	3012.94
412.165	1514.41
416.193	993.866
420.22	868.354
424.245	775.248
428.268	534.036
432.289	510.246
436.309	736.531
440.326	1069.68
444.342	1374.11
448.355	1168.55
452.367	726.42
456.377	448.352
460.385	395.219
464.391	221.053
468.395	151.818
472.398	281.561
476.398	93.729
480.397	47.803
484.394	158.26
488.389	220.623
492.382	232.057
496.373	290.738
500.362	372.484
504.349	378.557
508.335	533.348
512.319	601.613
516.3	911.746
520.28	1219.44
524.259	1198.59
528.235	1345.44
532.209	1163.4
536.182	1310.35
540.152	969.279
544.121	822.166
548.088	434.002
552.053	367.773
556.017	138.477
559.978	45.895
563.938	43.689
567.895	378.203
571.851	232.896
575.805	274.309
579.758	412.836
583.708	299.326
587.657	299.008
591.603	72.15
595.548	175.629
599.491	264.299
603.432	97.621
607.372	10.418
611.309	179.119
615.245	843.529
619.179	501.145
623.111	499.562
627.041	734.82
630.97	499.646
634.896	409.107
638.821	357.826
642.744	612.973
646.665	862.564
650.584	766.934
654.502	970.787
658.418	977.375
662.331	1151.51
666.244	1853.12
670.154	3047.87
674.062	4869.14
677.969	10433
681.874	23284.6
685.777	38343.7
689.678	26683.1
693.577	12649.1
697.475	6114.59
701.371	3445.67
705.265	2518.51
709.157	1693.95
713.047	1029.19
716.936	834.402
720.823	661.516
724.708	634.557
728.591	647.205
732.472	291.629
736.352	328.891
740.23	305.045
744.106	299.195
747.98	259.486
751.853	259.32
755.723	118.721
759.592	330.656
763.459	373.393
767.325	182.012
771.188	64.6
775.05	274.674
778.91	64.23
782.768	8.271
786.625	34.287
790.479	9.516
794.332	322.258
798.183	275.564
802.033	26.148
805.88	62.215
809.726	79.359
813.57	107.158
817.413	211.199
821.253	171.678
825.092	136.07
828.929	20.594
832.764	21.457
836.598	127.686
840.429	398.133
844.259	262.033
848.088	4.541
851.914	31.408
855.739	78.783
859.562	209.088
863.383	352.877
867.203	269.324
871.02	81.404
874.836	149.148
878.65	163.371
882.463	81.062
886.274	61.566
890.083	224.461
893.89	79.031
897.695	309.287
901.499	228.676
905.301	294.779
909.102	470.887
912.9	519.793
916.697	278.773
920.492	576.209
924.285	513.977
928.077	283.736
931.867	344.502
935.655	101.438
939.442	153.328
943.226	400.326
947.009	271.342
950.791	309.107
954.57	135.102
958.348	265.264
962.124	51.41
965.899	441.818
969.671	364.998
973.442	326.084
977.211	194.748
980.979	284.33
984.745	563.24
988.509	1029.9
992.271	1086.18
996.032	2015.57
999.791	3259.18
1003.55	3645.28
1007.3	3960.7
1011.06	4322.51
1014.81	3941.19
1018.56	3486.01
1022.31	3310.27
1026.06	3045.26
1029.8	2862.71
1033.55	3284.27
1037.29	3390.6
1041.03	4007.61
1044.77	4953.52
1048.5	6625.66
1052.24	9031.43
1055.97	12247.4
1059.7	16947.9
1063.43	22072.6
1067.16	25352.6
1070.89	24614.8
1074.61	21476.4
1078.34	17872.3
1082.06	13537.4
1085.78	10514
1089.5	8118.81
1093.21	6621.03
1096.93	5959.56
1100.64	5021.33
1104.35	4894.44
1108.06	4912.07
1111.77	4132.87
1115.48	4087
1119.18	3717.2
1122.89	4790.02
1126.59	3920.16
1130.29	3618.73
1133.99	3320.48
1137.68	3578.59
1141.38	3056.4
1145.07	3062.26
1148.76	2609.6
1152.45	2389.88
1156.14	1893.11
1159.83	1614.24
1163.51	1256.4
1167.19	936.391
1170.88	546.096
1174.56	802.084
1178.23	723.643
1181.91	578.002
1185.59	364.76
1189.26	463.447
1192.93	279.527
1196.6	449.791
1200.27	325.049
1203.94	403.158
1207.6	142.164
1211.27	236.764
1214.93	221.365
1218.59	247.684
1222.25	188.051
1225.9	379.043
1229.56	252.332
1233.21	431.301
1236.86	660.027
1240.51	453.598
1244.16	144.777
1247.81	343.789
1251.45	268.77
1255.1	43.77
1258.74	102.949
1262.38	94.266
1266.02	63.895
1269.66	73.738
1273.29	157.691
1276.93	45.258
1280.56	133.309
1284.19	65.25
1287.82	9.766
1291.45	77.652
1295.07	50.793
1298.7	301.84
1302.32	60.52
1305.94	219.922
1309.56	348.445
1313.18	45.527
1316.8	175.344
1320.41	274.207
1324.02	127.113
1327.63	174.855
1331.24	372.773
1334.85	292.273
1338.46	10.762
1342.06	113.852
1345.67	186.984
1349.27	123.461
1352.87	384.457
1356.47	528.949
1360.07	472.305
1363.66	497.141
1367.25	579.902
1370.85	471.176
1374.44	401.828
1378.03	175.93
1381.61	232.648
1385.2	547.129
1388.78	269.523
1392.37	59.684
1395.95	280.27
1399.53	183.215
1403.1	186.988
1406.68	84.957
1410.26	33.629
1413.83	494.16
1417.4	93.461
1420.97	349.555
