Measurement: Raman, 514 nm, ccw, Raman Data Processed
Mineral: Beryl
Rruff sample: R050368
Ideal chemistry: Be_3_Al_2_Si_6_O_18_
Locality: Wah Wah Mountains, Utah, USA
Source: Eugene Schlepp
Description: Red-violet hexagonal prism
Measured chemistry: (Be_0.99_Li_0.01_)_3_(Al_0.95_Fe^3+^_0.05_)_2_Si_6.00_O_18_Î‡K_0.02_Na_0.01_
Pin_id: L01133
Orientation: Laser parallel to -a* (-1 0 0). Fiducial mark perpendicular to laser is parallel to -c [0 0 -1]
Raman shift (cm-1)	intensity
82.367	0
87.308	134.161
92.246	420.696
97.182	303.752
102.116	200.327
107.047	1006.28
111.976	671.936
116.903	793.988
121.827	575.658
126.749	513.066
131.668	648.861
136.585	555.305
141.5	552.92
146.412	277.537
151.321	188.152
156.229	145.462
161.134	183.305
166.036	430.508
170.936	439.555
175.834	425.634
180.729	720.84
185.622	880.206
190.512	1055.71
195.4	1330.32
200.286	1380.42
205.169	990.907
210.049	634.938
214.928	569.035
219.803	505.127
224.677	608.443
229.548	764.71
234.416	1018.06
239.282	873.625
244.146	767.891
249.007	818.185
253.866	671.099
258.722	810.36
263.576	454.813
268.427	527.366
273.276	537.061
278.123	578.688
282.967	601.057
287.809	760.095
292.648	933.735
297.485	1186.93
302.319	1709.6
307.151	2942.69
311.98	7322.45
316.807	14107.5
321.631	12002.8
326.454	3213.07
331.273	684.582
336.09	226.213
340.905	77.9375
345.717	12.0718
350.527	36.1299
355.334	3.54639
360.139	79.1699
364.941	52.1221
369.741	200.278
374.538	546.542
379.333	1544.2
384.126	4445.25
388.916	9658.64
393.703	11724.3
398.488	4873.23
403.271	1328.38
408.051	461.224
412.828	145.055
417.603	199.043
422.376	101.654
427.146	178.935
431.914	174.962
436.679	324.075
441.442	389.259
446.202	177.504
450.96	138.772
455.715	10.0977
460.467	33.2876
465.218	61.1338
469.965	13.666
474.711	145.51
479.454	69.6636
484.194	244.797
488.932	218.596
493.667	189.264
498.4	277.486
503.13	206.988
507.858	288.252
512.583	358.243
517.306	372.248
522.026	558.282
526.744	677.308
531.459	372.38
536.172	166.549
540.882	98.8359
545.59	4.74951
550.295	41.5293
554.998	84.4326
559.698	0.932129
564.396	90.4014
569.091	297.749
573.784	339.055
578.474	497.262
583.162	766.389
587.847	1042.4
592.529	1424.12
597.209	1229.16
601.887	1121.36
606.562	910.239
611.235	817.769
615.905	1001.49
620.572	1149.63
625.237	703.618
629.9	529.452
634.56	514.172
639.217	741.839
643.872	809.553
648.524	852.493
653.174	1080.72
657.821	1625.14
662.466	2561.29
667.108	4943.11
671.748	11967.7
676.385	30162.7
681.02	43854
685.652	22884.7
690.281	8274.62
694.908	3958.43
699.533	2239.75
704.155	1303.93
708.774	910.702
713.391	630.42
718.005	550.001
722.617	383.161
727.226	257.755
731.833	189.855
736.437	247.606
741.039	166.442
745.638	92.2686
750.234	47.0308
754.828	93.5874
759.419	111.862
764.008	262.858
768.595	291.576
773.178	140.016
777.759	168.177
782.338	123.057
786.914	1.35156
791.488	46.8164
796.059	43.3672
800.627	83.9722
805.193	61.019
809.756	8.46973
814.317	41.2651
818.875	38.6982
823.431	33.7598
827.984	59.0337
832.534	17.207
837.082	62.7139
841.627	5.74512
846.17	49.6465
850.71	3.65625
855.248	23.6611
859.783	140.637
864.316	33.3242
868.846	88.3643
873.373	87.8286
877.898	120.041
882.42	249.982
886.94	271.347
891.457	218.662
895.971	287.926
900.483	327.25
904.993	345.443
909.5	771.501
914.004	812.434
918.505	763.15
923.004	436.807
927.501	200.778
931.995	106.156
936.486	87.4751
940.975	54.5425
945.461	47.041
949.945	20.2393
954.426	2.25195
958.904	1.15088
963.38	28.9629
967.853	37.9492
972.324	138.702
976.792	215.115
981.258	198.095
985.72	381.96
990.181	564.022
994.639	822.752
999.094	1300.12
1003.55	1735.09
1008	2103.31
1012.44	1984.49
1016.89	1638.87
1021.33	1965.46
1025.77	2140.87
1030.21	2553.26
1034.64	3307.14
1039.07	4414.26
1043.5	6252.24
1047.93	9412.48
1052.35	15073
1056.78	26756.6
1061.19	45597.5
1065.61	56160.7
1070.02	43888.1
1074.43	27013.7
1078.84	17174.7
1083.25	11784.6
1087.65	8557.7
1092.05	6102.7
1096.45	4517.64
1100.85	3784.99
1105.24	2840.57
1109.63	2443.06
1114.02	2214.48
1118.4	1968.81
1122.78	1727.29
1127.16	1622.01
1131.54	1383.88
1135.92	1017.5
1140.29	782.89
1144.66	338.378
1149.02	227.072
1153.39	40.2773
1157.75	15.665
1162.11	21.3301
1166.46	23.3613
1170.82	45.2353
1175.17	24.4443
1179.52	43.3672
1183.86	161.35
1188.21	236.136
1192.55	119.41
1196.89	183.029
1201.22	136.698
1205.55	62.8935
1209.88	105.221
1214.21	151.917
1218.54	50.9258
1222.86	199.294
1227.18	166.135
1231.5	146.641
1235.81	119.269
1240.12	130.883
1244.43	13.3145
1248.74	89.0439
1253.04	35.8799
1257.34	91.5137
1261.64	89.4502
1265.94	64.6533
1270.23	56.5547
1274.52	120.904
1278.81	160.587
1283.1	206.009
1287.38	182.334
1291.66	125.334
1295.94	270.481
1300.21	193.051
1304.48	181.559
1308.75	36.1543
1313.02	75.8809
1317.29	93.1846
1321.55	62.6807
1325.81	11.3076
1330.06	111.486
1334.32	294.185
1338.57	154.142
1342.82	249.315
1347.06	195.171
1351.31	152.12
1355.55	300.25
1359.79	149.706
1364.02	195.179
1368.26	115.121
1372.49	168.24
1376.71	182.552
1380.94	119.184
1385.16	2.28418
1389.38	61.7627
1393.6	83.1103
1397.81	9.28711
1402.02	43.9277
1406.23	92.0967
1410.44	184.148
1414.64	36.4902
1418.85	6.18066
1423.04	161.716
1427.24	152.671
1431.43	49.6602
1435.62	162.981
1439.81	217.866
1444	193.037
1448.18	142.102
1452.36	78.2148
1456.54	180.499
1460.71	181.041
1464.89	118.325
1469.06	57.8213
1473.22	52.2773
1477.39	201.519
1481.55	137.476
1485.71	77.2305
1489.86	152.426
1494.02	250.841
1498.17	58.8965
1502.32	141.382
1506.46	329.337
1510.61	132.048
1514.75	129.414
1518.88	70.8838
1523.02	395.869
1527.15	271.362
1531.28	138.379
1535.41	178.417
1539.53	283.352
1543.66	180.694
1547.78	111.31
1551.89	347.649
1556.01	170.472
1560.12	111.819
1564.23	65.0537
1568.33	26.3232
