Measurement: Raman, 514 nm, ccw, Raman Data Processed
Mineral: Beryl
Rruff sample: R050368
Ideal chemistry: Be_3_Al_2_Si_6_O_18_
Locality: Wah Wah Mountains, Utah, USA
Source: Eugene Schlepp
Description: Red-violet hexagonal prism
Measured chemistry: (Be_0.99_Li_0.01_)_3_(Al_0.95_Fe^3+^_0.05_)_2_Si_6.00_O_18_Î‡K_0.02_Na_0.01_
Pin_id: L01802
Orientation: Laser parallel to -c* (0 0 -1). Fiducial mark perpendicular to laser is parallel to b [0 1 0]
Raman shift (cm-1)	intensity
82.367	0
87.308	149.32
92.246	744.477
97.182	581.303
102.116	348.503
107.047	1339.03
111.976	509.898
116.903	1004.88
121.827	225.19
126.749	83.5098
131.668	541.988
136.585	852.583
141.5	1227.21
146.412	418.486
151.321	24.4785
156.229	149.452
161.134	63.9951
166.036	434.029
170.936	744.848
175.834	1033.49
180.729	1772.81
185.622	2416.83
190.512	2621.65
195.4	2962.31
200.286	2933.89
205.169	2086.57
210.049	1518.78
214.928	1506.96
219.803	1588.71
224.677	1748.25
229.548	1624.76
234.416	1711.21
239.282	1436.39
244.146	1017.02
249.007	1281.29
253.866	1443.52
258.722	1693.73
263.576	1456
268.427	2364.72
273.276	2305.45
278.123	1996.46
282.967	2201.69
287.809	1717.09
292.648	1505.62
297.485	1717.24
302.319	2461.85
307.151	3796.58
311.98	7134.67
316.807	11861
321.631	11898.2
326.454	3026.58
331.273	1109.66
336.09	742.64
340.905	636.544
345.717	517.403
350.527	296.222
355.334	40.9941
360.139	147.44
364.941	219.565
369.741	175.485
374.538	77.7519
379.333	662.174
384.126	2930.59
388.916	9285
393.703	16821.4
398.488	9131.79
403.271	4105.19
408.051	3377.3
412.828	4152.48
417.603	4386
422.376	3212.58
427.146	2246.23
431.914	2942.96
436.679	4951.76
441.442	6982.63
446.202	2936.72
450.96	918.527
455.715	437.805
460.467	308.296
465.218	51.9522
469.965	25.5977
474.711	252.034
479.454	460.513
484.194	764.102
488.932	721.805
493.667	604.625
498.4	640.043
503.13	639.906
507.858	781.689
512.583	996.504
517.306	1051.13
522.026	1366.52
526.744	1430.22
531.459	973.68
536.172	549.731
540.882	283.451
545.59	181.695
550.295	35.3477
554.998	49.2832
559.698	381.543
564.396	438.083
569.091	949.886
573.784	1790.94
578.474	2880.24
583.162	3833.81
587.847	5307.52
592.529	6372.23
597.209	5974.83
601.887	5019.99
606.562	3875.3
611.235	3540.31
615.905	3781.09
620.572	3733.03
625.237	1872.1
629.9	850.292
634.56	918.6
639.217	1085.02
643.872	1312.81
648.524	1350.49
653.174	1103.94
657.821	1318.25
662.466	2649.21
667.108	4840.6
671.748	10631.4
676.385	26702.4
681.02	46905.6
685.652	26417.5
690.281	10392.2
694.908	5181.51
699.533	2919.87
704.155	1647.59
708.774	999.903
713.391	545.847
718.005	239.51
722.617	18.8789
727.226	7.97266
731.833	73.7246
736.437	50.3945
741.039	22.9297
745.638	35.5537
750.234	160.835
754.828	413.897
759.419	1258.61
764.008	3234.96
768.595	4702.95
773.178	2293.57
777.759	957.824
782.338	265.69
786.914	144.151
791.488	113.988
796.059	131.663
800.627	40.9355
805.193	33.4883
809.756	4.60254
814.317	15.2842
818.875	48.6074
823.431	34.417
827.984	3.79102
832.534	52.3711
837.082	246.383
841.627	190.923
846.17	313.011
850.71	286.655
855.248	276.815
859.783	270.312
864.316	171.016
868.846	145.093
873.373	173.368
877.898	204.34
882.42	202.631
886.94	291.574
891.457	330.736
895.971	462.967
900.483	779.023
904.993	1211.85
909.5	1662.4
914.004	2103.66
918.505	1914.62
923.004	1316.98
927.501	1049.37
931.995	779.643
936.486	437.121
940.975	373.762
945.461	340.688
949.945	176.618
954.426	135.064
958.904	223.065
963.38	436.627
967.853	544.101
972.324	827.381
976.792	889.275
981.258	1098.5
985.72	1552.73
990.181	2056.97
994.639	2830.22
999.094	3648.26
1003.55	4176.58
1008	3466.13
1012.44	2947.04
1016.89	2409.59
1021.33	2007.05
1025.77	1733.44
1030.21	1568.09
1034.64	1566.31
1039.07	1422.02
1043.5	1297.47
1047.93	1310.15
1052.35	1734.55
1056.78	2486.2
1061.19	4033.27
1065.61	5244.15
1070.02	4436.58
1074.43	3147.52
1078.84	2299.88
1083.25	1681.45
1087.65	1502.36
1092.05	1123.47
1096.45	746.648
1100.85	572.868
1105.24	411.028
1109.63	420.088
1114.02	404.045
1118.4	456.875
1122.78	412.552
1127.16	401.092
1131.54	257.471
1135.92	70.6924
1140.29	108.686
1144.66	81.4434
1149.02	87.7324
1153.39	101.062
1157.75	143.178
1162.11	58.8662
1166.46	99.2754
1170.82	141.769
1175.17	306.346
1179.52	376.152
1183.86	557.612
1188.21	698.325
1192.55	889.428
1196.89	886.299
1201.22	1085.97
1205.55	1218.36
1209.88	1458.65
1214.21	2399.81
1218.54	3733.41
1222.86	5082.19
1227.18	5173.45
1231.5	4405.22
1235.81	5003.48
1240.12	6142.44
1244.43	4787.23
1248.74	2784.91
1253.04	1564.37
1257.34	1142
1261.64	929.756
1265.94	831.964
1270.23	751.622
1274.52	699.705
1278.81	611.798
1283.1	430.127
1287.38	244.016
1291.66	226.492
1295.94	162.659
1300.21	265.055
1304.48	45.9502
1308.75	90.8672
1313.02	75.6846
1317.29	54.8057
1321.55	178.993
1325.81	63.3223
1330.06	235.402
1334.32	217.311
1338.57	293.867
1342.82	312.055
1347.06	259.182
1351.31	317.516
1355.55	329.487
1359.79	398.359
1364.02	355.706
1368.26	176.154
1372.49	219.983
1376.71	285.261
1380.94	24.8047
1385.16	137.039
1389.38	96.1836
1393.6	253.341
1397.81	205.626
1402.02	17.8271
1406.23	198.56
1410.44	161.07
1414.64	196.888
1418.85	58.0557
1423.04	114.001
1427.24	125.574
1431.43	117.943
1435.62	11.2363
1439.81	260.469
1444	74.4209
1448.18	25.7324
1452.36	137.822
1456.54	116.14
1460.71	139.367
1464.89	201.348
1469.06	141.663
1473.22	144.92
1477.39	41.3935
1481.55	78.8613
1485.71	190.502
1489.86	222.112
1494.02	190.78
1498.17	203.934
1502.32	312.438
1506.46	300.062
1510.61	150.059
1514.75	231.732
1518.88	220.199
1523.02	195.106
1527.15	382.113
1531.28	241.281
1535.41	299.627
1539.53	230.457
1543.66	235.217
1547.78	222.352
1551.89	374.246
1556.01	346.41
1560.12	112.637
1564.23	2.00977
1568.33	1.38281
