Measurement: Raman, 514 nm, ccw, Raman Data Processed
Mineral: Beryl
Rruff sample: R050305
Ideal chemistry: Be_3_Al_2_Si_6_O_18_
Locality: Conselheiro Pena, Minas Gerais, Brazil
Source: Eugene Schlepp
Description: Light blue fragment, variety aquamarine
Measured chemistry: (Be_0.91_Li_0.09_)_3_(Al_0.99_Fe^3+^_0.01_)_2_Si_6.00_O_18_Î‡Na_0.27_
Pin_id: L00797
Orientation: Laser parallel to c* (0 0 1). Fiducial mark perpendicular to laser is parallel to [-1 -1 0]
Raman shift (cm-1)	intensity
95.948	0
100.883	39.2031
105.815	517.458
110.744	1863.28
115.671	2622.56
120.596	3117.16
125.519	2930.05
130.439	2996.31
135.356	3013.8
140.271	2886.97
145.184	1837.43
150.094	1569.33
155.002	1600.88
159.908	1613.23
164.811	1835.08
169.711	1908.75
174.61	1770.59
179.505	1678.39
184.399	1262.32
189.29	916.365
194.178	871.505
199.064	659.664
203.948	496.698
208.829	0.476563
213.708	195.961
218.585	25.5322
223.459	238.378
228.33	346.819
233.199	430.835
238.066	317.629
242.93	221.05
247.792	46.0068
252.651	41.6123
257.508	29.1104
262.363	390.009
267.215	161.016
272.064	86.3809
276.912	185.685
281.756	431.664
286.598	820.124
291.438	1727.94
296.276	1453.03
301.111	578.176
305.943	353.927
310.773	652.654
315.601	1317.36
320.426	2072.09
325.248	2086.24
330.068	663.533
334.886	64.5898
339.701	111.961
344.514	6.56641
349.324	102.788
354.132	61.1582
358.938	6.4082
363.741	169.512
368.541	421.381
373.339	591.215
378.135	1190.27
382.928	2246.34
387.718	4615.17
392.506	9985.23
397.292	16405.4
402.075	14800.2
406.856	6887.7
411.634	4135.86
416.41	3988.65
421.183	3923.04
425.954	3082.01
430.722	1893.55
435.488	1421.65
440.251	1127.39
445.012	838.467
449.77	553.177
454.526	488.416
459.28	395.178
464.03	245.452
468.779	59.3984
473.525	155.748
478.268	281.102
483.009	273.982
487.747	274.407
492.483	171.779
497.217	217.247
501.948	83.1006
506.676	19.8691
511.402	17.9189
516.125	10.0635
520.846	150.497
525.565	98.8408
530.281	173.409
534.994	167.649
539.705	289.7
544.413	308.637
549.119	539.481
553.822	958.198
558.523	1318.75
563.222	1649.97
567.917	1651.07
572.611	2056.88
577.302	2079.34
581.99	1680.41
586.676	1237.08
591.359	895.344
596.04	644.218
600.718	519.773
605.394	477.861
610.067	185.178
614.737	425.115
619.406	362.54
624.071	397.78
628.734	450.68
633.395	367.732
638.053	449.84
642.708	407.737
647.361	392.846
652.012	655.97
656.66	785.238
661.305	1197.98
665.948	1900.96
670.588	3701.38
675.226	8921.88
679.861	22435.7
684.494	40684.3
689.124	32520
693.752	14010.8
698.377	6765.14
702.999	3846.81
707.619	2772.48
712.237	1929.81
716.852	1611.56
721.464	1503.97
726.074	1264.74
730.681	1284.15
735.286	969.477
739.888	852.056
744.488	781.78
749.085	924.763
753.68	1095.38
758.272	1044.75
762.861	967.809
767.448	560.502
772.033	335.824
776.614	275.779
781.194	221.432
785.77	25.9961
790.345	179.606
794.916	123.08
799.485	204.779
804.052	14.6367
808.616	49.3477
813.177	109
817.736	8.69922
822.292	67.7969
826.846	41.2441
831.397	1.04883
835.945	77.9023
840.491	47.0938
845.035	69.5879
849.576	1.22852
854.114	204.504
858.65	226.887
863.183	226.961
867.713	96.7383
872.241	22.8281
876.767	74.166
881.29	87.8418
885.81	15.8145
890.328	175.086
894.843	321.783
899.356	364.281
903.866	605.594
908.373	834.738
912.878	638.731
917.38	534.578
921.88	185.16
926.377	223.059
930.872	242.924
935.364	131.133
939.853	95.4902
944.34	46.8164
948.824	19.7715
953.306	35.6855
957.785	109.191
962.261	160.768
966.735	67.2773
971.207	175.801
975.675	91.041
980.141	462.281
984.605	714.264
989.066	1180.17
993.524	2060.91
997.98	2930.17
1002.43	3121.69
1006.88	2274.39
1011.33	1607.68
1015.78	1197.98
1020.22	750.725
1024.66	639.064
1029.1	514.541
1033.53	316.67
1037.97	428.123
1042.4	608.557
1046.82	928.43
1051.25	1348.8
1055.67	2092.68
1060.09	3318.07
1064.51	4723.94
1068.92	5305.56
1073.33	5122.27
1077.74	4055.95
1082.15	3321.19
1086.55	2241.31
1090.95	1694.91
1095.35	1699.96
1099.75	1271.62
1104.14	1080.11
1108.53	1070.49
1112.92	1157.69
1117.31	998.564
1121.69	974.092
1126.07	1127.25
1130.45	907.953
1134.82	1167.7
1139.19	1163.49
1143.57	992.262
1147.93	1117.33
1152.3	841.729
1156.66	583.002
1161.02	479.193
1165.38	584.246
1169.73	703.24
1174.08	649.887
1178.43	980.137
1182.78	986.775
1187.12	1102.29
1191.46	1181.95
1195.8	1249.97
1200.14	1123.37
1204.47	1062.31
1208.8	1160.06
1213.13	1101.89
1217.46	1339.52
1221.78	1461.52
1226.1	1445.54
1230.42	1320.8
1234.73	936.936
1239.04	689.17
1243.35	390.852
1247.66	398.107
1251.97	267.996
1256.27	1.93164
1260.57	129.195
1264.86	68.8809
1269.16	147.508
1273.45	72.5996
1277.74	58.8242
1282.03	91.2832
1286.31	40.873
1290.59	50.5723
1294.87	201.949
1299.14	127.559
1303.42	59.2207
1307.69	99.8887
1311.95	18.1699
1316.22	248.713
1320.48	106.014
1324.74	270.111
1329	91.3984
1333.26	65.043
1337.51	105.428
1341.76	133.576
1346	194.445
1350.25	78.0293
1354.49	300.139
1358.73	99.3066
1362.96	383.039
1367.2	226.141
1371.43	89.1289
1375.66	255.785
1379.88	316.369
1384.11	368.094
1388.33	293.496
1392.54	108.225
1396.76	232.947
1400.97	54.0938
1405.18	202.264
1409.39	303.137
1413.59	324.152
1417.8	43.1699
1421.99	73.3516
1426.19	8.35938
1430.38	62.9453
1434.58	132.623
1438.77	217.611
1442.95	248.721
1447.13	549.287
1451.32	437.75
1455.49	593.158
1459.67	522.398
1463.84	363.223
1468.01	402.842
1472.18	223.637
1476.35	420.51
1480.51	342.566
1484.67	229.09
1488.83	463.889
1492.98	227.713
1497.13	254.637
1501.28	327.67
1505.43	298.775
1509.57	337.426
1513.71	76.7344
1517.85	208.084
1521.99	197.166
1526.12	189.24
1530.25	157.836
1534.38	265.941
1538.5	500.352
1542.62	8.05469
1546.74	139.461
1550.86	137.201
1554.98	331.121
1559.09	266.984
1563.2	222.99
1567.31	179.734
