Measurement: Raman, 514 nm, ccw, Raman Data Processed
Mineral: Beryl
Rruff sample: R060943
Ideal chemistry: Be_3_Al_2_Si_6_O_18_
Locality: Xinjiang, China
Source: Lawrence W. Snee
Description: Green hexagonal prisms, variety emerald
Measured chemistry: (Be_2.96_Li_0.04_)_Σ=3_(Al_1.64_Mg_0.21_V^3+^_0.06_Fe^3+^_0.04_Sc^3+^_0.03_Cr^3+^_0.02_)_Σ=2_Si_6.00_O_18_·Na_0.25_
Pin_id: L01186
Orientation: Laser parallel to -c* (0 0 -1). Fiducial mark perpendicular to laser is parallel to a [1 0 0]
Raman shift (cm-1)	intensity
167.334	0
172.265	163.205
177.193	8.84668
182.117	362.15
187.039	501.783
191.958	682.756
196.874	619.439
201.787	768.545
206.696	183.244
211.603	39.5117
216.506	383.112
221.407	434.815
226.304	579.07
231.199	572.545
236.091	1054.96
240.979	1203.9
245.864	1700.43
250.747	1522.47
255.626	220.148
260.503	511.276
265.376	88.6152
270.247	212.191
275.114	108.691
279.979	184.876
284.84	478.519
289.699	1232.64
294.554	919.952
299.407	827.836
304.257	793.697
309.103	1165.64
313.947	1867.4
318.788	3286.41
323.626	5531.11
328.461	2776.55
333.292	557.734
338.121	66.7139
342.947	9.04785
347.771	98.7519
352.591	7.43945
357.408	79.7119
362.222	138.77
367.034	230.954
371.842	427.41
376.648	701.941
381.45	1746.7
386.25	2726.74
391.047	5383.11
395.841	10164.8
400.632	9889.81
405.42	5006.49
410.205	3016.03
414.988	2504.82
419.767	2027.76
424.544	1455.72
429.318	1336.59
434.089	1569.55
438.857	2386.74
443.622	2557.2
448.384	1409.27
453.143	701.971
457.9	398.288
462.654	523.981
467.405	560.987
472.153	500.301
476.898	530.931
481.64	438.591
486.38	481.403
491.116	523.941
495.85	478.68
500.581	515.685
505.309	801.387
510.035	1159.14
514.757	1954.34
519.477	3316.36
524.194	3782.36
528.908	2482.03
533.62	1180.48
538.328	484.749
543.034	19.8223
547.737	24.416
552.437	9.78223
557.134	65.7598
561.829	476.119
566.521	442.24
571.21	720.375
575.896	1013.4
580.58	989.33
585.261	717.173
589.939	647.9
594.614	760.61
599.286	501.906
603.956	506.775
608.623	414.513
613.287	615.115
617.949	886.893
622.608	679.095
627.264	366.819
631.917	347.804
636.568	357.582
641.215	404.954
645.861	350.728
650.503	524.626
655.143	600.569
659.78	1046.52
664.414	1681.44
669.046	2976.34
673.674	5904.94
678.301	14406
682.924	31812.2
687.545	38202.7
692.163	17391.5
696.778	7346.33
701.391	4010.2
706.001	2456.03
710.609	1701.78
715.213	1017.86
719.815	916.915
724.415	609.944
729.011	426.2
733.606	449.617
738.197	382.81
742.786	286.17
747.372	449.715
751.955	480.066
756.536	597.383
761.114	1059.65
765.69	1083.88
770.262	1055.05
774.833	720.154
779.4	529.197
783.965	448.169
788.528	312.065
793.087	143.887
797.645	291.64
802.199	290.327
806.751	192.955
811.3	11.7031
815.847	3.42871
820.391	141.795
824.933	70.3643
829.471	54.1211
834.008	47.6514
838.541	53.5664
843.073	20.7783
847.601	183.925
852.127	56.9785
856.65	78.9629
861.171	129.873
865.69	80.2519
870.205	27.4014
874.718	80.0381
879.229	224.339
883.737	27.6885
888.242	171.954
892.745	303.618
897.246	323.864
901.743	533.621
906.239	862.673
910.731	970.9
915.221	1199.31
919.709	1250.92
924.194	1077.74
928.677	889.794
933.157	606.084
937.634	332.629
942.109	142.441
946.582	164.772
951.052	7.90234
955.519	193.543
959.984	37.084
964.447	110.258
968.906	38.9512
973.364	172.844
977.819	278.305
982.271	717.432
986.721	1113.62
991.169	1871.09
995.614	3187.12
1000.06	4199.55
1004.5	4817.96
1008.93	5218.74
1013.37	4592.89
1017.8	3477.85
1022.23	2829.56
1026.66	2169.12
1031.09	1754.69
1035.51	1845.01
1039.93	1807.97
1044.35	2442.97
1048.76	3629.9
1053.17	5656.5
1057.58	9743.69
1061.99	16203.5
1066.4	20881.2
1070.8	19124.4
1075.2	14163.3
1079.6	9648.95
1084	6829.21
1088.39	4739.3
1092.78	3565.3
1097.17	3013.2
1101.56	2418.41
1105.94	1998.9
1110.32	1788.15
1114.7	1536.03
1119.08	1790.48
1123.45	1938.53
1127.82	1947.1
1132.19	2021.69
1136.56	1589.77
1140.92	1182.09
1145.29	767.945
1149.65	492.338
1154	38.7852
1158.36	32.8008
1162.71	59.3555
1167.06	17.627
1171.41	174.422
1175.76	136.84
1180.1	288.518
1184.44	173.109
1188.78	221.387
1193.11	210.773
1197.45	401.402
1201.78	316.322
1206.11	423.32
1210.43	654.607
1214.76	831.357
1219.08	1098.2
1223.4	969.041
1227.72	977.994
1232.03	692.014
1236.35	486.06
1240.66	433.56
1244.96	179.537
1249.27	349.922
1253.57	197.766
1257.88	146.518
1262.17	57.1699
1266.47	122.725
1270.76	280.16
1275.06	193.402
1279.35	99.4688
1283.63	31.1855
1287.92	85.0391
1292.2	82.7109
1296.48	85.6094
1300.76	20.5684
1305.04	69.5547
1309.31	116.412
1313.58	87.0117
1317.85	293.238
1322.12	193.35
1326.38	85.9551
1330.64	12.1152
1334.9	171.445
1339.16	303.721
1343.41	201.26
1347.67	78.8809
1351.92	334.295
1356.17	253.295
1360.41	145.236
1364.66	141.443
1368.9	157.272
1373.14	376.688
1377.38	277.793
1381.61	995.59
1385.84	2423.08
1390.08	580.406
1394.3	336.953
1398.53	273.572
1402.75	434.74
1406.97	282.648
1411.19	164.393
1415.41	309.816
1419.63	212.08
1423.84	110.652
1428.05	109.074
1432.26	154.133
1436.46	385.998
1440.67	305.504
1444.87	20.7734
1449.07	18.7344
1453.27	214.742
1457.46	235.346
1461.66	115.791
1465.85	318.715
1470.04	194.18
1474.22	143.15
1478.41	31.9863
1482.59	49.043
1486.77	180.199
1490.95	271.471
1495.12	139.918
1499.3	129.672
1503.47	288.426
1507.63	45.6855
1511.8	113.482
1515.97	219.705
1520.13	218.594
1524.29	242.83
1528.45	192.93
1532.61	134.932
1536.76	188.682
1540.91	205.144
1545.06	198.975
1549.21	140.736
1553.35	178.852
1557.5	223.959
1561.64	157.975
