Measurement: Raman, 514 nm, ccw, Raman Data Processed
Mineral: Beryl
Rruff sample: R050065
Ideal chemistry: Be_3_Al_2_Si_6_O_18_
Locality: Xuebaoding, Sichuan Province, China
Source: Rock Currier
Description: Light blue colored tabular single crystal
Measured chemistry: (Be_2.78_Li_0.22_)_Σ=3_Al_2.00_Si_6.00_O_18_·Na_0.22_
Pin_id: L00396
Orientation: Laser parallel to a* (1 0 0). Fiducial mark perpendicular to laser is parallel to c [0 0 1]
Raman shift (cm-1)	intensity
101.732	0
105.908	355.726
110.082	556.668
114.254	1251.02
118.424	1480.33
122.592	1570.11
126.758	1434.24
130.922	1606.9
135.083	1909.04
139.243	1739.18
143.401	1847.44
147.557	1310.11
151.711	1137.13
155.863	1120.59
160.013	949.512
164.161	787.651
168.308	744.371
172.452	796.037
176.594	839.302
180.734	711.438
184.872	683.457
189.008	551.451
193.143	562.01
197.275	455.861
201.405	313.102
205.534	445.158
209.66	371.345
213.784	153.701
217.907	133.949
222.027	232.217
226.146	244.279
230.263	276.643
234.377	345.68
238.49	542.793
242.601	697.217
246.709	797.855
250.816	952.748
254.921	408.016
259.024	29.877
263.125	64.059
267.224	88.352
271.321	89.859
275.416	18.574
279.51	50.059
283.601	133.164
287.69	182.268
291.778	347.002
295.863	545.854
299.947	551.4
304.029	582.473
308.108	783.174
312.186	815.895
316.262	1642.94
320.336	3247.67
324.408	4033.63
328.478	2163.24
332.546	669.18
336.612	194.812
340.677	115.537
344.739	16
348.799	79.518
352.858	61.381
356.915	100.484
360.969	1.316
365.022	3.938
369.073	0.379
373.122	159.648
377.169	399.77
381.215	712.717
385.258	970.477
389.299	2155.74
393.339	4160.17
397.376	7221.01
401.412	6558.99
405.446	3536.13
409.478	1697.18
413.508	1036.58
417.536	873.111
421.562	536.842
425.586	650.738
429.609	466.002
433.629	527.143
437.648	747.924
441.665	989.043
445.68	1290.17
449.693	926.564
453.704	447.996
457.713	391.887
461.721	411.693
465.726	387.473
469.73	266.602
473.731	39.158
477.731	142.863
481.729	237.15
485.725	136.531
489.72	142.066
493.712	175.768
497.703	265.951
501.691	426.354
505.678	389.65
509.663	352.838
513.646	832.607
517.627	1055.64
521.607	1261.75
525.584	1290.16
529.56	1397.22
533.534	1465.74
537.506	1286.88
541.476	1044.48
545.444	740.502
549.41	245.939
553.375	129.77
557.337	264.883
561.298	305.301
565.257	290.939
569.214	256.662
573.17	412.578
577.123	190.539
581.075	90.062
585.024	35.584
588.972	238.094
592.918	75.223
596.863	31.129
600.805	85.527
604.746	53.75
608.685	328.15
612.621	87.762
616.557	460.406
620.49	456.945
624.421	628.826
628.351	164.709
632.279	111.605
636.205	268.211
640.129	454.643
644.051	300.754
647.972	518.646
651.89	801.709
655.807	823.557
659.722	738.338
663.636	1225.34
667.547	1321.4
671.457	2221.04
675.365	4374.37
679.271	9552.94
683.175	21762.4
687.077	26760.3
690.978	14658.5
694.877	6572.15
698.774	3741.27
702.669	1966.84
706.562	1539.15
710.454	953.752
714.344	985.637
718.232	768.301
722.118	717.85
726.002	664.273
729.885	500.854
733.766	257.771
737.645	426.008
741.522	342.199
745.397	478.199
749.271	244.207
753.143	465.719
757.013	524.094
760.881	231.742
764.748	126.436
768.613	317.656
772.476	373.203
776.337	209.6
780.196	284.375
784.054	82.258
787.91	361.586
791.764	255.928
795.616	204.68
799.467	119.016
803.316	232.506
807.163	21.084
811.008	57.441
814.851	15.51
818.693	67.203
822.533	277.568
826.371	170.758
830.208	82.816
834.042	170.285
837.875	96.203
841.706	6.633
845.536	55.02
849.363	297.363
853.189	120.66
857.013	203.959
860.836	469.281
864.656	138.658
868.475	248.164
872.292	307.787
876.108	34.408
879.922	232.711
883.733	187.078
887.544	367.438
891.352	348.592
895.159	236.82
898.964	269.547
902.767	346.078
906.568	534.801
910.368	384.422
914.166	747.352
917.962	649.25
921.757	419.551
925.55	318.66
929.341	481
933.13	374.586
936.918	615.297
940.703	588.43
944.488	208.012
948.27	120.488
952.051	171.207
955.83	376.281
959.607	442.93
963.383	231.07
967.156	200.887
970.928	169.047
974.699	531.531
978.468	422.523
982.234	827.746
986	655.562
989.763	568.883
993.525	1099.55
997.285	2028.85
1001.04	2273.72
1004.8	3097.98
1008.55	3998.75
1012.31	4149.08
1016.06	3813.13
1019.81	3009.66
1023.56	2747.64
1027.31	2313.51
1031.05	1964.15
1034.79	2196.54
1038.53	2608.48
1042.27	2917.87
1046.01	3496.71
1049.75	4475.98
1053.48	6312.17
1057.22	9048.34
1060.95	12949.8
1064.68	16226.6
1068.4	17216.8
1072.13	16134.3
1075.86	13472.3
1079.58	10550.4
1083.3	8319.81
1087.02	6225.98
1090.74	4698.99
1094.45	3716.14
1098.17	3236.78
1101.88	2954.97
1105.59	2490.73
1109.3	2681.27
1113.01	2225.01
1116.71	2084.01
1120.42	2232.13
1124.12	2016.31
1127.82	1643.28
1131.52	1974.5
1135.22	2299.17
1138.91	1792.45
1142.61	1565.34
1146.3	1675.88
1149.99	1155.85
1153.68	971.742
1157.37	668.512
1161.06	503.082
1164.74	377.578
1168.42	355.953
1172.1	106.445
1175.78	452.902
1179.46	82.391
1183.14	340.633
1186.81	293.188
1190.48	122.496
1194.15	192.77
1197.83	64.984
1201.49	648.656
1205.16	299.406
1208.82	365.445
1212.49	222.82
1216.15	86.152
1219.81	271.016
1223.46	247.969
1227.12	109.586
1230.78	267.527
1234.43	138.758
1238.08	128.781
1241.73	391.949
1245.38	429.344
1249.03	383.914
1252.67	300.582
1256.31	231.586
1259.95	133.762
1263.6	214.879
1267.23	253.191
1270.87	173.723
1274.51	1.258
1278.14	177.254
1281.77	132.266
1285.4	99.945
1289.03	154.93
1292.66	2.855
1296.28	174.445
1299.91	115.18
1303.53	144.766
1307.15	193.652
1310.77	142.051
1314.38	470.344
1318	24.812
1321.61	39.836
1325.23	574.043
1328.84	156.082
1332.45	159.801
1336.06	168.844
1339.66	241.34
1343.27	391.609
1346.87	642.652
1350.47	600.133
1354.07	815.688
1357.67	739.047
1361.26	391.281
1364.86	316.082
1368.45	590.848
1372.04	543.938
1375.63	685.977
1379.22	597.082
1382.81	554.195
1386.39	757.73
1389.98	754.711
1393.56	426.953
1397.14	329.578
1400.72	250.383
1404.3	152.02
1407.87	66.211
1411.45	323.539
1415.02	229.273
1418.59	335.836
1422.16	94.746
1425.73	0
