Measurement: Raman, 514 nm, ccw, Raman Data Processed
Mineral: Beryl
Rruff sample: R050121
Ideal chemistry: Be_3_Al_2_Si_6_O_18_
Locality: Cruziero mine, San Jose, Minas Gerais, Brazil
Source: Carlos and Paulo Vasconcelos
Description: Light blue fragment, variety aquamarine
Measured chemistry: (Be_0.96_Li_0.04_)_3_Al_2.00_Si_6.00_O_18_Î‡Na_0.09_Mg_0.03_
Pin_id: L00500
Orientation: Laser parallel to -c* (0 0 -1). Fiducial mark perpendicular to laser is parallel to a [1 0 0]
Raman shift (cm-1)	intensity
101.732	0
105.908	3.291
110.082	77.486
114.254	362.206
118.424	551.379
122.592	441.2
126.758	415.506
130.922	225.051
135.083	443.058
139.243	301.646
143.401	325.321
147.557	283.47
151.711	210.304
155.863	342.585
160.013	292.182
164.161	425.482
168.308	307.101
172.452	268.445
176.594	124.889
180.734	82.828
184.872	298.163
189.008	181.689
193.143	192.107
197.275	130.403
201.405	173.631
205.534	151.111
209.66	91.829
213.784	73.251
217.907	56.175
222.027	28.932
226.146	44.652
230.263	121.556
234.377	49.857
238.49	168.313
242.601	205.901
246.709	129.067
250.816	247.648
254.921	298.153
259.024	206.523
263.125	232.753
267.224	334.188
271.321	463.509
275.416	495.617
279.51	559.124
283.601	874.56
287.69	1360.76
291.778	1211.82
295.863	839.197
299.947	623.838
304.029	772.695
308.108	1169.4
312.186	1812.35
316.262	3015.24
320.336	4426.55
324.408	3254.29
328.478	1047.99
332.546	161.787
336.612	227.799
340.677	191.269
344.739	101.134
348.799	100.673
352.858	166.576
356.915	237.028
360.969	227.055
365.022	375.428
369.073	234.45
373.122	337.377
377.169	523.811
381.215	1002.97
385.258	1955.96
389.299	4906.04
393.339	10267.4
397.376	11612
401.412	6287.11
405.446	3138.28
409.478	2112.3
413.508	1892.17
417.536	2406.9
421.562	2749.47
425.586	1987.89
429.609	979.156
433.629	880.295
437.648	1359.29
441.665	1513.19
445.68	1205.1
449.693	597.172
453.704	201.799
457.713	164.934
461.721	251.914
465.726	325.699
469.73	185.289
473.731	39.676
477.731	163.988
481.729	157.375
485.725	146.133
489.72	29.793
493.712	207.301
497.703	93.686
501.691	63.834
505.678	8.66
509.663	35.41
513.646	103.994
517.627	111.268
521.607	66.172
525.584	62.816
529.56	130.166
533.534	151.275
537.506	106.881
541.476	26.416
545.444	94.986
549.41	29.283
553.375	16.955
557.337	268.34
561.298	559.729
565.257	666.441
569.214	766.178
573.17	1094.71
577.123	1097.03
581.075	1196.15
585.024	1000.05
588.972	785.742
592.918	296.23
596.863	247.506
600.805	227.578
604.746	224.512
608.685	44.373
612.621	18.305
616.557	257.914
620.49	354.57
624.421	939.9
628.351	272.688
632.279	69.904
636.205	437.115
640.129	363.443
644.051	177.273
647.972	312.197
651.89	562.346
655.807	368.107
659.722	692.322
663.636	994.939
667.547	1150.7
671.457	2107.17
675.365	4941.02
679.271	12849.3
683.175	30119.2
687.077	25926.3
690.978	11629.6
694.877	5366.35
698.774	3440.44
702.669	1943.9
706.562	1548.53
710.454	865.312
714.344	909.418
718.232	978.877
722.118	712.236
726.002	471.729
729.885	570.697
733.766	299.789
737.645	501.799
741.522	545.729
745.397	539.586
749.271	272.371
753.143	337.09
757.013	524.695
760.881	306.062
764.748	641.24
768.613	926.787
772.476	903.752
776.337	547.168
780.196	387.549
784.054	139.902
787.91	270.656
791.764	129.398
795.616	250.266
799.467	55.439
803.316	544.609
807.163	215.414
811.008	171.131
814.851	64.867
818.693	230.568
822.533	44.803
826.371	195.316
830.208	87.717
834.042	31.818
837.875	1.326
841.706	119.234
845.536	58.842
849.363	262.607
853.189	145.561
857.013	18.887
860.836	450.582
864.656	176.375
868.475	364.262
872.292	144.213
876.108	3.578
879.922	23.178
883.733	201.318
887.544	434.906
891.352	324.574
895.159	296.305
898.964	482.102
902.767	729.945
906.568	528.1
910.368	800.785
914.166	1083.7
917.962	897.795
921.757	582.068
925.55	519.412
929.341	544.801
933.13	526.23
936.918	771.57
940.703	500.777
944.488	82.34
948.27	256.945
952.051	209.051
955.83	492.896
959.607	314.068
963.383	358.455
967.156	365.432
970.928	29.762
974.699	247.156
978.468	464.57
982.234	714.766
986	749.818
989.763	674.309
993.525	1034.55
997.285	1924.89
1001.04	1972.42
1004.8	1725.83
1008.55	1624.56
1012.31	1279.18
1016.06	705.137
1019.81	709.271
1023.56	801.191
1027.31	625.92
1031.05	387.094
1034.79	724.721
1038.53	882.512
1042.27	1005.15
1046.01	736.209
1049.75	444.529
1053.48	1139.53
1057.22	1799.44
1060.95	3034.25
1064.68	4597.95
1068.4	5209.93
1072.13	4694.38
1075.86	3187.67
1079.58	2420.79
1083.3	2113.72
1087.02	1595.46
1090.74	1306
1094.45	1020.32
1098.17	581.414
1101.88	666.271
1105.59	249.967
1109.3	416.594
1113.01	161.273
1116.71	159.117
1120.42	334.535
1124.12	674.477
1127.82	65.344
1131.52	278.711
1135.22	538.973
1138.91	139.453
1142.61	6.57
1146.3	224.082
1149.99	95.488
1153.68	79.109
1157.37	8.672
1161.06	230
1164.74	288.121
1168.42	156.676
1172.1	260.605
1175.78	231.434
1179.46	132.383
1183.14	152.668
1186.81	317.289
1190.48	312.863
1194.15	370.297
1197.83	434.543
1201.49	571.086
1205.16	628.855
1208.82	617.352
1212.49	381.422
1216.15	551
1219.81	690.977
1223.46	810.129
1227.12	941.391
1230.78	1138.86
1234.43	1882.54
1238.08	2297.3
1241.73	2660.14
1245.38	2079.03
1249.03	1572.35
1252.67	1015.7
1256.31	388.562
1259.95	224.477
1263.6	397.59
1267.23	81.57
1270.87	282.707
1274.51	86.016
1278.14	526.273
1281.77	208.473
1285.4	338.477
1289.03	104.609
1292.66	20.754
1296.28	108
1299.91	116.621
1303.53	45.18
1307.15	129.887
1310.77	88.004
1314.38	455.477
1318	1.77
1321.61	4.898
1325.23	576.051
1328.84	313.711
1332.45	176.188
1336.06	245.598
1339.66	689.625
1343.27	266.988
1346.87	567.719
1350.47	807.926
1354.07	798.195
1357.67	851.789
1361.26	654.039
1364.86	553.922
1368.45	756.637
1372.04	497.871
1375.63	467.168
1379.22	246.625
1382.81	366.426
1386.39	416.988
1389.98	316.723
1393.56	394.172
1397.14	37.328
1400.72	218.422
1404.3	303.48
1407.87	144.594
1411.45	425.469
1415.02	357.43
