Measurement: Raman, 514 nm, ccw, Raman Data Processed
Mineral: Beryl
Rruff sample: R060943
Ideal chemistry: Be_3_Al_2_Si_6_O_18_
Locality: Xinjiang, China
Source: Lawrence W. Snee
Description: Green hexagonal prisms, variety emerald
Measured chemistry: (Be_2.96_Li_0.04_)_Σ=3_(Al_1.64_Mg_0.21_V^3+^_0.06_Fe^3+^_0.04_Sc^3+^_0.03_Cr^3+^_0.02_)_Σ=2_Si_6.00_O_18_·Na_0.25_
Pin_id: L00265
Orientation: Laser parallel to a* (1 0 0). Fiducial mark perpendicular to laser is parallel to -c [0 0 -1]
Raman shift (cm-1)	intensity
167.334	0
172.265	3.65234
177.193	155.44
182.117	324.004
187.039	352.497
191.958	474.345
196.874	399.509
201.787	500.177
206.696	241.925
211.603	98.2451
216.506	467.29
221.407	686.852
226.304	783.256
231.199	899.485
236.091	1108.32
240.979	1273.11
245.864	1684.52
250.747	1698.37
255.626	562.977
260.503	153.051
265.376	182.095
270.247	265.204
275.114	150.583
279.979	120.592
284.84	531.217
289.699	976.665
294.554	886.855
299.407	962.315
304.257	993.113
309.103	1512.34
313.947	2970.86
318.788	5980.06
323.626	10959.6
328.461	5394.63
333.292	1109.67
338.121	248.139
342.947	68.9287
347.771	31.7568
352.591	40.1196
357.408	43.9863
362.222	84.8506
367.034	139.408
371.842	431.917
376.648	1010.86
381.45	1909.35
386.25	3441.41
391.047	6770.07
395.841	13050.3
400.632	11598.4
405.42	4867.49
410.205	2523.38
414.988	1777.29
419.767	1402.65
424.544	1001.92
429.318	996.918
434.089	1312.7
438.857	2015.22
443.622	2504.5
448.384	1202.55
453.143	605.377
457.9	439.972
462.654	440.133
467.405	261.067
472.153	355.905
476.898	342.501
481.64	380.882
486.38	461.127
491.116	462.692
495.85	671.835
500.581	721.268
505.309	874.976
510.035	1328.91
514.757	2028.1
519.477	3421.56
524.194	4204.81
528.908	2782.84
533.62	1312.69
538.328	476.485
543.034	50.3208
547.737	71.0098
552.437	198.821
557.134	12.7651
561.829	249.152
566.521	179.625
571.21	400.171
575.896	560.985
580.58	608.795
585.261	668.559
589.939	588.29
594.614	658.027
599.286	520.793
603.956	552.532
608.623	593.073
613.287	1153.32
617.949	1706.02
622.608	1323.24
627.264	502.467
631.917	299.047
636.568	401.914
641.215	530.024
645.861	525.334
650.503	574.651
655.143	859.899
659.78	1255.02
664.414	2218.05
669.046	3895.91
673.674	7843.39
678.301	18428.6
682.924	42374.3
687.545	50958.2
692.163	21649.7
696.778	8852.14
701.391	4788.15
706.001	2974.3
710.609	1890.35
715.213	1243.52
719.815	888.206
724.415	730.592
729.011	492.584
733.606	382.094
738.197	362.054
742.786	428.832
747.372	441.278
751.955	485.456
756.536	732.359
761.114	937.972
765.69	902.293
770.262	1014.32
774.833	802.03
779.4	655.434
783.965	430.521
788.528	322.29
793.087	292.673
797.645	112.876
802.199	177.697
806.751	161.209
811.3	52.312
815.847	7.75098
820.391	15.8218
824.933	20.2612
829.471	56.7075
834.008	14.2041
838.541	49.1977
843.073	10.4111
847.601	60.9072
852.127	24.2378
856.65	50.8223
861.171	20.9995
865.69	9.58057
870.205	48.7007
874.718	10.3193
879.229	48.731
883.737	35.626
888.242	140.904
892.745	180.015
897.246	383.546
901.743	518.995
906.239	815.382
910.731	821.725
915.221	1204.04
919.709	1162.36
924.194	979.697
928.677	703.069
933.157	489.45
937.634	400.479
942.109	234.549
946.582	42.2353
951.052	57.0151
955.519	37.9346
959.984	58.2685
964.447	30.9175
968.906	77.9238
973.364	142.594
977.819	238.26
982.271	460.537
986.721	975.402
991.169	1746.53
995.614	2908.4
1000.06	4236.75
1004.5	5368.78
1008.93	5677.32
1013.37	5147.83
1017.8	4002.85
1022.23	3374.48
1026.66	2784.84
1031.09	2601.14
1035.51	2768.04
1039.93	3456.7
1044.35	4839.07
1048.76	7133.35
1053.17	11636.4
1057.58	19736.1
1061.99	32351.5
1066.4	41758.7
1070.8	37683.5
1075.2	28043
1079.6	18300.2
1084	12440.3
1088.39	8806.86
1092.78	6552.29
1097.17	5275.65
1101.56	4334.37
1105.94	3781.93
1110.32	3212.29
1114.7	3049.01
1119.08	2889.16
1123.45	3298.1
1127.82	3770.14
1132.19	3820.87
1136.56	3124.75
1140.92	2220.58
1145.29	1518.01
1149.65	984.755
1154	445.193
1158.36	325.699
1162.71	292.105
1167.06	153.919
1171.41	78.0102
1175.76	183.91
1180.1	149.986
1184.44	269.859
1188.78	262.956
1193.11	121.234
1197.45	123.458
1201.78	170.371
1206.11	206.242
1210.43	155.535
1214.76	381.241
1219.08	437.572
1223.4	687.585
1227.72	526.9
1232.03	472.237
1236.35	254.66
1240.66	187.861
1244.96	123.293
1249.27	74.835
1253.57	8.6333
1257.88	32.2017
1262.17	59.0278
1266.47	29.8691
1270.76	44.8369
1275.06	47.0684
1279.35	7.45264
1283.63	142.902
1287.92	73.2231
1292.2	49.6328
1296.48	9.07129
1300.76	15.1851
1305.04	47.625
1309.31	18.4536
1313.58	73.6172
1317.85	56.0381
1322.12	76.6538
1326.38	67.1782
1330.64	59.3262
1334.9	199.172
1339.16	113.718
1343.41	73.0723
1347.67	119.005
1351.92	164
1356.17	197.017
1360.41	259.728
1364.66	89.0352
1368.9	127.89
1373.14	304.354
1377.38	261.776
1381.61	866.144
1385.84	2098.06
1390.08	294.08
1394.3	181.393
1398.53	101.864
1402.75	203.748
1406.97	189.217
1411.19	194.174
1415.41	53.1533
1419.63	161.357
1423.84	206.651
1428.05	178.085
1432.26	117.625
1436.46	104.012
1440.67	103.744
1444.87	147.905
1449.07	239.477
1453.27	108.959
1457.46	108.548
1461.66	232.908
1465.85	118.703
1470.04	158.391
1474.22	156.408
1478.41	109.89
1482.59	118.879
1486.77	120.489
1490.95	130.54
1495.12	121.129
1499.3	88.9116
1503.47	70.6352
1507.63	207.843
1511.8	24.3589
1515.97	119.263
1520.13	154.935
1524.29	77.6362
1528.45	56.3018
1532.61	43.4722
1536.76	74.8897
1540.91	131.71
1545.06	127.626
1549.21	89.8359
1553.35	94.5337
1557.5	3.97412
1561.64	116.876
