Measurement: Raman, 514 nm, ccw, Raman Data Processed
Mineral: Beryl
Rruff sample: R040002
Ideal chemistry: Be_3_Al_2_Si_6_O_18_
Locality: Usakos, Namibia
Source: University of Arizona Mineral Museum
Description: Light blue hexagonal prism, variety aquamarine
Measured chemistry: (Be_0.97_Li_0.03_)_3_(Al_0.97_Fe^3+^_0.03_)_2_Si_6_O_18_Î‡Na_0.01_
Pin_id: M00004
Orientation: Laser parallel to -c* (0 0 -1). Fiducial mark perpendicular to laser is parallel to a [1 0 0]
Raman shift (cm-1)	intensity
98.947	0
103.124	0.839
107.3	182.867
111.473	336.897
115.644	780.119
119.813	820.445
123.981	333.69
128.146	122.223
132.309	232.488
136.47	256.194
140.63	436.641
144.787	572.297
148.942	257.999
153.096	22.449
157.247	18.354
161.396	104.387
165.544	124.267
169.689	105.702
173.833	214.047
177.974	284.11
182.114	657.912
186.251	696.404
190.387	310.227
194.52	131.559
198.652	219.194
202.782	182.431
206.909	60.858
211.035	41.277
215.159	4.151
219.281	26.702
223.4	31.134
227.518	16.115
231.634	8.325
235.748	164.997
239.86	232.003
243.97	154.278
248.079	208.432
252.185	153.999
256.289	164.276
260.391	190.265
264.492	234.24
268.59	206.121
272.687	355.608
276.781	473.396
280.874	692.4
284.964	959.523
289.053	1503.93
293.14	1039.36
297.225	866.494
301.308	814.376
305.389	1138.95
309.468	1706.22
313.545	3310.76
317.62	6390.26
321.693	8918.78
325.765	3486.89
329.834	767.385
333.902	300.632
337.967	163.065
342.031	158.851
346.093	158.201
350.153	367.393
354.21	313.226
358.267	316.287
362.321	151.863
366.373	274.466
370.423	160.599
374.471	180.258
378.518	245.783
382.563	792.496
386.605	2557
390.646	7713.59
394.685	16596.2
398.722	11784
402.757	5034.4
406.79	2298.49
410.821	1769.85
414.851	2060.72
418.878	3806.6
422.904	4195.15
426.927	2123.2
430.949	1010.73
434.969	1134.16
438.987	2302.31
443.003	4059.26
447.018	2218.99
451.03	900.459
455.041	495.643
459.049	209.558
463.056	295.2
467.061	204.576
471.064	114.663
475.065	191.448
479.064	131.953
483.062	126.266
487.057	238.427
491.051	191.258
495.043	233.189
499.032	312.28
503.02	180.682
507.007	294.786
510.991	93.431
514.973	200.184
518.954	218.961
522.933	160.234
526.91	266.14
530.885	108.34
534.858	69.693
538.829	33.37
542.799	174.542
546.766	165.443
550.732	14.256
554.696	116.799
558.658	328.972
562.618	549.507
566.576	367.902
570.533	622.687
574.488	996.394
578.44	1741.21
582.391	2228.09
586.341	1910.04
590.288	1347
594.233	1287.1
598.177	1309.6
602.119	1233.45
606.059	1026.3
609.997	781.155
613.933	916.789
617.868	853.746
621.801	1299.73
625.731	1003.67
629.66	707.425
633.588	563.223
637.513	488.817
641.437	642.595
645.358	958.803
649.278	880.202
653.196	860.694
657.113	714.364
661.027	789.37
664.94	1003.9
668.851	2050.61
672.76	3886.15
676.667	8845.94
680.572	25042.5
684.476	41161.5
688.378	20539
692.278	8344.01
696.176	4618.07
700.072	2691.91
703.967	1878.46
707.86	1031.62
711.751	748.034
715.64	486.247
719.527	224.828
723.413	3.835
727.297	49.718
731.179	17.515
735.059	47.22
738.937	64.807
742.814	226.27
746.689	136.673
750.562	264.021
754.433	76.204
758.303	57.867
762.17	350.876
766.036	1057.57
769.901	2068.23
773.763	1546.85
777.624	746.447
781.482	196.02
785.339	245.614
789.195	80.305
793.048	18.111
796.9	30.869
800.75	2.546
804.598	58.733
808.445	21.852
812.289	34.479
816.132	67.335
819.973	61.543
823.813	39.669
827.65	54.068
831.486	21.178
835.32	102.591
839.152	205.404
842.983	83.37
846.812	265.549
850.639	422.97
854.464	861.824
858.288	1103.3
862.11	1009.35
865.93	781.783
869.748	378.506
873.564	220.447
877.379	347.82
881.192	183.605
885.004	192.871
888.813	149.068
892.621	300.934
896.427	312.779
900.232	474.082
904.034	540.035
907.835	789.129
911.634	899.789
915.432	796.67
919.227	635.973
923.021	512.246
926.813	444.48
930.604	407.672
934.393	423.811
938.18	259.896
941.965	275.652
945.749	231.037
949.53	132.402
953.311	88.361
957.089	62.387
960.866	41.295
964.641	179.523
968.414	213.053
972.185	345.223
975.955	258.127
979.723	284.23
983.49	314.631
987.254	514.809
991.017	845.354
994.779	1395.26
998.538	1922.14
1002.3	3315.88
1006.05	2666.3
1009.81	1925.73
1013.56	1523.4
1017.31	1275.55
1021.06	1279.25
1024.81	961.467
1028.55	1117.51
1032.3	754.131
1036.04	803.236
1039.78	1076.74
1043.52	1034.69
1047.26	919.172
1050.99	1353.21
1054.73	1416.63
1058.46	1963.67
1062.19	3444.69
1065.92	5218.29
1069.65	6069.42
1073.37	4460.36
1077.1	2943.84
1080.82	2404.95
1084.54	1916.71
1088.26	1437.06
1091.97	1081.92
1095.69	849.264
1099.4	872.201
1103.12	625.711
1106.83	534.902
1110.54	613.25
1114.24	473.996
1117.95	335.367
1121.65	499.418
1125.35	378.195
1129.06	207.398
1132.75	162.064
1136.45	5.18
1140.15	13.6
1143.84	0.016
1147.53	18.135
1151.22	54.701
1154.91	27.246
1158.6	9.879
1162.28	32.613
1165.97	45.943
1169.65	78.094
1173.33	26.781
1177.01	229.146
1180.69	199.637
1184.36	292.84
1188.04	163.842
1191.71	215.854
1195.38	212.629
1199.05	375.258
1202.71	81.896
1206.38	358.576
1210.04	292.016
1213.71	436.369
1217.37	453.99
1221.03	630.564
1224.68	1210.14
1228.34	1467.92
1231.99	1406.57
1235.65	1613.39
1239.3	2587.22
1242.95	4304.2
1246.59	4858.42
1250.24	2771.27
1253.88	1369.1
1257.53	652.59
1261.17	629.105
1264.81	606.9
1268.45	533.27
1272.08	573.115
1275.72	628.83
1279.35	492.879
1282.98	280.01
1286.61	242.492
1290.24	257.201
1293.87	354.619
1297.49	169.506
1301.11	113.48
1304.73	46.645
1308.36	39.572
1311.97	366.473
1315.59	287.273
1319.2	486.539
1322.82	338.422
1326.43	235.521
1330.04	143.746
1333.65	141.09
1337.26	23.549
1340.86	110.135
1344.47	147.85
1348.07	260.582
1351.67	188.119
1355.27	15.01
1358.87	219.215
1362.46	249.297
1366.06	172.65
1369.65	164.928
1373.24	269.584
1376.83	92.674
1380.42	153.453
1384	356.703
1387.59	318.602
1391.17	102.109
1394.75	168.162
1398.33	85.879
1401.91	34.527
1405.49	240.775
1409.06	270.922
1412.64	8.004
1416.21	260.219
1419.78	80.562
1423.35	68.148
1426.91	156.152
1430.48	0.379
