Measurement: Raman, 514 nm, ccw, Raman Data Processed
Mineral: Beryl
Rruff sample: R060942
Ideal chemistry: Be_3_Al_2_Si_6_O_18_
Locality: Mingore mine, Swat Valley, Pakistan
Source: Lawrence W. Snee
Description: Green hexagonal prisms, variety emerald
Measured chemistry: (Be_2.94_Li_0.06_)_Σ=3_(Al_1.55_Mg_0.37_Fe^3+^_0.06_Cr^3+^_0.02_)_Σ=2_Si_6.00_O_18_·Na_0.42_; Be and Li not measured but estimated by stoichiometry
Pin_id: L01655
Orientation: Laser parallel to c* (0 0 1). Fiducial mark perpendicular to laser is parallel to [-1 -1 0]
Raman shift (cm-1)	intensity
130.439	0
135.356	32.2861
140.271	1065.04
145.184	589.938
150.094	625.919
155.002	366.952
159.908	44.2617
164.811	751.865
169.711	703.317
174.61	630.348
179.505	948.758
184.399	818.402
189.29	1024.74
194.178	1292.5
199.064	1750.09
203.948	1658.17
208.829	13.5742
213.708	189.485
218.585	18.9619
223.459	36.7441
228.33	208.847
233.199	174.273
238.066	479.203
242.93	641.746
247.792	523.595
252.651	571.416
257.508	1267.18
262.363	1096.09
267.215	1931.91
272.064	1210.65
276.912	1018.64
281.756	1082.52
286.598	1206.41
291.438	1215.76
296.276	786.265
301.111	316.5
305.943	344.988
310.773	524.222
315.601	1081.31
320.426	1841.66
325.248	2064.72
330.068	948.718
334.886	106.108
339.701	69.2207
344.514	32.2725
349.324	6.86328
354.132	0.322266
358.938	6.33008
363.741	110.818
368.541	36.4502
373.339	382.153
378.135	607.813
382.928	1588.5
387.718	3445.42
392.506	8291.89
397.292	14867.4
402.075	13479.7
406.856	7668.53
411.634	5244.97
416.41	3820.03
421.183	2664.71
425.954	2118.72
430.722	1991.98
435.488	2165.54
440.251	2250.41
445.012	1390.84
449.77	693.392
454.526	598.998
459.28	573.464
464.03	306.386
468.779	334.754
473.525	530.584
478.268	457.065
483.009	408.301
487.747	542.042
492.483	379.378
497.217	269.529
501.948	463.531
506.676	459.541
511.402	462.548
516.125	704.383
520.846	665.94
525.565	519.925
530.281	187.787
534.994	107.558
539.705	67.2842
544.413	178.326
549.119	338.85
553.822	1014.74
558.523	1946.19
563.222	2472.9
567.917	2315.68
572.611	2147.5
577.302	2045.4
581.99	1905.44
586.676	1520.59
591.359	1456.12
596.04	1256.36
600.718	893.863
605.394	705.94
610.067	636.185
614.737	489.092
619.406	87.0264
624.071	111.274
628.734	111.926
633.395	25.3252
638.053	27.8193
642.708	24.4824
647.361	39.3711
652.012	115.54
656.66	417.843
661.305	916.237
665.948	1619.05
670.588	3406.5
675.226	7715.19
679.861	19819.3
684.494	43132.5
689.124	45666.7
693.752	21117.1
698.377	9532.25
702.999	5663.07
707.619	3239.9
712.237	2681.61
716.852	1737.33
721.464	1281.38
726.074	1092.05
730.681	839.827
735.286	914.981
739.888	1037.35
744.488	938.192
749.085	1043.35
753.68	706.739
758.272	638
762.861	526.701
767.448	546.112
772.033	437.905
776.614	373.42
781.194	290.483
785.77	272.36
790.345	380.101
794.916	350.406
799.485	145.465
804.052	189.892
808.616	75.8955
813.177	53.3711
817.736	52.5557
822.292	168.871
826.846	98.5791
831.397	101.645
835.945	78.7881
840.491	113.367
845.035	20.4424
849.576	28.9912
854.114	66.0264
858.65	12.2979
863.183	26.1035
867.713	68.4951
872.241	24.4707
876.767	70.9111
881.29	29.7646
885.81	14.9365
890.328	174.233
894.843	281.32
899.356	359.256
903.866	671.773
908.373	698.048
912.878	777.918
917.38	673.735
921.88	609.714
926.377	559.219
930.872	489.037
935.364	394.563
939.853	628.809
944.34	263.157
948.824	216.501
953.306	22.6787
957.785	125.267
962.261	89.9883
966.735	221.951
971.207	194.188
975.675	370.023
980.141	476.144
984.605	888.795
989.066	1849.65
993.524	2656.41
997.98	3416.65
1002.43	3210.31
1006.88	2595.73
1011.33	2128.36
1015.78	1581.89
1020.22	1369.96
1024.66	1158.81
1029.1	995.16
1033.53	824.247
1037.97	764.998
1042.4	875.432
1046.82	966.539
1051.25	1520.29
1055.67	2400.7
1060.09	4160.78
1064.51	6230.56
1068.92	7614
1073.33	7293.11
1077.74	5860.91
1082.15	4565.44
1086.55	3782.84
1090.95	3285.45
1095.35	2797.14
1099.75	2425.1
1104.14	2161.22
1108.53	2016.24
1112.92	1789
1117.31	2190.55
1121.69	2808.91
1126.07	2722.16
1130.45	1869.49
1134.82	1354.56
1139.19	1141.54
1143.57	863.211
1147.93	782.624
1152.3	675.136
1156.66	462.739
1161.02	432.356
1165.38	464.257
1169.73	480.075
1174.08	867.132
1178.43	895.279
1182.78	1235
1187.12	1427.6
1191.46	1496.66
1195.8	1715.69
1200.14	1781.63
1204.47	1987.77
1208.8	2318.21
1213.13	2390.52
1217.46	1962.36
1221.78	1352.66
1226.1	896.38
1230.42	636.211
1234.73	509.764
1239.04	256.8
1243.35	162.149
1247.66	34.0645
1251.97	74.1699
1256.27	33.2539
1260.57	0.65625
1264.86	83.6455
1269.16	30.4297
1273.45	41.1709
1277.74	46.8955
1282.03	54.9834
1286.31	46.7588
1290.59	0.577148
1294.87	99.4316
1299.14	44.9092
1303.42	0.795898
1307.69	68.6328
1311.95	51.0889
1316.22	38.2188
1320.48	190.891
1324.74	123.375
1329	196.408
1333.26	100.215
1337.51	15.1045
1341.76	220.297
1346	201.961
1350.25	184.395
1354.49	154.925
1358.73	149.711
1362.96	245.851
1367.2	141.418
1371.43	95.9766
1375.66	224.934
1379.88	288.371
1384.11	630.032
1388.33	300.882
1392.54	120.111
1396.76	57.419
1400.97	95.0977
1405.18	103.591
1409.39	160.247
1413.59	20.9092
1417.8	121.152
1421.99	12.1631
1426.19	179.059
1430.38	72.1973
1434.58	199.793
1438.77	139.596
1442.95	315.608
1447.13	237.523
1451.32	196.884
1455.49	197.554
1459.67	302.603
1463.84	144.845
1468.01	215.431
1472.18	241.814
1476.35	61.7188
1480.51	76.0947
1484.67	200.144
1488.83	78.7266
1492.98	251.343
1497.13	175.239
1501.28	178.668
1505.43	227.921
1509.57	242.237
1513.71	261.042
1517.85	127.231
1521.99	293.602
1526.12	125.82
1530.25	158.451
1534.38	159.448
1538.5	151.477
1542.62	91.8848
1546.74	98.2109
1550.86	179.61
1554.98	510.397
1559.09	53.2158
1563.2	59.2783
1567.31	181.103
1571.41	0
