Measurement: Raman, 514 nm, ccw, Raman Data Processed
Mineral: Beryl
Rruff sample: R050120
Ideal chemistry: Be_3_Al_2_Si_6_O_18_
Locality: Cruziero mine, San Jose, Minas Gerais, Brazil
Source: Carlos and Paulo Vasconcelos
Description: Yellow gemmy fragment
Measured chemistry: (Be_2.76_Li_0.24_)_Σ=3_Al_2.00_Si_6.00_O_18_·Na_0.24_
Pin_id: L00520
Orientation: Laser parallel to a* (1 0 0). Fiducial mark perpendicular to laser is parallel to c [0 0 1]
Raman shift (cm-1)	intensity
94.768	0
98.947	67.797
103.124	198.835
107.3	315.769
111.473	859.874
115.644	1523.85
119.813	1454.13
123.981	1202.36
128.146	844.449
132.309	929.209
136.47	662.756
140.63	704.377
144.787	453.434
148.942	387.354
153.096	394.15
157.247	554.541
161.396	499.392
165.544	443.54
169.689	230.217
173.833	449.064
177.974	393.023
182.114	327.106
186.251	304.439
190.387	260.269
194.52	81.697
198.652	93.756
202.782	19.551
206.909	49.229
211.035	118.29
215.159	24.267
219.281	85.607
223.4	50.653
227.518	108.929
231.634	267.59
235.748	223.194
239.86	153.301
243.97	262.104
248.079	210.771
252.185	121.4
256.289	34.595
260.391	139.679
264.492	87.12
268.59	97.881
272.687	77.667
276.781	139.897
280.874	39.227
284.964	152.438
289.053	140.383
293.14	468.919
297.225	390.963
301.308	590.457
305.389	774.354
309.468	1117.62
313.545	2252.21
317.62	4333.69
321.693	7725.54
325.765	8137.88
329.834	3642.21
333.902	1439.77
337.967	503.538
342.031	81.497
346.093	120.406
350.153	17.541
354.21	36.131
358.267	5.28
362.321	10.626
366.373	138.899
370.423	28.189
374.471	165.937
378.518	228.524
382.563	361.838
386.605	1287.77
390.646	2368.4
394.685	5061.81
398.722	8699.97
402.757	7104.59
406.79	3125.43
410.821	1498.88
414.851	936.065
418.878	475.231
422.904	167.404
426.927	339.719
430.949	205.143
434.969	273.638
438.987	371.181
443.003	553.775
447.018	488.525
451.03	446.367
455.041	463.301
459.049	274.234
463.056	369.229
467.061	257.229
471.064	161.238
475.065	93.252
479.064	110.254
483.062	134.213
487.057	91.09
491.051	183.891
495.043	127.779
499.032	205.617
503.02	44.35
507.007	7.68
510.991	101.059
514.973	60.459
518.954	0.311
522.933	62.953
526.91	87.908
530.885	46.697
534.858	141.062
538.829	197.631
542.799	12.967
546.766	5.1
550.732	239.789
554.696	0.092
558.658	60.953
562.618	195.574
566.576	65.186
570.533	203.721
574.488	470.102
578.44	312.314
582.391	438.363
586.341	317.246
590.288	348.957
594.233	347.492
598.177	349.852
602.119	182.918
606.059	367.469
609.997	306.41
613.933	693.193
617.868	1088.6
621.801	1207.17
625.731	650.162
629.66	531.51
633.588	663.861
637.513	380.611
641.437	856.182
645.358	945.861
649.278	962.176
653.196	1082.23
657.113	1268.46
661.027	1548.5
664.94	1680.66
668.851	2867.33
672.76	4713.29
676.667	8521.41
680.572	18119.7
684.476	35860.9
688.378	33584.5
692.278	15336.9
696.176	7758.31
700.072	4301.88
703.967	2643.93
707.86	1572.37
711.751	1381.71
715.64	712.455
719.527	612.977
723.413	515.213
727.297	326.932
731.179	507.529
735.059	350.939
738.937	374.195
742.814	388.486
746.689	179.496
750.562	248.32
754.433	209.016
758.303	108.004
762.17	86.971
766.036	169.088
769.901	205.541
773.763	125.146
777.624	164.795
781.482	43.363
785.339	206.189
789.195	66.395
793.048	22.783
796.9	85.875
800.75	33.906
804.598	216.24
808.445	76.123
812.289	107.803
816.132	7.25
819.973	89.064
823.813	209.838
827.65	132.641
831.486	44.047
835.32	193.621
839.152	11.246
842.983	212.881
846.812	151.537
850.639	193.322
854.464	284.984
858.288	298.896
862.11	110.941
865.93	297.211
869.748	155.615
873.564	212.311
877.379	160.254
881.192	208.285
885.004	125.402
888.813	77.602
892.621	13.105
896.427	1.717
900.232	129.775
904.034	38.385
907.835	327.186
911.634	382.346
915.432	274.758
919.227	235.857
923.021	430.062
926.813	82.26
930.604	364.162
934.393	474.516
938.18	290.322
941.965	192.303
945.749	385.711
949.53	239.854
953.311	85.193
957.089	282.568
960.866	32.373
964.641	55.414
968.414	175.896
972.185	240.863
975.955	153.145
979.723	109.855
983.49	11.002
987.254	241.631
991.017	503.502
994.779	596.621
998.538	808
1002.3	1551.67
1006.05	1633.7
1009.81	1725.13
1013.56	1760.94
1017.31	2123.1
1021.06	2193.61
1024.81	1850.38
1028.55	2574.4
1032.3	2779.95
1036.04	3206.4
1039.78	4181.08
1043.52	5138.26
1047.26	6424.7
1050.99	9381.57
1054.73	12900.7
1058.46	18191.2
1062.19	24461.9
1065.92	28328.5
1069.65	28747.4
1073.37	26330
1077.1	21521.8
1080.82	17213
1084.54	12942.1
1088.26	10080.4
1091.97	7948.21
1095.69	6642.44
1099.4	6269.23
1103.12	5502.63
1106.83	5271.84
1110.54	4983.53
1114.24	4765.2
1117.95	4477.66
1121.65	4517.96
1125.35	3842.31
1129.06	4085.13
1132.75	3343.63
1136.45	3308.47
1140.15	3565.89
1143.84	3574.53
1147.53	3197.28
1151.22	2665.27
1154.91	2335.48
1158.6	1718.85
1162.28	1281.23
1165.97	454.607
1169.65	909.027
1173.33	554.152
1177.01	0.404
1180.69	140.871
1184.36	127.789
1188.04	23.959
1191.71	321.154
1195.38	97.135
1199.05	369.006
1202.71	144.457
1206.38	202.227
1210.04	80.242
1213.71	5.166
1217.37	95.449
1221.03	97.193
1224.68	113.098
1228.34	31.854
1231.99	86.01
1235.65	49.824
1239.3	216.619
1242.95	151.449
1246.59	359.248
1250.24	182.988
1253.88	353.297
1257.53	354.396
1261.17	140.27
1264.81	28.363
1268.45	134.426
1272.08	32.137
1275.72	180.781
1279.35	247.516
1282.98	77.332
1286.61	37.43
1290.24	157.242
1293.87	2.598
1297.49	173.09
1301.11	171.188
1304.73	57.242
1308.36	75.371
1311.97	180.578
1315.59	154.598
1319.2	261.297
1322.82	343.438
1326.43	426.039
1330.04	222.219
1333.65	87.895
1337.26	85.516
1340.86	204.891
1344.47	225.848
1348.07	259.57
1351.67	293.5
1355.27	145.535
1358.87	496.953
1362.46	603.781
1366.06	416.984
1369.65	168.523
1373.24	496.047
1376.83	263.762
1380.42	420.719
1384	301.25
1387.59	401.848
1391.17	64.168
1394.75	188.766
1398.33	251.609
1401.91	229.031
1405.49	340.199
1409.06	437.008
1412.64	18.895
1416.21	282.773
1419.78	7.977
1423.35	114.867
1426.91	61.125
