Measurement: Raman, 514 nm, ccw, Raman Data Processed
Mineral: Beryl
Rruff sample: R050065
Ideal chemistry: Be_3_Al_2_Si_6_O_18_
Locality: Xuebaoding, Sichuan Province, China
Source: Rock Currier
Description: Light blue colored tabular single crystal
Measured chemistry: (Be_2.78_Li_0.22_)_Σ=3_Al_2.00_Si_6.00_O_18_·Na_0.22_
Pin_id: L00396
Orientation: Laser parallel to a* (1 0 0). Fiducial mark perpendicular to laser is parallel to c [0 0 1]
Raman shift (cm-1)	intensity
98.947	0
103.124	10.683
107.3	239.373
111.473	1010.9
115.644	1262.02
119.813	1213.66
123.981	919.962
128.146	682.919
132.309	772.925
136.47	703.237
140.63	606.953
144.787	530.359
148.942	434.114
153.096	459.123
157.247	454.158
161.396	445.332
165.544	321.206
169.689	235.195
173.833	403.666
177.974	287.605
182.114	160.801
186.251	302.718
190.387	296.55
194.52	86.652
198.652	267.355
202.782	24.296
206.909	33.286
211.035	32.625
215.159	10.329
219.281	20.386
223.4	150.095
227.518	100.783
231.634	253.675
235.748	107.925
239.86	140.627
243.97	150.977
248.079	216.354
252.185	150.527
256.289	0.69
260.391	224.365
264.492	144.277
268.59	21.637
272.687	109.658
276.781	90.893
280.874	202.555
284.964	77.341
289.053	172.052
293.14	252.54
297.225	367.695
301.308	467.438
305.389	827.702
309.468	1153.43
313.545	2019.59
317.62	4075.09
321.693	7768.93
325.765	7780.08
329.834	3310.54
333.902	1209.28
337.967	502.259
342.031	190.502
346.093	86.835
350.153	121.595
354.21	4.422
358.267	4.152
362.321	29.8
366.373	86.687
370.423	84.305
374.471	240.591
378.518	225.181
382.563	603.08
386.605	1374.02
390.646	2842.41
394.685	5667.13
398.722	8346.82
402.757	6289.4
406.79	2714.16
410.821	1367.06
414.851	755.363
418.878	428.736
422.904	235.021
426.927	232.317
430.949	146.498
434.969	253.279
438.987	210.295
443.003	352.083
447.018	431.961
451.03	353.951
455.041	263.129
459.049	264.359
463.056	215.615
467.061	223.875
471.064	31.121
475.065	152.35
479.064	190.598
483.062	156.199
487.057	185.02
491.051	220.16
495.043	2.582
499.032	271.631
503.02	48.873
507.007	12.08
510.991	29.656
514.973	49.641
518.954	34.117
522.933	32.34
526.91	209.531
530.885	192.186
534.858	127.727
538.829	127.152
542.799	38.664
546.766	107.832
550.732	199.492
554.696	39.447
558.658	34.941
562.618	22.254
566.576	4.162
570.533	167.822
574.488	197.338
578.44	268.707
582.391	282.934
586.341	366.014
590.288	332.98
594.233	293.754
598.177	206.822
602.119	274.621
606.059	341.277
609.997	401.604
613.933	797.289
617.868	1267.18
621.801	1394.47
625.731	699.98
629.66	491.518
633.588	553.678
637.513	636.832
641.437	968.736
645.358	833.332
649.278	870.963
653.196	1137.63
657.113	1173.65
661.027	1304.83
664.94	1465.07
668.851	2574.56
672.76	4245.19
676.667	7771.31
680.572	16939.4
684.476	33786.9
688.378	30504.5
692.278	13620.9
696.176	6943.22
700.072	3676.45
703.967	2350.99
707.86	1341.62
711.751	1215.97
715.64	617.789
719.527	595.33
723.413	457.053
727.297	359.201
731.179	336.238
735.059	460.082
738.937	407.312
742.814	184.043
746.689	160.688
750.562	336.016
754.433	33.404
758.303	15.355
762.17	191.664
766.036	335.785
769.901	325.217
773.763	8.461
777.624	146.945
781.482	63.891
785.339	269.674
789.195	73.312
793.048	34.5
796.9	155.275
800.75	112.027
804.598	279.283
808.445	84.908
812.289	191.887
816.132	67.006
819.973	74.189
823.813	181.658
827.65	48.619
831.486	32.201
835.32	135.152
839.152	176.312
842.983	158.535
846.812	253.805
850.639	284.137
854.464	400.65
858.288	415.344
862.11	290.297
865.93	274.443
869.748	7.211
873.564	146.35
877.379	107.623
881.192	106.934
885.004	158.908
888.813	20.004
892.621	312.191
896.427	165.516
900.232	202.969
904.034	122.562
907.835	206.943
911.634	297.58
915.432	87.441
919.227	117.598
923.021	223.4
926.813	137.48
930.604	491.436
934.393	369.707
938.18	95.955
941.965	175.402
945.749	328.115
949.53	244.16
953.311	58.457
957.089	166.357
960.866	93.115
964.641	138.691
968.414	114.639
972.185	388.525
975.955	204.461
979.723	146.766
983.49	150.141
987.254	267.234
991.017	369.084
994.779	671.275
998.538	775.02
1002.3	1478.02
1006.05	1478.24
1009.81	1795.7
1013.56	1667.47
1017.31	2041.52
1021.06	2044.69
1024.81	1810.4
1028.55	2552.33
1032.3	2410.49
1036.04	2852.88
1039.78	3654.88
1043.52	4621.02
1047.26	6057.17
1050.99	8750.62
1054.73	12176.2
1058.46	17651.3
1062.19	24116.5
1065.92	28322.8
1069.65	28658.5
1073.37	25442.7
1077.1	20366.4
1080.82	15883.9
1084.54	11756.2
1088.26	8967.2
1091.97	7094.65
1095.69	5709.85
1099.4	5248.44
1103.12	4434.46
1106.83	4430.89
1110.54	4191.39
1114.24	3797.63
1117.95	3676.21
1121.65	3530.82
1125.35	2999.53
1129.06	3144.27
1132.75	2887.53
1136.45	2714.8
1140.15	2790.57
1143.84	2939.7
1147.53	2706.23
1151.22	2169.3
1154.91	2011.74
1158.6	1384.53
1162.28	1075.47
1165.97	815.488
1169.65	642.607
1173.33	436.475
1177.01	124.91
1180.69	312.709
1184.36	269.494
1188.04	291.281
1191.71	314.035
1195.38	319.012
1199.05	269.936
1202.71	68.436
1206.38	435.699
1210.04	112.521
1213.71	26.102
1217.37	157.305
1221.03	129.963
1224.68	256.004
1228.34	140.922
1231.99	91.385
1235.65	80.408
1239.3	130.797
1242.95	101.455
1246.59	307.523
1250.24	226.006
1253.88	72.084
1257.53	238.064
1261.17	191.416
1264.81	22.43
1268.45	185.84
1272.08	38.748
1275.72	51.129
1279.35	142.1
1282.98	19.037
1286.61	153.51
1290.24	239.068
1293.87	163.4
1297.49	115.535
1301.11	77.246
1304.73	80.711
1308.36	66.047
1311.97	73.379
1315.59	313.238
1319.2	265.219
1322.82	343.027
1326.43	278.254
1330.04	42.5
1333.65	183.438
1337.26	202.68
1340.86	166.957
1344.47	388.113
1348.07	356.25
1351.67	501.609
1355.27	176.961
1358.87	290.137
1362.46	480.309
1366.06	547.285
1369.65	163.621
1373.24	488.625
1376.83	404.773
1380.42	375.055
1384	378.496
1387.59	446.617
1391.17	284.32
1394.75	149.668
1398.33	339.797
1401.91	403.25
1405.49	355.68
1409.06	543.59
1412.64	159.324
1416.21	483.195
1419.78	252.684
1423.35	273.664
1426.91	349.191
1430.48	1.43
