Measurement: Raman, 514 nm, ccw, Raman Data Processed
Mineral: Beryl
Rruff sample: R050121
Ideal chemistry: Be_3_Al_2_Si_6_O_18_
Locality: Cruziero mine, San Jose, Minas Gerais, Brazil
Source: Carlos and Paulo Vasconcelos
Description: Light blue fragment, variety aquamarine
Measured chemistry: (Be_0.96_Li_0.04_)_3_Al_2.00_Si_6.00_O_18_Î‡Na_0.09_Mg_0.03_
Pin_id: L00500
Orientation: Laser parallel to -c* (0 0 -1). Fiducial mark perpendicular to laser is parallel to a [1 0 0]
Raman shift (cm-1)	intensity
96.161	0
100.34	85.496
104.516	100.544
108.691	192.93
112.864	456.864
117.034	780.63
121.203	466.053
125.369	399.107
129.534	689.86
133.696	295.696
137.857	550.704
142.016	429.793
146.172	515.789
150.327	311.607
154.48	347.093
158.63	388.779
162.779	374.007
166.926	259.041
171.07	399.967
175.213	319.752
179.354	311.271
183.493	245.967
187.63	218.874
191.765	202.106
195.898	144.93
200.029	185.669
204.158	193.095
208.285	28.069
212.41	38.646
216.533	12.771
220.654	59.264
224.773	97.734
228.891	26.238
233.006	67.007
237.119	86.925
241.231	176.01
245.34	187.931
249.448	135.254
253.553	202.578
257.657	317.879
261.758	224.57
265.858	253.72
269.956	348.527
274.052	233.319
278.146	316.806
282.237	710.811
286.327	1156.24
290.416	1614.02
294.502	862.159
298.586	591.551
302.668	616.147
306.749	912.236
310.827	1404.66
314.903	2550.75
318.978	4024.48
323.051	4188.38
327.121	1548.6
331.19	459.802
335.257	97.649
339.322	69.954
343.385	211.54
347.446	8.634
351.505	234.394
355.563	294.084
359.618	251.604
363.672	192.549
367.723	224.959
371.773	188.468
375.821	586.947
379.866	700.623
383.91	1289.9
387.952	3408.42
391.992	8210.01
396.031	12545.2
400.067	7995.03
404.101	3932.79
408.134	1999.44
412.165	1619.99
416.193	2098.42
420.22	3006.74
424.245	2376.95
428.268	1525.12
432.289	977.232
436.309	945.275
440.326	1336.23
444.342	1252.71
448.355	699.82
452.367	376.771
456.377	310.381
460.385	242.768
464.391	52.014
468.395	13.887
472.398	338.953
476.398	31.57
480.397	92.17
484.394	155.475
488.389	173.121
492.382	45.934
496.373	36.762
500.362	80.186
504.349	35.404
508.335	6.34
512.319	44.973
516.3	162.361
520.28	149.416
524.259	153.422
528.235	253.24
532.209	5.129
536.182	25.256
540.152	37.412
544.121	57.744
548.088	73.395
552.053	62.982
556.017	249.219
559.978	522.24
563.938	503.074
567.895	805.729
571.851	688.197
575.805	1246.49
579.758	1431.6
583.708	1264.53
587.657	982.279
591.603	454.852
595.548	443.246
599.491	278.463
603.432	163.488
607.372	53.305
611.309	32.119
615.245	218
619.179	374.912
623.111	453.494
627.041	569.291
630.97	421.668
634.896	231.588
638.821	230.371
642.744	49.324
646.665	517.973
650.584	322.982
654.502	481.014
658.418	647.129
662.331	681.082
666.244	1297.49
670.154	1893.05
674.062	3770.26
677.969	9264.74
681.874	24508.5
685.777	31660.8
689.678	15529.6
693.577	7130.36
697.475	3743.12
701.371	2474.54
705.265	1864.85
709.157	1465.99
713.047	843.34
716.936	791.18
720.823	498.971
724.708	467.729
728.591	508.453
732.472	295.152
736.352	347.828
740.23	446.066
744.106	440.129
747.98	322.762
751.853	53.387
755.723	169.006
759.592	328.01
763.459	758.475
767.325	803.553
771.188	508.189
775.05	667.875
778.91	418.592
782.768	297.352
786.625	81.215
790.479	54.135
794.332	108.936
798.183	14.582
802.033	44.594
805.88	254.332
809.726	105.785
813.57	160.072
817.413	17.969
821.253	69.754
825.092	64.531
828.929	93.955
832.764	7.391
836.598	187.715
840.429	333.246
844.259	257.908
848.088	29.33
851.914	122.557
855.739	489.771
859.562	375.51
863.383	349.668
867.203	178.17
871.02	226.816
874.836	278.152
878.65	349.84
882.463	311.172
886.274	206.648
890.083	350.256
893.89	462.982
897.695	548.826
901.499	596.787
905.301	616.861
909.102	754.053
912.9	715.385
916.697	509.842
920.492	682.488
924.285	886.359
928.077	412.338
931.867	523.422
935.655	248.607
939.442	311.896
943.226	138.818
947.009	322.592
950.791	427.656
954.57	361.893
958.348	238.42
962.124	166.527
965.899	160.902
969.671	364.863
973.442	181.828
977.211	206.049
980.979	391.422
984.745	434.805
988.509	700.162
992.271	875.354
996.032	1568.06
999.791	2511.65
1003.55	2094.55
1007.3	1673.88
1011.06	1358.48
1014.81	970.641
1018.56	508.791
1022.31	609.469
1026.06	749.395
1029.8	722.367
1033.55	898.312
1037.29	740.945
1041.03	713.559
1044.77	708.393
1048.5	926.828
1052.24	1214.9
1055.97	1754.95
1059.7	2380.58
1063.43	4007.45
1067.16	5440.28
1070.89	5223.69
1074.61	4146.99
1078.34	3176.19
1082.06	2125.27
1085.78	1761.22
1089.5	1252.03
1093.21	880.686
1096.93	782.189
1100.64	485.535
1104.35	371.766
1108.06	228.961
1111.77	295.453
1115.48	112.717
1119.18	246.555
1122.89	288.764
1126.59	494.619
1130.29	393.781
1133.99	226.516
1137.68	696.203
1141.38	127.211
1145.07	566.338
1148.76	280.514
1152.45	347.252
1156.14	120
1159.83	248.811
1163.51	37.396
1167.19	230.57
1170.88	7.605
1174.56	172.713
1178.23	94.566
1181.91	201.652
1185.59	277.465
1189.26	497.559
1192.93	249.699
1196.6	560.777
1200.27	461.602
1203.94	637.117
1207.6	137.895
1211.27	473.145
1214.93	687.965
1218.59	829.031
1222.25	689.652
1225.9	1214.12
1229.56	1218.01
1233.21	1698.14
1236.86	2338.84
1240.51	3037.61
1244.16	2069.3
1247.81	1258.21
1251.45	851.039
1255.1	686.262
1258.74	642.828
1262.38	540.641
1266.02	356.652
1269.66	36.848
1273.29	382.102
1276.93	42.508
1280.56	354.867
1284.19	376.199
1287.82	254.035
1291.45	38.613
1295.07	393.391
1298.7	276.738
1302.32	142.465
1305.94	40.691
1309.56	435.117
1313.18	50.375
1316.8	418.766
1320.41	287.637
1324.02	233.574
1327.63	178.434
1331.24	518.785
1334.85	425.711
1338.46	166.266
1342.06	438.426
1345.67	171.281
1349.27	420.773
1352.87	697.727
1356.47	902.465
1360.07	841.945
1363.66	959.129
1367.25	875.746
1370.85	670.23
1374.44	739.348
1378.03	242.52
1381.61	564.297
1385.2	723.449
1388.78	257.273
1392.37	165.441
1395.95	583.992
1399.53	466.531
1403.1	354.562
1406.68	106.672
1410.26	264.934
1413.83	424.566
1417.4	173.207
1420.97	360.449
1424.54	311.383
1428.1	1.219
