Measurement: Raman, 514 nm, ccw, Raman Data Processed
Mineral: Beryl
Rruff sample: R050347
Ideal chemistry: Be_3_Al_2_Si_6_O_18_
Locality: North Keystone, South Dakota, USA
Source: California Institute of Technology
Description: Colorless fragment
Measured chemistry: (Be_0.96_Li_0.04_)_3_Al_2.00_(Si_0.99_Al_0.01_)_6_O_18_ Î‡0.17Na
Pin_id: L01036
Orientation: Laser parallel to a* (1 0 0). Fiducial mark perpendicular to laser is parallel to c [0 0 1]
Raman shift (cm-1)	intensity
120.596	0
125.519	8.02246
130.439	299.57
135.356	271.747
140.271	691.099
145.184	309.82
150.094	308.734
155.002	449.896
159.908	529.556
164.811	803.952
169.711	1064.18
174.61	819.503
179.505	909.646
184.399	1060.96
189.29	1112.22
194.178	1359.42
199.064	1411.91
203.948	1261.63
208.829	50.3027
213.708	124.164
218.585	115.812
223.459	115.897
228.33	156.348
233.199	226.199
238.066	201.523
242.93	122.603
247.792	246.215
252.651	226.14
257.508	272.853
262.363	175.366
267.215	225.249
272.064	244.032
276.912	390.97
281.756	622.003
286.598	1058.63
291.438	1701.86
296.276	1057.23
301.111	847.042
305.943	960.643
310.773	1507.07
315.601	2762.4
320.426	4228.32
325.248	2995.8
330.068	900.243
334.886	196.394
339.701	343.494
344.514	190.85
349.324	225.796
354.132	290.352
358.938	152.503
363.741	335.506
368.541	225.506
373.339	422.076
378.135	740.625
382.928	1774.52
387.718	4605.44
392.506	10646
397.292	16144.3
402.075	9671.63
406.856	3936.03
411.634	2474
416.41	2592.14
421.183	3207.59
425.954	2145.9
430.722	1142.95
435.488	1042.77
440.251	1198.37
445.012	999.795
449.77	728.062
454.526	368.188
459.28	211.273
464.03	195.834
468.779	125.963
473.525	157.611
478.268	212.044
483.009	231.421
487.747	141.173
492.483	69.2139
497.217	14.8506
501.948	79.0977
506.676	187.358
511.402	135.702
516.125	14.3779
520.846	103.603
525.565	267.594
530.281	234.607
534.994	125.832
539.705	141.309
544.413	30.8594
549.119	125.636
553.822	293.628
558.523	1746.76
563.222	704.937
567.917	884.226
572.611	1183.65
577.302	1362.12
581.99	1270.61
586.676	691.106
591.359	277.573
596.04	261.039
600.718	16.4609
605.394	11.1602
610.067	25.1924
614.737	76.4678
619.406	274.135
624.071	256.633
628.734	166.693
633.395	154.903
638.053	192.067
642.708	110.864
647.361	287.907
652.012	186.6
656.66	387.082
661.305	666.86
665.948	1268.96
670.588	2747.88
675.226	7052.57
679.861	19298
684.494	40170.3
689.124	25809
693.752	9718.65
698.377	4829.09
702.999	2817.45
707.619	1927.21
712.237	1328.05
716.852	1158.9
721.464	916.807
726.074	492.951
730.681	635.23
735.286	592.381
739.888	524.079
744.488	518.408
749.085	371.981
753.68	627.388
758.272	720.482
762.861	929.394
767.448	1152.14
772.033	631.709
776.614	404.978
781.194	289.158
785.77	250.383
790.345	277.626
794.916	79.1768
799.485	164.268
804.052	184.361
808.616	28.3369
813.177	55.8897
817.736	149.331
822.292	53.3262
826.846	75.1103
831.397	110.17
835.945	21.8906
840.491	16.6855
845.035	30.7744
849.576	97.6836
854.114	31.0889
858.65	8.85059
863.183	80.6201
867.713	34.2549
872.241	56.6699
876.767	97.8828
881.29	99.0898
885.81	44.6211
890.328	52.541
894.843	333.151
899.356	306.63
903.866	355.584
908.373	580.521
912.878	484.484
917.38	341.442
921.88	346.381
926.377	192.293
930.872	177.184
935.364	202.656
939.853	179.527
944.34	143.859
948.824	96.4375
953.306	224.195
957.785	85.7871
962.261	18.1807
966.735	103.656
971.207	185.049
975.675	84.5293
980.141	165.978
984.605	562.023
989.066	822.356
993.524	1241.47
997.98	1888.49
1002.43	2603.78
1006.88	2683.24
1011.33	2989.03
1015.78	2114.12
1020.22	1303.33
1024.66	798.976
1029.1	563.907
1033.53	468.113
1037.97	439.328
1042.4	497.932
1046.82	691.285
1051.25	1022.89
1055.67	1781.63
1060.09	3185.69
1064.51	5032.06
1068.92	5567.77
1073.33	4506.82
1077.74	3488.84
1082.15	2435.91
1086.55	1693.72
1090.95	1185.9
1095.35	770.658
1099.75	780.318
1104.14	582.09
1108.53	425.285
1112.92	369.027
1117.31	287.234
1121.69	505.836
1126.07	521.834
1130.45	558.092
1134.82	405.398
1139.19	565.531
1143.57	631.689
1147.93	502.519
1152.3	299.762
1156.66	198.588
1161.02	132.557
1165.38	40.0762
1169.73	45.3691
1174.08	46.5762
1178.43	202.773
1182.78	287.617
1187.12	308.998
1191.46	298.266
1195.8	303.828
1200.14	10.25
1204.47	255.889
1208.8	321.043
1213.13	134.607
1217.46	233.166
1221.78	466.721
1226.1	669.836
1230.42	1021.93
1234.73	1217.19
1239.04	1581.56
1243.35	879.602
1247.66	571.273
1251.97	268.904
1256.27	94.2617
1260.57	47.2793
1264.86	141.867
1269.16	29.7461
1273.45	53.7207
1277.74	20.6699
1282.03	211.711
1286.31	258.75
1290.59	67.8086
1294.87	187.389
1299.14	93.2031
1303.42	376.498
1307.69	17.8711
1311.95	18.9883
1316.22	5.87891
1320.48	12.7363
1324.74	105.666
1329	252.514
1333.26	170.883
1337.51	68.2734
1341.76	214.107
1346	6.30078
1350.25	42.0566
1354.49	383.748
1358.73	179.627
1362.96	230.154
1367.2	331.625
1371.43	328.484
1375.66	155.568
1379.88	89.2402
1384.11	378.346
1388.33	328.94
1392.54	209.143
1396.76	130.926
1400.97	37.2051
1405.18	127.182
1409.39	37.7305
1413.59	39.7695
1417.8	42.3418
1421.99	36.6191
1426.19	94.832
1430.38	100.787
1434.58	39.3477
1438.77	311.203
1442.95	211.859
1447.13	214.818
1451.32	132.41
1455.49	344.312
1459.67	4.41797
1463.84	160.789
1468.01	192.949
1472.18	26.9629
1476.35	326.904
1480.51	298.955
1484.67	321.5
1488.83	377.744
1492.98	102.141
1497.13	471.092
1501.28	317.127
1505.43	206.096
1509.57	213.201
1513.71	248.19
1517.85	252.865
1521.99	31.4004
1526.12	229.279
1530.25	215.731
1534.38	53.2617
1538.5	252.414
1542.62	256.223
1546.74	87.9551
1550.86	234.297
1554.98	178.959
1559.09	75.3047
1563.2	23.7188
1567.31	152.125
