Measurement: Raman, 514 nm, ccw, Raman Data Processed
Mineral: Beryl
Rruff sample: R050347
Ideal chemistry: Be_3_Al_2_Si_6_O_18_
Locality: North Keystone, South Dakota, USA
Source: California Institute of Technology
Description: Colorless fragment
Measured chemistry: (Be_0.96_Li_0.04_)_3_Al_2.00_(Si_0.99_Al_0.01_)_6_O_18_ Î‡0.17Na
Pin_id: L00581
Orientation: Laser parallel to c* (0 0 1). Fiducial mark perpendicular to laser is parallel to b [0 1 0]
Raman shift (cm-1)	intensity
211.269	0
216.147	56.333
221.022	62.1904
225.895	120.335
230.765	277.539
235.633	226.844
240.498	173.684
245.361	186.683
250.222	193.716
255.08	114.492
259.936	107.762
264.789	31.8408
269.64	161.003
274.488	254.029
279.334	420.225
284.178	839.063
289.019	1463.23
293.857	1684.98
298.693	1050.32
303.527	723.021
308.358	867.054
313.187	1541.39
318.013	2795.01
322.837	3926.85
327.659	2124.88
332.478	477.111
337.294	70.5459
342.108	26.1934
346.92	103.401
351.729	126.995
356.535	102.18
361.34	18.7432
366.141	22.0059
370.94	122.99
375.737	360.209
380.531	812.332
385.323	1985.66
390.113	4853.18
394.9	11759.8
399.684	15072.4
404.466	7712.16
409.245	3603
414.022	2791.89
418.797	3560.94
423.569	3937.84
428.338	2044.17
433.105	1357.65
437.87	1379.3
442.632	1367.11
447.391	1035.07
452.149	630.183
456.903	257.44
461.655	175.668
466.405	199.31
471.152	115.872
475.897	222.989
480.639	228.889
485.378	194.8
490.116	152.917
494.85	115.876
499.582	162.155
504.312	134.862
509.039	69.291
513.764	95.3193
518.486	39.9053
523.206	149.215
527.923	236.602
532.638	514.082
537.35	291.674
542.059	414.401
546.766	480.322
551.471	673.365
556.173	945.516
560.873	1376.8
565.57	1455.17
570.264	1871.78
574.957	2130.91
579.646	2075.28
584.333	1363.76
589.018	695.315
593.7	352.904
598.379	300.517
603.056	29.709
607.73	118.928
612.402	40.2539
617.072	214.398
621.739	123.454
626.403	31.5156
631.065	85.5469
635.724	72.749
640.381	214.827
645.035	158.848
649.687	260.588
654.336	315.586
658.983	397.724
663.627	799.703
668.268	1420.47
672.907	3354.39
677.544	8633.09
682.178	25243.1
686.809	40774.6
691.438	20203.7
696.065	7998.26
700.688	4057.46
705.31	2665.51
709.929	1831.29
714.545	1364.81
719.158	1199.3
723.77	967.425
728.378	890.017
732.984	744.648
737.588	711.74
742.189	797.304
746.787	569.81
751.383	514.097
755.976	616.984
760.567	1006.94
765.155	1150.41
769.741	884.654
774.324	736.213
778.904	390.602
783.482	305.196
788.058	188.577
792.631	76.7705
797.201	196.764
801.769	137.476
806.334	26.1133
810.897	17.1953
815.457	10.0176
820.014	10.5098
824.569	74.5996
829.122	50.6855
833.671	73.5957
838.219	89.0625
842.763	74.1738
847.306	128.51
851.845	35.6777
856.382	39.2656
860.917	3.51562
865.448	58.4316
869.978	13.1094
874.505	37.4648
879.029	117.307
883.55	55.9727
888.069	32.5684
892.586	206.934
897.1	137.158
901.611	421.283
906.12	415.334
910.626	649.309
915.129	473.184
919.63	446.951
924.129	249.289
928.625	286.07
933.118	76.3887
937.609	20.5684
942.097	199.951
946.582	89.6914
951.065	154.463
955.546	76.9121
960.023	73.3867
964.499	41.3496
968.971	58.2383
973.441	93.2031
977.909	220.115
982.374	348.369
986.836	649.346
991.295	1051.8
995.753	1723.35
1000.21	2514.62
1004.66	2709.24
1009.11	2069.12
1013.55	1568.45
1018	1002.39
1022.44	795.074
1026.88	415.75
1031.32	285.676
1035.75	344.607
1040.18	291.779
1044.61	474.93
1049.04	707.439
1053.46	1158.27
1057.88	2113.46
1062.3	3856.02
1066.71	5463.02
1071.13	5362.4
1075.54	4520.02
1079.94	3393.28
1084.35	2112.86
1088.75	1634.79
1093.15	1020.47
1097.55	996.432
1101.94	561.025
1106.34	441.106
1110.73	534.631
1115.11	490.945
1119.5	522.992
1123.88	152.631
1128.26	226.685
1132.63	518.172
1137.01	494.06
1141.38	680.047
1145.75	716.871
1150.12	644.348
1154.48	347.115
1158.84	218.65
1163.2	74.3496
1167.55	17.1914
1171.91	222.625
1176.26	315.629
1180.61	404.857
1184.95	457.434
1189.29	446.938
1193.63	542.707
1197.97	509.359
1202.31	517.703
1206.64	324.828
1210.97	463.18
1215.29	727.754
1219.62	870.625
1223.94	1075.82
1228.26	1371.35
1232.57	2004.2
1236.89	2234.94
1241.2	1850.82
1245.51	1021.11
1249.81	703.504
1254.12	385.705
1258.42	399.951
1262.72	162.246
1267.01	288.029
1271.3	207.262
1275.59	85.0742
1279.88	93.1523
1284.17	36.0254
1288.45	33.7012
1292.73	65.2246
1297.01	224.07
1301.28	105.182
1305.55	112.115
1309.82	151.949
1314.09	139.881
1318.35	124.221
1322.61	105.791
1326.87	412.44
1331.13	70.5957
1335.38	88.8535
1339.63	282.451
1343.88	150.793
1348.12	231.873
1352.37	90.1074
1356.61	202.209
1360.85	411.062
1365.08	232.639
1369.31	241.018
1373.54	45.1523
1377.77	159.268
1381.99	381.502
1386.22	709.086
1390.43	270.367
1394.65	130.045
1398.87	133.666
1403.08	284.685
1407.29	245.529
1411.49	66.875
1415.69	95.9531
1419.89	136.539
1424.09	265.685
1428.29	180.967
1432.48	138.17
1436.67	31.0176
1440.86	304.305
1445.04	173.654
1449.23	232.264
1453.4	54.9004
1457.58	274.949
1461.76	132.443
1465.93	157.16
1470.1	67.8301
1474.26	237.977
1478.43	255.184
1482.59	202.769
1486.75	310.68
1490.9	211.266
1495.06	194.16
1499.21	310.861
1503.35	91.9844
1507.5	100.699
1511.64	142.527
1515.78	256.992
1519.92	348.775
1524.05	352.059
1528.18	142.125
1532.31	252.856
1536.44	135.606
1540.56	178.637
1544.69	231.793
1548.8	485.113
1552.92	106.623
1557.03	241.838
1561.14	14.5332
1565.25	85.3691
1569.36	0.675781
