Measurement: Raman, 514 nm, ccw, Raman Data Processed
Mineral: Beryl
Rruff sample: R050305
Ideal chemistry: Be_3_Al_2_Si_6_O_18_
Locality: Conselheiro Pena, Minas Gerais, Brazil
Source: Eugene Schlepp
Description: Light blue fragment, variety aquamarine
Measured chemistry: (Be_0.91_Li_0.09_)_3_(Al_0.99_Fe^3+^_0.01_)_2_Si_6.00_O_18_Î‡Na_0.27_
Pin_id: L00797
Orientation: Laser parallel to c* (0 0 1). Fiducial mark perpendicular to laser is parallel to [-1 -1 0]
Raman shift (cm-1)	intensity
95.948	0
100.883	112.144
105.815	597.705
110.744	2143.69
115.671	3022.86
120.596	3229.82
125.519	3291.13
130.439	3529.28
135.356	3320.55
140.271	3060.39
145.184	2117.6
150.094	1514.41
155.002	1790.42
159.908	1887.01
164.811	2171.59
169.711	2132.76
174.61	1958.32
179.505	1808.5
184.399	1348.35
189.29	1120.44
194.178	1045.15
199.064	851.988
203.948	571.781
208.829	53.6006
213.708	111.242
218.585	116.43
223.459	196.3
228.33	309.19
233.199	376.374
238.066	485.615
242.93	233.579
247.792	198.662
252.651	84.7803
257.508	6.44629
262.363	116.613
267.215	148.826
272.064	120.528
276.912	439.268
281.756	501.755
286.598	1087.75
291.438	1782.09
296.276	1753.69
301.111	653.229
305.943	321.468
310.773	616.653
315.601	1472.75
320.426	2192.99
325.248	2287.69
330.068	840.48
334.886	173.128
339.701	180.51
344.514	75.8613
349.324	33.082
354.132	47.8447
358.938	176.825
363.741	217.181
368.541	520.394
373.339	708.443
378.135	1478.32
382.928	2450.94
387.718	5225.17
392.506	10556.2
397.292	17201.6
402.075	15058.7
406.856	7342.19
411.634	4446.65
416.41	4583.27
421.183	4460.01
425.954	3580.6
430.722	2072.64
435.488	1562.14
440.251	1324.08
445.012	1091.45
449.77	799.25
454.526	794.477
459.28	474.121
464.03	268.162
468.779	365.418
473.525	232.577
478.268	526.691
483.009	369.29
487.747	315.266
492.483	119.034
497.217	252.581
501.948	78.2559
506.676	41.0166
511.402	6.58691
516.125	208.391
520.846	130.81
525.565	160.339
530.281	304.287
534.994	502.94
539.705	365.166
544.413	456.306
549.119	883.393
553.822	1114.19
558.523	1596.75
563.222	1781.25
567.917	2214.57
572.611	2552.52
577.302	2399.2
581.99	1850.6
586.676	1480.64
591.359	1100.23
596.04	706.367
600.718	580.051
605.394	471.728
610.067	525.756
614.737	404.826
619.406	363.128
624.071	352.374
628.734	317.957
633.395	340.287
638.053	326.075
642.708	427.58
647.361	710.119
652.012	613.683
656.66	717.686
661.305	1113.69
665.948	2181.4
670.588	4040.75
675.226	9521.2
679.861	24552.2
684.494	43317.1
689.124	34307.5
693.752	14307.2
698.377	6811.44
702.999	4253.57
707.619	2938.6
712.237	2191.59
716.852	1893.13
721.464	1465.66
726.074	1400.94
730.681	1294.74
735.286	1115.35
739.888	1049.78
744.488	1092.78
749.085	1043.04
753.68	1268.24
758.272	1371.89
762.861	1139.17
767.448	652.043
772.033	374.496
776.614	421.381
781.194	354.084
785.77	116.664
790.345	263.443
794.916	196.584
799.485	63.9766
804.052	40.0703
808.616	31.6211
813.177	83.2539
817.736	51.0469
822.292	105.754
826.846	156.783
831.397	49.5059
835.945	88.7852
840.491	109.662
845.035	111.26
849.576	83.7129
854.114	60.4102
858.65	18.877
863.183	119.848
867.713	123.459
872.241	29.7246
876.767	7.32812
881.29	127.129
885.81	16.8301
890.328	59.1953
894.843	244.307
899.356	468.184
903.866	589.836
908.373	748.285
912.878	516.553
917.38	463.654
921.88	330.803
926.377	281.082
930.872	69.6719
935.364	38.3418
939.853	2.87109
944.34	81.7969
948.824	58.3105
953.306	139.904
957.785	106.74
962.261	127.617
966.735	127.519
971.207	34.4336
975.675	221.562
980.141	400.164
984.605	670.156
989.066	1313.36
993.524	2562.82
997.98	3600.22
1002.43	3486.18
1006.88	2625.99
1011.33	1856.93
1015.78	1221.27
1020.22	941.469
1024.66	560.266
1029.1	603.508
1033.53	424.193
1037.97	649.354
1042.4	633.141
1046.82	924.584
1051.25	1475.5
1055.67	2431.03
1060.09	3806.12
1064.51	5037.81
1068.92	5816.1
1073.33	5561.91
1077.74	4570.82
1082.15	3463.84
1086.55	2547.27
1090.95	2009.58
1095.35	1553.5
1099.75	1360.87
1104.14	1212.36
1108.53	1213.43
1112.92	1075.55
1117.31	1154.35
1121.69	1220.01
1126.07	1381.41
1130.45	1094.32
1134.82	1117.98
1139.19	1159.97
1143.57	1247.96
1147.93	1191.21
1152.3	1024.81
1156.66	729.324
1161.02	517.467
1165.38	656.943
1169.73	739.359
1174.08	927.992
1178.43	1126.58
1182.78	1136.43
1187.12	1299.94
1191.46	1484.99
1195.8	1833.3
1200.14	1385.56
1204.47	1337.17
1208.8	1384.18
1213.13	1558.56
1217.46	1708.86
1221.78	1803.93
1226.1	1679.46
1230.42	1325.39
1234.73	1047.47
1239.04	742.777
1243.35	622.018
1247.66	299.582
1251.97	291.5
1256.27	0.730469
1260.57	0.505859
1264.86	4.66211
1269.16	38.9629
1273.45	0.990234
1277.74	87.1191
1282.03	120.775
1286.31	112.643
1290.59	54.6641
1294.87	140.629
1299.14	62.0859
1303.42	28.5469
1307.69	167.887
1311.95	7.83398
1316.22	17.2891
1320.48	380.68
1324.74	152.191
1329	186.477
1333.26	102.955
1337.51	99.4668
1341.76	211.992
1346	133.24
1350.25	187.65
1354.49	169.435
1358.73	348.07
1362.96	113.613
1367.2	122.586
1371.43	176.996
1375.66	159.025
1379.88	123.504
1384.11	709.539
1388.33	162.769
1392.54	128.246
1396.76	30.7969
1400.97	73.5176
1405.18	18.9746
1409.39	73.4883
1413.59	21.7949
1417.8	367.994
1421.99	97.0527
1426.19	290.928
1430.38	168.201
1434.58	169.766
1438.77	228.988
1442.95	271.799
1447.13	232.781
1451.32	244.447
1455.49	583.531
1459.67	227.459
1463.84	406.219
1468.01	427.986
1472.18	412.072
1476.35	301.004
1480.51	207.578
1484.67	160.815
1488.83	131.578
1492.98	449.414
1497.13	254.283
1501.28	388.898
1505.43	135.023
1509.57	419.252
1513.71	399.533
1517.85	405.856
1521.99	186.019
1526.12	270.346
1530.25	381.006
1534.38	177.83
1538.5	295.465
1542.62	502.863
1546.74	146.356
1550.86	369.971
1554.98	123.664
1559.09	200.701
1563.2	272.725
1567.31	135.215
