Measurement: Raman, 514 nm, ccw, Raman Data Processed
Mineral: Beryl
Rruff sample: R060942
Ideal chemistry: Be_3_Al_2_Si_6_O_18_
Locality: Mingore mine, Swat Valley, Pakistan
Source: Lawrence W. Snee
Description: Green hexagonal prisms, variety emerald
Measured chemistry: (Be_2.94_Li_0.06_)_Σ=3_(Al_1.55_Mg_0.37_Fe^3+^_0.06_Cr^3+^_0.02_)_Σ=2_Si_6.00_O_18_·Na_0.42_; Be and Li not measured but estimated by stoichiometry
Pin_id: L01519
Orientation: Laser parallel to a* (1 0 0). Fiducial mark perpendicular to laser is parallel to -c [0 0 -1]
Raman shift (cm-1)	intensity
119.365	0
124.288	272.26
129.209	452.245
134.127	272.147
139.043	504.86
143.956	130.998
148.867	126.86
153.775	19.6377
158.681	41.416
163.585	128.125
168.486	253.037
173.385	323.673
178.282	590.386
183.176	661.455
188.067	693.45
192.956	749.449
197.843	828.521
202.727	939.745
207.609	237.54
212.489	231.645
217.366	420.978
222.24	467.312
227.112	761.682
231.982	859.744
236.849	1379.61
241.714	2091.38
246.577	2089.83
251.437	875.366
256.294	280.938
261.149	447.495
266.002	632.609
270.852	352.127
275.7	300.156
280.545	430.971
285.388	405.9
290.229	647.024
295.067	502.484
299.902	574.705
304.735	761.361
309.566	1342.73
314.394	3061
319.22	6793.31
324.043	9335.22
328.864	5355.65
333.682	1369.73
338.498	260.731
343.311	73.6494
348.122	60.667
352.931	103.533
357.737	27.5459
362.54	43.9883
367.341	175.166
372.14	221.244
376.936	767.264
381.73	1711.61
386.521	3303.3
391.31	7651.49
396.096	12769.7
400.88	11047.3
405.661	5291.71
410.44	2442.23
415.216	1372.23
419.99	1045.06
424.761	894.732
429.53	1111.29
434.297	1455.76
439.061	1143.25
443.822	657.733
448.581	257.181
453.337	290.735
458.091	123.238
462.843	149.644
467.592	140.954
472.338	245.185
477.082	312.359
481.824	359.481
486.563	385.996
491.3	488.048
496.034	802.324
500.765	920.416
505.494	1435.02
510.221	2242.68
514.945	3510.59
519.666	3722.48
524.385	2522.36
529.102	1203.25
533.816	492.177
538.527	158.157
543.236	109.786
547.943	203.317
552.647	51.2852
557.348	156.299
562.047	196.212
566.744	341.402
571.438	402.809
576.129	511.348
580.818	553.954
585.504	453.766
590.188	493.675
594.87	475.847
599.549	627.981
604.225	1000.89
608.899	2010.27
613.57	2299.61
618.239	1222.13
622.905	544.582
627.569	329.953
632.23	341.473
636.889	363.301
641.545	431.151
646.198	363.305
650.849	538.568
655.498	733.699
660.144	1318.69
664.787	2201.59
669.428	3894.56
674.067	7947.99
678.703	19881.5
683.336	42552.4
687.967	48878.2
692.595	26421.8
697.221	10916.8
701.844	5348.59
706.465	3199.82
711.083	2021.62
715.698	1104.8
720.311	914.503
724.922	518.918
729.53	492.084
734.135	466.13
738.738	345.893
743.338	296.359
747.936	369.139
752.531	474.039
757.124	483.617
761.714	460.755
766.302	695.449
770.887	737.696
775.469	608.487
780.049	533.817
784.626	465.683
789.201	335.078
793.773	305.673
798.343	194.464
802.91	143.455
807.475	94.9736
812.037	119.966
816.596	2.57812
821.153	21.252
825.707	12.584
830.259	62.8281
834.808	97.7598
839.355	34.1279
843.899	0.12793
848.441	83.2393
852.98	86.7705
857.516	26.6621
862.05	26.8066
866.581	95.71
871.11	20.2031
875.636	10.7637
880.159	2.5957
884.68	113.846
889.199	50.5938
893.714	136.7
898.228	184.601
902.738	324.317
907.246	458.875
911.752	611.296
916.255	760.601
920.755	776.814
925.253	588.958
929.748	486.058
934.241	355.132
938.731	274.07
943.218	111.686
947.703	140.017
952.186	89.2393
956.665	88.1221
961.142	190.362
965.617	164.83
970.089	73.8115
974.558	184.178
979.025	458.198
983.489	801.288
987.951	1595.97
992.41	2494.88
996.866	3237.89
1001.32	3904.79
1005.77	4448.9
1010.22	4594.5
1014.67	4526.58
1019.11	4167.95
1023.55	3602.86
1027.99	3185.45
1032.42	3224.73
1036.86	3542.84
1041.29	4435.64
1045.72	5949.2
1050.14	8970.47
1054.56	14648.4
1058.98	24125.1
1063.4	35260.6
1067.82	41214.7
1072.23	38903.4
1076.64	29499.9
1081.05	20476.1
1085.45	15663
1089.85	12460.7
1094.25	10286.5
1098.65	8576.85
1103.04	7456.11
1107.43	6700.46
1111.82	6415.61
1116.21	6575.32
1120.59	6847.91
1124.97	6970.17
1129.35	6137.97
1133.73	5392.22
1138.1	4362.98
1142.47	3536.2
1146.84	2779.14
1151.21	2371.27
1155.57	1627.93
1159.93	1360.83
1164.29	921.21
1168.64	748.337
1172.99	669.731
1177.34	564.356
1181.69	675.169
1186.04	521.635
1190.38	454.378
1194.72	384.655
1199.05	505.172
1203.39	502.688
1207.72	615.696
1212.05	409.591
1216.37	373.643
1220.7	44.831
1225.02	198.33
1229.34	89.7246
1233.65	8.83398
1237.97	36.3242
1242.28	59.5684
1246.59	59.6338
1250.89	115.312
1255.19	75.7939
1259.49	92.5283
1263.79	32.331
1268.09	90.4482
1272.38	17.6201
1276.67	32.0547
1280.95	115.118
1285.24	5.99219
1289.52	32.7764
1293.8	119.909
1298.08	226.313
1302.35	76.106
1306.62	84.3359
1310.89	33.0928
1315.15	23.106
1319.42	103.391
1323.68	107.27
1327.94	153.661
1332.19	136.515
1336.44	168.924
1340.69	278.184
1344.94	222.488
1349.19	233.8
1353.43	258.789
1357.67	161.094
1361.9	155.693
1366.14	266.165
1370.37	172.799
1374.6	124.587
1378.83	7.21191
1383.05	235.391
1387.27	221.352
1391.49	42.312
1395.7	142.755
1399.92	200.909
1404.13	142.129
1408.34	72.8066
1412.54	96.7075
1416.74	137.847
1420.94	53.459
1425.14	72.9839
1429.34	74.5947
1433.53	136.336
1437.72	59.7339
1441.9	224.591
1446.09	74.0908
1450.27	182.666
1454.45	160.703
1458.63	16.8643
1462.8	183.571
1466.97	121.168
1471.14	382.081
1475.31	120.787
1479.47	60.4717
1483.63	55.2324
1487.79	24.3384
1491.94	95.9497
1496.09	55.6782
1500.24	42.0366
1504.39	60.3945
1508.54	110.754
1512.68	45.0527
1516.82	61.4043
1520.95	205.32
1525.09	86.0435
1529.22	83.2217
1533.35	155.255
1537.47	23.6558
1541.6	93.3975
1545.72	108.519
1549.83	63.3545
1553.95	407.242
1558.06	104.893
1562.17	71.4102
1566.28	71.4287
1570.38	29.5205
