Measurement: Raman, 514 nm, ccw, Raman Data Processed
Mineral: Beryl
Rruff sample: R050347
Ideal chemistry: Be_3_Al_2_Si_6_O_18_
Locality: North Keystone, South Dakota, USA
Source: California Institute of Technology
Description: Colorless fragment
Measured chemistry: (Be_0.96_Li_0.04_)_3_Al_2.00_(Si_0.99_Al_0.01_)_6_O_18_ Î‡0.17Na
Pin_id: L00581
Orientation: Laser parallel to c* (0 0 1). Fiducial mark perpendicular to laser is parallel to b [0 1 0]
Raman shift (cm-1)	intensity
211.269	0
216.147	7.88769
221.022	90.4512
225.895	139.198
230.765	209.481
235.633	218.174
240.498	378.153
245.361	270.728
250.222	380.373
255.08	158.006
259.936	158.011
264.789	6.30371
269.64	30.3379
274.488	142.091
279.334	373.948
284.178	628.035
289.019	1308.97
293.857	1260.39
298.693	877.031
303.527	818.762
308.358	843.565
313.187	1592.42
318.013	3046.31
322.837	3925.18
327.659	1482
332.478	349.795
337.294	66.6123
342.108	94.1553
346.92	18.4971
351.729	161.466
356.535	173.22
361.34	111.401
366.141	54.0654
370.94	251.394
375.737	459.252
380.531	862.913
385.323	1659.25
390.113	4572.3
394.9	9945.27
399.684	10051.2
404.466	4626.02
409.245	2252.81
414.022	2171.47
418.797	2927.17
423.569	2306.33
428.338	1276.16
433.105	915.95
437.87	1185.72
442.632	1238.48
447.391	1005.22
452.149	680.939
456.903	368.918
461.655	117.255
466.405	125.282
471.152	142.745
475.897	173.116
480.639	144.63
485.378	0.876953
490.116	93.8887
494.85	26.5596
499.582	111.549
504.312	66.2998
509.039	75.9141
513.764	92.2451
518.486	320.191
523.206	577.062
527.923	477.898
532.638	506.662
537.35	362.349
542.059	167.964
546.766	297.516
551.471	256.011
556.173	540.542
560.873	746.154
565.57	708.794
570.264	991.457
574.957	1263.28
579.646	1287.15
584.333	717.023
589.018	304.833
593.7	223.582
598.379	8.56738
603.056	27.7188
607.73	42.3252
612.402	117.454
617.072	123.774
621.739	364.903
626.403	203.566
631.065	29.1152
635.724	171.327
640.381	236.367
645.035	180.398
649.687	160.274
654.336	384.072
658.983	471.835
663.627	1040.6
668.268	1679.26
672.907	3899.92
677.544	10328.1
682.178	28792.7
686.809	36834.7
691.438	14987.2
696.065	6216.36
700.688	3497.93
705.31	2125.59
709.929	1497.28
714.545	1088.37
719.158	987.281
723.77	704.183
728.378	779.024
732.984	508.622
737.588	445.524
742.189	566.916
746.787	221.399
751.383	451.553
755.976	676.078
760.567	644.182
765.155	1092.06
769.741	739.419
774.324	623.537
778.904	306.103
783.482	308.889
788.058	148.815
792.631	249.769
797.201	108.511
801.769	9.00391
806.334	162.565
810.897	81.1064
815.457	74.7353
820.014	86.083
824.569	4.67481
829.122	42.1963
833.671	129.4
838.219	106.012
842.763	7.36914
847.306	64.9932
851.845	35.9287
856.382	8.56738
860.917	130.515
865.448	47.3486
869.978	216.783
874.505	158.306
879.029	174.017
883.55	47.3975
888.069	90.792
892.586	72.0684
897.1	175.18
901.611	344.15
906.12	608.976
910.626	458.668
915.129	498.229
919.63	336.667
924.129	228.99
928.625	39.1133
933.118	108.181
937.609	114.132
942.097	169.148
946.582	10.9688
951.065	92.0488
955.546	148.709
960.023	35.4268
964.499	17.6523
968.971	176.69
973.441	10.1641
977.909	202.326
982.374	155.668
986.836	605.51
991.295	806.963
995.753	1665.44
1000.21	2341.42
1004.66	2576.99
1009.11	2668.37
1013.55	2048.28
1018	1571.29
1022.44	1008.58
1026.88	566.133
1031.32	467.875
1035.75	342.002
1040.18	403.15
1044.61	577.555
1049.04	1111.68
1053.46	1509.62
1057.88	3036.02
1062.3	5161.69
1066.71	6368.74
1071.13	6373.19
1075.54	4762.77
1079.94	3384.07
1084.35	2408.47
1088.75	1696.17
1093.15	1173.47
1097.55	857.201
1101.94	699.041
1106.34	639.168
1110.73	387.846
1115.11	644.051
1119.5	410.756
1123.88	493.877
1128.26	406.445
1132.63	545.254
1137.01	593.406
1141.38	718.205
1145.75	649.482
1150.12	591.814
1154.48	318.361
1158.84	235.519
1163.2	60.0547
1167.55	10.8457
1171.91	206.978
1176.26	132.773
1180.61	229.279
1184.95	215.941
1189.29	476.129
1193.63	429.627
1197.97	405.693
1202.31	217.367
1206.64	425.553
1210.97	500.375
1215.29	419.711
1219.62	473.518
1223.94	867.533
1228.26	1185.78
1232.57	1379.25
1236.89	1502.82
1241.2	1250.5
1245.51	603.293
1249.81	345.176
1254.12	130.008
1258.42	158.103
1262.72	77.1582
1267.01	106.258
1271.3	99.7793
1275.59	23.9668
1279.88	5.56445
1284.17	34.4688
1288.45	78.7773
1292.73	179.584
1297.01	82.8731
1301.28	212.477
1305.55	278.826
1309.82	62.0977
1314.09	283.217
1318.35	277.699
1322.61	55.1465
1326.87	232.369
1331.13	147.312
1335.38	193.986
1339.63	152.594
1343.88	125.141
1348.12	351.768
1352.37	131.83
1356.61	231.812
1360.85	347.34
1365.08	376.635
1369.31	215.17
1373.54	206.826
1377.77	40.9375
1381.99	258.615
1386.22	726.562
1390.43	238.213
1394.65	323.84
1398.87	198.869
1403.08	115.91
1407.29	113.305
1411.49	178.94
1415.69	217.361
1419.89	147.242
1424.09	5.81055
1428.29	173.674
1432.48	143.315
1436.67	282.049
1440.86	86.7227
1445.04	59.1152
1449.23	147.467
1453.4	57.002
1457.58	226.051
1461.76	167.769
1465.93	173.986
1470.1	255.818
1474.26	144.174
1478.43	266.801
1482.59	88.9453
1486.75	26.1836
1490.9	267.869
1495.06	55.9824
1499.21	305.731
1503.35	155.654
1507.5	135.113
1511.64	222.328
1515.78	121.814
1519.92	247.625
1524.05	56.2246
1528.18	121.686
1532.31	189.07
1536.44	179.652
1540.56	198.381
1544.69	246.113
1548.8	302.553
1552.92	289
1557.03	257.363
1561.14	230.203
1565.25	262.685
1569.36	4.11523
