Measurement: Raman, 514 nm, ccw, Raman Data Processed
Mineral: Beryl
Rruff sample: R060944
Ideal chemistry: Be_3_Al_2_Si_6_O_18_
Locality: Habachtal, Salzburg, Austria
Source: Lawrence W. Snee
Description: Green hexagonal prisms in a muscovite schist, variety emerald. Note that there are micro inclusions of actinolite. The Raman signal is a mixture of the two phases.
Measured chemistry: Be_3.00_(Al_1.59_Mg_0.33_Fe^3+^_0.04_Cr^3+^_0.04_)_Σ=2_Si_6.00_O_18_·Na_0.33_ ; bright inclusions are actinolite
Pin_id: L01278
Orientation: Laser parallel to a* (1 0 0). Fiducial mark perpendicular to laser is parallel to c [0 0 1]
Raman shift (cm-1)	intensity
130.439	0
135.356	226.713
140.271	176.008
145.184	162.889
150.094	162.773
155.002	800.814
159.908	1048.6
164.811	687.898
169.711	628.256
174.61	1442.06
179.505	1728.45
184.399	1192.37
189.29	653.682
194.178	577.018
199.064	445.119
203.948	851.875
208.829	562.963
213.708	1241.39
218.585	2103.45
223.459	2399.37
228.33	2099.21
233.199	1568.86
238.066	1141.82
242.93	1100.93
247.792	1439.62
252.651	932.047
257.508	59.4473
262.363	20.3828
267.215	133.94
272.064	191.094
276.912	14.9238
281.756	13.5156
286.598	351.955
291.438	198.76
296.276	129.334
301.111	209.559
305.943	457.717
310.773	804.699
315.601	1615.65
320.426	3153.12
325.248	4239.44
330.068	1735.74
334.886	433.949
339.701	188.193
344.514	363.019
349.324	202.682
354.132	435.367
358.938	381.41
363.741	557.809
368.541	609.545
373.339	712.594
378.135	1178.92
382.928	1628.51
387.718	2944.33
392.506	5672.38
397.292	8657.66
402.075	5843.15
406.856	2819.87
411.634	1630.77
416.41	1345.82
421.183	851.482
425.954	728.953
430.722	651.764
435.488	1225.86
440.251	1006.24
445.012	552.869
449.77	248.703
454.526	23.1719
459.28	112.99
464.03	100.82
468.779	108.512
473.525	29.9375
478.268	62.8105
483.009	49.2617
487.747	53.5254
492.483	214.705
497.217	348.041
501.948	719.486
506.676	895.033
511.402	1506.67
516.125	2137.43
520.846	2902.45
525.565	2397.67
530.281	1593.99
534.994	792.525
539.705	167.219
544.413	188.992
549.119	76.2637
553.822	80.082
558.523	412.889
563.222	356.863
567.917	621.955
572.611	499.201
577.302	523.617
581.99	345.191
586.676	175.867
591.359	298.553
596.04	293.963
600.718	135.297
605.394	246.432
610.067	566.107
614.737	1058.54
619.406	585.736
624.071	920.977
628.734	205.719
633.395	284.695
638.053	247.389
642.708	543.033
647.361	571.621
652.012	1225.14
656.66	1530.13
661.305	2878.89
665.948	5459.98
670.588	9243.24
675.226	10952.8
679.861	14523.1
684.494	26922.7
689.124	26827.7
693.752	11852.8
698.377	5113.91
702.999	2780.48
707.619	1746.59
712.237	1136.46
716.852	760.117
721.464	629.475
726.074	114.553
730.681	237.01
735.286	440.232
739.888	469.648
744.488	419.725
749.085	393.217
753.68	481.234
758.272	517.588
762.861	416.514
767.448	534.213
772.033	210.402
776.614	347.684
781.194	246.639
785.77	198.568
790.345	78.1797
794.916	14.5664
799.485	26.9004
804.052	141.318
808.616	47.7012
813.177	26.6816
817.736	3.72656
822.292	269.5
826.846	108.277
831.397	4.41016
835.945	72.4023
840.491	75.6738
845.035	115.357
849.576	29.6641
854.114	79.3809
858.65	96.2344
863.183	71.7441
867.713	100.609
872.241	101.391
876.767	114.09
881.29	19.7285
885.81	77.4434
890.328	232.19
894.843	82.1289
899.356	212.043
903.866	123.957
908.373	339.045
912.878	705.236
917.38	775.477
921.88	850.783
926.377	940.957
930.872	778.606
935.364	614.143
939.853	184.287
944.34	305.805
948.824	214.728
953.306	52.8145
957.785	239.312
962.261	186.557
966.735	14.6035
971.207	12.7148
975.675	59.3438
980.141	60.0625
984.605	300.027
989.066	933.154
993.524	1222.4
997.98	2134.56
1002.43	3136.6
1006.88	3225.16
1011.33	3304.77
1015.78	3181.63
1020.22	3032.7
1024.66	2898.01
1029.1	2715.01
1033.53	2362.02
1037.97	2391.77
1042.4	2705.27
1046.82	3918.4
1051.25	6209.02
1055.67	9023.19
1060.09	13150.9
1064.51	18132.4
1068.92	19938.6
1073.33	18084.4
1077.74	13291.9
1082.15	9536.27
1086.55	6631.3
1090.95	5161.59
1095.35	4094.34
1099.75	3318.24
1104.14	2994.88
1108.53	2796.24
1112.92	2455.07
1117.31	2514.31
1121.69	2771.93
1126.07	2610.17
1130.45	2810.37
1134.82	2161.41
1139.19	1847.75
1143.57	1167.39
1147.93	1085.75
1152.3	797.656
1156.66	477.008
1161.02	339.652
1165.38	304.238
1169.73	294.051
1174.08	273.359
1178.43	196.394
1182.78	259.996
1187.12	18.6445
1191.46	32.582
1195.8	144.797
1200.14	229.879
1204.47	113.594
1208.8	183.836
1213.13	241.582
1217.46	480.648
1221.78	415.828
1226.1	322.633
1230.42	108.883
1234.73	183.969
1239.04	154.965
1243.35	58.625
1247.66	124.301
1251.97	41.7539
1256.27	90.8555
1260.57	65.9453
1264.86	65.9141
1269.16	117.027
1273.45	21.3594
1277.74	61.8633
1282.03	70.1094
1286.31	201.144
1290.59	238.031
1294.87	152.945
1299.14	15.3828
1303.42	285.652
1307.69	51.5352
1311.95	265.059
1316.22	234.492
1320.48	329.527
1324.74	287.344
1329	212.891
1333.26	276.141
1337.51	193.133
1341.76	253.789
1346	92.0312
1350.25	553.195
1354.49	267.562
1358.73	428.356
1362.96	187.356
1367.2	132.953
1371.43	390.582
1375.66	230.574
1379.88	175.367
1384.11	307.312
1388.33	338.016
1392.54	163.305
1396.76	139.637
1400.97	271.668
1405.18	298.754
1409.39	227.125
1413.59	297.785
1417.8	5.97656
1421.99	206.863
1426.19	28.1211
1430.38	124.504
1434.58	166.082
1438.77	337.731
1442.95	290.816
1447.13	481.273
1451.32	397.68
1455.49	399.508
1459.67	448.125
1463.84	452.621
1468.01	479.273
1472.18	519.5
1476.35	426.648
1480.51	256.098
1484.67	211.164
1488.83	464.519
1492.98	251.734
1497.13	78.4688
1501.28	215.106
1505.43	358.617
1509.57	84.1445
1513.71	94.2188
1517.85	375.144
1521.99	121.789
1526.12	131.977
1530.25	74.9062
1534.38	248.731
1538.5	258.762
1542.62	420.008
1546.74	353.656
1550.86	119.883
1554.98	327.172
1559.09	216.336
1563.2	107.793
1567.31	206.203
1571.41	0
