Measurement: Raman, 514 nm, ccw, Raman Data Processed
Mineral: Beryl
Rruff sample: R060942
Ideal chemistry: Be_3_Al_2_Si_6_O_18_
Locality: Mingore mine, Swat Valley, Pakistan
Source: Lawrence W. Snee
Description: Green hexagonal prisms, variety emerald
Measured chemistry: (Be_2.94_Li_0.06_)_Σ=3_(Al_1.55_Mg_0.37_Fe^3+^_0.06_Cr^3+^_0.02_)_Σ=2_Si_6.00_O_18_·Na_0.42_; Be and Li not measured but estimated by stoichiometry
Pin_id: L01519
Orientation: Laser parallel to a* (1 0 0). Fiducial mark perpendicular to laser is parallel to -c [0 0 -1]
Raman shift (cm-1)	intensity
119.365	0
124.288	263.557
129.209	183.755
134.127	266.014
139.043	685.453
143.956	510.705
148.867	428.551
153.775	451.567
158.681	369.846
163.585	487.693
168.486	559.504
173.385	412.312
178.282	635.744
183.176	384.256
188.067	583.081
192.956	505.781
197.843	636.209
202.727	811.268
207.609	99.3594
212.489	54.331
217.366	49.9756
222.24	154.253
227.112	319.739
231.982	328.107
236.849	672.495
241.714	788.029
246.577	788.138
251.437	439.36
256.294	521.094
261.149	1294.92
266.002	2013.81
270.852	1480.07
275.7	889.019
280.545	1061.88
285.388	1214.81
290.229	1349.79
295.067	1055.86
299.902	585.852
304.735	389.638
309.566	527.143
314.394	935.287
319.22	1693.19
324.043	1940.81
328.864	1088.77
333.682	252.638
338.498	16.8965
343.311	150.977
348.122	64.2197
352.931	23.2715
357.737	148.791
362.54	59.7422
367.341	167.049
372.14	526.769
376.936	733.457
381.73	1593.83
386.521	3677.58
391.31	9065.53
396.096	16546.1
400.88	16540.3
405.661	9837.52
410.44	6266.34
415.216	4320.77
419.99	3046.81
424.761	2235.42
429.53	2280.59
434.297	2421.32
439.061	2317.59
443.822	1727.33
448.581	931.598
453.337	613.387
458.091	454.242
462.843	347.32
467.592	443.973
472.338	416.217
477.082	651.951
481.824	538.885
486.563	327.701
491.3	471.164
496.034	397.271
500.765	461.793
505.494	510.479
510.221	550.439
514.945	2212
519.666	913.318
524.385	580.466
529.102	244.476
533.816	86.3477
538.527	265.029
543.236	46.3828
547.943	109.897
552.647	712.283
557.348	1705.81
562.047	2409.27
566.744	2370.81
571.438	2093.4
576.129	1800.95
580.818	1542.52
585.504	1565.15
590.188	1377.86
594.87	1162.66
599.549	1005.58
604.225	784.413
608.899	667.395
613.57	764.784
618.239	343.164
622.905	102.578
627.569	2.49316
632.23	33.1631
636.889	33.6201
641.545	265.647
646.198	149.978
650.849	168.05
655.498	589.139
660.144	848.699
664.787	1802.38
669.428	3590.33
674.067	7593.82
678.703	20489.3
683.336	45249
687.967	52810.1
692.595	28462.1
697.221	12270.8
701.844	6532.77
706.465	4091.87
711.083	2764.94
715.698	1967.56
720.311	1454.13
724.922	1135.53
729.53	900.418
734.135	854.122
738.738	848.734
743.338	967.098
747.936	837.922
752.531	753.165
757.124	803.129
761.714	595.873
766.302	711.036
770.887	553.511
775.469	530.254
780.049	416.016
784.626	463.508
789.201	366.725
793.773	218.665
798.343	174.326
802.91	166.709
807.475	165.81
812.037	171.622
816.596	417.28
821.153	129.144
825.707	36.331
830.259	0.394531
834.808	68.8496
839.355	71.2978
843.899	70.0176
848.441	39.9316
852.98	35.4766
857.516	121.59
862.05	78.8037
866.581	46.7373
871.11	37.7588
875.636	2.18652
880.159	2.68555
884.68	104.901
889.199	146.307
893.714	270.351
898.228	420.244
902.738	485.005
907.246	512.685
911.752	663.32
916.255	638.968
920.755	560.392
925.253	378.817
929.748	326.19
934.241	215.523
938.731	167.645
943.218	194.94
947.703	106.499
952.186	32.498
956.665	83.8037
961.142	32.3535
965.617	20.8838
970.089	32.7881
974.558	63.9932
979.025	391.517
983.489	658.592
987.951	1403.54
992.41	2312.31
996.866	3060.31
1001.32	3313.69
1005.77	2795.63
1010.22	2340.71
1014.67	2135.36
1019.11	1710.42
1023.55	1378.69
1027.99	1102.43
1032.42	850.735
1036.86	666.618
1041.29	648.915
1045.72	934.63
1050.14	1428.79
1054.56	2457.39
1058.98	4294.48
1063.4	6531.03
1067.82	8362.08
1072.23	8304.62
1076.64	6783.64
1081.05	5111.18
1085.45	4217.15
1089.85	3535.85
1094.25	2937.68
1098.65	2692.91
1103.04	2350.51
1107.43	2014.34
1111.82	1863.49
1116.21	2195.21
1120.59	2457.46
1124.97	2519.22
1129.35	2068
1133.73	1571.05
1138.1	1333.48
1142.47	1082.11
1146.84	929.916
1151.21	856.2
1155.57	609.693
1159.93	514.563
1164.29	486.019
1168.64	528.72
1172.99	586.481
1177.34	726.551
1181.69	1060.74
1186.04	1161.65
1190.38	1223.61
1194.72	1125.72
1199.05	1247.46
1203.39	1497.52
1207.72	1815.36
1212.05	1808.42
1216.37	1660.72
1220.7	1128.32
1225.02	953.395
1229.34	434.788
1233.65	382.011
1237.97	295.299
1242.28	156.461
1246.59	159.477
1250.89	88.2529
1255.19	48.9297
1259.49	159.335
1263.79	82.3906
1268.09	45.3184
1272.38	86.0527
1276.67	16.8965
1280.95	87.7871
1285.24	75.7236
1289.52	116.481
1293.8	94.4043
1298.08	49.3818
1302.35	131.342
1306.62	120.293
1310.89	91.3232
1315.15	177.448
1319.42	104.471
1323.68	23.8008
1327.94	150.155
1332.19	237.485
1336.44	245.849
1340.69	287.693
1344.94	244.912
1349.19	227.609
1353.43	73.5684
1357.67	215.791
1361.9	244.658
1366.14	149.414
1370.37	222.758
1374.6	252.981
1378.83	225.664
1383.05	680.469
1387.27	524.215
1391.49	163.436
1395.7	134.986
1399.92	199.721
1404.13	130.977
1408.34	40.9629
1412.54	36.915
1416.74	57.8252
1420.94	129.832
1425.14	52.5234
1429.34	50.9824
1433.53	139.87
1437.72	141.321
1441.9	136.499
1446.09	97.3633
1450.27	98.8193
1454.45	72.6045
1458.63	5.20898
1462.8	196.497
1466.97	117.793
1471.14	169.711
1475.31	50.2744
1479.47	180.464
1483.63	196.627
1487.79	212.892
1491.94	220.645
1496.09	153.614
1500.24	179.537
1504.39	111.125
1508.54	139.423
1512.68	88.9922
1516.82	68.5557
1520.95	127.486
1525.09	53.6855
1529.22	227.38
1533.35	122.157
1537.47	181.814
1541.6	40.5791
1545.72	87.2344
1549.83	193.461
1553.95	391.639
1558.06	139.328
1562.17	111.846
1566.28	71.3369
1570.38	0.313477
