Measurement: Raman, 514 nm, ccw, Raman Data Processed
Mineral: Beryl
Rruff sample: R050065
Ideal chemistry: Be_3_Al_2_Si_6_O_18_
Locality: Xuebaoding, Sichuan Province, China
Source: Rock Currier
Description: Light blue colored tabular single crystal
Measured chemistry: (Be_2.78_Li_0.22_)_Σ=3_Al_2.00_Si_6.00_O_18_·Na_0.22_
Pin_id: L00396
Orientation: Laser parallel to a* (1 0 0). Fiducial mark perpendicular to laser is parallel to c [0 0 1]
Raman shift (cm-1)	intensity
94.768	0
98.947	14.133
103.124	109.654
107.3	528.428
111.473	1308
115.644	2454.83
119.813	2480.32
123.981	2220.79
128.146	1887.47
132.309	2013.89
136.47	1812.44
140.63	1749.46
144.787	1411.23
148.942	1053.69
153.096	1254.75
157.247	1180.9
161.396	1193.09
165.544	1181.7
169.689	955.983
173.833	900.424
177.974	878.422
182.114	693.64
186.251	630.009
190.387	497.779
194.52	340.096
198.652	428.995
202.782	46.805
206.909	65.557
211.035	129.809
215.159	50.728
219.281	7.555
223.4	1.59
227.518	90.819
231.634	250.673
235.748	175.692
239.86	193.603
243.97	164.43
248.079	190.34
252.185	115.267
256.289	1.156
260.391	15.062
264.492	66.918
268.59	36.396
272.687	9.453
276.781	114.748
280.874	129.123
284.964	230.328
289.053	497.217
293.14	1009.73
297.225	664.723
301.308	243.029
305.389	325.846
309.468	290.189
313.545	603.939
317.62	1071.57
321.693	1619.31
325.765	1591.46
329.834	568.357
333.902	89.637
337.967	55.314
342.031	168.365
346.093	140.084
350.153	1.654
354.21	104.486
358.267	273.311
362.321	224.197
366.373	325.551
370.423	447.043
374.471	669.727
378.518	767.389
382.563	1165.05
386.605	2530.05
390.646	4551.83
394.685	9008.41
398.722	13694.6
402.757	10367.7
406.79	5090.55
410.821	2893.3
414.851	2199.35
418.878	2076.73
422.904	1908.02
426.927	1472.3
430.949	891.229
434.969	781.365
438.987	666.154
443.003	678.932
447.018	568.658
451.03	262.59
455.041	205.674
459.049	191
463.056	44.973
467.061	58.568
471.064	59.834
475.065	41.768
479.064	22.373
483.062	29.73
487.057	219.508
491.051	127.041
495.043	164.311
499.032	76.307
503.02	57.781
507.007	124.984
510.991	134.051
514.973	44.795
518.954	199.201
522.933	228.887
526.91	154.688
530.885	84.221
534.858	197.488
538.829	150.568
542.799	233.953
546.766	154.057
550.732	309.451
554.696	228.557
558.658	340.402
562.618	376.006
566.576	450.371
570.533	862.52
574.488	755.453
578.44	780.15
582.391	702.613
586.341	577.84
590.288	310.834
594.233	228.602
598.177	57.203
602.119	270.516
606.059	146.592
609.997	0.709
613.933	163.453
617.868	427.277
621.801	737.133
625.731	378.619
629.66	258.936
633.588	302.336
637.513	279.963
641.437	621.529
645.358	503.381
649.278	676.273
653.196	732.346
657.113	584.566
661.027	662.611
664.94	751.75
668.851	1645.12
672.76	3014.61
676.667	6025.04
680.572	14116.3
684.476	29700.4
688.378	28879.3
692.278	13471
696.176	7149.43
700.072	3942.84
703.967	2561.78
707.86	1562.05
711.751	1622.11
715.64	810.307
719.527	808.404
723.413	715.113
727.297	623.029
731.179	581.865
735.059	634.619
738.937	636.297
742.814	478.904
746.689	230.445
750.562	533.932
754.433	409.352
758.303	217.727
762.17	577.781
766.036	472.941
769.901	433.375
773.763	51.617
777.624	200.854
781.482	66.188
785.339	134.521
789.195	192.936
793.048	71.07
796.9	262.652
800.75	28.283
804.598	66.947
808.445	51.123
812.289	232.557
816.132	95.266
819.973	51.857
823.813	36.895
827.65	176.736
831.486	106.703
835.32	214.268
839.152	115.963
842.983	37.723
846.812	275.561
850.639	296.479
854.464	364.486
858.288	473.584
862.11	378.771
865.93	305.084
869.748	135.555
873.564	302.168
877.379	356.9
881.192	13.713
885.004	286.641
888.813	399.834
892.621	370.842
896.427	378.127
900.232	431.539
904.034	560.418
907.835	647.762
911.634	526.594
915.432	294.404
919.227	355.801
923.021	384.316
926.813	324.988
930.604	486.809
934.393	416.77
938.18	137.082
941.965	294.332
945.749	349.734
949.53	215.279
953.311	13.025
957.089	188.816
960.866	71.137
964.641	59.35
968.414	42.168
972.185	228.439
975.955	196.803
979.723	122.834
983.49	26.764
987.254	274.629
991.017	725.15
994.779	1274.87
998.538	1756.81
1002.3	2640.94
1006.05	2364.58
1009.81	2239.51
1013.56	1857.86
1017.31	1858.25
1021.06	1611.17
1024.81	1066.72
1028.55	1050.92
1032.3	709.561
1036.04	593.787
1039.78	868.303
1043.52	817.041
1047.26	570.953
1050.99	1362.01
1054.73	1329.22
1058.46	1883.55
1062.19	2840.99
1065.92	3350.54
1069.65	3666.2
1073.37	3657.94
1077.1	2939.77
1080.82	2543.66
1084.54	2004.61
1088.26	1569.63
1091.97	1248.69
1095.69	564.783
1099.4	925.973
1103.12	661
1106.83	824.713
1110.54	599.951
1114.24	634.945
1117.95	623.066
1121.65	652.068
1125.35	429.113
1129.06	763.953
1132.75	495.676
1136.45	418.25
1140.15	453.137
1143.84	572.254
1147.53	669.77
1151.22	322.961
1154.91	510.691
1158.6	162.047
1162.28	89.848
1165.97	136.488
1169.65	228.078
1173.33	181.789
1177.01	4.48
1180.69	137.355
1184.36	159.613
1188.04	253.207
1191.71	572.012
1195.38	524.246
1199.05	688.051
1202.71	255.93
1206.38	726.082
1210.04	486.895
1213.71	374.266
1217.37	639.184
1221.03	497.582
1224.68	766.461
1228.34	884.754
1231.99	412.664
1235.65	560.141
1239.3	572.879
1242.95	233.703
1246.59	482.84
1250.24	118.379
1253.88	141.543
1257.53	164.344
1261.17	40.117
1264.81	16.59
1268.45	265.828
1272.08	208.676
1275.72	212.805
1279.35	261.746
1282.98	314.145
1286.61	0.098
1290.24	194.234
1293.87	63.414
1297.49	129.449
1301.11	55.352
1304.73	61.434
1308.36	73.906
1311.97	239.188
1315.59	165.98
1319.2	382.414
1322.82	474.574
1326.43	308.477
1330.04	46.34
1333.65	45.777
1337.26	361.34
1340.86	316.992
1344.47	314.691
1348.07	400.047
1351.67	394.949
1355.27	205.852
1358.87	267.586
1362.46	347.816
1366.06	299.023
1369.65	393.121
1373.24	456.797
1376.83	597.57
1380.42	464.742
1384	617.406
1387.59	382.996
1391.17	480.594
1394.75	148.746
1398.33	507.461
1401.91	225.273
1405.49	234.059
1409.06	426.902
1412.64	71.445
1416.21	291.953
1419.78	252.273
1423.35	126
1426.91	167.844
1430.48	0
