Measurement: Raman, 514 nm, ccw, Raman Data Processed
Mineral: Beryl
Rruff sample: R050120
Ideal chemistry: Be_3_Al_2_Si_6_O_18_
Locality: Cruziero mine, San Jose, Minas Gerais, Brazil
Source: Carlos and Paulo Vasconcelos
Description: Yellow gemmy fragment
Measured chemistry: (Be_2.76_Li_0.24_)_Σ=3_Al_2.00_Si_6.00_O_18_·Na_0.24_
Pin_id: L00520
Orientation: Laser parallel to a* (1 0 0). Fiducial mark perpendicular to laser is parallel to c [0 0 1]
Raman shift (cm-1)	intensity
94.768	0
98.947	29.512
103.124	96.401
107.3	580.69
111.473	1286.1
115.644	3081.4
119.813	3124.77
123.981	2287.2
128.146	1962.05
132.309	2015.54
136.47	1973.77
140.63	1796.22
144.787	1219.6
148.942	1018.36
153.096	1165.95
157.247	1278.59
161.396	1455.72
165.544	1457.47
169.689	1268.61
173.833	1308
177.974	1315.35
182.114	1092.32
186.251	805.67
190.387	659.662
194.52	456.155
198.652	490.094
202.782	191.663
206.909	14.939
211.035	119.391
215.159	66.466
219.281	102.542
223.4	94.983
227.518	178.252
231.634	367.308
235.748	175.398
239.86	115.062
243.97	269.629
248.079	223.067
252.185	2.645
256.289	114.595
260.391	76.602
264.492	160.661
268.59	77.711
272.687	59.301
276.781	0.118
280.874	89.113
284.964	112.816
289.053	454.864
293.14	995.303
297.225	643.682
301.308	303.556
305.389	217.384
309.468	174.031
313.545	558.428
317.62	894.831
321.693	1497.24
325.765	1432.43
329.834	606.766
333.902	288.635
337.967	45.879
342.031	65.359
346.093	17.703
350.153	65.025
354.21	208.949
358.267	193.855
362.321	287.535
366.373	390.252
370.423	339.879
374.471	664.014
378.518	664.277
382.563	1298.01
386.605	2359.46
390.646	4559.25
394.685	8887.65
398.722	15032.9
402.757	12101.9
406.79	5711.69
410.821	3145
414.851	2478.49
418.878	2004.33
422.904	1980.58
426.927	1548.56
430.949	897.393
434.969	765.059
438.987	525.912
443.003	700.623
447.018	488.99
451.03	236.453
455.041	197.361
459.049	195.996
463.056	78.031
467.061	45.246
471.064	13.986
475.065	49.861
479.064	74.885
483.062	25.191
487.057	80.861
491.051	186.885
495.043	23.408
499.032	90.787
503.02	75.84
507.007	34.445
510.991	2.721
514.973	99.521
518.954	113.197
522.933	143.588
526.91	92.119
530.885	131.352
534.858	153.312
538.829	223.115
542.799	21.703
546.766	111.99
550.732	208.016
554.696	359.793
558.658	369.328
562.618	354.623
566.576	470.678
570.533	955.494
574.488	832.141
578.44	930.635
582.391	764.947
586.341	607.023
590.288	428.861
594.233	419.457
598.177	194.828
602.119	59.988
606.059	187.877
609.997	30.486
613.933	186.578
617.868	207.588
621.801	551.309
625.731	387.111
629.66	180.951
633.588	328.416
637.513	185.541
641.437	594.791
645.358	708.154
649.278	658.516
653.196	743.855
657.113	806.551
661.027	802.65
664.94	855.484
668.851	1912.2
672.76	3286.69
676.667	6613.13
680.572	15029.7
684.476	31719
688.378	30678.4
692.278	14538.5
696.176	7792.81
700.072	4430.92
703.967	2938.22
707.86	1905.19
711.751	1843.15
715.64	988.973
719.527	1082.65
723.413	1010.19
727.297	742.602
731.179	751.473
735.059	771.979
738.937	792.008
742.814	695.912
746.689	737.016
750.562	732.381
754.433	687.807
758.303	307.889
762.17	420.719
766.036	422.062
769.901	357.25
773.763	55.131
777.624	270.211
781.482	114.277
785.339	175.375
789.195	43.57
793.048	62.111
796.9	241.654
800.75	149.393
804.598	175.893
808.445	74.748
812.289	163.508
816.132	152.41
819.973	44.861
823.813	28.383
827.65	158.213
831.486	169.555
835.32	25.566
839.152	116.854
842.983	214.301
846.812	273.779
850.639	344.297
854.464	529.848
858.288	358.449
862.11	168.092
865.93	468.773
869.748	273.5
873.564	218.279
877.379	177.033
881.192	105.008
885.004	158.951
888.813	188.947
892.621	303.016
896.427	269.158
900.232	383.383
904.034	187.695
907.835	400.096
911.634	518.605
915.432	383.223
919.227	383.971
923.021	392.924
926.813	337.9
930.604	334.758
934.393	318.387
938.18	174.68
941.965	174.275
945.749	250.064
949.53	127.252
953.311	454.854
957.089	234.477
960.866	115.639
964.641	4.193
968.414	22.092
972.185	6.523
975.955	26.975
979.723	116.496
983.49	40.047
987.254	289.365
991.017	905.412
994.779	1510.72
998.538	1826.43
1002.3	2862.34
1006.05	2487.46
1009.81	2193.83
1013.56	1720.58
1017.31	1538.6
1021.06	1420.88
1024.81	1033.46
1028.55	741.754
1032.3	655.168
1036.04	720.693
1039.78	867.643
1043.52	710.125
1047.26	661.801
1050.99	1266.67
1054.73	1395.71
1058.46	2204.9
1062.19	3142.26
1065.92	3481.75
1069.65	3695.37
1073.37	3888.11
1077.1	3183.96
1080.82	3075.91
1084.54	2228.94
1088.26	1707.06
1091.97	1326.3
1095.69	1068.66
1099.4	1013.36
1103.12	813.311
1106.83	1017.09
1110.54	834.223
1114.24	673.805
1117.95	995.354
1121.65	1648.07
1125.35	1076.44
1129.06	1007.22
1132.75	621.133
1136.45	580.428
1140.15	701.32
1143.84	988.789
1147.53	825.766
1151.22	432.578
1154.91	599.881
1158.6	382.057
1162.28	306.439
1165.97	208.701
1169.65	241.559
1173.33	203.713
1177.01	1012.24
1180.69	313.117
1184.36	278.391
1188.04	197.529
1191.71	536.553
1195.38	498.611
1199.05	680.637
1202.71	299.92
1206.38	671.77
1210.04	505.699
1213.71	430.945
1217.37	525.328
1221.03	538.352
1224.68	966.699
1228.34	811.352
1231.99	422.57
1235.65	240.5
1239.3	535.684
1242.95	395.02
1246.59	333.777
1250.24	343.688
1253.88	175.547
1257.53	182.578
1261.17	89.16
1264.81	29.332
1268.45	69.973
1272.08	99.32
1275.72	143.953
1279.35	71.426
1282.98	147.562
1286.61	25.969
1290.24	194.258
1293.87	152.82
1297.49	56.871
1301.11	195.691
1304.73	91.676
1308.36	103.73
1311.97	268.891
1315.59	255.883
1319.2	570.82
1322.82	519.773
1326.43	463.875
1330.04	420.223
1333.65	341.539
1337.26	245.5
1340.86	331.18
1344.47	497.914
1348.07	245.457
1351.67	435.883
1355.27	564.918
1358.87	474.48
1362.46	643.082
1366.06	282.055
1369.65	388.297
1373.24	605.121
1376.83	403.691
1380.42	269.789
1384	381.203
1387.59	382.664
1391.17	102.371
1394.75	169.965
1398.33	386.066
1401.91	382.809
1405.49	456.727
1409.06	519.664
1412.64	305.168
1416.21	149.691
