Measurement: Raman, 514 nm, ccw, Raman Data Processed
Mineral: Beryl
Rruff sample: R060944
Ideal chemistry: Be_3_Al_2_Si_6_O_18_
Locality: Habachtal, Salzburg, Austria
Source: Lawrence W. Snee
Description: Green hexagonal prisms in a muscovite schist, variety emerald. Note that there are micro inclusions of actinolite. The Raman signal is a mixture of the two phases.
Measured chemistry: Be_3.00_(Al_1.59_Mg_0.33_Fe^3+^_0.04_Cr^3+^_0.04_)_Σ=2_Si_6.00_O_18_·Na_0.33_ ; bright inclusions are actinolite
Pin_id: L01278
Orientation: Laser parallel to a* (1 0 0). Fiducial mark perpendicular to laser is parallel to c [0 0 1]
Raman shift (cm-1)	intensity
130.439	0
135.356	50.7227
140.271	195.443
145.184	10.082
150.094	187.6
155.002	572.756
159.908	768.283
164.811	581.434
169.711	802.695
174.61	1377.16
179.505	1958.11
184.399	896.494
189.29	725.914
194.178	591.902
199.064	629.106
203.948	644.404
208.829	638.289
213.708	1034.55
218.585	1864.58
223.459	2534.89
228.33	1878.06
233.199	1397.93
238.066	914.498
242.93	819.762
247.792	734.676
252.651	622.199
257.508	300.316
262.363	160.006
267.215	377.254
272.064	71.6797
276.912	99.0625
281.756	194.295
286.598	289.603
291.438	154.934
296.276	383.723
301.111	586.844
305.943	830.102
310.773	1374.48
315.601	2754.57
320.426	6103.29
325.248	8950.19
330.068	3152.06
334.886	1082.82
339.701	742.082
344.514	510.799
349.324	543.715
354.132	448.055
358.938	657.26
363.741	995.578
368.541	1219.26
373.339	1051.28
378.135	1280.57
382.928	1607.12
387.718	3270.91
392.506	6679.94
397.292	10444.2
402.075	6625.37
406.856	2795.13
411.634	1390.33
416.41	763.019
421.183	485.19
425.954	367.768
430.722	472.699
435.488	551.973
440.251	229.551
445.012	186.4
449.77	169.498
454.526	168.19
459.28	132.094
464.03	2.46875
468.779	68.4434
473.525	63.8574
478.268	89.207
483.009	194.719
487.747	209.387
492.483	362.162
497.217	14.043
501.948	185.055
506.676	388.199
511.402	799.519
516.125	1243.97
520.846	1433.54
525.565	1283.25
530.281	532.143
534.994	343.266
539.705	52.2637
544.413	83.4121
549.119	3.875
553.822	73.3633
558.523	159.574
563.222	95.0195
567.917	91.584
572.611	395.242
577.302	297.978
581.99	359.828
586.676	210.785
591.359	288.871
596.04	346.482
600.718	458.617
605.394	451.004
610.067	1277.64
614.737	1898.66
619.406	1369.52
624.071	345.416
628.734	131.383
633.395	472.603
638.053	448.543
642.708	773.76
647.361	889.785
652.012	1245.18
656.66	1891.29
661.305	2769.14
665.948	5425.67
670.588	10261.8
675.226	12094.2
679.861	16673.5
684.494	32912.6
689.124	32210.5
693.752	12899.1
698.377	5694.09
702.999	3235.36
707.619	2029.08
712.237	1263.25
716.852	693.564
721.464	669.191
726.074	464.113
730.681	388.766
735.286	491.324
739.888	354.205
744.488	364.193
749.085	452.141
753.68	144.973
758.272	327.139
762.861	321.078
767.448	291.596
772.033	221.18
776.614	266.131
781.194	415.762
785.77	28.2617
790.345	125.363
794.916	75.8047
799.485	137.002
804.052	68.916
808.616	89.4844
813.177	88.5176
817.736	206.938
822.292	203.736
826.846	32.5566
831.397	86.832
835.945	22.0195
840.491	239.611
845.035	125.957
849.576	130.109
854.114	70.9981
858.65	27.3633
863.183	60.916
867.713	201.978
872.241	73.0156
876.767	92.75
881.29	2.78711
885.81	114.195
890.328	20.1602
894.843	9.28125
899.356	58.2871
903.866	258.045
908.373	310.402
912.878	81.791
917.38	393.033
921.88	446.312
926.377	959.74
930.872	705.18
935.364	361.234
939.853	354.58
944.34	188.051
948.824	353.918
953.306	69.2246
957.785	68.1348
962.261	316.877
966.735	199.228
971.207	107.121
975.675	88.9746
980.141	251.941
984.605	524.65
989.066	597.51
993.524	877.797
997.98	1362.46
1002.43	1682.12
1006.88	2004.4
1011.33	2219.55
1015.78	2426.25
1020.22	2671.62
1024.66	2909.39
1029.1	2946.07
1033.53	2910.53
1037.97	3054.27
1042.4	3669.5
1046.82	5225.21
1051.25	8310.47
1055.67	12866.3
1060.09	19761.7
1064.51	28665
1068.92	31611.4
1073.33	28422.7
1077.74	20694
1082.15	14320
1086.55	10630.1
1090.95	7702.17
1095.35	6382.49
1099.75	5356.62
1104.14	4831.34
1108.53	4058.33
1112.92	4098.34
1117.31	3978.2
1121.69	4456.28
1126.07	4376.03
1130.45	4236.77
1134.82	3573.46
1139.19	2823.66
1143.57	2291.51
1147.93	1642.46
1152.3	1413.02
1156.66	1012.05
1161.02	803.941
1165.38	477.58
1169.73	457.588
1174.08	422.824
1178.43	438.406
1182.78	443.549
1187.12	308.371
1191.46	20.3574
1195.8	278.098
1200.14	250.268
1204.47	102.109
1208.8	187.459
1213.13	37.3262
1217.46	207.076
1221.78	44.6074
1226.1	139.184
1230.42	71.666
1234.73	119.076
1239.04	147.746
1243.35	48.8555
1247.66	2.05273
1251.97	18.6504
1256.27	101.287
1260.57	42.1582
1264.86	47.6191
1269.16	166.465
1273.45	61.541
1277.74	28.2676
1282.03	97.4981
1286.31	19.2285
1290.59	265.965
1294.87	1.43555
1299.14	81.082
1303.42	82.7402
1307.69	75.8301
1311.95	161.041
1316.22	178.914
1320.48	154.881
1324.74	366.004
1329	291.647
1333.26	205.356
1337.51	9.09766
1341.76	388.627
1346	91.5391
1350.25	310.795
1354.49	326.033
1358.73	75.1016
1362.96	249.315
1367.2	224.887
1371.43	320.377
1375.66	365.17
1379.88	211.397
1384.11	493.103
1388.33	140.713
1392.54	162.553
1396.76	142.059
1400.97	302.725
1405.18	178.559
1409.39	10.6387
1413.59	208.191
1417.8	166.549
1421.99	218.037
1426.19	280.252
1430.38	116.455
1434.58	15.5996
1438.77	227.502
1442.95	260.227
1447.13	198.912
1451.32	456.643
1455.49	330.291
1459.67	311.981
1463.84	83.7988
1468.01	377.523
1472.18	350.152
1476.35	221.828
1480.51	213.926
1484.67	216.994
1488.83	136.621
1492.98	298.207
1497.13	278.273
1501.28	303.932
1505.43	183.516
1509.57	283.393
1513.71	303.711
1517.85	256.346
1521.99	200.953
1526.12	160.027
1530.25	179.152
1534.38	336.894
1538.5	251.889
1542.62	428.336
1546.74	271.066
1550.86	460.537
1554.98	636.322
1559.09	364.826
1563.2	313.467
1567.31	399.69
1571.41	0
