Measurement: Raman, 514 nm, ccw, Raman Data Processed
Mineral: Beryl
Rruff sample: R050065
Ideal chemistry: Be_3_Al_2_Si_6_O_18_
Locality: Xuebaoding, Sichuan Province, China
Source: Rock Currier
Description: Light blue colored tabular single crystal
Measured chemistry: (Be_2.78_Li_0.22_)_Σ=3_Al_2.00_Si_6.00_O_18_·Na_0.22_
Pin_id: L00371
Orientation: Laser parallel to c* (0 0 1). Fiducial mark perpendicular to laser is parallel to a [1 0 0]
Raman shift (cm-1)	intensity
98.947	0
103.124	2.618
107.3	508.739
111.473	1159.77
115.644	2274.63
119.813	2566.97
123.981	2328.03
128.146	2077.95
132.309	2236.23
136.47	2002.15
140.63	1949.27
144.787	1666.93
148.942	1169.98
153.096	1296.16
157.247	1497.64
161.396	1467.02
165.544	1397.14
169.689	1253.69
173.833	1164.64
177.974	1033.97
182.114	847.391
186.251	780.679
190.387	612.007
194.52	465.181
198.652	458.028
202.782	191.573
206.909	109.95
211.035	160.779
215.159	124.025
219.281	37.026
223.4	60.775
227.518	180.852
231.634	227.995
235.748	213.016
239.86	116.363
243.97	177.421
248.079	220.496
252.185	62.517
256.289	76.543
260.391	54.737
264.492	36.108
268.59	66.491
272.687	34.615
276.781	74.126
280.874	156.223
284.964	426.433
289.053	896.457
293.14	1441.11
297.225	930.201
301.308	343.655
305.389	426.544
309.468	452.259
313.545	783.672
317.62	1556.17
321.693	2256.52
325.765	2158.86
329.834	996.545
333.902	263.166
337.967	52.377
342.031	111.593
346.093	82.975
350.153	241.711
354.21	199.185
358.267	265.191
362.321	308.873
366.373	287.617
370.423	537.73
374.471	834.958
378.518	912.378
382.563	1577.47
386.605	2910.81
390.646	5407.65
394.685	10915.8
398.722	16412.7
402.757	12442.4
406.79	6076.91
410.821	3692.14
414.851	3112.05
418.878	3277.01
422.904	3022.89
426.927	2165.45
430.949	1305.33
434.969	1161.59
438.987	975.75
443.003	798.765
447.018	748.91
451.03	540.764
455.041	290.898
459.049	351.245
463.056	231.188
467.061	211.827
471.064	3.09
475.065	84.952
479.064	149.341
483.062	208.355
487.057	291.893
491.051	243.188
495.043	116.324
499.032	204.879
503.02	73.684
507.007	80.572
510.991	37.457
514.973	72.297
518.954	164.93
522.933	37.623
526.91	33.842
530.885	49.455
534.858	94.652
538.829	300.586
542.799	35.633
546.766	243.777
550.732	530.857
554.696	660.688
558.658	778.229
562.618	950.453
566.576	1018.37
570.533	1301.96
574.488	1437.24
578.44	1356.21
582.391	1253.94
586.341	775.383
590.288	531.523
594.233	498.361
598.177	350.885
602.119	219.08
606.059	226.938
609.997	169.439
613.933	299.539
617.868	354.25
621.801	508.553
625.731	218.316
629.66	190.27
633.588	358.145
637.513	249.207
641.437	477.904
645.358	550.502
649.278	442.506
653.196	627.568
657.113	657.277
661.027	901.795
664.94	1167.99
668.851	2145.87
672.76	3774.28
676.667	7724.57
680.572	17721.6
684.476	36987.6
688.378	35797.1
692.278	16784.6
696.176	8770.26
700.072	4991.23
703.967	3522.93
707.86	2388.31
711.751	1986.59
715.64	1292.85
719.527	1249.59
723.413	1091.43
727.297	935.057
731.179	928.488
735.059	894.729
738.937	853.777
742.814	762.643
746.689	605.326
750.562	774.84
754.433	801.18
758.303	586.854
762.17	817.445
766.036	940.547
769.901	533.996
773.763	150.219
777.624	437.393
781.482	220.084
785.339	337.27
789.195	123.506
793.048	105.803
796.9	145.879
800.75	26.871
804.598	195.605
808.445	0.605
812.289	79.275
816.132	144.48
819.973	103.689
823.813	133.965
827.65	28.467
831.486	122.973
835.32	10.404
839.152	11.35
842.983	120.078
846.812	37.037
850.639	46.043
854.464	81.879
858.288	44.299
862.11	143.521
865.93	166.059
869.748	120.387
873.564	49.248
877.379	219.861
881.192	36.521
885.004	179.234
888.813	338.258
892.621	241.857
896.427	114.781
900.232	323.789
904.034	385.883
907.835	637.072
911.634	585.361
915.432	275.758
919.227	219.283
923.021	339.967
926.813	196.781
930.604	330.717
934.393	361.781
938.18	114.963
941.965	217.27
945.749	319.699
949.53	106.107
953.311	111.547
957.089	36.631
960.866	142.682
964.641	90.387
968.414	110.646
972.185	275.076
975.955	220.76
979.723	297.963
983.49	229.256
987.254	458.652
991.017	1150.98
994.779	2015.6
998.538	2107.56
1002.3	2436.17
1006.05	2024.67
1009.81	1602.7
1013.56	1165.41
1017.31	994.152
1021.06	880.379
1024.81	505.375
1028.55	765.498
1032.3	550.119
1036.04	518.166
1039.78	761.688
1043.52	811.459
1047.26	689.473
1050.99	1482.67
1054.73	1623.06
1058.46	2603.61
1062.19	3636.33
1065.92	4359.22
1069.65	4684.27
1073.37	4396.48
1077.1	3782.83
1080.82	3170.34
1084.54	2477.99
1088.26	2045.72
1091.97	1146.64
1095.69	1037.14
1099.4	1151.34
1103.12	945.777
1106.83	788.406
1110.54	610.07
1114.24	719.953
1117.95	789.68
1121.65	581.268
1125.35	346.736
1129.06	743.662
1132.75	624.455
1136.45	496.58
1140.15	706.363
1143.84	775.525
1147.53	918.916
1151.22	517.521
1154.91	600.014
1158.6	233.412
1162.28	275.66
1165.97	254.67
1169.65	281.314
1173.33	235.461
1177.01	169.494
1180.69	499.355
1184.36	599.889
1188.04	705.045
1191.71	885.629
1195.38	745.652
1199.05	997.58
1202.71	595.637
1206.38	999.168
1210.04	908.717
1213.71	809.057
1217.37	1215.51
1221.03	1166.73
1224.68	1619.96
1228.34	1369.83
1231.99	1191.38
1235.65	1098.87
1239.3	1183.27
1242.95	645.574
1246.59	523.758
1250.24	370.869
1253.88	191.486
1257.53	415.844
1261.17	261.918
1264.81	258.381
1268.45	203.104
1272.08	230.893
1275.72	28.881
1279.35	110.854
1282.98	80.531
1286.61	29.842
1290.24	65.688
1293.87	25.094
1297.49	18
1301.11	157.68
1304.73	126.008
1308.36	54.5
1311.97	78.621
1315.59	87.074
1319.2	81.324
1322.82	91.652
1326.43	71.91
1330.04	12.484
1333.65	86.527
1337.26	297.109
1340.86	362.289
1344.47	385.125
1348.07	560.691
1351.67	438.043
1355.27	143.363
1358.87	413.516
1362.46	316.309
1366.06	309.574
1369.65	307.469
1373.24	516.402
1376.83	524.949
1380.42	803.066
1384	644.176
1387.59	442.391
1391.17	450.25
1394.75	510.562
1398.33	899.402
1401.91	417.527
1405.49	598.656
1409.06	822.305
1412.64	335.566
1416.21	559.98
1419.78	405.797
1423.35	479.742
1426.91	517.992
1430.48	205.574
1434.05	505.637
1437.61	606.828
1441.17	731.312
1444.73	451.195
1448.29	754.332
1451.84	696.484
1455.4	454.254
1458.95	514.242
1462.5	500.785
1466.05	1023.62
1469.6	661.441
1473.15	821.477
1476.69	521.387
1480.24	844.629
1483.78	615.52
1487.32	340.395
1490.86	374.656
1494.39	596.902
1497.93	563.996
1501.46	171.746
1505	368.008
1508.53	187.809
