Measurement: Raman, 514 nm, ccw, Raman Data Processed
Mineral: Beryl
Rruff sample: R040002
Ideal chemistry: Be_3_Al_2_Si_6_O_18_
Locality: Usakos, Namibia
Source: University of Arizona Mineral Museum
Description: Light blue hexagonal prism, variety aquamarine
Measured chemistry: (Be_0.97_Li_0.03_)_3_(Al_0.97_Fe^3+^_0.03_)_2_Si_6_O_18_Î‡Na_0.01_
Pin_id: M00004
Orientation: Laser parallel to -c* (0 0 -1). Fiducial mark perpendicular to laser is parallel to a [1 0 0]
Raman shift (cm-1)	intensity
94.768	0
98.947	136.7
103.124	85.631
107.3	254.122
111.473	279.494
115.644	946.001
119.813	974.776
123.981	370.383
128.146	127.904
132.309	235.585
136.47	189.319
140.63	388.67
144.787	643.653
148.942	232.684
153.096	93.727
157.247	109.622
161.396	7.596
165.544	81.416
169.689	58.684
173.833	82.814
177.974	284.692
182.114	618.587
186.251	610.467
190.387	310.854
194.52	113.613
198.652	138.602
202.782	53.218
206.909	9.781
211.035	33.38
215.159	116.812
219.281	28.546
223.4	41.187
227.518	18.508
231.634	100.036
235.748	211.272
239.86	172.07
243.97	172.007
248.079	163.958
252.185	82.961
256.289	217.562
260.391	269.948
264.492	207.62
268.59	199.576
272.687	324.391
276.781	395.896
280.874	567.946
284.964	918.537
289.053	1271.7
293.14	916.146
297.225	715.812
301.308	813.511
305.389	1089.39
309.468	1523.85
313.545	3110.39
317.62	5965.92
321.693	8084.91
325.765	3069.56
329.834	658.779
333.902	166.823
337.967	116.701
342.031	143.925
346.093	146
350.153	260.574
354.21	340.093
358.267	363.083
362.321	218.269
366.373	240.525
370.423	253.536
374.471	187.532
378.518	294.146
382.563	711.42
386.605	2476.19
390.646	7139.94
394.685	15210.4
398.722	10648.1
402.757	4370.89
406.79	2018.91
410.821	1373.24
414.851	2013.75
418.878	3418.38
422.904	3558.86
426.927	1792.09
430.949	799.135
434.969	916.312
438.987	2069.66
443.003	3051.39
447.018	1900.66
451.03	629.262
455.041	318.562
459.049	246.573
463.056	178.288
467.061	162.692
471.064	90.776
475.065	135.511
479.064	202.951
483.062	219.126
487.057	223.109
491.051	149.882
495.043	128.208
499.032	282.219
503.02	277.359
507.007	167.672
510.991	216.729
514.973	187.112
518.954	14.8
522.933	199.67
526.91	255.623
530.885	67.019
534.858	107.084
538.829	74.757
542.799	153.847
546.766	72.095
550.732	103.278
554.696	68.1
558.658	213.18
562.618	513.134
566.576	481.199
570.533	735.295
574.488	1222.63
578.44	1548.46
582.391	1938.02
586.341	1720.48
590.288	1223.69
594.233	1162.03
598.177	1205.72
602.119	1095.02
606.059	974.394
609.997	709.474
613.933	796.106
617.868	965.196
621.801	1184.54
625.731	1042.33
629.66	682.731
633.588	509.016
637.513	368.924
641.437	758.387
645.358	842.359
649.278	795.015
653.196	804.854
657.113	693.524
661.027	654.013
664.94	927.565
668.851	1799.57
672.76	3502.89
676.667	8090.6
680.572	23095.7
684.476	37984.5
688.378	18791.7
692.278	7428.99
696.176	4189.9
700.072	2450.56
703.967	1553.51
707.86	785.738
711.751	693.271
715.64	259.035
719.527	116.029
723.413	71.134
727.297	33.117
731.179	105.98
735.059	51.725
738.937	139.33
742.814	178.808
746.689	15.183
750.562	187.446
754.433	147.549
758.303	20.388
762.17	268.059
766.036	936.645
769.901	1857.16
773.763	1125.61
777.624	565.006
781.482	200.352
785.339	166.885
789.195	116.814
793.048	39.713
796.9	28.781
800.75	11.75
804.598	243.053
808.445	24.867
812.289	6.883
816.132	112.557
819.973	17.904
823.813	98.014
827.65	92.314
831.486	1.809
835.32	292.447
839.152	160.447
842.983	204.6
846.812	216.988
850.639	631.523
854.464	761.109
858.288	1123.02
862.11	1015.01
865.93	906.445
869.748	237.23
873.564	299.807
877.379	511.201
881.192	246.354
885.004	174.811
888.813	148.316
892.621	296.742
896.427	295.75
900.232	407.973
904.034	510.064
907.835	846.814
911.634	932.256
915.432	686.332
919.227	646.217
923.021	517.051
926.813	345.814
930.604	451.498
934.393	423.1
938.18	240.613
941.965	177.596
945.749	295.457
949.53	288.084
953.311	29.176
957.089	67.244
960.866	37.73
964.641	38.408
968.414	233.332
972.185	298.25
975.955	298.424
979.723	371.488
983.49	110.371
987.254	356.475
991.017	809.828
994.779	1383.33
998.538	1652.35
1002.3	3231.26
1006.05	2419.31
1009.81	1680.86
1013.56	1321.84
1017.31	1215.69
1021.06	1287.14
1024.81	1000.63
1028.55	832.891
1032.3	858.623
1036.04	814.863
1039.78	971.137
1043.52	1081.48
1047.26	978.836
1050.99	1333.28
1054.73	1290.18
1058.46	1894.67
1062.19	3200.05
1065.92	4940.13
1069.65	5777.77
1073.37	4326.95
1077.1	2769.69
1080.82	2253.05
1084.54	1991.02
1088.26	1377.37
1091.97	1107.53
1095.69	826.256
1099.4	760.832
1103.12	565.846
1106.83	645.055
1110.54	472.516
1114.24	498.885
1117.95	629.455
1121.65	636.1
1125.35	324.941
1129.06	295.783
1132.75	46.164
1136.45	65.729
1140.15	27.682
1143.84	105.664
1147.53	53.934
1151.22	93.305
1154.91	57.436
1158.6	0.627
1162.28	18.143
1165.97	173.578
1169.65	210.752
1173.33	96.012
1177.01	42.148
1180.69	187.678
1184.36	35.438
1188.04	245.502
1191.71	309.383
1195.38	171.25
1199.05	302.635
1202.71	85.602
1206.38	340.738
1210.04	137.641
1213.71	328.646
1217.37	494.773
1221.03	660.205
1224.68	1128.78
1228.34	1434.19
1231.99	1315.31
1235.65	1459.91
1239.3	2404.09
1242.95	4111.21
1246.59	4558.61
1250.24	2385.33
1253.88	1334.09
1257.53	929.465
1261.17	677.338
1264.81	643.018
1268.45	930.178
1272.08	634.111
1275.72	804.623
1279.35	668.059
1282.98	588.59
1286.61	280.365
1290.24	507.896
1293.87	352.471
1297.49	472.666
1301.11	179.309
1304.73	44.092
1308.36	269.279
1311.97	287.766
1315.59	294.129
1319.2	237.465
1322.82	269.146
1326.43	149.639
1330.04	249.664
1333.65	94.791
1337.26	169.023
1340.86	151.383
1344.47	76.842
1348.07	116.406
1351.67	250.652
1355.27	45.371
1358.87	17.654
1362.46	180.436
1366.06	314.84
1369.65	167.818
1373.24	436.959
1376.83	230.848
1380.42	147.344
1384	484.52
1387.59	490.504
1391.17	376.092
1394.75	81.17
1398.33	333.117
1401.91	211.957
1405.49	354.822
1409.06	420.914
1412.64	64.125
1416.21	314.094
1419.78	88.088
1423.35	277.686
1426.91	224.854
