Measurement: Raman, 514 nm, ccw, Raman Data Processed
Mineral: Beryl
Rruff sample: R060943
Ideal chemistry: Be_3_Al_2_Si_6_O_18_
Locality: Xinjiang, China
Source: Lawrence W. Snee
Description: Green hexagonal prisms, variety emerald
Measured chemistry: (Be_2.96_Li_0.04_)_Σ=3_(Al_1.64_Mg_0.21_V^3+^_0.06_Fe^3+^_0.04_Sc^3+^_0.03_Cr^3+^_0.02_)_Σ=2_Si_6.00_O_18_·Na_0.25_
Pin_id: L01186
Orientation: Laser parallel to -c* (0 0 -1). Fiducial mark perpendicular to laser is parallel to a [1 0 0]
Raman shift (cm-1)	intensity
167.334	0
172.265	23.9912
177.193	153.722
182.117	139.606
187.039	553.773
191.958	734.357
196.874	1016.68
201.787	971.686
206.696	239.578
211.603	203.673
216.506	368.511
221.407	574.588
226.304	704.544
231.199	698.008
236.091	1004.21
240.979	1126.82
245.864	1554.96
250.747	1701.6
255.626	539.731
260.503	257.017
265.376	134.589
270.247	342.697
275.114	72.3281
279.979	223.462
284.84	529.075
289.699	751.058
294.554	796.524
299.407	892.92
304.257	1025.43
309.103	1585.18
313.947	3207.44
318.788	6148.82
323.626	10977.4
328.461	6029.27
333.292	1311.17
338.121	232.975
342.947	0.65625
347.771	49.0933
352.591	130.006
357.408	136.153
362.222	43.0469
367.034	91.9634
371.842	179.251
376.648	646.585
381.45	1340.19
386.25	2085.13
391.047	3459.45
395.841	6012.16
400.632	6111.03
405.42	2814.85
410.205	1448.34
414.988	1151
419.767	1014.56
424.544	765.743
429.318	863.426
434.089	1241.29
438.857	1889.87
443.622	2161.15
448.384	1315.17
453.143	745.937
457.9	650.446
462.654	552.459
467.405	453.916
472.153	446.821
476.898	512.187
481.64	541.584
486.38	601.492
491.116	545.727
495.85	637.932
500.581	932.123
505.309	1062.25
510.035	1393.95
514.757	2138.34
519.477	3363.5
524.194	4293.14
528.908	3031.58
533.62	1402.84
538.328	540.918
543.034	218.926
547.737	78.8257
552.437	79.5122
557.134	41.5903
561.829	152.257
566.521	106.371
571.21	326.911
575.896	511.243
580.58	394.712
585.261	500.328
589.939	379.887
594.614	414.648
599.286	399.416
603.956	326.188
608.623	513.961
613.287	1051.71
617.949	1673.36
622.608	1259.93
627.264	532.61
631.917	299.557
636.568	351.021
641.215	396.041
645.861	508.467
650.503	523.158
655.143	846.94
659.78	1191.72
664.414	2041.85
669.046	3693.78
673.674	7800.78
678.301	18968.3
682.924	40139.4
687.545	49273.9
692.163	22343.3
696.778	9152.83
701.391	4810.2
706.001	2872.11
710.609	1980.28
715.213	1285.96
719.815	868.265
724.415	556.816
729.011	296.259
733.606	453.431
738.197	364.123
742.786	279.391
747.372	356.43
751.955	462.714
756.536	505.172
761.114	832.234
765.69	838.467
770.262	943.34
774.833	821.844
779.4	666.947
783.965	527.704
788.528	344.043
793.087	164.985
797.645	160.525
802.199	73.6621
806.751	62.3584
811.3	61.623
815.847	13.8003
820.391	100.508
824.933	19.1758
829.471	35.8281
834.008	33.4028
838.541	4.07031
843.073	160.233
847.601	28.5693
852.127	8.54053
856.65	2.92481
861.171	51.9639
865.69	107.815
870.205	6.25488
874.718	0.85498
879.229	7.45264
883.737	43.8569
888.242	115.88
892.745	118.741
897.246	333.463
901.743	503.063
906.239	787.561
910.731	987.975
915.221	1237.33
919.709	1305.64
924.194	1026.92
928.677	765.207
933.157	718.47
937.634	425.993
942.109	344.967
946.582	196.881
951.052	158.815
955.519	37.5147
959.984	107.874
964.447	71.605
968.906	18.7031
973.364	126.602
977.819	301.949
982.271	625.553
986.721	1184.81
991.169	2028.76
995.614	3175.35
1000.06	4416.65
1004.5	5414.4
1008.93	6043.47
1013.37	5432.09
1017.8	4404.67
1022.23	3569.64
1026.66	2800.45
1031.09	2819.97
1035.51	2941.1
1039.93	3520.88
1044.35	4609.32
1048.76	6985.5
1053.17	11079.3
1057.58	19198.8
1061.99	31072
1066.4	39622.9
1070.8	36297.4
1075.2	27446.7
1079.6	18003.7
1084	12485.4
1088.39	8848.06
1092.78	6735.93
1097.17	5136.72
1101.56	4208.35
1105.94	3719.45
1110.32	3183.56
1114.7	3180.46
1119.08	3059.39
1123.45	3499.72
1127.82	3845.56
1132.19	3880.06
1136.56	3180.78
1140.92	2261.78
1145.29	1545.68
1149.65	1000.7
1154	681.444
1158.36	362.223
1162.71	153.195
1167.06	37.6157
1171.41	118.848
1175.76	185.607
1180.1	196.874
1184.44	202.733
1188.78	70.4502
1193.11	74.7554
1197.45	145.798
1201.78	56.0483
1206.11	199.673
1210.43	287.635
1214.76	293.374
1219.08	418.096
1223.4	418.88
1227.72	387.416
1232.03	234.766
1236.35	143.472
1240.66	63.9853
1244.96	10.77
1249.27	37.5356
1253.57	48.1387
1257.88	143.15
1262.17	72.0449
1266.47	36.5185
1270.76	31.896
1275.06	39.2593
1279.35	71.5772
1283.63	74.4844
1287.92	26.0059
1292.2	118.362
1296.48	56.1519
1300.76	110.433
1305.04	130.054
1309.31	42.2246
1313.58	111.015
1317.85	225.412
1322.12	153.461
1326.38	29.1235
1330.64	95.3838
1334.9	88.2559
1339.16	130.686
1343.41	131.667
1347.67	231.08
1351.92	121.253
1356.17	231.156
1360.41	74.5459
1364.66	220.471
1368.9	195.648
1373.14	249.358
1377.38	278.069
1381.61	690.433
1385.84	1487.18
1390.08	304.824
1394.3	216.777
1398.53	135.524
1402.75	177.284
1406.97	107.817
1411.19	166.184
1415.41	178.958
1419.63	102.04
1423.84	118.58
1428.05	133.708
1432.26	270.388
1436.46	264.589
1440.67	315.97
1444.87	296.968
1449.07	259.182
1453.27	273.215
1457.46	230.983
1461.66	246.384
1465.85	116.346
1470.04	241.69
1474.22	105.086
1478.41	59.1963
1482.59	81.1514
1486.77	186.898
1490.95	80.3691
1495.12	42.2563
1499.3	146.87
1503.47	19.2842
1507.63	14.1919
1511.8	145.045
1515.97	170.357
1520.13	219.649
1524.29	142.894
1528.45	155.768
1532.61	153.719
1536.76	84.4756
1540.91	46.2798
1545.06	36.5181
1549.21	65.6152
1553.35	275.354
1557.5	81.3867
1561.64	37.876
