Measurement: Raman, 514 nm, ccw, Raman Data Processed
Mineral: Beryl
Rruff sample: R050305
Ideal chemistry: Be_3_Al_2_Si_6_O_18_
Locality: Conselheiro Pena, Minas Gerais, Brazil
Source: Eugene Schlepp
Description: Light blue fragment, variety aquamarine
Measured chemistry: (Be_0.91_Li_0.09_)_3_(Al_0.99_Fe^3+^_0.01_)_2_Si_6.00_O_18_Î‡Na_0.27_
Pin_id: L00797
Orientation: Laser parallel to c* (0 0 1). Fiducial mark perpendicular to laser is parallel to [-1 -1 0]
Raman shift (cm-1)	intensity
95.948	0
100.883	108.185
105.815	543.584
110.744	1901.83
115.671	2903.29
120.596	3205.29
125.519	3338.73
130.439	3256.48
135.356	3383.44
140.271	2883.07
145.184	2175.21
150.094	1985.95
155.002	1786.97
159.908	1988.44
164.811	1991.49
169.711	2069.93
174.61	2023.36
179.505	1800.91
184.399	1357.43
189.29	1176.19
194.178	1013.57
199.064	964.562
203.948	592.078
208.829	2.00195
213.708	13.3935
218.585	70.4961
223.459	297.856
228.33	501.618
233.199	479.773
238.066	507.735
242.93	555.216
247.792	410.736
252.651	129.393
257.508	64.9482
262.363	88.0537
267.215	59.9268
272.064	60.3115
276.912	203.591
281.756	448.377
286.598	824.382
291.438	1450.4
296.276	1345.28
301.111	495.877
305.943	553.965
310.773	680.453
315.601	1146.24
320.426	2292.31
325.248	2604.53
330.068	850.903
334.886	70.6201
339.701	179.176
344.514	155.964
349.324	162.877
354.132	85.4609
358.938	2.28906
363.741	72.3721
368.541	305.935
373.339	307.263
378.135	978.799
382.928	1715.26
387.718	3476.66
392.506	7572.46
397.292	15058.5
402.075	14373.6
406.856	6836.07
411.634	3918.14
416.41	3467.63
421.183	3461.34
425.954	2411.23
430.722	1507.94
435.488	1190.44
440.251	1163.72
445.012	971.753
449.77	726.524
454.526	515.023
459.28	244.666
464.03	197.585
468.779	102.064
473.525	113.405
478.268	36.5107
483.009	231.435
487.747	351.42
492.483	273.549
497.217	321.679
501.948	90.1279
506.676	22.3408
511.402	39.9092
516.125	77.3809
520.846	322.065
525.565	392.481
530.281	449.804
534.994	469.957
539.705	388.022
544.413	411.19
549.119	521.226
553.822	748.005
558.523	1007.72
563.222	1327.16
567.917	1460.54
572.611	1739.74
577.302	1654.81
581.99	1434.58
586.676	896.033
591.359	688.178
596.04	351.078
600.718	509.764
605.394	254.191
610.067	41.4648
614.737	318.609
619.406	95.0488
624.071	275.107
628.734	179.94
633.395	86.6367
638.053	297.568
642.708	423.174
647.361	418.17
652.012	644.363
656.66	660.668
661.305	1122.27
665.948	1908.09
670.588	3588.33
675.226	8164.16
679.861	21080.3
684.494	44712.6
689.124	38670.7
693.752	16075.9
698.377	7676.86
702.999	4624.07
707.619	3104.68
712.237	2141.57
716.852	1789.92
721.464	1640.65
726.074	1302.9
730.681	1311.31
735.286	1073.15
739.888	878.838
744.488	928.918
749.085	953.576
753.68	1137.32
758.272	1131.94
762.861	856.115
767.448	609.574
772.033	549.891
776.614	511.434
781.194	312.322
785.77	346.93
790.345	224.463
794.916	321.941
799.485	209.062
804.052	150.639
808.616	131.773
813.177	36.666
817.736	35.916
822.292	174.184
826.846	156.092
831.397	2.07227
835.945	109.152
840.491	124.686
845.035	89.7285
849.576	184.014
854.114	10.1387
858.65	213.82
863.183	173.143
867.713	29.0137
872.241	47.3652
876.767	208.19
881.29	158.465
885.81	19.6738
890.328	151.055
894.843	208.047
899.356	246.961
903.866	668.779
908.373	426.478
912.878	351.184
917.38	166.803
921.88	197.328
926.377	189.443
930.872	90.0859
935.364	293.853
939.853	8.63867
944.34	5.0293
948.824	18.5938
953.306	59.7207
957.785	13.9082
962.261	108.918
966.735	36.623
971.207	24.7988
975.675	172.918
980.141	442.43
984.605	609.129
989.066	1177.74
993.524	2117.1
997.98	2915.6
1002.43	3176.66
1006.88	2954.99
1011.33	2383.77
1015.78	1759.64
1020.22	1206.18
1024.66	804.332
1029.1	828.326
1033.53	615.998
1037.97	715.279
1042.4	707.15
1046.82	774.686
1051.25	1696.91
1055.67	2753.77
1060.09	4279.39
1064.51	5876.81
1068.92	6616.87
1073.33	6454.51
1077.74	5242.93
1082.15	3893.12
1086.55	2772.78
1090.95	1861.84
1095.35	1860.64
1099.75	1565.06
1104.14	1495.24
1108.53	1419.75
1112.92	1315.33
1117.31	1113.85
1121.69	1041.16
1126.07	1307.82
1130.45	1275.29
1134.82	1644.93
1139.19	1345.06
1143.57	1430.71
1147.93	1269.32
1152.3	1247.46
1156.66	903.25
1161.02	553.248
1165.38	487.902
1169.73	429.207
1174.08	795.764
1178.43	812.977
1182.78	761.797
1187.12	795.725
1191.46	1079.38
1195.8	1084.24
1200.14	1035.46
1204.47	1251.1
1208.8	1148.22
1213.13	1179.94
1217.46	1236.92
1221.78	1114.27
1226.1	1395.95
1230.42	1235.95
1234.73	657.332
1239.04	590.027
1243.35	180.824
1247.66	159.832
1251.97	5.17188
1256.27	137.756
1260.57	65.0176
1264.86	50.5273
1269.16	84.9531
1273.45	11.543
1277.74	74.8711
1282.03	74.5762
1286.31	79.0606
1290.59	74.5332
1294.87	103.172
1299.14	36.3301
1303.42	14.2344
1307.69	26.4238
1311.95	211.182
1316.22	92.4668
1320.48	16.3398
1324.74	205.812
1329	229.185
1333.26	157.435
1337.51	66.5449
1341.76	276.426
1346	272.199
1350.25	123.838
1354.49	174.178
1358.73	401.426
1362.96	123.557
1367.2	321.662
1371.43	277.945
1375.66	207.615
1379.88	485.894
1384.11	509.926
1388.33	238.938
1392.54	328.971
1396.76	275.102
1400.97	111.154
1405.18	243.369
1409.39	128.498
1413.59	65.6719
1417.8	5.98633
1421.99	133.914
1426.19	165.35
1430.38	17.5176
1434.58	222.353
1438.77	156.144
1442.95	371.863
1447.13	365.201
1451.32	361.565
1455.49	367.227
1459.67	357.412
1463.84	140.953
1468.01	259.568
1472.18	538.785
1476.35	286.156
1480.51	316.965
1484.67	365.754
1488.83	332.123
1492.98	359.932
1497.13	356.162
1501.28	175.973
1505.43	243.693
1509.57	71.8711
1513.71	235.961
1517.85	244.756
1521.99	250.144
1526.12	303.506
1530.25	454.238
1534.38	49.7988
1538.5	322.106
1542.62	272.152
1546.74	29.8496
1550.86	479.031
1554.98	352.244
1559.09	308.781
1563.2	19.4629
1567.31	217.139
