Measurement: Raman, 514 nm, ccw, Raman Data Processed
Mineral: Beryl
Rruff sample: R060942
Ideal chemistry: Be_3_Al_2_Si_6_O_18_
Locality: Mingore mine, Swat Valley, Pakistan
Source: Lawrence W. Snee
Description: Green hexagonal prisms, variety emerald
Measured chemistry: (Be_2.94_Li_0.06_)_Σ=3_(Al_1.55_Mg_0.37_Fe^3+^_0.06_Cr^3+^_0.02_)_Σ=2_Si_6.00_O_18_·Na_0.42_; Be and Li not measured but estimated by stoichiometry
Pin_id: L01519
Orientation: Laser parallel to a* (1 0 0). Fiducial mark perpendicular to laser is parallel to -c [0 0 -1]
Raman shift (cm-1)	intensity
119.365	0
124.288	79.1289
129.209	31.8648
134.127	40.1763
139.043	210.955
143.956	30.8442
148.867	75.9414
153.775	62.7451
158.681	52.5498
163.585	170.701
168.486	240.73
173.385	382.459
178.282	493.758
183.176	771.473
188.067	891.386
192.956	1010.41
197.843	953.024
202.727	919.092
207.609	602.688
212.489	692.83
217.366	697.61
222.24	776.672
227.112	825.476
231.982	780.757
236.849	626.977
241.714	637.273
246.577	526.865
251.437	436.864
256.294	455.246
261.149	523.311
266.002	543.061
270.852	404.394
275.7	255.229
280.545	285.074
285.388	441.531
290.229	393.234
295.067	662.558
299.902	866.424
304.735	1120.22
309.566	2373.65
314.394	4572.4
319.22	9718.15
324.043	12641.1
328.864	7267.27
333.682	1996.7
338.498	474.37
343.311	214.272
348.122	97.3945
352.931	0.270996
357.737	106.256
362.54	63.9731
367.341	184.859
372.14	300.896
376.936	774.071
381.73	1534.37
386.521	3720.78
391.31	8773.31
396.096	14318.4
400.88	11693.9
405.661	5146.05
410.44	1898.37
415.216	794.758
419.99	484.773
424.761	358.871
429.53	252.033
434.297	362.253
439.061	96.5205
443.822	62.8237
448.581	17.8359
453.337	38.4644
458.091	32.3164
462.843	38.4795
467.592	73.2158
472.338	45.7964
477.082	165.359
481.824	237.901
486.563	201.423
491.3	165.916
496.034	226.988
500.765	251.295
505.494	366.658
510.221	361.965
514.945	533.21
519.666	616.392
524.385	393.505
529.102	139.547
533.816	60.5293
538.527	28.3799
543.236	146.259
547.943	111.854
552.647	12.729
557.348	14.0371
562.047	177.26
566.744	278.944
571.438	404.4
576.129	660.425
580.818	652.406
585.504	654.253
590.188	664.221
594.87	774.777
599.549	935.04
604.225	1643.11
608.899	3069.94
613.57	3249.69
618.239	1785.49
622.905	822.577
627.569	471.358
632.23	528.053
636.889	532.596
641.545	581.973
646.198	680.172
650.849	833.192
655.498	1134.12
660.144	1593.2
664.787	2733.88
669.428	4576.93
674.067	9091.52
678.703	22770.6
683.336	47569.7
687.967	52225.2
692.595	27867.6
697.221	11247.6
701.844	5635.88
706.465	3323.46
711.083	1982.53
715.698	1377.81
720.311	928.047
724.922	650.392
729.53	387.277
734.135	394.459
738.738	366.678
743.338	160.142
747.936	206.135
752.531	174.284
757.124	177.996
761.714	147.105
766.302	131.931
770.887	301.56
775.469	131.674
780.049	147.357
784.626	163.789
789.201	144.972
793.773	172.909
798.343	61.5933
802.91	51.0303
807.475	14.2139
812.037	79.0942
816.596	64.1392
821.153	46.7495
825.707	34.522
830.259	94.188
834.808	42.5332
839.355	9.57471
843.899	60.3931
848.441	31.3145
852.98	60.1055
857.516	39.9727
862.05	13.3193
866.581	27.1465
871.11	39.4312
875.636	96.5762
880.159	28.2446
884.68	47.3989
889.199	59.9492
893.714	71.9346
898.228	61.5923
902.738	4.73975
907.246	54.9487
911.752	78.1279
916.255	186.308
920.755	123.5
925.253	139.719
929.748	147.877
934.241	108.581
938.731	49.6455
943.218	37.3799
947.703	24.3936
952.186	151.34
956.665	70.3325
961.142	171.85
965.617	109.367
970.089	163.295
974.558	254.743
979.025	402.85
983.489	491.243
987.951	811.846
992.41	1050.01
996.866	1380.57
1001.32	1630.88
1005.77	2008.54
1010.22	2162.03
1014.67	2316.25
1019.11	2493.84
1023.55	2671.74
1027.99	2920.28
1032.42	3313
1036.86	4203.5
1041.29	5423.95
1045.72	7588.01
1050.14	11373.4
1054.56	18416.8
1058.98	30171.6
1063.4	43874.8
1067.82	50458.5
1072.23	46633.7
1076.64	35267.3
1081.05	24765.5
1085.45	18538.2
1089.85	14635.6
1094.25	12222.8
1098.65	10357
1103.04	9062.33
1107.43	7986.54
1111.82	7789.7
1116.21	8221.46
1120.59	9125.86
1124.97	9067.58
1129.35	7761.78
1133.73	6433.17
1138.1	5257.39
1142.47	4332.92
1146.84	3588.7
1151.21	2896.47
1155.57	2164.59
1159.93	1508.87
1164.29	1208.43
1168.64	864.901
1172.99	642.413
1177.34	676.886
1181.69	429.019
1186.04	396.746
1190.38	302.733
1194.72	225.596
1199.05	144.922
1203.39	107.606
1207.72	170.977
1212.05	4.29541
1216.37	94.436
1220.7	9.4458
1225.02	43.041
1229.34	56.1938
1233.65	74.647
1237.97	86.48
1242.28	27.1689
1246.59	31.647
1250.89	67.5147
1255.19	10.3101
1259.49	4.94629
1263.79	42.1782
1268.09	65.9458
1272.38	47.8179
1276.67	95.9727
1280.95	56.3096
1285.24	34.4541
1289.52	163.812
1293.8	144.905
1298.08	99.8545
1302.35	23.5561
1306.62	98.9141
1310.89	91.3594
1315.15	51.7744
1319.42	103.999
1323.68	54.873
1327.94	3.60498
1332.19	126.332
1336.44	50.2812
1340.69	73.3833
1344.94	45.0366
1349.19	110.868
1353.43	106.47
1357.67	103.556
1361.9	86.0786
1366.14	80.4536
1370.37	113.186
1374.6	16.7188
1378.83	88.54
1383.05	116.589
1387.27	87.5928
1391.49	19.5142
1395.7	23.7676
1399.92	70.0801
1404.13	56.4268
1408.34	63.9233
1412.54	130.277
1416.74	67.8066
1420.94	14.2261
1425.14	146.822
1429.34	103.627
1433.53	167.597
1437.72	52.4228
1441.9	93.3682
1446.09	77.7666
1450.27	44.791
1454.45	132.139
1458.63	115.941
1462.8	86.9888
1466.97	22.0791
1471.14	68.7852
1475.31	109.356
1479.47	131.662
1483.63	58.6118
1487.79	56.9898
1491.94	29.8789
1496.09	44.0576
1500.24	94.8486
1504.39	101.461
1508.54	32.8345
1512.68	187.588
1516.82	59.9067
1520.95	10.7383
1525.09	96.6816
1529.22	65.0962
1533.35	86.041
1537.47	64.6846
1541.6	64.9419
1545.72	54.7817
1549.83	101.337
1553.95	247.413
1558.06	19.3628
1562.17	64.542
1566.28	78.1831
1570.38	23.8643
