Measurement: Raman, 514 nm, ccw, Raman Data Processed
Mineral: Beryl
Rruff sample: R050120
Ideal chemistry: Be_3_Al_2_Si_6_O_18_
Locality: Cruziero mine, San Jose, Minas Gerais, Brazil
Source: Carlos and Paulo Vasconcelos
Description: Yellow gemmy fragment
Measured chemistry: (Be_2.76_Li_0.24_)_Σ=3_Al_2.00_Si_6.00_O_18_·Na_0.24_
Pin_id: L00313
Orientation: Laser parallel to c* (0 0 1). Fiducial mark perpendicular to laser is parallel to a [1 0 0]
Raman shift (cm-1)	intensity
98.947	0
103.124	64.008
107.3	496.205
111.473	1188.58
115.644	2382.49
119.813	2831.52
123.981	2255.36
128.146	2017.67
132.309	2213.69
136.47	1867.97
140.63	1693.19
144.787	1276.19
148.942	1056.17
153.096	1148.33
157.247	1158.11
161.396	1279.07
165.544	1282.71
169.689	1276.23
173.833	1312.59
177.974	1075.13
182.114	977.539
186.251	791.106
190.387	754.314
194.52	270.754
198.652	363.819
202.782	145.554
206.909	87.441
211.035	88.404
215.159	6.705
219.281	22.393
223.4	139.254
227.518	112.058
231.634	188.569
235.748	141.131
239.86	216.09
243.97	44.176
248.079	111.337
252.185	79.624
256.289	65.725
260.391	4.146
264.492	114.719
268.59	127.349
272.687	86.138
276.781	105.551
280.874	95.708
284.964	92.144
289.053	528.53
293.14	1180.65
297.225	697.559
301.308	229.626
305.389	143.06
309.468	133.973
313.545	561.019
317.62	984.54
321.693	1386.83
325.765	1534.72
329.834	661.105
333.902	181.348
337.967	51.656
342.031	66.332
346.093	69.658
350.153	147.367
354.21	249.215
358.267	201.855
362.321	223.84
366.373	202.709
370.423	443.625
374.471	691.771
378.518	841.148
382.563	1399.95
386.605	2421.05
390.646	4312.05
394.685	8806.9
398.722	14852.5
402.757	12018.9
406.79	5837.03
410.821	3383.9
414.851	2745.27
418.878	2526.52
422.904	2329.66
426.927	1808.84
430.949	1005.62
434.969	804.256
438.987	670.225
443.003	780.613
447.018	595.223
451.03	403.072
455.041	192.816
459.049	233.066
463.056	323.701
467.061	65.861
471.064	78.953
475.065	54.812
479.064	96.342
483.062	221.01
487.057	330.055
491.051	210.838
495.043	85.438
499.032	163.355
503.02	61.039
507.007	35.5
510.991	129.982
514.973	62.885
518.954	58.473
522.933	19.764
526.91	104.172
530.885	31.488
534.858	295.32
538.829	242.801
542.799	25.143
546.766	99.355
550.732	489.453
554.696	489.199
558.658	724.594
562.618	727.633
566.576	761.334
570.533	1113.7
574.488	1184.76
578.44	987.557
582.391	932.121
586.341	731.459
590.288	642.449
594.233	567.088
598.177	365.459
602.119	184.506
606.059	341.18
609.997	124.467
613.933	315.309
617.868	347.906
621.801	591.186
625.731	303.059
629.66	118.764
633.588	293.789
637.513	245.275
641.437	578.736
645.358	535.773
649.278	663.914
653.196	779.789
657.113	781.322
661.027	877.396
664.94	1203.69
668.851	2057.43
672.76	3660.68
676.667	6827.58
680.572	15643.1
684.476	33162.7
688.378	31761.7
692.278	15107
696.176	8077.22
700.072	4655.75
703.967	3185.52
707.86	1918.46
711.751	2008.98
715.64	1109.78
719.527	1220.37
723.413	1132.64
727.297	933.299
731.179	913.266
735.059	817.031
738.937	787.604
742.814	675.982
746.689	549.178
750.562	997.189
754.433	781.029
758.303	534.719
762.17	776.219
766.036	565.172
769.901	293.217
773.763	129.188
777.624	126.566
781.482	48.252
785.339	170.836
789.195	105.854
793.048	74.055
796.9	219.715
800.75	32.059
804.598	280.139
808.445	135.205
812.289	5.205
816.132	108.336
819.973	12.281
823.813	98.93
827.65	40.729
831.486	73.16
835.32	49.953
839.152	42.006
842.983	31.018
846.812	291.895
850.639	251.793
854.464	238.748
858.288	336.752
862.11	6.23
865.93	133.775
869.748	63.791
873.564	0.178
877.379	213.834
881.192	94.748
885.004	154.889
888.813	131.969
892.621	275.098
896.427	252.275
900.232	274.51
904.034	344.805
907.835	724.168
911.634	428.605
915.432	306.125
919.227	225.756
923.021	451.488
926.813	250.898
930.604	404.711
934.393	360.314
938.18	120.219
941.965	198.43
945.749	18.068
949.53	6.664
953.311	7.994
957.089	50.908
960.866	24.871
964.641	149.422
968.414	12.508
972.185	212.908
975.955	74.15
979.723	145.898
983.49	81.531
987.254	380.834
991.017	960.887
994.779	1660.2
998.538	1807.18
1002.3	2363.5
1006.05	1898.08
1009.81	1295
1013.56	832.84
1017.31	1001.41
1021.06	974.176
1024.81	522.998
1028.55	892.473
1032.3	483.529
1036.04	597.264
1039.78	1027.19
1043.52	1028.34
1047.26	752.676
1050.99	1525.18
1054.73	1682.83
1058.46	2364.63
1062.19	3119.57
1065.92	3632.66
1069.65	4156.88
1073.37	3965.21
1077.1	3197.64
1080.82	3154.16
1084.54	2232.76
1088.26	1844.44
1091.97	1403.27
1095.69	1109.62
1099.4	1155.67
1103.12	847
1106.83	1230.81
1110.54	962.188
1114.24	1017.16
1117.95	1049.05
1121.65	807.98
1125.35	664.656
1129.06	841.223
1132.75	616.094
1136.45	541.41
1140.15	746.043
1143.84	786.746
1147.53	963.289
1151.22	647.152
1154.91	585.098
1158.6	407.578
1162.28	559.824
1165.97	144.566
1169.65	482.703
1173.33	428.117
1177.01	245.84
1180.69	407.961
1184.36	595.406
1188.04	562.648
1191.71	869.996
1195.38	751.039
1199.05	832.77
1202.71	1080.56
1206.38	964.543
1210.04	927.438
1213.71	811.168
1217.37	1032.49
1221.03	1008.66
1224.68	1225.73
1228.34	1125.23
1231.99	719.895
1235.65	784.68
1239.3	646.629
1242.95	333.914
1246.59	561.566
1250.24	244.695
1253.88	177.535
1257.53	282.668
1261.17	16.402
1264.81	183.164
1268.45	132.754
1272.08	153.656
1275.72	146.938
1279.35	199.785
1282.98	62.695
1286.61	189.516
1290.24	205.125
1293.87	117.281
1297.49	79.543
1301.11	43.391
1304.73	94.371
1308.36	94.312
1311.97	275.508
1315.59	184.328
1319.2	352.84
1322.82	331.031
1326.43	299.027
1330.04	315.934
1333.65	189.809
1337.26	279.703
1340.86	567.027
1344.47	488.434
1348.07	606.742
1351.67	690.383
1355.27	397.438
1358.87	346.234
1362.46	567.051
1366.06	548.16
1369.65	409.223
1373.24	634.906
1376.83	284.695
1380.42	572.109
1384	510.016
1387.59	470.785
1391.17	341.516
1394.75	159.34
1398.33	212.105
1401.91	402.914
1405.49	379.145
1409.06	346.094
1412.64	12.289
1416.21	250.848
1419.78	47.035
1423.35	241.59
1426.91	0
