Measurement: Raman, 514 nm, ccw, Raman Data Processed
Mineral: Beryl
Rruff sample: R050305
Ideal chemistry: Be_3_Al_2_Si_6_O_18_
Locality: Conselheiro Pena, Minas Gerais, Brazil
Source: Eugene Schlepp
Description: Light blue fragment, variety aquamarine
Measured chemistry: (Be_0.91_Li_0.09_)_3_(Al_0.99_Fe^3+^_0.01_)_2_Si_6.00_O_18_Î‡Na_0.27_
Pin_id: L01620
Orientation: Laser parallel to a* (1 0 0). Fiducial mark perpendicular to laser is parallel to -c [0 0 -1]
Raman shift (cm-1)	intensity
100.883	0
105.815	317.073
110.744	1577.38
115.671	1706.79
120.596	1446.83
125.519	1644.48
130.439	1685.15
135.356	1794.11
140.271	1840.27
145.184	1542.64
150.094	1452.52
155.002	1345.67
159.908	1064.06
164.811	1257.6
169.711	1222.19
174.61	1017.21
179.505	1035.62
184.399	1110.94
189.29	1081.57
194.178	1002.73
199.064	1023.52
203.948	1179.42
208.829	93.3076
213.708	125.098
218.585	295.67
223.459	65.1094
228.33	158.914
233.199	331.256
238.066	374.785
242.93	867.986
247.792	1091.69
252.651	777.745
257.508	231.416
262.363	13.2549
267.215	191.877
272.064	185.569
276.912	109.537
281.756	107.939
286.598	217.098
291.438	404.58
296.276	630.243
301.111	706.04
305.943	569.968
310.773	863.012
315.601	1851.36
320.426	4048.89
325.248	5025.46
330.068	2140.03
334.886	653.109
339.701	191.692
344.514	22.2266
349.324	40.1875
354.132	38.3818
358.938	89.7207
363.741	44.5674
368.541	25.7139
373.339	244.712
378.135	337.565
382.928	1096.13
387.718	1838.73
392.506	3989.43
397.292	8192.46
402.075	7731.7
406.856	3533.06
411.634	1345.74
416.41	959.121
421.183	708.652
425.954	499.264
430.722	428.711
435.488	572.656
440.251	1053.32
445.012	1088.83
449.77	716.561
454.526	434.139
459.28	515.691
464.03	194.478
468.779	286.156
473.525	79.2969
478.268	128.115
483.009	95.9766
487.747	287.723
492.483	207.92
497.217	280.338
501.948	250.096
506.676	516.691
511.402	567.25
516.125	794.592
520.846	1346.94
525.565	1152.44
530.281	1437.02
534.994	1408.7
539.705	1228.49
544.413	740.348
549.119	568.398
553.822	348.123
558.523	42.7246
563.222	151.188
567.917	215.221
572.611	266.785
577.302	237.51
581.99	224.365
586.676	57.2637
591.359	97.1816
596.04	89.0234
600.718	38.082
605.394	100.887
610.067	3.54102
614.737	351.565
619.406	305.861
624.071	151.789
628.734	1.21875
633.395	166.137
638.053	89.5527
642.708	351.066
647.361	416.914
652.012	466.106
656.66	555.875
661.305	894.076
665.948	1467.08
670.588	2745.87
675.226	5664.73
679.861	13746.4
684.494	29128.2
689.124	25521.1
693.752	10472.8
698.377	4697.15
702.999	2472.58
707.619	1444.81
712.237	967.869
716.852	678.266
721.464	768.463
726.074	628.486
730.681	562.391
735.286	388.309
739.888	329.852
744.488	294.328
749.085	463.121
753.68	319.148
758.272	511.877
762.861	365.824
767.448	493.078
772.033	457.922
776.614	349.065
781.194	174.947
785.77	408.879
790.345	236.398
794.916	169.307
799.485	67.3027
804.052	238.49
808.616	157.838
813.177	138.658
817.736	216.332
822.292	77.3633
826.846	62.3848
831.397	6.57812
835.945	117.555
840.491	105.723
845.035	76.7559
849.576	109.096
854.114	16.2363
858.65	119.514
863.183	55.1484
867.713	112.193
872.241	126.836
876.767	57.6758
881.29	58.2285
885.81	132.346
890.328	167.199
894.843	56.457
899.356	140.162
903.866	327.414
908.373	440.326
912.878	317.951
917.38	481.812
921.88	315.69
926.377	342.982
930.872	361.981
935.364	250.213
939.853	68.9668
944.34	303.742
948.824	4.25977
953.306	133.127
957.785	169.156
962.261	92.1602
966.735	184.012
971.207	38.9336
975.675	184.568
980.141	229.482
984.605	346.893
989.066	1007.96
993.524	1358.09
997.98	1936.45
1002.43	3178.26
1006.88	4270.62
1011.33	4490.34
1015.78	4054.87
1020.22	3181.65
1024.66	2424.26
1029.1	2341.55
1033.53	2293.73
1037.97	2441.49
1042.4	3135.88
1046.82	4485.66
1051.25	6316.85
1055.67	9676.47
1060.09	14127.5
1064.51	19088
1068.92	20402.4
1073.33	18407
1077.74	14356.1
1082.15	10111.2
1086.55	7750.26
1090.95	5759.92
1095.35	4628.35
1099.75	4023.27
1104.14	3376.18
1108.53	3108.15
1112.92	2861.89
1117.31	3022.14
1121.69	3090.6
1126.07	2734.71
1130.45	2616.66
1134.82	2649.19
1139.19	2370.9
1143.57	2527.92
1147.93	2151.36
1152.3	1991.62
1156.66	1335.57
1161.02	992.555
1165.38	645.93
1169.73	1116.44
1174.08	326.068
1178.43	105.502
1182.78	260.477
1187.12	127.512
1191.46	297.82
1195.8	66.1699
1200.14	223.764
1204.47	346.924
1208.8	247.107
1213.13	163.92
1217.46	111.15
1221.78	70.791
1226.1	108.828
1230.42	60.9609
1234.73	88.291
1239.04	23.2207
1243.35	82.625
1247.66	254.873
1251.97	123.535
1256.27	6.77539
1260.57	37.5918
1264.86	74.1445
1269.16	146.156
1273.45	89.2168
1277.74	124.478
1282.03	300.945
1286.31	105.273
1290.59	40.7148
1294.87	158.057
1299.14	25.3027
1303.42	390.193
1307.69	425.353
1311.95	330.078
1316.22	307.301
1320.48	43.1992
1324.74	264.762
1329	209.938
1333.26	269.863
1337.51	115.523
1341.76	155.871
1346	373.191
1350.25	333.84
1354.49	187.598
1358.73	423.289
1362.96	385.715
1367.2	167.961
1371.43	302.953
1375.66	460.5
1379.88	150.027
1384.11	385.426
1388.33	295.566
1392.54	180.613
1396.76	81.2344
1400.97	36.9336
1405.18	243.789
1409.39	125.66
1413.59	224.336
1417.8	111.953
1421.99	271.871
1426.19	240.191
1430.38	112.297
1434.58	183.227
1438.77	291.316
1442.95	516.789
1447.13	312.008
1451.32	434.965
1455.49	354.344
1459.67	671.328
1463.84	140.023
1468.01	471.43
1472.18	160.805
1476.35	119.406
1480.51	208.988
1484.67	289.312
1488.83	283.828
1492.98	89.6914
1497.13	241.469
1501.28	75.8594
1505.43	107.965
1509.57	164.82
1513.71	387.371
1517.85	201.059
1521.99	322.266
1526.12	407.711
1530.25	299.348
1534.38	179.508
1538.5	213.227
1542.62	290.531
1546.74	258.488
1550.86	80.1367
1554.98	230.652
1559.09	379.394
1563.2	222.312
1567.31	91.8555
