Measurement: Raman, 514 nm, ccw, Raman Data Processed
Mineral: Beryl
Rruff sample: R050121
Ideal chemistry: Be_3_Al_2_Si_6_O_18_
Locality: Cruziero mine, San Jose, Minas Gerais, Brazil
Source: Carlos and Paulo Vasconcelos
Description: Light blue fragment, variety aquamarine
Measured chemistry: (Be_0.96_Li_0.04_)_3_Al_2.00_Si_6.00_O_18_Î‡Na_0.09_Mg_0.03_
Pin_id: L00353
Orientation: Laser parallel to a* (1 0 0). Fiducial mark perpendicular to laser is parallel to c [0 0 1]
Raman shift (cm-1)	intensity
98.947	0
103.124	0.757
107.3	87.142
111.473	256.787
115.644	789.784
119.813	650.301
123.981	326.687
128.146	125.654
132.309	486.265
136.47	229.362
140.63	276.105
144.787	219.82
148.942	140.931
153.096	217.314
157.247	210.179
161.396	126.697
165.544	145.879
169.689	54.165
173.833	201.596
177.974	217.103
182.114	150.597
186.251	193.48
190.387	162.716
194.52	136.438
198.652	84.095
202.782	37.387
206.909	60.164
211.035	156.318
215.159	46.215
219.281	119.711
223.4	102.042
227.518	131.338
231.634	118.947
235.748	159.83
239.86	36.977
243.97	85.382
248.079	320.371
252.185	66.886
256.289	180.05
260.391	277.602
264.492	213.005
268.59	128.162
272.687	189.038
276.781	307.463
280.874	208.895
284.964	108.317
289.053	353.457
293.14	498.51
297.225	603.297
301.308	516.885
305.389	621.482
309.468	1108.38
313.545	1916.36
317.62	4217.02
321.693	7062.33
325.765	4410.44
329.834	1445.2
333.902	585.997
337.967	342.117
342.031	106.209
346.093	93.425
350.153	190.265
354.21	50.171
358.267	125.71
362.321	181.342
366.373	201.725
370.423	402.436
374.471	417.286
378.518	515.186
382.563	974.397
386.605	2112.36
390.646	4185.96
394.685	6375.46
398.722	4914.03
402.757	2317.34
406.79	876.992
410.821	445.465
414.851	176.923
418.878	163.472
422.904	139.188
426.927	111.964
430.949	63.742
434.969	261.512
438.987	144.227
443.003	244.858
447.018	193.492
451.03	177.143
455.041	108.769
459.049	35.316
463.056	27.777
467.061	43.145
471.064	79.365
475.065	24.475
479.064	20.51
483.062	91.346
487.057	96.01
491.051	149.455
495.043	5.891
499.032	76.262
503.02	166.57
507.007	25.559
510.991	194.609
514.973	92.682
518.954	269.137
522.933	280.424
526.91	226.096
530.885	342.867
534.858	207.041
538.829	199.303
542.799	112.172
546.766	36.627
550.732	117.965
554.696	44.209
558.658	79.152
562.618	69.188
566.576	23.994
570.533	88.857
574.488	93.613
578.44	62.936
582.391	192.004
586.341	153.855
590.288	179.844
594.233	242.344
598.177	300.664
602.119	137.125
606.059	323.68
609.997	285.074
613.933	494.535
617.868	926.51
621.801	1864.65
625.731	1157.32
629.66	532.229
633.588	505.834
637.513	248.316
641.437	667.098
645.358	547.844
649.278	723.699
653.196	767.32
657.113	785.992
661.027	852.49
664.94	923.92
668.851	1860.55
672.76	3137.44
676.667	5917.64
680.572	15086.7
684.476	26659.6
688.378	16164.7
692.278	6161.35
696.176	3278.85
700.072	1916.94
703.967	1266.77
707.86	713.678
711.751	751.908
715.64	325.098
719.527	472.051
723.413	356.836
727.297	46.723
731.179	176.898
735.059	186.791
738.937	308.221
742.814	150.543
746.689	109.885
750.562	290.137
754.433	200.42
758.303	86.275
762.17	291.814
766.036	292.834
769.901	191.73
773.763	49.42
777.624	133.355
781.482	99.137
785.339	257.945
789.195	57.252
793.048	50.082
796.9	197.643
800.75	54.438
804.598	256.76
808.445	9.645
812.289	53.965
816.132	10.357
819.973	100.564
823.813	210.609
827.65	77.666
831.486	226.955
835.32	72.643
839.152	12.139
842.983	111.133
846.812	380.469
850.639	342.877
854.464	192.734
858.288	357.955
862.11	265.754
865.93	287.732
869.748	236.973
873.564	278.533
877.379	239.457
881.192	139.473
885.004	192.939
888.813	278.562
892.621	203.381
896.427	160.355
900.232	284.547
904.034	209.939
907.835	344.525
911.634	500.604
915.432	241.43
919.227	364.98
923.021	389.162
926.813	234.916
930.604	437.58
934.393	383.475
938.18	255.182
941.965	178.74
945.749	640.004
949.53	388.523
953.311	70.199
957.089	271.623
960.866	140.613
964.641	182.361
968.414	147.656
972.185	216.898
975.955	240.346
979.723	120.146
983.49	54.891
987.254	135.215
991.017	460.199
994.779	518.656
998.538	512.301
1002.3	1330.12
1006.05	1201.1
1009.81	1394.27
1013.56	1449.73
1017.31	1502.66
1021.06	1497.49
1024.81	1195
1028.55	1679.64
1032.3	1655.99
1036.04	1765.03
1039.78	2537.53
1043.52	2911.24
1047.26	3712.36
1050.99	5555.34
1054.73	7410.52
1058.46	11972.8
1062.19	19697
1065.92	28131.3
1069.65	29795.5
1073.37	23043.2
1077.1	15873.4
1080.82	10890.6
1084.54	7704.08
1088.26	5666.85
1091.97	3831.4
1095.69	2834.28
1099.4	2362.66
1103.12	1620
1106.83	1642.23
1110.54	1139.76
1114.24	805.76
1117.95	1055.74
1121.65	821.646
1125.35	501.383
1129.06	719.293
1132.75	660.133
1136.45	469.398
1140.15	828.855
1143.84	768.881
1147.53	559.076
1151.22	377.477
1154.91	424.779
1158.6	180.004
1162.28	44.729
1165.97	206.895
1169.65	301.963
1173.33	41.373
1177.01	172.062
1180.69	38.295
1184.36	72.625
1188.04	35.506
1191.71	311.76
1195.38	65.354
1199.05	340.365
1202.71	106.021
1206.38	279.814
1210.04	213.398
1213.71	103.939
1217.37	224.5
1221.03	8.953
1224.68	45.824
1228.34	61.318
1231.99	7.748
1235.65	221.664
1239.3	398.568
1242.95	34.979
1246.59	267.906
1250.24	132.443
1253.88	145.6
1257.53	233.445
1261.17	262.375
1264.81	150.234
1268.45	342.924
1272.08	182.191
1275.72	227.031
1279.35	320.762
1282.98	34.309
1286.61	112.684
1290.24	403.23
1293.87	200.352
1297.49	17.5
1301.11	228.488
1304.73	119.785
1308.36	196.211
1311.97	123.738
1315.59	264.637
1319.2	353.398
1322.82	455.586
1326.43	200.453
1330.04	240.68
1333.65	135.82
1337.26	36.16
1340.86	411.809
1344.47	236.785
1348.07	336.723
1351.67	327.984
1355.27	204.445
1358.87	457.676
1362.46	397.59
1366.06	406.691
1369.65	365.566
1373.24	268.371
1376.83	368.395
1380.42	429.527
1384	444.938
1387.59	401.402
1391.17	277.242
1394.75	383.934
1398.33	644.605
1401.91	382.711
1405.49	460.406
1409.06	643.172
1412.64	0
