Measurement: Raman, 514 nm, ccw, Raman Data Processed
Mineral: Beryl
Rruff sample: R060944
Ideal chemistry: Be_3_Al_2_Si_6_O_18_
Locality: Habachtal, Salzburg, Austria
Source: Lawrence W. Snee
Description: Green hexagonal prisms in a muscovite schist, variety emerald. Note that there are micro inclusions of actinolite. The Raman signal is a mixture of the two phases.
Measured chemistry: Be_3.00_(Al_1.59_Mg_0.33_Fe^3+^_0.04_Cr^3+^_0.04_)_Σ=2_Si_6.00_O_18_·Na_0.33_ ; bright inclusions are actinolite
Pin_id: L01950
Orientation: Laser parallel to c* (0 0 1). Fiducial mark perpendicular to laser is parallel to -b [0 -1 0]
Raman shift (cm-1)	intensity
130.439	0
135.356	2.65625
140.271	521.427
145.184	32.5303
150.094	394.146
155.002	2184.47
159.908	3003.62
164.811	1292
169.711	1133.88
174.61	3284.09
179.505	3557.32
184.399	959.865
189.29	518.406
194.178	653.132
199.064	503.426
203.948	1087.35
208.829	1040.45
213.708	3202.36
218.585	7808.97
223.459	11108.7
228.33	14213.8
233.199	11421.5
238.066	4235.27
242.93	3510.22
247.792	4479.32
252.651	2302.57
257.508	1160.97
262.363	1054.48
267.215	938.087
272.064	245.761
276.912	69.7432
281.756	10.1435
286.598	275.697
291.438	425.95
296.276	187.251
301.111	277.545
305.943	291.024
310.773	343.492
315.601	990.276
320.426	1802.25
325.248	1959.24
330.068	628.13
334.886	526.625
339.701	1157.69
344.514	2230.74
349.324	2013.22
354.132	1633.64
358.938	2136.41
363.741	3293.06
368.541	3625.83
373.339	2681.02
378.135	2228.44
382.928	3215.12
387.718	6302.68
392.506	11194.1
397.292	11554.4
402.075	8665.6
406.856	6117.67
411.634	5872.56
416.41	4727.31
421.183	3535.64
425.954	2435.12
430.722	2495.93
435.488	3682.78
440.251	2110.66
445.012	889.506
449.77	80.3008
454.526	35.0195
459.28	42.6045
464.03	256.397
468.779	64.582
473.525	166.987
478.268	1.13086
483.009	297.707
487.747	185.538
492.483	156.552
497.217	92.2109
501.948	432.648
506.676	597.87
511.402	1747.87
516.125	2540.47
520.846	2971.19
525.565	3073.61
530.281	2411.88
534.994	997.984
539.705	480.918
544.413	198.717
549.119	200.645
553.822	706.791
558.523	1211.08
563.222	1646.48
567.917	1697.93
572.611	1494.22
577.302	1395.51
581.99	1166.87
586.676	918.031
591.359	751.11
596.04	505.57
600.718	373.144
605.394	272.917
610.067	200.513
614.737	358.019
619.406	88.1016
624.071	102.997
628.734	94.0127
633.395	309.577
638.053	579.871
642.708	1088.25
647.361	1639.42
652.012	2469.39
656.66	3854.45
661.305	6970.28
665.948	15692.9
670.588	32645.5
675.226	30780.6
679.861	24619.7
684.494	35724
689.124	33691.2
693.752	15477.2
698.377	7489.12
702.999	4341.94
707.619	2817.7
712.237	1877.8
716.852	1376.83
721.464	1047.44
726.074	968.273
730.681	931.377
735.286	1115.93
739.888	1379.65
744.488	1653.89
749.085	1806.76
753.68	1573.61
758.272	1167.71
762.861	998.444
767.448	761.955
772.033	532.806
776.614	445.375
781.194	305.522
785.77	222.472
790.345	303.539
794.916	210.415
799.485	133.808
804.052	20.5859
808.616	139.779
813.177	119.398
817.736	113.528
822.292	92.8486
826.846	199.916
831.397	45.0938
835.945	32.3935
840.491	58.7197
845.035	76.0898
849.576	90.6211
854.114	44.4131
858.65	90.9697
863.183	138.163
867.713	56.9502
872.241	74.6885
876.767	96.0449
881.29	37.169
885.81	118.096
890.328	304.024
894.843	360.415
899.356	425.946
903.866	717.465
908.373	1084.88
912.878	1021.2
917.38	1602.44
921.88	2400.63
926.377	3910.77
930.872	4016.6
935.364	2250.3
939.853	1275.36
944.34	1473.97
948.824	1319.89
953.306	757.754
957.785	565.277
962.261	348.045
966.735	173.594
971.207	288.25
975.675	217.519
980.141	544.562
984.605	925.025
989.066	1274.56
993.524	2095.12
997.98	2864.1
1002.43	3047.12
1006.88	3079.98
1011.33	3319.04
1015.78	4128.27
1020.22	5768.47
1024.66	8350.04
1029.1	8289.76
1033.53	4539.88
1037.97	2523.93
1042.4	2336.85
1046.82	3138.13
1051.25	5392.1
1055.67	8712.82
1060.09	9097.28
1064.51	8668.35
1068.92	9220.07
1073.33	8195.51
1077.74	5533.65
1082.15	3780.49
1086.55	3095.96
1090.95	2589.35
1095.35	2095.7
1099.75	1595.1
1104.14	1362.46
1108.53	1134.69
1112.92	1115.68
1117.31	1318.37
1121.69	1473.39
1126.07	1458.12
1130.45	1112.92
1134.82	885.553
1139.19	664.623
1143.57	281.455
1147.93	347.203
1152.3	296.799
1156.66	37.3105
1161.02	41.5273
1165.38	66.793
1169.73	25.5547
1174.08	150.217
1178.43	311.598
1182.78	659.828
1187.12	635.422
1191.46	753.359
1195.8	786.236
1200.14	823.592
1204.47	1049.33
1208.8	1216.43
1213.13	1363.26
1217.46	1466.95
1221.78	1204.24
1226.1	959.102
1230.42	516.629
1234.73	100.58
1239.04	205.373
1243.35	102.762
1247.66	47.7227
1251.97	27.1602
1256.27	69.0137
1260.57	2.92383
1264.86	0.970703
1269.16	58.5449
1273.45	46.1074
1277.74	259.258
1282.03	193.225
1286.31	110.662
1290.59	91.1641
1294.87	86.9922
1299.14	133.348
1303.42	17.9707
1307.69	129.682
1311.95	83.1523
1316.22	58.3887
1320.48	205.422
1324.74	124.402
1329	303.982
1333.26	323.623
1337.51	217.945
1341.76	262.647
1346	341.981
1350.25	345.945
1354.49	231.998
1358.73	399.777
1362.96	286.672
1367.2	269.051
1371.43	250.391
1375.66	314.117
1379.88	439.875
1384.11	935.033
1388.33	472.197
1392.54	152.055
1396.76	217.32
1400.97	263.172
1405.18	231.402
1409.39	427.582
1413.59	81.6484
1417.8	330.135
1421.99	135.519
1426.19	25.6309
1430.38	71.4258
1434.58	274.926
1438.77	26.4961
1442.95	38.2949
1447.13	175.264
1451.32	334.596
1455.49	380.685
1459.67	166.357
1463.84	242.672
1468.01	171.709
1472.18	218.07
1476.35	135.92
1480.51	235.857
1484.67	152.172
1488.83	420.912
1492.98	91.0996
1497.13	115.762
1501.28	180.352
1505.43	251.586
1509.57	246.123
1513.71	79.293
1517.85	85.625
1521.99	125.897
1526.12	200.172
1530.25	224.19
1534.38	207.938
1538.5	268.853
1542.62	191.291
1546.74	162.244
1550.86	308.676
1554.98	327.588
1559.09	227.572
1563.2	250.336
1567.31	21.6309
1571.41	0
