Measurement: Raman, 514 nm, ccw, Raman Data Processed
Mineral: Beryl
Rruff sample: R040002
Ideal chemistry: Be_3_Al_2_Si_6_O_18_
Locality: Usakos, Namibia
Source: University of Arizona Mineral Museum
Description: Light blue hexagonal prism, variety aquamarine
Measured chemistry: (Be_0.97_Li_0.03_)_3_(Al_0.97_Fe^3+^_0.03_)_2_Si_6_O_18_Î‡Na_0.01_
Pin_id: m00036
Orientation: Laser parallel to a* (1 0 0). Fiducial mark perpendicular to laser is parallel to c [0 0 1]
Raman shift (cm-1)	intensity
97.554	0
101.732	34.077
105.908	94.566
110.082	441.314
114.254	1401.03
118.424	1085.94
122.592	315.372
126.758	155.481
130.922	319.239
135.083	455.328
139.243	948.903
143.401	1673.31
147.557	1207.08
151.711	250.947
155.863	80.754
160.013	127.833
164.161	175.106
168.308	238.096
172.452	289.102
176.594	351.219
180.734	535.499
184.872	651.588
189.008	526.566
193.143	594.587
197.275	539.723
201.405	488.01
205.534	543.305
209.66	469.409
213.784	327.492
217.907	362.715
222.027	325.874
226.146	300.275
230.263	326.864
234.377	381.864
238.49	467.014
242.601	434.301
246.709	453.815
250.816	773.319
254.921	963.151
259.024	292.077
263.125	181.569
267.224	242.987
271.321	252.307
275.416	291.987
279.51	410.331
283.601	464.185
287.69	813.444
291.778	828.032
295.863	1174.89
299.947	1005.98
304.029	891.239
308.108	1225.73
312.186	2169.99
316.262	4947.19
320.336	11176.2
324.408	6717.99
328.478	1520.85
332.546	294.771
336.612	78.794
340.677	26.778
344.739	95.433
348.799	60.785
352.858	120.243
356.915	33.839
360.969	54.513
365.022	62.859
369.073	197.208
373.122	338.556
377.169	809.897
381.215	1629.23
385.258	2109.38
389.299	5167.73
393.339	12286.3
397.376	11065.8
401.412	3920.15
405.446	1412.99
409.478	748.235
413.508	636.631
417.536	904.183
421.562	1206.56
425.586	598.892
429.609	253.236
433.629	241.585
437.648	501.917
441.665	1497.22
445.68	2334.49
449.693	2353.71
453.704	1025.88
457.713	367.994
461.721	210.043
465.726	80.753
469.73	53.926
473.731	15.285
477.731	85.303
481.729	122.771
485.725	148.155
489.72	153.454
493.712	104.688
497.703	118.869
501.691	184.458
505.678	275.159
509.663	314.931
513.646	486.874
517.627	822.802
521.607	1619.1
525.584	2789.27
529.56	2880.45
533.534	1655.65
537.506	742.8
541.476	340.86
545.444	140.826
549.41	13.303
553.375	130.718
557.337	27.774
561.298	19.236
565.257	9.136
569.214	69.462
573.17	162.656
577.123	234.729
581.075	459.701
585.024	372.574
588.972	427.343
592.918	286.008
596.863	303.567
600.805	319.019
604.746	406.36
608.685	317.593
612.621	239.715
616.557	537.725
620.49	1030.62
624.421	1742.39
628.351	675.848
632.279	377.596
636.205	300.917
640.129	379.214
644.051	375.447
647.972	429.185
651.89	529.699
655.807	562.036
659.722	821.03
663.636	1367.8
667.547	1945.16
671.457	3452.05
675.365	7290.11
679.271	19677
683.175	44532.7
687.077	28798.4
690.978	11289
694.877	5185.58
698.774	3100.59
702.669	1936.65
706.562	1442.81
710.454	920.914
714.344	709.209
718.232	551.759
722.118	387.496
726.002	331.425
729.885	328.656
733.766	229.305
737.645	192.072
741.522	213.601
745.397	349.008
749.271	270.292
753.143	301.456
757.013	331.5
760.881	388.425
764.748	625.234
768.613	883.926
772.476	1016.5
776.337	624.97
780.196	497.323
784.054	279.577
787.91	213.753
791.764	204.875
795.616	151.898
799.467	114.814
803.316	160.621
807.163	41.254
811.008	7.693
814.851	39.88
818.693	12.137
822.533	131.504
826.371	42.06
830.208	28.046
834.042	51.086
837.875	6.554
841.706	29.447
845.536	15.682
849.363	105.534
853.189	75.305
857.013	25.047
860.836	115.787
864.656	4.633
868.475	5.709
872.292	57.167
876.108	59.242
879.922	77.51
883.733	56.241
887.544	185.936
891.352	286.593
895.159	149.215
898.964	214.81
902.767	344.377
906.568	362.921
910.368	606.445
914.166	942.95
917.962	1057.44
921.757	826.916
925.55	570.383
929.341	366.842
933.13	298.297
936.918	349.749
940.703	337.2
944.488	176.442
948.27	142.727
952.051	128.181
955.83	229.025
959.607	198.455
963.383	298.021
967.156	287.833
970.928	289.762
974.699	390.755
978.468	507.68
982.234	596.536
986	580.353
989.763	691.865
993.525	999.198
997.285	1368.24
1001.04	1953.15
1004.8	2949.39
1008.55	4606.69
1012.31	5779.11
1016.06	4418.56
1019.81	2975.32
1023.56	2311.42
1027.31	1997.36
1031.05	2180.51
1034.79	2226.25
1038.53	2627.11
1042.27	3136.59
1046.01	3987.04
1049.75	5396.2
1053.48	7760.44
1057.22	12180.8
1060.95	20952.1
1064.68	35977.6
1068.4	48027.1
1072.13	38827.8
1075.86	23765.4
1079.58	14859.2
1083.3	10445
1087.02	7567.93
1090.74	5209.91
1094.45	3854.96
1098.17	2890.08
1101.88	2143.28
1105.59	1909.56
1109.3	1241.96
1113.01	1010.49
1116.71	818.627
1120.42	699.701
1124.12	905.085
1127.82	484.536
1131.52	387.756
1135.22	472.191
1138.91	363.271
1142.61	399.082
1146.3	340.146
1149.99	365.064
1153.68	120.744
1157.37	56.286
1161.06	60.206
1164.74	45.447
1168.42	72.938
1172.1	98.868
1175.78	173.002
1179.46	117.122
1183.14	263.914
1186.81	365.734
1190.48	317.356
1194.15	285.617
1197.83	213.618
1201.49	364.164
1205.16	191.675
1208.82	121.146
1212.49	209.58
1216.15	159.989
1219.81	214.441
1223.46	307.854
1227.12	499.748
1230.78	464.546
1234.43	380.794
1238.08	448.994
1241.73	940.192
1245.38	1279.39
1249.03	913.568
1252.67	413.765
1256.31	148.104
1259.95	77.185
1263.6	104.452
1267.23	52.301
1270.87	84.035
1274.51	63.52
1278.14	131.541
1281.77	106.026
1285.4	48.147
1289.03	19.925
1292.66	115.828
1296.28	9.541
1299.91	45.197
1303.53	93.472
1307.15	134.153
1310.77	102.937
1314.38	110.295
1318	39.709
1321.61	204.161
1325.23	107.564
1328.84	42.935
1332.45	61.308
1336.06	31.44
1339.66	80.467
1343.27	171.4
1346.87	155.263
1350.47	293.065
1354.07	316.839
1357.67	337.613
1361.26	209.786
1364.86	257.955
1368.45	315.989
1372.04	253.152
1375.63	206.183
1379.22	264.613
1382.81	222.908
1386.39	204.074
1389.98	261.098
1393.56	181.412
1397.14	115.086
1400.72	265.245
1404.3	135.494
1407.87	229.937
1411.45	263.748
1415.02	266.166
1418.59	307.425
1422.16	124.701
1425.73	169.988
1429.29	305.164
1432.86	207.751
1436.42	314.259
1439.98	349.52
1443.54	451.233
1447.1	375.487
1450.66	433.451
1454.21	543.822
1457.77	612.271
1461.32	409.198
1464.87	350.191
1468.42	457.475
1471.96	434.305
1475.51	301.162
1479.06	178.678
1482.6	203.331
1486.14	279.328
1489.68	259.007
1493.22	307.155
1496.75	199.711
1500.29	211.546
1503.82	57.971
1507.35	347.405
1510.88	330.534
1514.41	261.688
1517.94	151.393
