Measurement: Raman, 514 nm, ccw, Raman Data Processed
Mineral: Beryl
Rruff sample: R060943
Ideal chemistry: Be_3_Al_2_Si_6_O_18_
Locality: Xinjiang, China
Source: Lawrence W. Snee
Description: Green hexagonal prisms, variety emerald
Measured chemistry: (Be_2.96_Li_0.04_)_Σ=3_(Al_1.64_Mg_0.21_V^3+^_0.06_Fe^3+^_0.04_Sc^3+^_0.03_Cr^3+^_0.02_)_Σ=2_Si_6.00_O_18_·Na_0.25_
Pin_id: L00265
Orientation: Laser parallel to a* (1 0 0). Fiducial mark perpendicular to laser is parallel to -c [0 0 -1]
Raman shift (cm-1)	intensity
167.334	0
172.265	110.448
177.193	76.7827
182.117	180.798
187.039	235.125
191.958	255.458
196.874	248.989
201.787	256.007
206.696	167.474
211.603	181.127
216.506	214.785
221.407	250.869
226.304	248.21
231.199	282.87
236.091	289.013
240.979	276.611
245.864	373.747
250.747	306.301
255.626	161.012
260.503	139.474
265.376	177.163
270.247	394.869
275.114	132.732
279.979	281.726
284.84	232.849
289.699	462.643
294.554	512.711
299.407	793.128
304.257	1066.41
309.103	1741.52
313.947	3473.66
318.788	7423.19
323.626	14171.4
328.461	7330.14
333.292	1625.92
338.121	338.201
342.947	119.5
347.771	11.9917
352.591	85.4019
357.408	17.1758
362.222	29.269
367.034	171.196
371.842	373.517
376.648	686.803
381.45	1272.45
386.25	2833.78
391.047	6096.05
395.841	11350.4
400.632	9848.38
405.42	3644.92
410.205	1158.27
414.988	454.584
419.767	303.25
424.544	158.579
429.318	163.342
434.089	245.265
438.857	281.004
443.622	307.572
448.384	176.965
453.143	65.1829
457.9	103.157
462.654	31.8186
467.405	33.1829
472.153	82.2742
476.898	99.0933
481.64	300.732
486.38	186.205
491.116	200.977
495.85	128.428
500.581	185.059
505.309	280.142
510.035	337.723
514.757	471.122
519.477	570.335
524.194	700.36
528.908	487.205
533.62	218.886
538.328	133.411
543.034	76.7869
547.737	6.8418
552.437	60.78
557.134	16.2102
561.829	58.8481
566.521	35.5154
571.21	115.953
575.896	229.248
580.58	333.399
585.261	461.369
589.939	454.151
594.614	538.459
599.286	494.253
603.956	591.372
608.623	790.022
613.287	1443.15
617.949	2355.45
622.608	1640.56
627.264	729.701
631.917	476.682
636.568	487.543
641.215	451.35
645.861	589.086
650.503	699.707
655.143	889.162
659.78	1381.45
664.414	2152.58
669.046	3858.18
673.674	7596.31
678.301	18188.4
682.924	40798.8
687.545	49955.2
692.163	20784.6
696.778	8251.69
701.391	4435.48
706.001	2609.8
710.609	1722.45
715.213	1259.06
719.815	733.307
724.415	530.66
729.011	414.939
733.606	172.56
738.197	192.801
742.786	148.185
747.372	67.1951
751.955	179.209
756.536	151.736
761.114	164.64
765.69	247.269
770.262	245.775
774.833	152.162
779.4	223.433
783.965	185.589
788.528	93.6345
793.087	188.575
797.645	81.4136
802.199	10.1572
806.751	10.2158
811.3	19.2913
815.847	3.59399
820.391	45.1533
824.933	24.1592
829.471	40.5295
834.008	95.2515
838.541	18.4294
843.073	36.8574
847.601	13.9175
852.127	22.8379
856.65	9.14355
861.171	9.11621
865.69	67.9155
870.205	2.83472
874.718	69.5884
879.229	59.3894
883.737	21.4431
888.242	43.2427
892.745	1.9375
897.246	62.563
901.743	108.938
906.239	90.0098
910.731	180.853
915.221	148.788
919.709	196.823
924.194	220.968
928.677	172.232
933.157	206.624
937.634	105.513
942.109	61.4204
946.582	7.49854
951.052	110.262
955.519	22.2451
959.984	18.99
964.447	46.3718
968.906	139.983
973.364	90.564
977.819	201.474
982.271	159.667
986.721	395.281
991.169	552.707
995.614	918.489
1000.06	1413.23
1004.5	1661.41
1008.93	2055.93
1013.37	2010.46
1017.8	1895.28
1022.23	1915.93
1026.66	2150.3
1031.09	2514.58
1035.51	3052.32
1039.93	4033.39
1044.35	5898.81
1048.76	8743.58
1053.17	14092.7
1057.58	23796.2
1061.99	38755
1066.4	48737.2
1070.8	43761.8
1075.2	31954.7
1079.6	21165
1084	14106.1
1088.39	10149.9
1092.78	7631.21
1097.17	6170.45
1101.56	5097.4
1105.94	4457.56
1110.32	4041.75
1114.7	3949.29
1119.08	3862.61
1123.45	4116.18
1127.82	4566.41
1132.19	4619.19
1136.56	3901.44
1140.92	3025.74
1145.29	2091.73
1149.65	1489.87
1154	1017.51
1158.36	772.48
1162.71	583.437
1167.06	488.551
1171.41	346.897
1175.76	369.978
1180.1	295.436
1184.44	232.6
1188.78	151.511
1193.11	216.892
1197.45	114.077
1201.78	85.6094
1206.11	52.3835
1210.43	43.8762
1214.76	6.57642
1219.08	46.8882
1223.4	34.7012
1227.72	0.266113
1232.03	18.6738
1236.35	75.1975
1240.66	59.9617
1244.96	51.2449
1249.27	0.539795
1253.57	50.9463
1257.88	19.3801
1262.17	7.50073
1266.47	23.4168
1270.76	29.4561
1275.06	63.1895
1279.35	52.9287
1283.63	42.1077
1287.92	25.6995
1292.2	65.5364
1296.48	53.2866
1300.76	32.5127
1305.04	141.711
1309.31	59.98
1313.58	38.1116
1317.85	26.5469
1322.12	67.6814
1326.38	95.6394
1330.64	69.489
1334.9	98.1231
1339.16	97.5696
1343.41	66.3748
1347.67	88.4556
1351.92	104.559
1356.17	109.109
1360.41	116.448
1364.66	104.441
1368.9	49.4915
1373.14	69.8232
1377.38	45.5537
1381.61	209.986
1385.84	402.188
1390.08	37.0066
1394.3	31.3828
1398.53	68.6765
1402.75	105.531
1406.97	24.0371
1411.19	68.2935
1415.41	46.7534
1419.63	39.1318
1423.84	28.3994
1428.05	36.3032
1432.26	71.4949
1436.46	4.0603
1440.67	66.9756
1444.87	61.331
1449.07	121.469
1453.27	27.8398
1457.46	124.396
1461.66	78.3137
1465.85	157.638
1470.04	129.349
1474.22	79.1277
1478.41	71.7144
1482.59	34.0496
1486.77	104.016
1490.95	81.9062
1495.12	53.4336
1499.3	24.2883
1503.47	108.242
1507.63	82.7676
1511.8	87.1897
1515.97	52.79
1520.13	56.4155
1524.29	53.2334
1528.45	125.773
1532.61	49.5081
1536.76	10.9241
1540.91	89.1863
1545.06	137.796
1549.21	102.067
1553.35	65.2708
1557.5	51.6797
1561.64	0.060059
