Measurement: Raman, 514 nm, ccw, Raman Data Processed
Mineral: Beryl
Rruff sample: R050305
Ideal chemistry: Be_3_Al_2_Si_6_O_18_
Locality: Conselheiro Pena, Minas Gerais, Brazil
Source: Eugene Schlepp
Description: Light blue fragment, variety aquamarine
Measured chemistry: (Be_0.91_Li_0.09_)_3_(Al_0.99_Fe^3+^_0.01_)_2_Si_6.00_O_18_Î‡Na_0.27_
Pin_id: L01620
Orientation: Laser parallel to a* (1 0 0). Fiducial mark perpendicular to laser is parallel to -c [0 0 -1]
Raman shift (cm-1)	intensity
100.883	0
105.815	483.747
110.744	1992.59
115.671	2130.17
120.596	2092.85
125.519	2354.62
130.439	2210.56
135.356	2155.98
140.271	2147.67
145.184	1639.9
150.094	1364.2
155.002	1456.79
159.908	1343.66
164.811	1663.37
169.711	1577.78
174.61	1426.67
179.505	1416.12
184.399	1117.97
189.29	1040.59
194.178	995.832
199.064	822.696
203.948	669.466
208.829	128.987
213.708	12.7598
218.585	56.1152
223.459	111.423
228.33	139.811
233.199	436.865
238.066	361.556
242.93	237.572
247.792	68.9023
252.651	7.44629
257.508	9.17383
262.363	179.298
267.215	43.3906
272.064	8.23438
276.912	36.2705
281.756	174.224
286.598	406.778
291.438	941.796
296.276	880.15
301.111	439.728
305.943	258.102
310.773	401.419
315.601	917.757
320.426	1455.39
325.248	1610.6
330.068	554.13
334.886	79.3691
339.701	204.315
344.514	73.3848
349.324	126.261
354.132	87.7295
358.938	149.938
363.741	109.885
368.541	159.141
373.339	531.201
378.135	824.799
382.928	3049.06
387.718	4515.06
392.506	7885.04
397.292	13871.2
402.075	13490.9
406.856	6351.85
411.634	3314.72
416.41	2696.59
421.183	2492.24
425.954	1764.52
430.722	1286.63
435.488	1040.94
440.251	824.232
445.012	776.238
449.77	641.947
454.526	357.367
459.28	324.49
464.03	193.312
468.779	111.545
473.525	183.711
478.268	88.082
483.009	212.199
487.747	278.207
492.483	202.816
497.217	139.438
501.948	4.35547
506.676	99.4043
511.402	26.6328
516.125	64.1231
520.846	114.303
525.565	122.172
530.281	178.867
534.994	99.3418
539.705	140.6
544.413	301.932
549.119	329.119
553.822	606.232
558.523	733.606
563.222	826.328
567.917	1130.89
572.611	1138.26
577.302	1179.43
581.99	889.404
586.676	718.182
591.359	302.766
596.04	468.25
600.718	183.576
605.394	45.4121
610.067	137.342
614.737	261.586
619.406	171.959
624.071	217.762
628.734	242.904
633.395	26.0371
638.053	152.84
642.708	293.699
647.361	330.227
652.012	463.16
656.66	482.514
661.305	828.519
665.948	1527.94
670.588	3176.82
675.226	6739.35
679.861	17366.1
684.494	33417.8
689.124	29376
693.752	12739.9
698.377	6056.8
702.999	3529.43
707.619	2351.5
712.237	1711.51
716.852	1322.22
721.464	1042.93
726.074	1053.48
730.681	745.891
735.286	795.385
739.888	670.502
744.488	599.902
749.085	525.674
753.68	488.389
758.272	769.986
762.861	582.475
767.448	484.816
772.033	363.484
776.614	256.59
781.194	211.674
785.77	250.723
790.345	107.869
794.916	147.373
799.485	127.785
804.052	8.22461
808.616	107.6
813.177	31.5547
817.736	70.9414
822.292	117.228
826.846	101.314
831.397	100.279
835.945	12.7285
840.491	140.301
845.035	238.242
849.576	21.6406
854.114	98.7383
858.65	493.727
863.183	393.613
867.713	90.5879
872.241	98.8789
876.767	142.277
881.29	157.617
885.81	83.0234
890.328	109.162
894.843	279.91
899.356	47.5762
903.866	299.758
908.373	192.023
912.878	383.356
917.38	517.644
921.88	243.004
926.377	130.387
930.872	78.8008
935.364	65.2441
939.853	38.0117
944.34	193.016
948.824	137.094
953.306	116.926
957.785	27.4277
962.261	67.9609
966.735	10.375
971.207	38.9707
975.675	11.4004
980.141	9.86719
984.605	431.891
989.066	843.756
993.524	1103.94
997.98	2016.61
1002.43	2346.61
1006.88	2043.76
1011.33	1971.57
1015.78	1561.72
1020.22	1190.27
1024.66	791.275
1029.1	536.672
1033.53	535.406
1037.97	517.49
1042.4	687.039
1046.82	680.731
1051.25	1223.89
1055.67	1747.44
1060.09	2896.36
1064.51	4002.66
1068.92	4438.35
1073.33	4272.51
1077.74	3705.92
1082.15	2703.64
1086.55	1990.83
1090.95	1647.99
1095.35	1247.86
1099.75	943.82
1104.14	1139.26
1108.53	1035.76
1112.92	844.912
1117.31	1072.11
1121.69	1018.1
1126.07	736.502
1130.45	909.758
1134.82	1148.62
1139.19	1033.42
1143.57	995.486
1147.93	718.943
1152.3	654.449
1156.66	479.537
1161.02	198.594
1165.38	130.051
1169.73	447.945
1174.08	110.234
1178.43	346.881
1182.78	410.885
1187.12	366.234
1191.46	462.924
1195.8	482.943
1200.14	404.283
1204.47	513.947
1208.8	432.992
1213.13	648.383
1217.46	551.203
1221.78	674.301
1226.1	825.699
1230.42	463.397
1234.73	507.76
1239.04	172.488
1243.35	235.869
1247.66	113.465
1251.97	171.861
1256.27	129.139
1260.57	184.518
1264.86	300.203
1269.16	153.69
1273.45	7.65234
1277.74	22.0332
1282.03	19.9453
1286.31	165.885
1290.59	291.019
1294.87	585.104
1299.14	325.582
1303.42	277.166
1307.69	363.69
1311.95	83.1465
1316.22	125.514
1320.48	107.789
1324.74	247.957
1329	472.156
1333.26	172.371
1337.51	169.598
1341.76	182.801
1346	204.693
1350.25	280.701
1354.49	164.82
1358.73	218.693
1362.96	171.529
1367.2	143.434
1371.43	91.9238
1375.66	171.762
1379.88	142.432
1384.11	321.672
1388.33	181.971
1392.54	195.631
1396.76	65.5
1400.97	309.275
1405.18	146.658
1409.39	213.228
1413.59	256.582
1417.8	69.9492
1421.99	12.2637
1426.19	523.785
1430.38	488.797
1434.58	686.115
1438.77	777.234
1442.95	703.182
1447.13	921.541
1451.32	646.182
1455.49	655.617
1459.67	691.828
1463.84	500.805
1468.01	310.002
1472.18	223.969
1476.35	302.164
1480.51	259.318
1484.67	391.285
1488.83	340.943
1492.98	180.254
1497.13	101.49
1501.28	153.877
1505.43	217.121
1509.57	0.017578
1513.71	139.557
1517.85	287.164
1521.99	225.49
1526.12	217.768
1530.25	613.051
1534.38	102.664
1538.5	124.785
1542.62	180.469
1546.74	391.185
1550.86	182.434
1554.98	457.965
1559.09	185.158
1563.2	256.953
1567.31	96.3066
