Measurement: Raman, 514 nm, ccw, Raman Data Processed
Mineral: Beryl
Rruff sample: R050120
Ideal chemistry: Be_3_Al_2_Si_6_O_18_
Locality: Cruziero mine, San Jose, Minas Gerais, Brazil
Source: Carlos and Paulo Vasconcelos
Description: Yellow gemmy fragment
Measured chemistry: (Be_2.76_Li_0.24_)_Σ=3_Al_2.00_Si_6.00_O_18_·Na_0.24_
Pin_id: L00313
Orientation: Laser parallel to c* (0 0 1). Fiducial mark perpendicular to laser is parallel to a [1 0 0]
Raman shift (cm-1)	intensity
97.554	0
101.732	108.564
105.908	591.578
110.082	1261.46
114.254	2262.97
118.424	4079.89
122.592	2733.37
126.758	2367.44
130.922	2361.71
135.083	2623.31
139.243	2094.47
143.401	1632.9
147.557	1294.53
151.711	1195.29
155.863	1153.41
160.013	1357.73
164.161	1534.23
168.308	1460.21
172.452	1415.58
176.594	1294.73
180.734	1267.05
184.872	998.809
189.008	745.725
193.143	505.799
197.275	450.615
201.405	215.199
205.534	323.814
209.66	79.783
213.784	20.555
217.907	48.342
222.027	69.123
226.146	223.857
230.263	321.996
234.377	207.797
238.49	321.203
242.601	139.82
246.709	37.568
250.816	32.246
254.921	61.822
259.024	19.16
263.125	173.842
267.224	371.17
271.321	181.791
275.416	193.338
279.51	171.844
283.601	101.74
287.69	473.711
291.778	897.561
295.863	1011.08
299.947	449.076
304.029	152.947
308.108	317.922
312.186	272.479
316.262	739.855
320.336	1275.92
324.408	1421.39
328.478	716.377
332.546	117.043
336.612	69.748
340.677	86.762
344.739	65.52
348.799	57.27
352.858	184.215
356.915	100.277
360.969	243.988
365.022	377.863
369.073	495.094
373.122	487.592
377.169	859.158
381.215	1301.83
385.258	2187.21
389.299	4051.01
393.339	7602.13
397.376	13899
401.412	14602.7
405.446	7651.04
409.478	4328.16
413.508	3037.88
417.536	2653.12
421.562	2568.24
425.586	1990.53
429.609	1030.51
433.629	718.355
437.648	953.975
441.665	602.033
445.68	607.473
449.693	432.986
453.704	423.146
457.713	258.996
461.721	265.008
465.726	274.643
469.73	316.861
473.731	2.541
477.731	123.941
481.729	156.676
485.725	326.086
489.72	227.139
493.712	90.43
497.703	133.988
501.691	106.275
505.678	51.791
509.663	5.918
513.646	105.18
517.627	43.24
521.607	128.607
525.584	53.914
529.56	267.631
533.534	153.809
537.506	150.316
541.476	273.383
545.444	338.932
549.41	413.004
553.375	350.676
557.337	754.965
561.298	835.877
565.257	990.412
569.214	1264.57
573.17	1400.37
577.123	1162.87
581.075	875.053
585.024	799.91
588.972	816.416
592.918	516.545
596.863	568.301
600.805	495.723
604.746	456.785
608.685	192.385
612.621	268.645
616.557	384.799
620.49	500.193
624.421	1168.96
628.351	682.357
632.279	369.6
636.205	560.66
640.129	760.84
644.051	952.549
647.972	811.496
651.89	1036.95
655.807	1128.74
659.722	1020.52
663.636	1330.27
667.547	1638.83
671.457	2817.36
675.365	5668.2
679.271	12475.2
683.175	28795.6
687.077	36428.8
690.978	20913.5
694.877	9845.25
698.774	5701.48
702.669	3278
706.562	2602.14
710.454	1591.56
714.344	1652.77
718.232	1552.79
722.118	1157.62
726.002	1294.27
729.885	1164.73
733.766	754.027
737.645	830.15
741.522	735.109
745.397	907.912
749.271	577.564
753.143	677.074
757.013	828.443
760.881	706.428
764.748	177.174
768.613	552.879
772.476	630.752
776.337	424.516
780.196	352.217
784.054	52.861
787.91	185.449
791.764	48.611
795.616	105.777
799.467	132.809
803.316	225.619
807.163	162.977
811.008	106.262
814.851	79.188
818.693	119.756
822.533	266.221
826.371	165.797
830.208	180.684
834.042	187.486
837.875	70.078
841.706	180.795
845.536	199.646
849.363	127.771
853.189	255.676
857.013	424.838
860.836	598.059
864.656	361.314
868.475	486.613
872.292	367.955
876.108	151.35
879.922	339.801
883.733	112.314
887.544	345.896
891.352	483.551
895.159	375.283
898.964	464.104
902.767	721.014
906.568	869.012
910.368	430.109
914.166	797.316
917.962	572.641
921.757	244.16
925.55	309.398
929.341	343.152
933.13	407.68
936.918	742.496
940.703	110.066
944.488	362.797
948.27	147.434
952.051	315.543
955.83	26.043
959.607	77.398
963.383	177.23
967.156	70.668
970.928	106.414
974.699	133.297
978.468	193.562
982.234	411.457
986	514.332
989.763	735.355
993.525	1319.73
997.285	2128.62
1001.04	2180.81
1004.8	1797.18
1008.55	1317.75
1012.31	1175.55
1016.06	969.582
1019.81	772.84
1023.56	898.379
1027.31	584.047
1031.05	526.984
1034.79	360.145
1038.53	410.539
1042.27	797.172
1046.01	683.035
1049.75	663.121
1053.48	1314.42
1057.22	1851.56
1060.95	2845.5
1064.68	3707.25
1068.4	4507
1072.13	4009.13
1075.86	3709.23
1079.58	3274.42
1083.3	2945.7
1087.02	2094.05
1090.74	1394.56
1094.45	1543.23
1098.17	964.758
1101.88	1126.96
1105.59	682.555
1109.3	1078.72
1113.01	796.785
1116.71	629.656
1120.42	718.855
1124.12	1055.12
1127.82	597.23
1131.52	847.102
1135.22	1077.5
1138.91	651.27
1142.61	392.371
1146.3	817.781
1149.99	543.844
1153.68	447.352
1157.37	507.691
1161.06	158.117
1164.74	244.164
1168.42	301.664
1172.1	316.059
1175.78	594.332
1179.46	390.484
1183.14	769.758
1186.81	850.43
1190.48	702.34
1194.15	605.871
1197.83	548.301
1201.49	1311.23
1205.16	841.121
1208.82	735.973
1212.49	938.094
1216.15	839.738
1219.81	883.84
1223.46	934.188
1227.12	805.082
1230.78	853.348
1234.43	600.84
1238.08	515.473
1241.73	555.066
1245.38	573.945
1249.03	558.449
1252.67	216.602
1256.31	41.941
1259.95	313.5
1263.6	106.719
1267.23	96.543
1270.87	230.961
1274.51	138.02
1278.14	204.188
1281.77	48.801
1285.4	131.164
1289.03	370.391
1292.66	210.488
1296.28	209.949
1299.91	146.258
1303.53	99.016
1307.15	163.652
1310.77	362.918
1314.38	639.996
1318	189.547
1321.61	123.203
1325.23	605.797
1328.84	237.664
1332.45	1.469
1336.06	138.324
1339.66	429.035
1343.27	96.426
1346.87	730.918
1350.47	788.551
1354.07	760.438
1357.67	576.984
1361.26	312.07
1364.86	550.738
1368.45	505.242
1372.04	395.93
1375.63	489.516
1379.22	563.238
1382.81	723.582
1386.39	209.184
1389.98	516.41
1393.56	438.898
1397.14	210.113
1400.72	479.449
1404.3	274.164
1407.87	178.379
1411.45	579.73
1415.02	218.84
1418.59	494.496
1422.16	4.746
1425.73	45.961
