Measurement: Raman, 514 nm, ccw, Raman Data Processed
Mineral: Beryl
Rruff sample: R060942
Ideal chemistry: Be_3_Al_2_Si_6_O_18_
Locality: Mingore mine, Swat Valley, Pakistan
Source: Lawrence W. Snee
Description: Green hexagonal prisms, variety emerald
Measured chemistry: (Be_2.94_Li_0.06_)_Σ=3_(Al_1.55_Mg_0.37_Fe^3+^_0.06_Cr^3+^_0.02_)_Σ=2_Si_6.00_O_18_·Na_0.42_; Be and Li not measured but estimated by stoichiometry
Pin_id: L01655
Orientation: Laser parallel to c* (0 0 1). Fiducial mark perpendicular to laser is parallel to [-1 -1 0]
Raman shift (cm-1)	intensity
130.439	0
135.356	59.794
140.271	744.183
145.184	318.84
150.094	332.749
155.002	244.162
159.908	58.2148
164.811	562.314
169.711	422.658
174.61	559.762
179.505	547.927
184.399	529.408
189.29	608.258
194.178	1009.62
199.064	1086.77
203.948	1050.27
208.829	6.02344
213.708	247.156
218.585	49.6016
223.459	143.06
228.33	145.625
233.199	243.051
238.066	401.792
242.93	490.513
247.792	390.025
252.651	510.492
257.508	1010.35
262.363	978.308
267.215	1835.59
272.064	1186.99
276.912	805.854
281.756	822.23
286.598	1144.15
291.438	1253.77
296.276	699.753
301.111	349.103
305.943	343.19
310.773	428.959
315.601	844.9
320.426	1526.71
325.248	1768.54
330.068	769.564
334.886	184.265
339.701	24.4854
344.514	8.00488
349.324	128.948
354.132	164.914
358.938	22.5342
363.741	74.9707
368.541	137.293
373.339	336.119
378.135	677.75
382.928	1497.15
387.718	3390.52
392.506	7927.41
397.292	14562
402.075	13199.7
406.856	7821.36
411.634	5289.65
416.41	3744.55
421.183	2469.08
425.954	2008.05
430.722	1911.41
435.488	2086.16
440.251	2263.31
445.012	1338.27
449.77	815.098
454.526	460.478
459.28	418.413
464.03	345.83
468.779	466.723
473.525	468.121
478.268	459.123
483.009	533.438
487.747	454.546
492.483	299.236
497.217	365.019
501.948	475.797
506.676	385.036
511.402	334.453
516.125	310.154
520.846	375.284
525.565	234.373
530.281	52.3018
534.994	22.9932
539.705	33.4463
544.413	164.964
549.119	514.542
553.822	940.36
558.523	1981.4
563.222	2231.53
567.917	2338.9
572.611	2204.31
577.302	1937.81
581.99	1646.56
586.676	1566.56
591.359	1417.77
596.04	1269.17
600.718	963.693
605.394	711.857
610.067	587.592
614.737	453.192
619.406	257.91
624.071	107.842
628.734	26.7803
633.395	117.115
638.053	8.72852
642.708	48.0664
647.361	38.9062
652.012	224.028
656.66	388.271
661.305	908.532
665.948	1550.88
670.588	3349.94
675.226	7398.75
679.861	19410.3
684.494	41317.6
689.124	43975.8
693.752	20446.3
698.377	9215.76
702.999	5012.59
707.619	3264.81
712.237	2042.39
716.852	1562.02
721.464	1153.81
726.074	968.181
730.681	798.365
735.286	842.37
739.888	869.056
744.488	788.633
749.085	803.987
753.68	756.099
758.272	713.69
762.861	561.837
767.448	454.993
772.033	308.153
776.614	420.216
781.194	297.39
785.77	244.246
790.345	219.774
794.916	168.973
799.485	164.838
804.052	107.371
808.616	171.56
813.177	33.5395
817.736	108.888
822.292	75.105
826.846	33.0747
831.397	30.021
835.945	5.66748
840.491	18.9185
845.035	9.25488
849.576	52.081
854.114	26.2314
858.65	40.5786
863.183	15.3462
867.713	85.9604
872.241	52.8018
876.767	62.8262
881.29	5.92481
885.81	50.7656
890.328	35.0576
894.843	175.147
899.356	480.094
903.866	548.939
908.373	693.741
912.878	614.465
917.38	660.098
921.88	521.655
926.377	376.153
930.872	414.611
935.364	224.045
939.853	292.331
944.34	204.252
948.824	148.728
953.306	104.154
957.785	111.018
962.261	43.3516
966.735	134.471
971.207	124.256
975.675	36.0322
980.141	372.552
984.605	849.515
989.066	1400.38
993.524	2207.12
997.98	2784.68
1002.43	2620.48
1006.88	1938.89
1011.33	1632.05
1015.78	1248.78
1020.22	930.155
1024.66	730.019
1029.1	713.712
1033.53	569.032
1037.97	505.978
1042.4	721.436
1046.82	734.405
1051.25	1335.89
1055.67	2063.92
1060.09	3598.55
1064.51	5499.8
1068.92	6661.65
1073.33	6418.06
1077.74	5161.29
1082.15	4017.7
1086.55	3347
1090.95	2712
1095.35	2442.92
1099.75	2172.72
1104.14	1892.31
1108.53	1750.73
1112.92	1632.92
1117.31	3058.76
1121.69	2264.44
1126.07	2155.43
1130.45	2972.44
1134.82	1230.9
1139.19	976.496
1143.57	833.804
1147.93	717.986
1152.3	634.227
1156.66	427.147
1161.02	199.816
1165.38	270.484
1169.73	468.975
1174.08	638.027
1178.43	1094.15
1182.78	1293.6
1187.12	1253.31
1191.46	1504.58
1195.8	1614.81
1200.14	1585.52
1204.47	1837.14
1208.8	2007.57
1213.13	2200.88
1217.46	1858.49
1221.78	1353.28
1226.1	726.218
1230.42	602.178
1234.73	297.949
1239.04	191.752
1243.35	94.9712
1247.66	113.053
1251.97	59.8418
1256.27	23.293
1260.57	65.165
1264.86	16.9019
1269.16	129.021
1273.45	84.7905
1277.74	20.4492
1282.03	35.4194
1286.31	56.4746
1290.59	31.1382
1294.87	28.6567
1299.14	18.6826
1303.42	71.1235
1307.69	84.7046
1311.95	74.2988
1316.22	44.2681
1320.48	69.9995
1324.74	108.139
1329	174.18
1333.26	176.366
1337.51	185.33
1341.76	214.203
1346	170.069
1350.25	68.6748
1354.49	218.017
1358.73	121.877
1362.96	87.2061
1367.2	164.998
1371.43	118.499
1375.66	67.0039
1379.88	100.03
1384.11	724.938
1388.33	257.417
1392.54	84.8657
1396.76	161.665
1400.97	151.893
1405.18	123.508
1409.39	103.081
1413.59	87.2964
1417.8	136.565
1421.99	101.574
1426.19	10.2441
1430.38	159.932
1434.58	77.2842
1438.77	90.4863
1442.95	75.4346
1447.13	26.5874
1451.32	88.4331
1455.49	212.695
1459.67	60.2685
1463.84	101.981
1468.01	155.112
1472.18	185.356
1476.35	59.0068
1480.51	176.019
1484.67	68.4273
1488.83	106.043
1492.98	81.5371
1497.13	134.007
1501.28	232.394
1505.43	21.9692
1509.57	166.47
1513.71	114.016
1517.85	107.091
1521.99	128.233
1526.12	134.314
1530.25	125.067
1534.38	6.29004
1538.5	121.394
1542.62	102.835
1546.74	180.145
1550.86	121.238
1554.98	504.861
1559.09	137.667
1563.2	165.225
1567.31	218.322
1571.41	0
