Measurement: Raman, 514 nm, ccw, Raman Data Processed
Mineral: Beryl
Rruff sample: R050065
Ideal chemistry: Be_3_Al_2_Si_6_O_18_
Locality: Xuebaoding, Sichuan Province, China
Source: Rock Currier
Description: Light blue colored tabular single crystal
Measured chemistry: (Be_2.78_Li_0.22_)_Σ=3_Al_2.00_Si_6.00_O_18_·Na_0.22_
Pin_id: L00371
Orientation: Laser parallel to c* (0 0 1). Fiducial mark perpendicular to laser is parallel to a [1 0 0]
Raman shift (cm-1)	intensity
94.768	0
98.947	83.938
103.124	323.515
107.3	693.05
111.473	1340.08
115.644	2365.75
119.813	2709.53
123.981	2382.82
128.146	2181.2
132.309	2313.48
136.47	2192.02
140.63	2057.01
144.787	1701.27
148.942	1366.11
153.096	1373.99
157.247	1524.8
161.396	1416.45
165.544	1376.19
169.689	1187.7
173.833	1134.15
177.974	963.462
182.114	785.66
186.251	754.859
190.387	597.081
194.52	500.048
198.652	511.826
202.782	247.425
206.909	89.002
211.035	42.438
215.159	62.438
219.281	29.8
223.4	106.988
227.518	136.596
231.634	219.997
235.748	277.645
239.86	248.359
243.97	222.689
248.079	110.166
252.185	10.256
256.289	39.605
260.391	46.435
264.492	14.533
268.59	77.076
272.687	54.178
276.781	119.788
280.874	154.049
284.964	364.61
289.053	816.224
293.14	1240.71
297.225	746.929
301.308	383.738
305.389	339.084
309.468	403.818
313.545	738.854
317.62	1272.43
321.693	1996.04
325.765	1944.83
329.834	787.819
333.902	284.964
337.967	62.71
342.031	77.22
346.093	110.688
350.153	128.664
354.21	142.424
358.267	192.524
362.321	226.688
366.373	318.456
370.423	405.384
374.471	724.215
378.518	929.776
382.563	1419.15
386.605	2723.77
390.646	5101.61
394.685	10331.7
398.722	15321.7
402.757	11739.6
406.79	5804.34
410.821	3432.91
414.851	2828.14
418.878	2763.01
422.904	2733.97
426.927	2471.33
430.949	1174.53
434.969	1121.69
438.987	950.41
443.003	807.742
447.018	747.838
451.03	486.028
455.041	401.332
459.049	326.843
463.056	115.717
467.061	142.631
471.064	61.854
475.065	57.571
479.064	308.603
483.062	218.363
487.057	170.868
491.051	274.11
495.043	156.083
499.032	183.512
503.02	30.118
507.007	132.009
510.991	42.618
514.973	166.686
518.954	161.922
522.933	0.974
526.91	49.397
530.885	24.8
534.858	86.478
538.829	196.428
542.799	20.052
546.766	156.189
550.732	397.113
554.696	469.814
558.658	802.249
562.618	880.38
566.576	811.201
570.533	1073.73
574.488	1190.95
578.44	1403.87
582.391	1105.53
586.341	796.914
590.288	557.988
594.233	403.748
598.177	303.207
602.119	245.529
606.059	303.145
609.997	110.615
613.933	287.684
617.868	337.406
621.801	517.766
625.731	177.828
629.66	105.061
633.588	281.141
637.513	277.1
641.437	359.834
645.358	481.287
649.278	462.412
653.196	648.17
657.113	759.631
661.027	903.689
664.94	1247.64
668.851	2061.16
672.76	3667.55
676.667	7304.57
680.572	16722.1
684.476	34795.3
688.378	33460.5
692.278	15817.8
696.176	8301.35
700.072	4764.98
703.967	3141.59
707.86	2242.33
711.751	1873.21
715.64	1384.54
719.527	1157.67
723.413	978.148
727.297	880.869
731.179	958.396
735.059	892.732
738.937	904.885
742.814	742.859
746.689	606.658
750.562	1043.29
754.433	781.75
758.303	646.578
762.17	872.592
766.036	815.996
769.901	505.168
773.763	211.721
777.624	372.58
781.482	61.305
785.339	378.027
789.195	139.193
793.048	114.457
796.9	206.627
800.75	134.705
804.598	225.123
808.445	36.377
812.289	65.92
816.132	162.439
819.973	81.176
823.813	98.852
827.65	25.137
831.486	112.348
835.32	35.875
839.152	68.602
842.983	77.148
846.812	63.312
850.639	26.098
854.464	2.566
858.288	11.018
862.11	130.703
865.93	99.385
869.748	165.623
873.564	103.635
877.379	139.812
881.192	59.033
885.004	232.309
888.813	194.658
892.621	250.076
896.427	166.582
900.232	378.18
904.034	303.867
907.835	526.656
911.634	481.555
915.432	314.566
919.227	188.713
923.021	188.016
926.813	283.445
930.604	306.01
934.393	256.557
938.18	68.391
941.965	194.375
945.749	327.496
949.53	145.764
953.311	137.76
957.089	77.715
960.866	32.895
964.641	100.084
968.414	1.113
972.185	284.107
975.955	199.227
979.723	276.807
983.49	114.949
987.254	430.631
991.017	894.861
994.779	1540.18
998.538	1847.14
1002.3	2147.86
1006.05	1733.48
1009.81	1385.79
1013.56	895.73
1017.31	733.895
1021.06	795.877
1024.81	230.25
1028.55	527.396
1032.3	257.588
1036.04	370.15
1039.78	482.551
1043.52	596.469
1047.26	644.146
1050.99	1248.06
1054.73	1598.17
1058.46	2402.48
1062.19	3406.97
1065.92	4063.63
1069.65	4358.45
1073.37	4394.43
1077.1	3461.55
1080.82	3035.83
1084.54	2102.24
1088.26	1755.55
1091.97	1196.27
1095.69	1023.12
1099.4	993.102
1103.12	809.215
1106.83	912.561
1110.54	648.559
1114.24	582.938
1117.95	646.943
1121.65	747.875
1125.35	605.568
1129.06	575.799
1132.75	535.461
1136.45	547.689
1140.15	662.826
1143.84	814.895
1147.53	930.781
1151.22	700.486
1154.91	571.869
1158.6	227.221
1162.28	246.193
1165.97	352.885
1169.65	322.934
1173.33	442.57
1177.01	96.646
1180.69	487.764
1184.36	535.184
1188.04	562.512
1191.71	807.904
1195.38	678.443
1199.05	855.105
1202.71	436.203
1206.38	877.557
1210.04	774.512
1213.71	751.785
1217.37	1095.86
1221.03	1232.89
1224.68	1428.56
1228.34	1156.61
1231.99	1100
1235.65	1010.62
1239.3	948.797
1242.95	537.869
1246.59	584.824
1250.24	202.818
1253.88	384.453
1257.53	359.85
1261.17	200.756
1264.81	127.014
1268.45	194.982
1272.08	91.109
1275.72	197.566
1279.35	22.885
1282.98	4.205
1286.61	227.799
1290.24	246.15
1293.87	22.686
1297.49	161.531
1301.11	115.828
1304.73	5.361
1308.36	62.1
1311.97	14.506
1315.59	161.287
1319.2	188.375
1322.82	196.736
1326.43	67.641
1330.04	148.283
1333.65	43.613
1337.26	311.309
1340.86	63.5
1344.47	323.234
1348.07	320.572
1351.67	235.553
1355.27	445.496
1358.87	369.449
1362.46	484.688
1366.06	400.199
1369.65	319.488
1373.24	362.385
1376.83	351.641
1380.42	541.467
1384	691.637
1387.59	531.514
1391.17	612.857
1394.75	502.158
1398.33	831.752
1401.91	394.879
1405.49	612.998
1409.06	676.059
1412.64	425.707
1416.21	568.236
1419.78	263.465
1423.35	341.148
1426.91	349.016
1430.48	171.129
1434.05	157.125
1437.61	431.305
1441.17	573.137
1444.73	245.789
1448.29	625.348
1451.84	377.973
1455.4	515.141
1458.95	321.156
1462.5	501.031
1466.05	731.289
1469.6	616.016
1473.15	538.574
1476.69	342.398
1480.24	678.031
1483.78	204.715
1487.32	165.383
1490.86	226.859
1494.39	146.379
1497.93	324.395
1501.46	108.629
1505	175.672
1508.53	76.395
1512.06	100.809
