Measurement: Raman, 514 nm, ccw, Raman Data Processed
Mineral: Beryl
Rruff sample: R050347
Ideal chemistry: Be_3_Al_2_Si_6_O_18_
Locality: North Keystone, South Dakota, USA
Source: California Institute of Technology
Description: Colorless fragment
Measured chemistry: (Be_0.96_Li_0.04_)_3_Al_2.00_(Si_0.99_Al_0.01_)_6_O_18_ Î‡0.17Na
Pin_id: L01036
Orientation: Laser parallel to a* (1 0 0). Fiducial mark perpendicular to laser is parallel to c [0 0 1]
Raman shift (cm-1)	intensity
120.596	0
125.519	87.4722
130.439	114.681
135.356	242.88
140.271	306.364
145.184	225.206
150.094	213.941
155.002	131.628
159.908	33.1738
164.811	90.1494
169.711	260.472
174.61	281.443
179.505	313.763
184.399	304.684
189.29	249.148
194.178	344.148
199.064	329.918
203.948	293.366
208.829	27.6377
213.708	56.2632
218.585	31.251
223.459	103.991
228.33	116.952
233.199	130.144
238.066	218.487
242.93	231.355
247.792	287.679
252.651	190.356
257.508	130.283
262.363	185.455
267.215	197.544
272.064	163.159
276.912	313.386
281.756	381.125
286.598	438.523
291.438	576.383
296.276	792.062
301.111	1071.66
305.943	1553.77
310.773	2711.73
315.601	6269.24
320.426	11373.6
325.248	8662.18
330.068	2461.95
334.886	659.899
339.701	149.25
344.514	254.312
349.324	150.752
354.132	175.513
358.938	243.483
363.741	238.517
368.541	379.743
373.339	617.198
378.135	1008.78
382.928	1977.13
387.718	4262.59
392.506	8416.17
397.292	10104.9
402.075	4970.67
406.856	1823.51
411.634	749.558
416.41	335.45
421.183	234.042
425.954	200.044
430.722	147.185
435.488	243.365
440.251	191.585
445.012	377.853
449.77	356.194
454.526	303.634
459.28	193.186
464.03	78.7593
468.779	198.401
473.525	61.105
478.268	169.87
483.009	47.6929
487.747	99.5674
492.483	116.492
497.217	103.525
501.948	46.7852
506.676	109.822
511.402	7.69092
516.125	25.5645
520.846	206.551
525.565	258.214
530.281	179.892
534.994	188.167
539.705	146.542
544.413	25.9961
549.119	16.6816
553.822	10.5308
558.523	7.65967
563.222	16.0444
567.917	63.3184
572.611	64.6904
577.302	125.099
581.99	52.5903
586.676	135.155
591.359	61.7022
596.04	120.277
600.718	126.975
605.394	232.714
610.067	286.516
614.737	820.269
619.406	1510.07
624.071	1268.81
628.734	512.518
633.395	410.212
638.053	470.748
642.708	610.656
647.361	699.29
652.012	895.46
656.66	1018.18
661.305	1537.37
665.948	2410.63
670.588	4654.2
675.226	10964.5
679.861	28625.4
684.494	47226.8
689.124	25673.2
693.752	9339.84
698.377	4162.81
702.999	2249.95
707.619	1588.93
712.237	949.243
716.852	581.192
721.464	632.124
726.074	429.117
730.681	264.457
735.286	263.357
739.888	278.331
744.488	138.013
749.085	154.308
753.68	123.822
758.272	68.3945
762.861	186.766
767.448	184.819
772.033	153.345
776.614	172.976
781.194	198.453
785.77	140.818
790.345	109.588
794.916	233.72
799.485	164.96
804.052	33.8267
808.616	180.319
813.177	78.4219
817.736	5.42969
822.292	7.03809
826.846	77.5469
831.397	27.7871
835.945	24.9854
840.491	37.1348
845.035	32.7236
849.576	29.1191
854.114	0.773438
858.65	35.0684
863.183	12.1523
867.713	47.1152
872.241	19.1865
876.767	35.8369
881.29	26.7256
885.81	52.167
890.328	63.9688
894.843	74.6719
899.356	37.7139
903.866	20.2266
908.373	81.1904
912.878	144.631
917.38	102.1
921.88	112.329
926.377	50.8594
930.872	15.626
935.364	5.75391
939.853	163.463
944.34	124.981
948.824	131.912
953.306	133.022
957.785	144.838
962.261	166.182
966.735	125.64
971.207	218.957
975.675	201.938
980.141	330.597
984.605	336.743
989.066	379.713
993.524	556.362
997.98	773.056
1002.43	1128.58
1006.88	1942.76
1011.33	2317.5
1015.78	2125.32
1020.22	2053.54
1024.66	1865.45
1029.1	2253.17
1033.53	2657.04
1037.97	3569.56
1042.4	4806.4
1046.82	6961.62
1051.25	11126.2
1055.67	18585
1060.09	31282.8
1064.51	45643.4
1068.92	46437.1
1073.33	35836.5
1077.74	24351.7
1082.15	16330.9
1086.55	11046.9
1090.95	7693.88
1095.35	5875.48
1099.75	4481.54
1104.14	3727.32
1108.53	3028.36
1112.92	2775.31
1117.31	2458.13
1121.69	2202.56
1126.07	2038.39
1130.45	2116.55
1134.82	2318.49
1139.19	2757.25
1143.57	2717.13
1147.93	2436.98
1152.3	1727.13
1156.66	1272.14
1161.02	764.379
1165.38	423.099
1169.73	467.283
1174.08	293.846
1178.43	326.446
1182.78	117.215
1187.12	198.214
1191.46	295.459
1195.8	117.666
1200.14	55.5322
1204.47	135.595
1208.8	1.70703
1213.13	57.2207
1217.46	28.5303
1221.78	9.55957
1226.1	151.328
1230.42	38.3066
1234.73	12.4326
1239.04	40.7178
1243.35	48.8535
1247.66	66.165
1251.97	22.6289
1256.27	152.341
1260.57	59.1357
1264.86	5.65234
1269.16	19.7158
1273.45	21.1641
1277.74	216.117
1282.03	252.264
1286.31	40.1797
1290.59	219.577
1294.87	175.765
1299.14	86.1045
1303.42	151.127
1307.69	167.865
1311.95	90.7207
1316.22	69.1924
1320.48	146.593
1324.74	189.988
1329	41.2012
1333.26	202.879
1337.51	154.371
1341.76	64.6875
1346	172.602
1350.25	161.872
1354.49	73.7578
1358.73	181.243
1362.96	192.113
1367.2	183.664
1371.43	201.862
1375.66	66.0557
1379.88	259.75
1384.11	76.249
1388.33	224.53
1392.54	162.439
1396.76	22.7168
1400.97	142.847
1405.18	25.3389
1409.39	50.9795
1413.59	115.548
1417.8	174.074
1421.99	150.308
1426.19	188.931
1430.38	157.066
1434.58	22.1016
1438.77	22.5811
1442.95	4.32715
1447.13	47.9395
1451.32	257.624
1455.49	191.484
1459.67	20.334
1463.84	198.31
1468.01	242.929
1472.18	149.681
1476.35	174.095
1480.51	149.121
1484.67	84.3574
1488.83	117.797
1492.98	174.228
1497.13	174.718
1501.28	33.0029
1505.43	73.5019
1509.57	114.585
1513.71	177.096
1517.85	163.597
1521.99	59.1016
1526.12	154.027
1530.25	68.9189
1534.38	77.4258
1538.5	137.982
1542.62	55.1943
1546.74	156.481
1550.86	98.4336
1554.98	181.861
1559.09	78.7705
1563.2	141.12
1567.31	37.5185
