Measurement: Raman, 514 nm, ccw, Raman Data Processed
Mineral: Beryl
Rruff sample: R050305
Ideal chemistry: Be_3_Al_2_Si_6_O_18_
Locality: Conselheiro Pena, Minas Gerais, Brazil
Source: Eugene Schlepp
Description: Light blue fragment, variety aquamarine
Measured chemistry: (Be_0.91_Li_0.09_)_3_(Al_0.99_Fe^3+^_0.01_)_2_Si_6.00_O_18_Î‡Na_0.27_
Pin_id: L01620
Orientation: Laser parallel to a* (1 0 0). Fiducial mark perpendicular to laser is parallel to -c [0 0 -1]
Raman shift (cm-1)	intensity
95.948	0
100.883	112.81
105.815	299.497
110.744	1279.05
115.671	1354.67
120.596	1235.61
125.519	1284.43
130.439	1175.41
135.356	1027.65
140.271	933.875
145.184	727.07
150.094	652.982
155.002	667.221
159.908	657.42
164.811	732.432
169.711	689.171
174.61	739.214
179.505	711.569
184.399	673.782
189.29	689.344
194.178	656.824
199.064	692.628
203.948	764.356
208.829	33.3486
213.708	136.429
218.585	192.556
223.459	113.514
228.33	268.352
233.199	290.256
238.066	315.582
242.93	283.244
247.792	371.423
252.651	215.91
257.508	169.94
262.363	163.414
267.215	74.9648
272.064	82.4541
276.912	77.6992
281.756	98.1367
286.598	268.53
291.438	317.784
296.276	444.823
301.111	704.59
305.943	998.028
310.773	1700.08
315.601	3684.67
320.426	7039.78
325.248	9996.41
330.068	4775.54
334.886	1411.16
339.701	492.261
344.514	55.1055
349.324	32.082
354.132	65.1728
358.938	39.3242
363.741	114.365
368.541	20.3672
373.339	19.1865
378.135	270.992
382.928	690.008
387.718	1827.49
392.506	4295.71
397.292	8342.09
402.075	9026.53
406.856	4087.36
411.634	1481.32
416.41	628.911
421.183	284.812
425.954	61.8086
430.722	174.921
435.488	130.299
440.251	321.93
445.012	479.799
449.77	467.896
454.526	465.209
459.28	607.727
464.03	370.443
468.779	254.351
473.525	257.438
478.268	186.737
483.009	277.252
487.747	178.319
492.483	161.006
497.217	184.675
501.948	82.5498
506.676	92.9873
511.402	5.41504
516.125	29.5596
520.846	24.3994
525.565	128.353
530.281	81.9746
534.994	72.9795
539.705	49.251
544.413	162.627
549.119	120.091
553.822	122.472
558.523	34.707
563.222	125.894
567.917	177.067
572.611	156.346
577.302	397.688
581.99	283.068
586.676	286.475
591.359	237.948
596.04	291.493
600.718	91.9492
605.394	242.941
610.067	397.497
614.737	777.201
619.406	1074.86
624.071	809.18
628.734	414.531
633.395	453.679
638.053	443.465
642.708	621.496
647.361	736.976
652.012	859.347
656.66	1040.81
661.305	1442.05
665.948	2213.5
670.588	4045.21
675.226	7990.71
679.861	19013.3
684.494	38401.9
689.124	37302.5
693.752	15504.1
698.377	6557.08
702.999	3413
707.619	2235.77
712.237	1395.35
716.852	925.488
721.464	596.289
726.074	471.049
730.681	347.74
735.286	434.099
739.888	301.374
744.488	239.332
749.085	230.44
753.68	53.2363
758.272	76.0644
762.861	53.0469
767.448	109.259
772.033	77.9902
776.614	205.241
781.194	138.919
785.77	95.457
790.345	209.512
794.916	86.749
799.485	165.349
804.052	66.291
808.616	121.223
813.177	49.6016
817.736	91.2959
822.292	51.3994
826.846	92.5303
831.397	113.077
835.945	18.3633
840.491	34.6836
845.035	145.827
849.576	10.0508
854.114	154.978
858.65	41.6943
863.183	101.192
867.713	103.329
872.241	187.193
876.767	206.709
881.29	10.9766
885.81	17.8926
890.328	109.83
894.843	32.7725
899.356	37.9697
903.866	208.135
908.373	34.6191
912.878	105.132
917.38	5.21094
921.88	40.3018
926.377	155.638
930.872	59.6377
935.364	51.251
939.853	105.973
944.34	22.6562
948.824	111.353
953.306	187.632
957.785	76.7412
962.261	126.539
966.735	277.262
971.207	145.975
975.675	282.699
980.141	176.464
984.605	382.669
989.066	460.308
993.524	560.273
997.98	900.481
1002.43	1286.11
1006.88	1707.97
1011.33	2017.13
1015.78	2079.61
1020.22	2056.22
1024.66	2097.7
1029.1	2505.16
1033.53	2787.3
1037.97	3877.74
1042.4	4983.69
1046.82	7132.89
1051.25	10440.4
1055.67	15768.3
1060.09	24267.9
1064.51	32215.7
1068.92	34571.4
1073.33	31503.9
1077.74	24708.9
1082.15	18032.9
1086.55	13061
1090.95	9889.43
1095.35	7836.41
1099.75	6734
1104.14	5928.97
1108.53	5440.85
1112.92	5165.08
1117.31	4970.82
1121.69	4615.88
1126.07	4520.41
1130.45	4483.35
1134.82	4206.7
1139.19	4278.35
1143.57	4150.65
1147.93	3612.25
1152.3	3169.42
1156.66	2416.26
1161.02	1464.29
1165.38	1106.84
1169.73	809.275
1174.08	551.865
1178.43	674.389
1182.78	491.277
1187.12	385.312
1191.46	187.522
1195.8	240.928
1200.14	117.523
1204.47	96.1269
1208.8	78.1309
1213.13	108.029
1217.46	158.361
1221.78	60.5898
1226.1	35.5117
1230.42	20.2266
1234.73	81.918
1239.04	34.5723
1243.35	23.3203
1247.66	87.2402
1251.97	47.9238
1256.27	30.791
1260.57	89.4356
1264.86	4.13086
1269.16	21.5332
1273.45	102.582
1277.74	91.4941
1282.03	194.406
1286.31	79.8301
1290.59	343.533
1294.87	254.473
1299.14	178.16
1303.42	231.836
1307.69	169.465
1311.95	256.76
1316.22	237.752
1320.48	186.508
1324.74	171.055
1329	158.447
1333.26	150.176
1337.51	173.478
1341.76	189.129
1346	199.816
1350.25	163.44
1354.49	191.096
1358.73	281.928
1362.96	251.047
1367.2	160.764
1371.43	81.3223
1375.66	255.215
1379.88	253.701
1384.11	7.54688
1388.33	176.91
1392.54	188.074
1396.76	141.299
1400.97	122.457
1405.18	110.635
1409.39	162.744
1413.59	136.648
1417.8	222.709
1421.99	123.346
1426.19	205.953
1430.38	178.309
1434.58	183.705
1438.77	229.992
1442.95	209.779
1447.13	232.76
1451.32	228.342
1455.49	206.477
1459.67	123.713
1463.84	488.842
1468.01	314.227
1472.18	163.91
1476.35	152.81
1480.51	237.543
1484.67	171.631
1488.83	206.766
1492.98	148.824
1497.13	165.672
1501.28	154.088
1505.43	97.4375
1509.57	83.8769
1513.71	84.3457
1517.85	2.58398
1521.99	117.326
1526.12	108.42
1530.25	161.918
1534.38	214.18
1538.5	181
1542.62	13.8965
1546.74	65.3691
1550.86	147.281
1554.98	259.162
1559.09	112.535
1563.2	29.877
1567.31	0.890625
