Measurement: Raman, 514 nm, ccw, Raman Data Processed
Mineral: Beryl
Rruff sample: R050347
Ideal chemistry: Be_3_Al_2_Si_6_O_18_
Locality: North Keystone, South Dakota, USA
Source: California Institute of Technology
Description: Colorless fragment
Measured chemistry: (Be_0.96_Li_0.04_)_3_Al_2.00_(Si_0.99_Al_0.01_)_6_O_18_ Î‡0.17Na
Pin_id: L01036
Orientation: Laser parallel to a* (1 0 0). Fiducial mark perpendicular to laser is parallel to c [0 0 1]
Raman shift (cm-1)	intensity
120.596	0
125.519	35.6221
130.439	676.688
135.356	1300.6
140.271	1982.36
145.184	1656.67
150.094	755.36
155.002	120.349
159.908	52.206
164.811	230.475
169.711	498.352
174.61	729.655
179.505	911.879
184.399	1097.09
189.29	1399.78
194.178	1424.16
199.064	1585.39
203.948	1599.42
208.829	556.289
213.708	503.748
218.585	432.392
223.459	532.241
228.33	522.197
233.199	522.077
238.066	640.751
242.93	816.238
247.792	1089.7
252.651	1076.32
257.508	97.5586
262.363	119.594
267.215	222.388
272.064	30.3916
276.912	193.617
281.756	145.118
286.598	541.938
291.438	1004.73
296.276	1420.82
301.111	1274.2
305.943	1233
310.773	2046.77
315.601	4289.72
320.426	8235.09
325.248	6823.09
330.068	1874.51
334.886	568.648
339.701	142.369
344.514	69.2188
349.324	34.0918
354.132	169.838
358.938	92.2432
363.741	245.29
368.541	427.104
373.339	628.717
378.135	995.93
382.928	2128.81
387.718	3976.33
392.506	8466.61
397.292	11389.8
402.075	6084.41
406.856	2328.77
411.634	1114.43
416.41	1003.32
421.183	1135.7
425.954	627.959
430.722	503.679
435.488	835.986
440.251	1467.05
445.012	2545.11
449.77	2187.04
454.526	1229.94
459.28	517.496
464.03	443.272
468.779	276.84
473.525	116.61
478.268	304.984
483.009	193.3
487.747	176.442
492.483	248.095
497.217	149.572
501.948	362.415
506.676	488.089
511.402	785.447
516.125	1609.94
520.846	2631.36
525.565	3339.7
530.281	3131.98
534.994	2134.2
539.705	1537.38
544.413	799.579
549.119	460.942
553.822	210.414
558.523	242.656
563.222	90.0381
567.917	294.916
572.611	269.608
577.302	479.681
581.99	345.752
586.676	7.26758
591.359	200.392
596.04	16.2617
600.718	91.6328
605.394	77.6846
610.067	29.665
614.737	222.519
619.406	866.547
624.071	753.501
628.734	231.36
633.395	162.226
638.053	340.749
642.708	227.44
647.361	327.055
652.012	591.53
656.66	652.829
661.305	1634.98
665.948	1675.74
670.588	3571.89
675.226	8670.44
679.861	23248.8
684.494	43157.9
689.124	25988.5
693.752	9506.84
698.377	4232.92
702.999	2460.8
707.619	1565.77
712.237	1042.56
716.852	625.078
721.464	602.968
726.074	595.443
730.681	446.764
735.286	360.099
739.888	360.769
744.488	257.613
749.085	414.002
753.68	446.079
758.272	735.749
762.861	854.734
767.448	960.33
772.033	760.533
776.614	637.922
781.194	458.346
785.77	299.59
790.345	261.024
794.916	158.282
799.485	81.1523
804.052	232.607
808.616	95.6484
813.177	32.2822
817.736	67.2969
822.292	70.0215
826.846	37.0791
831.397	121.375
835.945	33.0605
840.491	16.2881
845.035	6.21094
849.576	149.984
854.114	49.0566
858.65	56.751
863.183	48.1328
867.713	38.1992
872.241	47.1279
876.767	15.168
881.29	31.5566
885.81	3.95801
890.328	49.1133
894.843	85.0606
899.356	65.834
903.866	338.492
908.373	443.05
912.878	468.532
917.38	553.947
921.88	421.312
926.377	393.644
930.872	181.924
935.364	238.904
939.853	38.7344
944.34	129.508
948.824	3.95215
953.306	44.6279
957.785	92.9541
962.261	168.407
966.735	121.292
971.207	232.942
975.675	67.0449
980.141	641.606
984.605	543.934
989.066	932.301
993.524	1449.24
997.98	2670.56
1002.43	4511.36
1006.88	7154.62
1011.33	8726.93
1015.78	6941.49
1020.22	4643.94
1024.66	3521.26
1029.1	2842.03
1033.53	2750.11
1037.97	2932.7
1042.4	3915.76
1046.82	5438.29
1051.25	7978.3
1055.67	13339.8
1060.09	22915.9
1064.51	34189.5
1068.92	36111.6
1073.33	28447
1077.74	19534.6
1082.15	13219.3
1086.55	8952.54
1090.95	6153.31
1095.35	4463.89
1099.75	3545.06
1104.14	2979.06
1108.53	2324.77
1112.92	2047.21
1117.31	1770.52
1121.69	1779.67
1126.07	1500.88
1130.45	1491.12
1134.82	1881.17
1139.19	2029.06
1143.57	2163.72
1147.93	1817.42
1152.3	1379.15
1156.66	1002.12
1161.02	343.981
1165.38	214.57
1169.73	237.318
1174.08	182.611
1178.43	160.293
1182.78	82.4531
1187.12	242.346
1191.46	171.264
1195.8	119.041
1200.14	14.8848
1204.47	82.3652
1208.8	105.324
1213.13	38.0332
1217.46	88.9961
1221.78	69.8203
1226.1	293.994
1230.42	258.103
1234.73	566.541
1239.04	687.6
1243.35	349.383
1247.66	157.047
1251.97	18.1992
1256.27	148.512
1260.57	70.0137
1264.86	91.4258
1269.16	17.2812
1273.45	217.318
1277.74	74.25
1282.03	51.9844
1286.31	35.5508
1290.59	14.1953
1294.87	16.8008
1299.14	129.812
1303.42	204.607
1307.69	269.889
1311.95	24.2988
1316.22	193.453
1320.48	540.959
1324.74	114.166
1329	253.397
1333.26	74.4922
1337.51	289.857
1341.76	268.352
1346	302.523
1350.25	152.287
1354.49	280.607
1358.73	195.75
1362.96	303.09
1367.2	177.5
1371.43	280.621
1375.66	211.26
1379.88	34.3496
1384.11	297.594
1388.33	251.098
1392.54	225.594
1396.76	194.465
1400.97	198.731
1405.18	236.193
1409.39	35.4551
1413.59	7.52734
1417.8	3.38281
1421.99	154.393
1426.19	121.164
1430.38	52.2695
1434.58	208.418
1438.77	192.428
1442.95	222.889
1447.13	229.873
1451.32	290.014
1455.49	310.897
1459.67	227.793
1463.84	236.117
1468.01	245.822
1472.18	300.904
1476.35	434.869
1480.51	11.2949
1484.67	70.3438
1488.83	263.94
1492.98	112.076
1497.13	90.0254
1501.28	102.727
1505.43	179.062
1509.57	19.3281
1513.71	120.793
1517.85	127.811
1521.99	169.018
1526.12	173.648
1530.25	181.908
1534.38	19.6387
1538.5	62.0527
1542.62	75.7481
1546.74	153.01
1550.86	182.277
1554.98	300.613
1559.09	211.787
1563.2	150.08
1567.31	180.934
