Measurement: Raman, 514 nm, ccw, Raman Data Processed
Mineral: Beryl
Rruff sample: R050121
Ideal chemistry: Be_3_Al_2_Si_6_O_18_
Locality: Cruziero mine, San Jose, Minas Gerais, Brazil
Source: Carlos and Paulo Vasconcelos
Description: Light blue fragment, variety aquamarine
Measured chemistry: (Be_0.96_Li_0.04_)_3_Al_2.00_Si_6.00_O_18_Î‡Na_0.09_Mg_0.03_
Pin_id: L00500
Orientation: Laser parallel to -c* (0 0 -1). Fiducial mark perpendicular to laser is parallel to a [1 0 0]
Raman shift (cm-1)	intensity
114.254	0
118.424	73.907
122.592	32.991
126.758	170.003
130.922	100.7
135.083	269.005
139.243	243.513
143.401	171.411
147.557	123.779
151.711	105.33
155.863	77.855
160.013	184.451
164.161	186.709
168.308	178.023
172.452	194.248
176.594	148.418
180.734	97.17
184.872	221.657
189.008	172.967
193.143	160.531
197.275	62.278
201.405	14.425
205.534	286.936
209.66	196.656
213.784	11.684
217.907	64.902
222.027	107.229
226.146	107.963
230.263	178.887
234.377	196.798
238.49	265.188
242.601	219.704
246.709	198.558
250.816	213.378
254.921	284.994
259.024	241.568
263.125	307.931
267.224	454.075
271.321	443.008
275.416	435.733
279.51	562.736
283.601	619.551
287.69	1239.82
291.778	1320.21
295.863	968.408
299.947	803.756
304.029	913.117
308.108	1176.36
312.186	1702.39
316.262	3130.27
320.336	4722.02
324.408	3256.93
328.478	944.275
332.546	460.627
336.612	288.271
340.677	202.021
344.739	193.238
348.799	223.012
352.858	236.605
356.915	224.842
360.969	402.449
365.022	391.727
369.073	237.318
373.122	384.857
377.169	760.111
381.215	1061.72
385.258	2039.62
389.299	5059.14
393.339	10482
397.376	11674.7
401.412	6419.77
405.446	2968.93
409.478	2042.95
413.508	1878.36
417.536	2354.93
421.562	2659.48
425.586	1974.87
429.609	1000.11
433.629	912.184
437.648	1495.1
441.665	1481.9
445.68	1270.43
449.693	577.004
453.704	571.553
457.713	207.691
461.721	331.432
465.726	272.947
469.73	182.225
473.731	111.635
477.731	388.771
481.729	320.689
485.725	30.238
489.72	134.373
493.712	204.736
497.703	136.754
501.691	119.494
505.678	20.102
509.663	13.15
513.646	133.707
517.627	16.41
521.607	102.896
525.584	89.264
529.56	205.295
533.534	158.338
537.506	77.271
541.476	96.99
545.444	8.016
549.41	49.619
553.375	112.311
557.337	402.037
561.298	707.586
565.257	660.953
569.214	732.145
573.17	980.158
577.123	1110
581.075	1061.68
585.024	967.172
588.972	875.502
592.918	325.662
596.863	169.656
600.805	59.484
604.746	177.129
608.685	368.59
612.621	112.844
616.557	218.834
620.49	266.66
624.421	914.795
628.351	310.252
632.279	231.48
636.205	282.971
640.129	316.422
644.051	460.9
647.972	388.416
651.89	650.479
655.807	370.277
659.722	726.607
663.636	993.107
667.547	1065.25
671.457	2299.34
675.365	4760.34
679.271	12738.6
683.175	29927.3
687.077	25803.8
690.978	11442.2
694.877	5346.93
698.774	3413.44
702.669	2027.3
706.562	1711.74
710.454	985.604
714.344	991.438
718.232	805.484
722.118	640.49
726.002	695.455
729.885	509.389
733.766	442.299
737.645	371.182
741.522	558.049
745.397	611.9
749.271	270.74
753.143	357.525
757.013	393.859
760.881	314.199
764.748	534.793
768.613	1023.01
772.476	775.867
776.337	390.748
780.196	197.33
784.054	143.637
787.91	292.258
791.764	296.879
795.616	34.52
799.467	90.332
803.316	304.047
807.163	115.521
811.008	209.922
814.851	79.287
818.693	422.709
822.533	269.234
826.371	135.779
830.208	236.23
834.042	12.418
837.875	167.932
841.706	56.447
845.536	116.139
849.363	354.963
853.189	152.963
857.013	302.455
860.836	413.273
864.656	205.338
868.475	324.66
872.292	359.322
876.108	198.449
879.922	141.85
883.733	185.406
887.544	563.098
891.352	465.932
895.159	401.906
898.964	308.01
902.767	635.225
906.568	874.547
910.368	732.975
914.166	1210.52
917.962	1183.18
921.757	664.965
925.55	617.848
929.341	569.828
933.13	647.904
936.918	845.074
940.703	688.303
944.488	525.914
948.27	305.73
952.051	464.996
955.83	545.719
959.607	433.908
963.383	583.236
967.156	492.818
970.928	208.895
974.699	422.305
978.468	271.145
982.234	642.59
986	545.984
989.763	653.254
993.525	1063.97
997.285	1903.54
1001.04	2042.12
1004.8	1928.19
1008.55	1680.69
1012.31	1248.27
1016.06	1030.97
1019.81	800.375
1023.56	865.059
1027.31	493.328
1031.05	635.906
1034.79	822.305
1038.53	879.602
1042.27	1001.92
1046.01	821.566
1049.75	851.777
1053.48	1158.24
1057.22	1951.56
1060.95	3039.5
1064.68	4827.35
1068.4	5248.4
1072.13	4739.07
1075.86	3847.73
1079.58	2884.17
1083.3	2349.47
1087.02	1447.61
1090.74	1098.6
1094.45	1184.5
1098.17	694.234
1101.88	746.809
1105.59	534.289
1109.3	641.75
1113.01	356.988
1116.71	241.469
1120.42	364.246
1124.12	787.957
1127.82	6.48
1131.52	338.492
1135.22	526.176
1138.91	186.121
1142.61	108.617
1146.3	348.461
1149.99	98.449
1153.68	10.016
1157.37	54.355
1161.06	83.234
1164.74	193.898
1168.42	52.824
1172.1	215.469
1175.78	147.016
1179.46	54.355
1183.14	84.773
1186.81	174.359
1190.48	116.488
1194.15	316.098
1197.83	337.75
1201.49	911.375
1205.16	631.234
1208.82	567.23
1212.49	505.363
1216.15	472.965
1219.81	754.953
1223.46	937.199
1227.12	1062.14
1230.78	1304.83
1234.43	1871.18
1238.08	2363.29
1241.73	2712.63
1245.38	2049.16
1249.03	1327.14
1252.67	876.75
1256.31	593.758
1259.95	184.934
1263.6	635.941
1267.23	237.805
1270.87	632.379
1274.51	149.719
1278.14	469.023
1281.77	327.727
1285.4	56.109
1289.03	36.035
1292.66	193.832
1296.28	33.969
1299.91	273.438
1303.53	2.168
1307.15	358.953
1310.77	28.566
1314.38	322.523
1318	14.426
1321.61	30.277
1325.23	547.289
1328.84	299.789
1332.45	73.785
1336.06	144.223
1339.66	332.172
1343.27	389.711
1346.87	724.918
1350.47	628.059
1354.07	815.969
1357.67	844.25
1361.26	654.207
1364.86	723.309
1368.45	707.727
1372.04	503.18
1375.63	489.965
1379.22	307.699
1382.81	574.461
1386.39	594.246
1389.98	423.434
1393.56	628.746
1397.14	370.629
1400.72	448.078
1404.3	64.941
1407.87	282.539
1411.45	510.652
1415.02	522.367
1418.59	730.133
1422.16	249.586
1425.73	325.742
1429.29	5.648
1432.86	0
