Measurement: Raman, 514 nm, ccw, Raman Data Processed
Mineral: Beryl
Rruff sample: R040002
Ideal chemistry: Be_3_Al_2_Si_6_O_18_
Locality: Usakos, Namibia
Source: University of Arizona Mineral Museum
Description: Light blue hexagonal prism, variety aquamarine
Measured chemistry: (Be_0.97_Li_0.03_)_3_(Al_0.97_Fe^3+^_0.03_)_2_Si_6_O_18_Î‡Na_0.01_
Pin_id: m00036
Orientation: Laser parallel to a* (1 0 0). Fiducial mark perpendicular to laser is parallel to c [0 0 1]
Raman shift (cm-1)	intensity
94.768	0
98.947	60.101
103.124	42.507
107.3	73.201
111.473	712.117
115.644	1151.26
119.813	602.003
123.981	150.978
128.146	67.139
132.309	152.988
136.47	227.22
140.63	510.437
144.787	998.233
148.942	328.36
153.096	81.658
157.247	73.034
161.396	63.505
165.544	50.025
169.689	95.424
173.833	150.708
177.974	282.828
182.114	786.154
186.251	699.636
190.387	431.402
194.52	359.51
198.652	412.985
202.782	306.84
206.909	288.136
211.035	193.827
215.159	112.872
219.281	198.754
223.4	74.227
227.518	92.933
231.634	225.684
235.748	322.564
239.86	390.921
243.97	360.283
248.079	280.237
252.185	334.054
256.289	379.227
260.391	284.812
264.492	282.851
268.59	279.828
272.687	341.02
276.781	556.942
280.874	714.461
284.964	1052.49
289.053	1674.96
293.14	1101.82
297.225	926.009
301.308	983.524
305.389	1217.33
309.468	1793.41
313.545	3543.87
317.62	6827.43
321.693	10184.2
325.765	3237.78
329.834	588.938
333.902	160.265
337.967	38.303
342.031	46.71
346.093	31.093
350.153	80.11
354.21	52.135
358.267	48.289
362.321	15.562
366.373	38.94
370.423	4.426
374.471	148.015
378.518	247.713
382.563	866.865
386.605	2591.19
390.646	8423.44
394.685	19030
398.722	12637.6
402.757	5070.64
406.79	2318.68
410.821	1695.73
414.851	2094.78
418.878	3665.83
422.904	4040.89
426.927	1916.04
430.949	879.28
434.969	951.585
438.987	2000.95
443.003	4157.36
447.018	2196.81
451.03	901.288
455.041	460.794
459.049	267.321
463.056	168.861
467.061	82.412
471.064	44.968
475.065	129.505
479.064	118.999
483.062	197.486
487.057	157.967
491.051	151.436
495.043	86.057
499.032	91.236
503.02	18.356
507.007	37.674
510.991	144.884
514.973	139.151
518.954	161.32
522.933	467.105
526.91	812.181
530.885	692.374
534.858	359.84
538.829	70.967
542.799	99.011
546.766	157.383
550.732	76.405
554.696	96.026
558.658	107.874
562.618	494.713
566.576	512.468
570.533	483.396
574.488	879.169
578.44	1454.89
582.391	1849.57
586.341	1499.19
590.288	1241.4
594.233	1073.3
598.177	1047.77
602.119	908.194
606.059	794.564
609.997	499.882
613.933	498.149
617.868	537.362
621.801	585.524
625.731	448.634
629.66	161.693
633.588	116.559
637.513	110.518
641.437	338.427
645.358	350.287
649.278	335.101
653.196	419.447
657.113	432.519
661.027	720.911
664.94	1075.54
668.851	2186.57
672.76	4226.24
676.667	9512.74
680.572	27421.2
684.476	46804.2
688.378	22488.4
692.278	9265.45
696.176	5304.25
700.072	3200.78
703.967	2313.78
707.86	1463.67
711.751	979.072
715.64	685.896
719.527	563.566
723.413	313.268
727.297	300.529
731.179	259.809
735.059	156.106
738.937	304.425
742.814	338.767
746.689	367.132
750.562	307.521
754.433	203.937
758.303	174.382
762.17	460.855
766.036	1173.36
769.901	2068.9
773.763	1622.47
777.624	772.078
781.482	332.724
785.339	260.403
789.195	172.146
793.048	49.938
796.9	207.772
800.75	73.65
804.598	102.427
808.445	27.592
812.289	30.688
816.132	97.782
819.973	19.007
823.813	50.315
827.65	44.267
831.486	77.227
835.32	16.55
839.152	20.744
842.983	10.003
846.812	37.89
850.639	135.879
854.464	180.197
858.288	82.871
862.11	156.061
865.93	136.771
869.748	16.831
873.564	83.98
877.379	158.122
881.192	193.346
885.004	79.645
888.813	123.008
892.621	213.436
896.427	202.927
900.232	345.481
904.034	397.099
907.835	735.775
911.634	916.514
915.432	1011.31
919.227	973.166
923.021	804.078
926.813	470.045
930.604	553.064
934.393	551.135
938.18	389.257
941.965	289.426
945.749	133.123
949.53	192.903
953.311	92.208
957.089	201.433
960.866	189.318
964.641	171.258
968.414	234.053
972.185	391.717
975.955	520.17
979.723	483.235
983.49	374.876
987.254	588.997
991.017	995.664
994.779	1354.18
998.538	1967.29
1002.3	2853.72
1006.05	3454.8
1009.81	3773.39
1013.56	3700.41
1017.31	2653.32
1021.06	1725.04
1024.81	1119.41
1028.55	1142.22
1032.3	857.35
1036.04	935.528
1039.78	1103.69
1043.52	1102.82
1047.26	902.908
1050.99	1252.95
1054.73	1543.93
1058.46	2349.85
1062.19	3830.92
1065.92	6431.7
1069.65	7325.4
1073.37	5331.02
1077.1	3339.56
1080.82	2429.02
1084.54	1844.39
1088.26	1372.67
1091.97	1213.85
1095.69	642.944
1099.4	598.936
1103.12	404.833
1106.83	321.662
1110.54	154.449
1114.24	236.19
1117.95	344.868
1121.65	525.572
1125.35	361.232
1129.06	302.04
1132.75	127.625
1136.45	43.027
1140.15	1.447
1143.84	26.669
1147.53	0.127
1151.22	77.005
1154.91	7.091
1158.6	11.905
1162.28	89.75
1165.97	150.763
1169.65	31.894
1173.33	13.243
1177.01	14.519
1180.69	246.596
1184.36	250.232
1188.04	273.563
1191.71	441.225
1195.38	306.705
1199.05	455.822
1202.71	489.115
1206.38	343.08
1210.04	370.812
1213.71	347.606
1217.37	498.958
1221.03	622.134
1224.68	952.113
1228.34	1177.89
1231.99	1212.45
1235.65	1269.37
1239.3	1823.77
1242.95	3173.91
1246.59	3636.85
1250.24	2020.87
1253.88	1004.93
1257.53	656.479
1261.17	369.645
1264.81	294.037
1268.45	309.084
1272.08	232.469
1275.72	343.313
1279.35	236.871
1282.98	240.205
1286.61	173.228
1290.24	257.35
1293.87	194.454
1297.49	153.765
1301.11	184.983
1304.73	235.017
1308.36	5.548
1311.97	52.961
1315.59	18.482
1319.2	188.822
1322.82	250.13
1326.43	24.081
1330.04	7.847
1333.65	97.729
1337.26	130.29
1340.86	80.69
1344.47	284.934
1348.07	233.036
1351.67	204.022
1355.27	107.693
1358.87	224.069
1362.46	251.064
1366.06	315.006
1369.65	383.63
1373.24	253.154
1376.83	94.282
1380.42	230.085
1384	201.583
1387.59	240.731
1391.17	42.55
1394.75	92.969
1398.33	221.655
1401.91	136.258
1405.49	271.98
1409.06	171.353
1412.64	303.305
1416.21	135.234
1419.78	131.688
1423.35	237.247
1426.91	247.939
1430.48	127.409
1434.05	181.249
1437.61	377.069
1441.17	306.074
1444.73	325.8
1448.29	352.248
1451.84	462.904
1455.4	385.108
1458.95	269.345
1462.5	258.532
1466.05	409.046
1469.6	368.25
1473.15	348.806
1476.69	177.274
1480.24	309.568
1483.78	314.703
1487.32	309.002
1490.86	106.391
1494.39	215.483
1497.93	214.519
1501.46	26.038
1505	32.275
1508.53	172.319
1512.06	171.751
1515.59	24.503
