Measurement: Raman, 514 nm, ccw, Raman Data Processed
Mineral: Beryl
Rruff sample: R050121
Ideal chemistry: Be_3_Al_2_Si_6_O_18_
Locality: Cruziero mine, San Jose, Minas Gerais, Brazil
Source: Carlos and Paulo Vasconcelos
Description: Light blue fragment, variety aquamarine
Measured chemistry: (Be_0.96_Li_0.04_)_3_Al_2.00_Si_6.00_O_18_Î‡Na_0.09_Mg_0.03_
Pin_id: L00353
Orientation: Laser parallel to a* (1 0 0). Fiducial mark perpendicular to laser is parallel to c [0 0 1]
Raman shift (cm-1)	intensity
98.947	0
103.124	1.605
107.3	133.412
111.473	369.583
115.644	1649.22
119.813	1293.89
123.981	597.716
128.146	301.333
132.309	358.501
136.47	369.771
140.63	407.836
144.787	217.417
148.942	223.979
153.096	247.981
157.247	297.739
161.396	386.335
165.544	215.673
169.689	167.834
173.833	103.475
177.974	169.554
182.114	115.976
186.251	98.609
190.387	253.527
194.52	65.737
198.652	160.223
202.782	7.805
206.909	133.866
211.035	36.835
215.159	41.952
219.281	124.312
223.4	93.92
227.518	73.377
231.634	71.938
235.748	149.355
239.86	232.461
243.97	257.08
248.079	240.113
252.185	293.547
256.289	218.613
260.391	427.445
264.492	377.73
268.59	189.717
272.687	230.732
276.781	378.172
280.874	397.83
284.964	671.57
289.053	1084.32
293.14	1058.21
297.225	685.074
301.308	731.445
305.389	837.885
309.468	1093.59
313.545	1984.41
317.62	3257.04
321.693	4164.22
325.765	2163.14
329.834	609.027
333.902	321.586
337.967	303.432
342.031	191.621
346.093	174.457
350.153	309.418
354.21	339.018
358.267	264.049
362.321	235.725
366.373	226.688
370.423	310.252
374.471	513.52
378.518	494.602
382.563	947.732
386.605	2707.98
390.646	6075.95
394.685	11349.6
398.722	9332.97
402.757	4702.23
406.79	2236.3
410.821	1616.19
414.851	1706.88
418.878	2355.37
422.904	2490.67
426.927	1365.77
430.949	797.689
434.969	913.41
438.987	1138.92
443.003	1219.78
447.018	770.357
451.03	385.256
455.041	204.926
459.049	202.363
463.056	230.451
467.061	199.232
471.064	98.791
475.065	159.076
479.064	162.07
483.062	131.895
487.057	90.465
491.051	28.662
495.043	83.371
499.032	17.812
503.02	50.316
507.007	23.156
510.991	151.332
514.973	64.281
518.954	19.932
522.933	376.279
526.91	473.371
530.885	100.398
534.858	318.057
538.829	137.773
542.799	253.746
546.766	120.826
550.732	246.424
554.696	182.256
558.658	384.695
562.618	410.801
566.576	283.857
570.533	409.73
574.488	810.428
578.44	900.947
582.391	1368.29
586.341	707.475
590.288	618.49
594.233	283.344
598.177	439.469
602.119	362.488
606.059	259.812
609.997	263.062
613.933	442.891
617.868	726.576
621.801	1497.48
625.731	1234.02
629.66	785.795
633.588	665.207
637.513	336.717
641.437	873.848
645.358	1039.43
649.278	967.617
653.196	780.975
657.113	667.576
661.027	469.16
664.94	556.479
668.851	1295.26
672.76	2683.53
676.667	6067.8
680.572	16322.5
684.476	30452.9
688.378	18279
692.278	6927.11
696.176	4065.21
700.072	2331.88
703.967	1543.78
707.86	691.902
711.751	875.773
715.64	17.521
719.527	318.141
723.413	163.873
727.297	35.676
731.179	162.559
735.059	85.531
738.937	243.594
742.814	277.754
746.689	335.385
750.562	245.381
754.433	32.85
758.303	54.967
762.17	387.02
766.036	1010.78
769.901	838.674
773.763	187.705
777.624	483.969
781.482	65.609
785.339	337.904
789.195	91.457
793.048	110.797
796.9	94.881
800.75	6.238
804.598	108.238
808.445	126.938
812.289	148.496
816.132	0.166
819.973	56.006
823.813	114.979
827.65	159.141
831.486	44.404
835.32	384.254
839.152	306.211
842.983	384.449
846.812	539.076
850.639	750.955
854.464	799.299
858.288	1081.14
862.11	931.6
865.93	727.477
869.748	714.172
873.564	434.766
877.379	673.004
881.192	452.574
885.004	492.441
888.813	414.531
892.621	670.83
896.427	534.318
900.232	714.008
904.034	634.885
907.835	1194.61
911.634	1228.59
915.432	834.189
919.227	639.963
923.021	553.906
926.813	563.02
930.604	749.303
934.393	620.412
938.18	507.004
941.965	418.109
945.749	569.34
949.53	522.031
953.311	284.062
957.089	420.512
960.866	309.062
964.641	153.141
968.414	221.52
972.185	260.617
975.955	369.758
979.723	206.707
983.49	71.98
987.254	386.785
991.017	882.348
994.779	1287.13
998.538	1806.27
1002.3	3348.77
1006.05	2686.37
1009.81	2567.32
1013.56	2495.57
1017.31	1958.66
1021.06	1718.66
1024.81	1095.78
1028.55	1270.03
1032.3	925.711
1036.04	791.02
1039.78	1206.54
1043.52	1072.75
1047.26	922.555
1050.99	1201.8
1054.73	1141.42
1058.46	1874.49
1062.19	2936.21
1065.92	4027.61
1069.65	4575.78
1073.37	3655.82
1077.1	2734.16
1080.82	2506.92
1084.54	1967.53
1088.26	1372
1091.97	909.367
1095.69	526.629
1099.4	493.738
1103.12	357.633
1106.83	600.434
1110.54	329.039
1114.24	105.215
1117.95	230.711
1121.65	490.172
1125.35	199.57
1129.06	275.316
1132.75	4.91
1136.45	114.973
1140.15	123.457
1143.84	144.094
1147.53	237.629
1151.22	4.051
1154.91	105.102
1158.6	1.914
1162.28	210.145
1165.97	320.137
1169.65	226.984
1173.33	92.051
1177.01	180.879
1180.69	31.645
1184.36	43.227
1188.04	252.082
1191.71	442.484
1195.38	208.094
1199.05	545.328
1202.71	97.781
1206.38	525.477
1210.04	328.219
1213.71	424.047
1217.37	424.238
1221.03	357.062
1224.68	826.883
1228.34	838.277
1231.99	876.191
1235.65	1327.34
1239.3	1805.28
1242.95	1820.79
1246.59	1280.37
1250.24	839.645
1253.88	650.766
1257.53	824.754
1261.17	494.129
1264.81	392.535
1268.45	812.734
1272.08	567.449
1275.72	524.184
1279.35	482.938
1282.98	207.211
1286.61	209.473
1290.24	445.484
1293.87	446.02
1297.49	364.555
1301.11	123.582
1304.73	90.777
1308.36	73.566
1311.97	513.148
1315.59	285.801
1319.2	706.836
1322.82	695.32
1326.43	387.266
1330.04	262.023
1333.65	166.191
1337.26	201.465
1340.86	180.445
1344.47	170.082
1348.07	167.828
1351.67	180.703
1355.27	148.641
1358.87	304.859
1362.46	338.324
1366.06	479.184
1369.65	286.316
1373.24	297.645
1376.83	589.898
1380.42	363.66
1384	497.863
1387.59	539.539
1391.17	87.211
1394.75	4.789
1398.33	0
