Measurement: Raman, 514 nm, ccw, Raman Data Processed
Mineral: Beryl
Rruff sample: R060943
Ideal chemistry: Be_3_Al_2_Si_6_O_18_
Locality: Xinjiang, China
Source: Lawrence W. Snee
Description: Green hexagonal prisms, variety emerald
Measured chemistry: (Be_2.96_Li_0.04_)_Σ=3_(Al_1.64_Mg_0.21_V^3+^_0.06_Fe^3+^_0.04_Sc^3+^_0.03_Cr^3+^_0.02_)_Σ=2_Si_6.00_O_18_·Na_0.25_
Pin_id: L01186
Orientation: Laser parallel to -c* (0 0 -1). Fiducial mark perpendicular to laser is parallel to a [1 0 0]
Raman shift (cm-1)	intensity
167.334	0
172.265	139.161
177.193	191.905
182.117	313.315
187.039	426.096
191.958	855.727
196.874	795.736
201.787	1149.17
206.696	162.426
211.603	164.783
216.506	268.827
221.407	421.635
226.304	506.304
231.199	564.051
236.091	604.881
240.979	915.284
245.864	1114.34
250.747	1019.68
255.626	230.605
260.503	638.061
265.376	115.743
270.247	210.94
275.114	155.792
279.979	316.392
284.84	502.238
289.699	715.932
294.554	734.263
299.407	714.111
304.257	1032.78
309.103	1658.72
313.947	3103.78
318.788	6482.67
323.626	10820.6
328.461	4894.84
333.292	949.989
338.121	199.853
342.947	60.2031
347.771	7.23144
352.591	58.5801
357.408	154.003
362.222	37.8877
367.034	2.79688
371.842	222.555
376.648	462.046
381.45	1098.39
386.25	1855.6
391.047	3439.38
395.841	5391.74
400.632	4201.94
405.42	1662.02
410.205	905.34
414.988	786.613
419.767	663.999
424.544	547.229
429.318	678.439
434.089	944.966
438.857	1305.27
443.622	1490.35
448.384	886.221
453.143	528.883
457.9	515.336
462.654	473.473
467.405	509.287
472.153	444.373
476.898	454.358
481.64	390.891
486.38	424.458
491.116	480.042
495.85	455.848
500.581	587.402
505.309	825.163
510.035	878.08
514.757	1537.03
519.477	2396.26
524.194	2839.6
528.908	1997.76
533.62	903.762
538.328	274.616
543.034	39.4463
547.737	43.6816
552.437	90.6279
557.134	14.2217
561.829	5.91504
566.521	34.043
571.21	170.116
575.896	383.159
580.58	422.248
585.261	496.329
589.939	465.35
594.614	494.41
599.286	434.879
603.956	546.786
608.623	685.264
613.287	1221.36
617.949	1748.35
622.608	1280.24
627.264	593.077
631.917	383.13
636.568	480.482
641.215	451.37
645.861	399.641
650.503	525.089
655.143	806.588
659.78	1222.45
664.414	1925.18
669.046	3731.19
673.674	7548.61
678.301	18592.6
682.924	39609.7
687.545	44944.8
692.163	18688.9
696.778	7729.51
701.391	4180.61
706.001	2506.96
710.609	1638.67
715.213	1221.68
719.815	910.763
724.415	607.023
729.011	340.7
733.606	399.25
738.197	262.126
742.786	153.769
747.372	189.822
751.955	207.613
756.536	452.146
761.114	552.415
765.69	696.425
770.262	509.173
774.833	516.651
779.4	473.853
783.965	213.769
788.528	182.398
793.087	60.7305
797.645	104.759
802.199	138.487
806.751	59.8984
811.3	73.9522
815.847	34.0469
820.391	73.9619
824.933	88.1738
829.471	90.3447
834.008	58.1621
838.541	62.9707
843.073	86.7285
847.601	70.1064
852.127	72.915
856.65	34.5215
861.171	60.6602
865.69	32.4473
870.205	95.8037
874.718	42.4307
879.229	47.8623
883.737	103.7
888.242	95.6816
892.745	129.568
897.246	191.38
901.743	322.127
906.239	595.826
910.731	680.49
915.221	865.135
919.709	849.773
924.194	585.421
928.677	469.971
933.157	397.286
937.634	270.685
942.109	193.485
946.582	86.1328
951.052	38.877
955.519	64.2832
959.984	42.8535
964.447	51.3965
968.906	83.8867
973.364	187.181
977.819	189.852
982.271	509.815
986.721	805.255
991.169	1551.02
995.614	2445.15
1000.06	3292.22
1004.5	4175.79
1008.93	4450.47
1013.37	3960.38
1017.8	3406.14
1022.23	2732.42
1026.66	2402.24
1031.09	2407.64
1035.51	2772.53
1039.93	3320.89
1044.35	4715.73
1048.76	6943.05
1053.17	11012.9
1057.58	18753.2
1061.99	29990
1066.4	37194.3
1070.8	33126.1
1075.2	24326.6
1079.6	16122.6
1084	11373
1088.39	8478.43
1092.78	6234.42
1097.17	4951.64
1101.56	4082.3
1105.94	3429.08
1110.32	3037.62
1114.7	3040.27
1119.08	3111.57
1123.45	3528.79
1127.82	3617.83
1132.19	3627.2
1136.56	2916.25
1140.92	1961.94
1145.29	1446.81
1149.65	1047.38
1154	585.595
1158.36	420.493
1162.71	196.155
1167.06	229.673
1171.41	220.493
1175.76	109.58
1180.1	163.92
1184.44	116.498
1188.78	204.175
1193.11	259.539
1197.45	240.838
1201.78	529.059
1206.11	414.804
1210.43	750.36
1214.76	936.012
1219.08	118.182
1223.4	87.3594
1227.72	93.5332
1232.03	19.8525
1236.35	41.6025
1240.66	65.1758
1244.96	2.25
1249.27	50.9336
1253.57	21.5225
1257.88	33.4932
1262.17	49.9873
1266.47	8.28125
1270.76	19.5039
1275.06	193.61
1279.35	3.26758
1283.63	24.0801
1287.92	50.333
1292.2	55.8477
1296.48	206.461
1300.76	155.074
1305.04	69.4873
1309.31	331.691
1313.58	127.689
1317.85	108.486
1322.12	194.055
1326.38	134.249
1330.64	30.1777
1334.9	78.791
1339.16	160.069
1343.41	147.072
1347.67	106.801
1351.92	155.276
1356.17	147.235
1360.41	208.177
1364.66	184.421
1368.9	172.255
1373.14	121.079
1377.38	90.2832
1381.61	624.946
1385.84	916.602
1390.08	196.284
1394.3	44.9648
1398.53	71.6875
1402.75	155.644
1406.97	33.083
1411.19	178.659
1415.41	107.309
1419.63	15.7568
1423.84	85.749
1428.05	279.388
1432.26	419.192
1436.46	320.956
1440.67	399.199
1444.87	441.909
1449.07	406.705
1453.27	414.278
1457.46	447.593
1461.66	299.462
1465.85	193.884
1470.04	173.44
1474.22	225.106
1478.41	20.8311
1482.59	170.701
1486.77	42.918
1490.95	181.742
1495.12	37.4258
1499.3	46.1553
1503.47	70.207
1507.63	65.5596
1511.8	53.456
1515.97	19.5166
1520.13	162.919
1524.29	14.3096
1528.45	122.954
1532.61	223.281
1536.76	8.91699
1540.91	140.541
1545.06	125.264
1549.21	270.223
1553.35	155.891
1557.5	180.678
1561.64	1.06836
