Measurement: Raman, 514 nm, ccw, Raman Data Processed
Mineral: Beryl
Rruff sample: R050120
Ideal chemistry: Be_3_Al_2_Si_6_O_18_
Locality: Cruziero mine, San Jose, Minas Gerais, Brazil
Source: Carlos and Paulo Vasconcelos
Description: Yellow gemmy fragment
Measured chemistry: (Be_2.76_Li_0.24_)_Σ=3_Al_2.00_Si_6.00_O_18_·Na_0.24_
Pin_id: L00313
Orientation: Laser parallel to c* (0 0 1). Fiducial mark perpendicular to laser is parallel to a [1 0 0]
Raman shift (cm-1)	intensity
91.981	0
96.161	72.975
100.34	165.534
104.516	536.69
108.691	1204.84
112.864	2281.49
117.034	3215.04
121.203	3060.72
125.369	2622.21
129.534	2452.9
133.696	2441.76
137.857	2373.65
142.016	1831.45
146.172	1463.56
150.327	1229.35
154.48	1296.82
158.63	1439.41
162.779	1541.1
166.926	1511.44
171.07	1687.38
175.213	1530.75
179.354	1380.37
183.493	1065.32
187.63	808.387
191.765	631.938
195.898	572.986
200.029	376.561
204.158	176.802
208.285	14.165
212.41	1.217
216.533	7.392
220.654	17.732
224.773	189.862
228.891	325.648
233.006	265.509
237.119	247.479
241.231	277.475
245.34	177.387
249.448	59.901
253.553	70.589
257.657	57.689
261.758	113.036
265.858	217.9
269.956	356.143
274.052	6.08
278.146	38.226
282.237	293.396
286.327	485.607
290.416	1100.24
294.502	1156.2
298.586	719.486
302.668	208.444
306.749	254.132
310.827	446.906
314.903	740.905
318.978	1264.81
323.051	1798.86
327.121	1584.19
331.19	1326.38
335.257	42.667
339.322	119.124
343.385	55.926
347.446	67.988
351.505	44.518
355.563	164.208
359.618	90.777
363.672	269.012
367.723	391.731
371.773	426.732
375.821	784.318
379.866	1019.93
383.91	1857.2
387.952	3383.95
391.992	6661.71
396.031	13384.1
400.067	17415.3
404.101	11180.2
408.134	5394.78
412.165	3157.18
416.193	2723.06
420.22	2786.33
424.245	2375.46
428.268	1482.98
432.289	1187.28
436.309	729.036
440.326	690.394
444.342	627.133
448.355	464.336
452.367	630.057
456.377	243.529
460.385	235.771
464.391	162.676
468.395	115.198
472.398	249.321
476.398	23.041
480.397	237.594
484.394	313.429
488.389	272.899
492.382	338.046
496.373	262.934
500.362	119.918
504.349	79.292
508.335	90.024
512.319	123.344
516.3	71.058
520.28	23.638
524.259	67.605
528.235	62.272
532.209	14.621
536.182	66.495
540.152	33.007
544.121	173.032
548.088	320.583
552.053	442.766
556.017	601.235
559.978	761.104
563.938	765.264
567.895	1032.08
571.851	1324.57
575.805	1395.78
579.758	1251.69
583.708	951.422
587.657	743.383
591.603	664.97
595.548	642.741
599.491	526.19
603.432	444.318
607.372	240.11
611.309	175.56
615.245	463.553
619.179	509.348
623.111	576.818
627.041	715.229
630.97	730.656
634.896	322.651
638.821	367.227
642.744	543.316
646.665	915.125
650.584	734.209
654.502	906.619
658.418	941.434
662.331	1121.89
666.244	1805.9
670.154	2740.22
674.062	4825.04
677.969	10431.5
681.874	24685
685.777	41785.8
689.678	29335.1
693.577	14129.9
697.475	7188.94
701.371	4527.2
705.265	3230.6
709.157	2357.94
713.047	1705.11
716.936	1396.09
720.823	1430.87
724.708	1146.46
728.591	1244.88
732.472	887.104
736.352	908.154
740.23	648.035
744.106	811.74
747.98	807.283
751.853	774.664
755.723	697.891
759.592	857.725
763.459	586.252
767.325	244.945
771.188	187.365
775.05	405.889
778.91	168.291
782.768	7.404
786.625	86.242
790.479	43.703
794.332	34.764
798.183	29.506
802.033	54.576
805.88	55.75
809.726	31.801
813.57	9.652
817.413	145.004
821.253	88.236
825.092	112.053
828.929	108.236
832.764	108.508
836.598	29.848
840.429	259.326
844.259	261.791
848.088	169.279
851.914	71.783
855.739	539.342
859.562	496.924
863.383	499.492
867.203	135.049
871.02	352.598
874.836	174.145
878.65	289.695
882.463	291.254
886.274	53.824
890.083	84.412
893.89	298.021
897.695	445.658
901.499	334.324
905.301	643.025
909.102	473.768
912.9	541.551
916.697	368.385
920.492	386.275
924.285	424.232
928.077	248.053
931.867	234.074
935.655	145.176
939.442	78.596
943.226	47.045
947.009	194.273
950.791	110.84
954.57	136.516
958.348	26.525
962.124	61.408
965.899	23.281
969.671	74.197
973.442	66.447
977.211	57.561
980.979	100.137
984.745	505.205
988.509	717.996
992.271	1194.25
996.032	1763.11
999.791	2563.45
1003.55	2117.97
1007.3	1527.71
1011.06	1345.63
1014.81	1024.75
1018.56	619.082
1022.31	604.654
1026.06	685.408
1029.8	522.311
1033.55	556.369
1037.29	503.568
1041.03	482.92
1044.77	720.426
1048.5	1083.08
1052.24	1405.89
1055.97	2278.84
1059.7	2514.92
1063.43	3850.12
1067.16	4575.47
1070.89	4558.91
1074.61	4499.47
1078.34	4029.11
1082.06	3110.86
1085.78	2591.69
1089.5	1912.65
1093.21	1499.24
1096.93	1232.45
1100.64	1131.73
1104.35	1073.14
1108.06	989.139
1111.77	851.238
1115.48	947.92
1119.18	904.119
1122.89	1218.78
1126.59	1239.54
1130.29	1156.85
1133.99	974.146
1137.68	1225.48
1141.38	923.492
1145.07	1083.94
1148.76	824.381
1152.45	978.752
1156.14	549.5
1159.83	637.58
1163.51	478.385
1167.19	654.6
1170.88	367.607
1174.56	877.545
1178.23	836.734
1181.91	892.785
1185.59	649.16
1189.26	778.436
1192.93	760.637
1196.6	1114.47
1200.27	822.141
1203.94	1214.45
1207.6	705.871
1211.27	851.842
1214.93	1181.31
1218.59	981.932
1222.25	991.311
1225.9	1082.26
1229.56	970.459
1233.21	816.445
1236.86	738.137
1240.51	589.195
1244.16	362.779
1247.81	155.07
1251.45	199.41
1255.1	139.494
1258.74	124.377
1262.38	233.119
1266.02	41.408
1269.66	31.156
1273.29	21.391
1276.93	12.779
1280.56	255.867
1284.19	158.83
1287.82	10.047
1291.45	46.482
1295.07	122.814
1298.7	123.725
1302.32	15.674
1305.94	81.789
1309.56	364.088
1313.18	92.791
1316.8	638.166
1320.41	265.01
1324.02	273.814
1327.63	348.863
1331.24	347.613
1334.85	366.768
1338.46	272.648
1342.06	276.785
1345.67	194.658
1349.27	342.949
1352.87	403.086
1356.47	467.996
1360.07	523.461
1363.66	549.363
1367.25	360.117
1370.85	362.164
1374.44	298.156
1378.03	230.631
1381.61	267.416
1385.2	404.633
1388.78	338.541
1392.37	248.932
1395.95	329.24
1399.53	384.496
1403.1	128.637
1406.68	35.465
1410.26	37.854
1413.83	352.781
1417.4	258.059
1420.97	353.258
1424.54	0
