Measurement: Raman, 514 nm, ccw, Raman Data Processed
Mineral: Beryl
Rruff sample: R050368
Ideal chemistry: Be_3_Al_2_Si_6_O_18_
Locality: Wah Wah Mountains, Utah, USA
Source: Eugene Schlepp
Description: Red-violet hexagonal prism
Measured chemistry: (Be_0.99_Li_0.01_)_3_(Al_0.95_Fe^3+^_0.05_)_2_Si_6.00_O_18_Î‡K_0.02_Na_0.01_
Pin_id: L01802
Orientation: Laser parallel to -c* (0 0 -1). Fiducial mark perpendicular to laser is parallel to b [0 1 0]
Raman shift (cm-1)	intensity
82.367	0
87.308	106.21
92.246	1058.64
97.182	711.688
102.116	481.315
107.047	1367.44
111.976	351.63
116.903	487.983
121.827	183.504
126.749	253.169
131.668	576.765
136.585	828.685
141.5	1252.77
146.412	495.135
151.321	101.453
156.229	208.817
161.134	150.273
166.036	451.894
170.936	876.98
175.834	1076.06
180.729	1851.02
185.622	2569.9
190.512	2808.76
195.4	3017.75
200.286	3120.67
205.169	2366.86
210.049	1580.4
214.928	1659.34
219.803	1593.53
224.677	1931.36
229.548	1839.5
234.416	1878.66
239.282	1688.65
244.146	1160.76
249.007	1323.97
253.866	1580.5
258.722	1758.27
263.576	1713.33
268.427	2429.29
273.276	2567.24
278.123	2480.62
282.967	2486.35
287.809	1934.36
292.648	1695.6
297.485	1959.03
302.319	2627.25
307.151	3896.98
311.98	7586.42
316.807	12425.8
321.631	13735.2
326.454	3793.57
331.273	1246.29
336.09	834.561
340.905	759.798
345.717	451.032
350.527	348.267
355.334	8.49121
360.139	212.47
364.941	61.2607
369.741	295.726
374.538	113.006
379.333	606.589
384.126	3166.2
388.916	9055.85
393.703	18552.5
398.488	10688.3
403.271	4766.04
408.051	3719.28
412.828	4542.19
417.603	4814.15
422.376	3600.19
427.146	2447.31
431.914	2997.51
436.679	5147.79
441.442	7633.15
446.202	3576.73
450.96	1063.07
455.715	479.788
460.467	285.34
465.218	81.7383
469.965	2.92285
474.711	239.084
479.454	467.62
484.194	708.038
488.932	943.559
493.667	648.181
498.4	656.807
503.13	786.158
507.858	912.534
512.583	938.351
517.306	1154.27
522.026	1444.93
526.744	1683.11
531.459	1054.02
536.172	612.664
540.882	347.059
545.59	30.0361
550.295	125.625
554.998	74.7588
559.698	314.396
564.396	621.309
569.091	893.481
573.784	1818.88
578.474	3013.51
583.162	4341.35
587.847	5569.25
592.529	7096.75
597.209	6906.58
601.887	5686.05
606.562	4357.34
611.235	3896.69
615.905	4164.63
620.572	4095.57
625.237	2412.59
629.9	1195.69
634.56	1006.86
639.217	1275.1
643.872	1425.68
648.524	1464.3
653.174	1168.46
657.821	1430.03
662.466	2701.19
667.108	5048.77
671.748	11396.1
676.385	27321.1
681.02	50549.9
685.652	30937.5
690.281	11971.8
694.908	5966.39
699.533	3283.55
704.155	1881.1
708.774	1105.32
713.391	597.542
718.005	295.431
722.617	15.0342
727.226	16.0391
731.833	97.7314
736.437	14.8691
741.039	134.079
745.638	161.307
750.234	217.311
754.828	396.688
759.419	1380.64
764.008	3388.18
768.595	5262.29
773.178	2805.98
777.759	949.231
782.338	284.04
786.914	65.3838
791.488	11.165
796.059	74.96
800.627	123.707
805.193	117.153
809.756	0.863281
814.317	10.4492
818.875	71.8262
823.431	158.994
827.984	50.3301
832.534	134.045
837.082	132.142
841.627	258.667
846.17	363.653
850.71	338.137
855.248	288.13
859.783	374.563
864.316	256.525
868.846	269.551
873.373	95.9951
877.898	217.518
882.42	369.496
886.94	230.982
891.457	335.14
895.971	511.347
900.483	1240.59
904.993	1254.6
909.5	1649.34
914.004	2158.78
918.505	1999.89
923.004	1554.84
927.501	1082.21
931.995	805.786
936.486	424.208
940.975	328.443
945.461	113.637
949.945	49.8359
954.426	82.3486
958.904	236.386
963.38	452.934
967.853	659.53
972.324	798.716
976.792	947.67
981.258	1115.18
985.72	1491.36
990.181	1992.02
994.639	2800.79
999.094	3768.16
1003.55	4387.04
1008	3811.09
1012.44	3168.71
1016.89	2583.32
1021.33	2171.73
1025.77	1799.97
1030.21	1774.31
1034.64	1557.38
1039.07	1437.34
1043.5	1388
1047.93	1237.43
1052.35	1712.83
1056.78	2486.09
1061.19	4180.57
1065.61	5678.46
1070.02	4758.09
1074.43	3157.53
1078.84	2380.13
1083.25	1816.36
1087.65	1442.99
1092.05	1237.9
1096.45	833
1100.85	477.167
1105.24	491.347
1109.63	395.5
1114.02	250.617
1118.4	390.664
1122.78	400.81
1127.16	447.507
1131.54	231.269
1135.92	50.9853
1140.29	46.6475
1144.66	94.9121
1149.02	97.1768
1153.39	903.123
1157.75	134.837
1162.11	118.791
1166.46	20.5742
1170.82	6.34375
1175.17	248.795
1179.52	357.327
1183.86	658.754
1188.21	715.643
1192.55	949.388
1196.89	980.807
1201.22	1039.34
1205.55	1305.21
1209.88	1656.56
1214.21	2362.22
1218.54	3942.78
1222.86	5432.34
1227.18	5356.68
1231.5	4750.87
1235.81	5375.59
1240.12	6569.88
1244.43	5447.95
1248.74	3061.96
1253.04	1607.17
1257.34	1149.15
1261.64	962.898
1265.94	849.388
1270.23	741.12
1274.52	717.67
1278.81	568.612
1283.1	594.386
1287.38	301.134
1291.66	167.938
1295.94	30.959
1300.21	64.7842
1304.48	153.786
1308.75	17.3916
1313.02	15.5996
1317.29	74.0996
1321.55	110.453
1325.81	99.2969
1330.06	309.698
1334.32	231.536
1338.57	375.151
1342.82	314.236
1347.06	458.769
1351.31	458.158
1355.55	377.796
1359.79	333.271
1364.02	205.845
1368.26	132.086
1372.49	358.422
1376.71	109.379
1380.94	203.382
1385.16	164.865
1389.38	67.0732
1393.6	35.5283
1397.81	29.6504
1402.02	176.783
1406.23	65.5576
1410.44	99.7588
1414.64	77.5186
1418.85	160.391
1423.04	19.0898
1427.24	51.3428
1431.43	78.2988
1435.62	46.8691
1439.81	7.53418
1444	142.526
1448.18	24.8623
1452.36	83.0713
1456.54	136.981
1460.71	122.186
1464.89	137.522
1469.06	215.277
1473.22	191.45
1477.39	199.936
1481.55	203.701
1485.71	228.098
1489.86	519.062
1494.02	183.09
1498.17	239.373
1502.32	321.309
1506.46	259.369
1510.61	261.342
1514.75	377.863
1518.88	293.535
1523.02	181.053
1527.15	394.967
1531.28	138.334
1535.41	227.551
1539.53	34.168
1543.66	112.807
1547.78	236.637
1551.89	265.353
1556.01	229.826
1560.12	68.6484
1564.23	188.596
1568.33	7.06055
