Measurement: Raman, 514 nm, ccw, Raman Data Processed
Mineral: Beryl
Rruff sample: R050121
Ideal chemistry: Be_3_Al_2_Si_6_O_18_
Locality: Cruziero mine, San Jose, Minas Gerais, Brazil
Source: Carlos and Paulo Vasconcelos
Description: Light blue fragment, variety aquamarine
Measured chemistry: (Be_0.96_Li_0.04_)_3_Al_2.00_Si_6.00_O_18_Î‡Na_0.09_Mg_0.03_
Pin_id: L00353
Orientation: Laser parallel to a* (1 0 0). Fiducial mark perpendicular to laser is parallel to c [0 0 1]
Raman shift (cm-1)	intensity
98.947	0
103.124	39.505
107.3	14.614
111.473	130.988
115.644	570.327
119.813	445.262
123.981	629.959
128.146	729.968
132.309	1142.49
136.47	1481.23
140.63	1684.44
144.787	1328.7
148.942	541.206
153.096	253.334
157.247	22.507
161.396	5.855
165.544	42.469
169.689	193.58
173.833	312.893
177.974	501.458
182.114	725.643
186.251	895.603
190.387	807.703
194.52	514.22
198.652	570.826
202.782	544.405
206.909	568.077
211.035	426.989
215.159	398.976
219.281	497.898
223.4	468.49
227.518	401.297
231.634	396.192
235.748	294.847
239.86	394.901
243.97	376.163
248.079	1228.31
252.185	584.557
256.289	216.719
260.391	43.689
264.492	3.361
268.59	38.727
272.687	2.907
276.781	52.217
280.874	21.847
284.964	62.162
289.053	279.646
293.14	723.148
297.225	861.55
301.308	409.602
305.389	619.662
309.468	624.316
313.545	1534.19
317.62	3246.49
321.693	5090.82
325.765	2968.93
329.834	951.194
333.902	366.823
337.967	1.335
342.031	33.911
346.093	34.894
350.153	16.229
354.21	5.471
358.267	2.273
362.321	65.327
366.373	2.653
370.423	149.292
374.471	382.604
378.518	457.591
382.563	1130.23
386.605	2036.61
390.646	4050.95
394.685	6697.49
398.722	5390.76
402.757	2598.87
406.79	1031.3
410.821	583.893
414.851	515.538
418.878	494.21
422.904	648.987
426.927	512.978
430.949	257.069
434.969	438.454
438.987	701.483
443.003	1113.39
447.018	1847.94
451.03	1233.22
455.041	633.536
459.049	290.804
463.056	177.101
467.061	261.868
471.064	112.102
475.065	20.194
479.064	291.089
483.062	157.845
487.057	93.95
491.051	144.519
495.043	107.749
499.032	253.392
503.02	192.468
507.007	400.305
510.991	501.607
514.973	642.592
518.954	1286.43
522.933	2042.44
526.91	2435.71
530.885	1822.53
534.858	1235.78
538.829	680.994
542.799	41.727
546.766	29.922
550.732	86.553
554.696	17.438
558.658	38.971
562.618	8.482
566.576	11.01
570.533	22.572
574.488	193.607
578.44	230.82
582.391	353.719
586.341	227.76
590.288	165.986
594.233	10.822
598.177	80.379
602.119	77.617
606.059	32.92
609.997	74.195
613.933	281.715
617.868	677.326
621.801	1265.58
625.731	664.041
629.66	254.049
633.588	269.084
637.513	188.766
641.437	459.209
645.358	443.832
649.278	394.77
653.196	580.83
657.113	451.33
661.027	574.479
664.94	557.477
668.851	1420.69
672.76	2464.03
676.667	5607.44
680.572	14217
684.476	25083.2
688.378	15799.9
692.278	6033.19
696.176	3106.1
700.072	1745.67
703.967	1216.24
707.86	544.764
711.751	555.326
715.64	100.725
719.527	303.252
723.413	216.492
727.297	150.682
731.179	130.006
735.059	79.545
738.937	202.439
742.814	212.17
746.689	123.811
750.562	350.5
754.433	295.508
758.303	37.443
762.17	275.1
766.036	354.701
769.901	539.99
773.763	252.832
777.624	303.613
781.482	179.221
785.339	198.232
789.195	1.832
793.048	23.889
796.9	113.396
800.75	40.139
804.598	277.059
808.445	56.621
812.289	199.498
816.132	138.896
819.973	4.656
823.813	18.617
827.65	8.797
831.486	193.34
835.32	18.041
839.152	239.848
842.983	301.16
846.812	218.377
850.639	251.512
854.464	462.578
858.288	407.6
862.11	336.643
865.93	416.783
869.748	178.016
873.564	251.346
877.379	414.924
881.192	312.029
885.004	239.367
888.813	281.982
892.621	394.234
896.427	309.432
900.232	501.455
904.034	408.865
907.835	537.451
911.634	829.092
915.432	680.002
919.227	645.121
923.021	693.354
926.813	500.678
930.604	525.152
934.393	696.686
938.18	264.42
941.965	420.393
945.749	481.605
949.53	333.566
953.311	111.602
957.089	319.104
960.866	211.492
964.641	241.201
968.414	240.441
972.185	350.584
975.955	352.711
979.723	475.742
983.49	135.744
987.254	521.523
991.017	669.861
994.779	1115.31
998.538	1558.99
1002.3	3046.76
1006.05	3611.74
1009.81	4937.23
1013.56	4967.88
1017.31	3881.88
1021.06	3118.74
1024.81	1988.61
1028.55	2148.87
1032.3	1787.6
1036.04	1911.48
1039.78	2194.44
1043.52	2575.31
1047.26	2886.92
1050.99	4530.46
1054.73	5885.02
1058.46	9258.77
1062.19	15031.6
1065.92	21427.6
1069.65	22972.1
1073.37	17967.3
1077.1	12132.2
1080.82	8657.39
1084.54	6294.41
1088.26	4341.5
1091.97	3136.63
1095.69	2212.81
1099.4	1826.06
1103.12	1411.47
1106.83	1254.15
1110.54	819.643
1114.24	678.076
1117.95	822.285
1121.65	815.555
1125.35	717.078
1129.06	671.062
1132.75	430.057
1136.45	302.332
1140.15	455.293
1143.84	430.025
1147.53	418.404
1151.22	183.219
1154.91	183.818
1158.6	153.779
1162.28	100.893
1165.97	105.189
1169.65	150.492
1173.33	66.484
1177.01	192.693
1180.69	14.059
1184.36	93.08
1188.04	25.568
1191.71	305.473
1195.38	65.848
1199.05	310.09
1202.71	52.309
1206.38	305.637
1210.04	13.133
1213.71	54.594
1217.37	359.637
1221.03	57.52
1224.68	158.039
1228.34	502.129
1231.99	320.707
1235.65	462.902
1239.3	775.641
1242.95	690.938
1246.59	650.867
1250.24	350.453
1253.88	324.551
1257.53	349.59
1261.17	350.734
1264.81	139.516
1268.45	367.438
1272.08	325.367
1275.72	442.266
1279.35	169.977
1282.98	127.641
1286.61	52.137
1290.24	451.617
1293.87	315.926
1297.49	403.395
1301.11	119.656
1304.73	204.375
1308.36	61.316
1311.97	131.707
1315.59	210.938
1319.2	443.539
1322.82	339.469
1326.43	389.406
1330.04	324.414
1333.65	46.48
1337.26	200.098
1340.86	175
1344.47	335.758
1348.07	309.582
1351.67	209.211
1355.27	91.051
1358.87	50.586
1362.46	263.109
1366.06	444.66
1369.65	206.664
1373.24	349.035
1376.83	409.52
1380.42	283.086
1384	555.43
1387.59	220.281
1391.17	128.406
1394.75	4.605
1398.33	263.453
1401.91	270.465
1405.49	188.391
