Measurement: Raman, 514 nm, ccw, Raman Data Processed
Mineral: Beryl
Rruff sample: R060944
Ideal chemistry: Be_3_Al_2_Si_6_O_18_
Locality: Habachtal, Salzburg, Austria
Source: Lawrence W. Snee
Description: Green hexagonal prisms in a muscovite schist, variety emerald. Note that there are micro inclusions of actinolite. The Raman signal is a mixture of the two phases.
Measured chemistry: Be_3.00_(Al_1.59_Mg_0.33_Fe^3+^_0.04_Cr^3+^_0.04_)_Σ=2_Si_6.00_O_18_·Na_0.33_ ; bright inclusions are actinolite
Pin_id: L01950
Orientation: Laser parallel to c* (0 0 1). Fiducial mark perpendicular to laser is parallel to -b [0 -1 0]
Raman shift (cm-1)	intensity
130.439	0
135.356	29.9209
140.271	629.216
145.184	154.618
150.094	409.086
155.002	4058.86
159.908	5975.41
164.811	2047.46
169.711	1981.3
174.61	7308.53
179.505	9152.41
184.399	2088.35
189.29	850.64
194.178	552.77
199.064	773.26
203.948	1359.1
208.829	1777.32
213.708	4390.97
218.585	10524.7
223.459	13543.1
228.33	8172.76
233.199	4946.38
238.066	1770.92
242.93	1393.83
247.792	2095.69
252.651	1104.17
257.508	941.283
262.363	1009.01
267.215	893.326
272.064	28.7686
276.912	174.005
281.756	51.6143
286.598	454.825
291.438	876.069
296.276	633.02
301.111	431.471
305.943	398.853
310.773	301.467
315.601	1106.7
320.426	1993.3
325.248	2386.16
330.068	1037.09
334.886	343.123
339.701	849.16
344.514	1569.13
349.324	2259.34
354.132	2346.24
358.938	2133.91
363.741	2804.77
368.541	3190.46
373.339	2998.92
378.135	2302.03
382.928	2548.73
387.718	4746.01
392.506	8239.85
397.292	10345.2
402.075	8488.25
406.856	5346.07
411.634	4858.19
416.41	3769.11
421.183	2671.58
425.954	1804.31
430.722	1962.25
435.488	2553.93
440.251	2053.3
445.012	871.322
449.77	219.974
454.526	18.1836
459.28	144.73
464.03	21.7441
468.779	135.635
473.525	46.71
478.268	113.398
483.009	53.5088
487.747	108.919
492.483	52.2168
497.217	202.855
501.948	349.356
506.676	735.676
511.402	1271.49
516.125	1887.9
520.846	2473.06
525.565	3077.85
530.281	2541.25
534.994	1308.37
539.705	556.335
544.413	243.255
549.119	402.042
553.822	681.826
558.523	1570.62
563.222	1847.73
567.917	1982.58
572.611	1709.34
577.302	1606.02
581.99	1398.36
586.676	986.333
591.359	833.144
596.04	800.406
600.718	1429.84
605.394	239.916
610.067	355.864
614.737	1092.31
619.406	1365.88
624.071	643.119
628.734	296.736
633.395	490.477
638.053	868.204
642.708	1567.54
647.361	2682.15
652.012	3281.69
656.66	4888.44
661.305	8776.32
665.948	19018.1
670.588	38554
675.226	35462.7
679.861	25827.2
684.494	36431.8
689.124	36256.2
693.752	17354.3
698.377	8433.98
702.999	4584.73
707.619	3018
712.237	2074.15
716.852	1617.54
721.464	1296.4
726.074	849.775
730.681	748.846
735.286	1045.38
739.888	1245.06
744.488	1251.86
749.085	1422.68
753.68	1381.71
758.272	949.904
762.861	703.852
767.448	472.419
772.033	530.594
776.614	457.461
781.194	180.869
785.77	261.801
790.345	240.252
794.916	2.11816
799.485	207.344
804.052	151.295
808.616	16.7949
813.177	111.302
817.736	9.06543
822.292	114.524
826.846	79.7598
831.397	141.046
835.945	98.0606
840.491	13.3506
845.035	113.947
849.576	46.4834
854.114	112.333
858.65	110.638
863.183	23.6162
867.713	3.76953
872.241	61.5508
876.767	43.7578
881.29	51.917
885.81	221.371
890.328	412.375
894.843	907.117
899.356	887.652
903.866	888.014
908.373	1248.19
912.878	1401.48
917.38	1845.97
921.88	2880.66
926.377	4818.08
930.872	4936.25
935.364	2665.5
939.853	1827.75
944.34	1400.3
948.824	1271.47
953.306	850.094
957.785	753.1
962.261	502.848
966.735	709.225
971.207	540.322
975.675	388.955
980.141	736.1
984.605	1151.43
989.066	1629.94
993.524	2529.7
997.98	3471.97
1002.43	3521.49
1006.88	3271.31
1011.33	3407.53
1015.78	4172.96
1020.22	5217.18
1024.66	5530.64
1029.1	5036.02
1033.53	3411.82
1037.97	2880.35
1042.4	3385.49
1046.82	5602.6
1051.25	10663.5
1055.67	17243.1
1060.09	15644.4
1064.51	11402.4
1068.92	10239.2
1073.33	8367.68
1077.74	5865.83
1082.15	4232.79
1086.55	3369.77
1090.95	2769.65
1095.35	2216.52
1099.75	1819.39
1104.14	1533.24
1108.53	1102.2
1112.92	1090.24
1117.31	1317.99
1121.69	1824.56
1126.07	1715.34
1130.45	1214.49
1134.82	908.088
1139.19	503.664
1143.57	376.398
1147.93	242.682
1152.3	109.955
1156.66	116.717
1161.02	6.76367
1165.38	42.332
1169.73	55.0254
1174.08	386.262
1178.43	326.867
1182.78	603.021
1187.12	802.318
1191.46	890.66
1195.8	887.969
1200.14	843.574
1204.47	1133.25
1208.8	1339.93
1213.13	1742.41
1217.46	1666.86
1221.78	1472.43
1226.1	1039.97
1230.42	577.803
1234.73	462.434
1239.04	278.461
1243.35	166.69
1247.66	131.348
1251.97	87.041
1256.27	77.6426
1260.57	26.8086
1264.86	76.1504
1269.16	23.0918
1273.45	91.6738
1277.74	24.6113
1282.03	33.834
1286.31	89.2246
1290.59	65.625
1294.87	49.377
1299.14	124.918
1303.42	71.584
1307.69	39.1543
1311.95	147.213
1316.22	255.193
1320.48	54.9414
1324.74	151.58
1329	150.043
1333.26	264.35
1337.51	100.562
1341.76	286.41
1346	434.082
1350.25	391.606
1354.49	310.389
1358.73	345.594
1362.96	353.457
1367.2	275.885
1371.43	158.537
1375.66	291.986
1379.88	442.377
1384.11	980.644
1388.33	699.691
1392.54	200.184
1396.76	243.697
1400.97	276.695
1405.18	282.58
1409.39	143.387
1413.59	166.807
1417.8	141.551
1421.99	127.504
1426.19	3.20703
1430.38	142.969
1434.58	142.664
1438.77	129.576
1442.95	317.043
1447.13	183.883
1451.32	184.309
1455.49	146.51
1459.67	175.373
1463.84	110.363
1468.01	55.6836
1472.18	275.977
1476.35	160.496
1480.51	91.666
1484.67	90.5195
1488.83	250.373
1492.98	185.967
1497.13	156.85
1501.28	68.332
1505.43	116.871
1509.57	157.336
1513.71	252.139
1517.85	368.656
1521.99	257.365
1526.12	319.045
1530.25	10.0332
1534.38	104.047
1538.5	177.934
1542.62	209.978
1546.74	264.41
1550.86	298.922
1554.98	267.443
1559.09	30.709
1563.2	273.543
1567.31	48.4766
1571.41	0
