Measurement: Raman, 514 nm, ccw, Raman Data Processed
Mineral: Beryl
Rruff sample: R050347
Ideal chemistry: Be_3_Al_2_Si_6_O_18_
Locality: North Keystone, South Dakota, USA
Source: California Institute of Technology
Description: Colorless fragment
Measured chemistry: (Be_0.96_Li_0.04_)_3_Al_2.00_(Si_0.99_Al_0.01_)_6_O_18_ Î‡0.17Na
Pin_id: L00581
Orientation: Laser parallel to c* (0 0 1). Fiducial mark perpendicular to laser is parallel to b [0 1 0]
Raman shift (cm-1)	intensity
211.269	0
216.147	31.2461
221.022	5.72656
225.895	101.498
230.765	245.732
235.633	298.446
240.498	466.459
245.361	379.36
250.222	405.1
255.08	68.167
259.936	600.267
264.789	19.0303
269.64	37.6113
274.488	151.454
279.334	372.054
284.178	893.839
289.019	1930.71
293.857	1989.07
298.693	1051.78
303.527	776.719
308.358	980.8
313.187	1991.76
318.013	3625.69
322.837	4773.6
327.659	1769.49
332.478	334.362
337.294	54.1728
342.108	88.0234
346.92	95.2295
351.729	121.593
356.535	186.386
361.34	71.9238
366.141	173.789
370.94	226.256
375.737	602.367
380.531	1200.32
385.323	2270.69
390.113	5573.81
394.9	10723.7
399.684	11125.5
404.466	5162.11
409.245	2997.14
414.022	2828.59
418.797	4404.21
423.569	4270.78
428.338	2369.69
433.105	1489.6
437.87	1704.52
442.632	1857.47
447.391	1493.44
452.149	700.429
456.903	446.434
461.655	236.863
466.405	131.025
471.152	157.322
475.897	46.2559
480.639	204.309
485.378	85.4824
490.116	175.445
494.85	4.73242
499.582	34.3477
504.312	19.5156
509.039	79.1231
513.764	104.268
518.486	511.356
523.206	667.391
527.923	725.488
532.638	778.693
537.35	638.926
542.059	571.158
546.766	342.664
551.471	502.324
556.173	818.025
560.873	1375.9
565.57	1481.92
570.264	1656.97
574.957	2222.14
579.646	2260.58
584.333	1451.12
589.018	769.602
593.7	318.023
598.379	170.393
603.056	7.70703
607.73	97.8438
612.402	6.73438
617.072	214.019
621.739	296.654
626.403	189.975
631.065	27.5879
635.724	9.78711
640.381	166.685
645.035	84.0254
649.687	210.984
654.336	253.565
658.983	457.856
663.627	998.811
668.268	2051.34
672.907	4748.21
677.544	12648.2
682.178	31512.7
686.809	40340.7
691.438	17319.2
696.065	7330.51
700.688	3920.91
705.31	2679.86
709.929	1715.84
714.545	1200.47
719.158	1057.62
723.77	992.295
728.378	636.574
732.984	669.479
737.588	508.484
742.189	731.447
746.787	573.623
751.383	734.479
755.976	671.322
760.567	1029.75
765.155	1475.84
769.741	1365.42
774.324	674.867
778.904	657.408
783.482	330.348
788.058	196.225
792.631	263.477
797.201	248.34
801.769	52.1777
806.334	217.065
810.897	39.2324
815.457	19.9961
820.014	8.35742
824.569	69.4277
829.122	70.7676
833.671	106.562
838.219	54.2266
842.763	79.7285
847.306	55.2891
851.845	133.065
856.382	151.174
860.917	46.9297
865.448	103.094
869.978	17.4434
874.505	4.20898
879.029	60.4043
883.55	55.5879
888.069	56.3652
892.586	229.9
897.1	451.125
901.611	413.166
906.12	572.043
910.626	950.775
915.129	556.356
919.63	598.356
924.129	343.861
928.625	213.99
933.118	239.225
937.609	221.002
942.097	162.106
946.582	93.2305
951.065	91.4551
955.546	81.0312
960.023	41.4121
964.499	2.36133
968.971	39.0352
973.441	271.43
977.909	284.812
982.374	526.303
986.836	592.283
991.295	1576.06
995.753	2574.16
1000.21	3565.11
1004.66	3689.39
1009.11	3667.78
1013.55	3205.06
1018	2163.8
1022.44	1298.25
1026.88	799.789
1031.32	681.809
1035.75	618.967
1040.18	630.154
1044.61	894.717
1049.04	1142.65
1053.46	1831.02
1057.88	3720.76
1062.3	5625.89
1066.71	7464.51
1071.13	7272.62
1075.54	5633.83
1079.94	4098.08
1084.35	2908.43
1088.75	1812.74
1093.15	1352.93
1097.55	995.492
1101.94	797.963
1106.34	635.09
1110.73	479.451
1115.11	572.377
1119.5	515.061
1123.88	485.484
1128.26	342.451
1132.63	447.533
1137.01	620.543
1141.38	796.346
1145.75	733.842
1150.12	744.553
1154.48	551.477
1158.84	115.709
1163.2	75.3027
1167.55	22.0371
1171.91	164.713
1176.26	297.875
1180.61	349.772
1184.95	487.857
1189.29	459.414
1193.63	422.32
1197.97	605.238
1202.31	552.504
1206.64	493.867
1210.97	589.803
1215.29	579.053
1219.62	871.006
1223.94	1214.82
1228.26	1789.84
1232.57	2119.07
1236.89	2032.74
1241.2	1657.68
1245.51	1024.5
1249.81	844.373
1254.12	248.6
1258.42	201.596
1262.72	52.5547
1267.01	115.627
1271.3	0.960938
1275.59	25.9629
1279.88	54.2754
1284.17	22.3594
1288.45	45.7734
1292.73	101.936
1297.01	6.73633
1301.28	58.7695
1305.55	54.8359
1309.82	236.592
1314.09	76.334
1318.35	61.5762
1322.61	228.389
1326.87	66.7598
1331.13	143.391
1335.38	151.9
1339.63	263.088
1343.88	46.8203
1348.12	474.76
1352.37	187.56
1356.61	422.559
1360.85	276.356
1365.08	248.205
1369.31	175.248
1373.54	8.30664
1377.77	245.826
1381.99	546.488
1386.22	614.801
1390.43	283.5
1394.65	100.197
1398.87	18.8574
1403.08	221.242
1407.29	5.56055
1411.49	247.049
1415.69	171.131
1419.89	76.5723
1424.09	175.82
1428.29	82.5918
1432.48	107.967
1436.67	154.787
1440.86	123.147
1445.04	195.83
1449.23	233.353
1453.4	5.71289
1457.58	320.59
1461.76	205.273
1465.93	24.7656
1470.1	215.049
1474.26	138.916
1478.43	94.6914
1482.59	457.09
1486.75	42.7988
1490.9	291.281
1495.06	296.637
1499.21	321.723
1503.35	328.193
1507.5	111.488
1511.64	357.816
1515.78	332.205
1519.92	46.7949
1524.05	187.873
1528.18	215.486
1532.31	92.9961
1536.44	149.16
1540.56	213.647
1544.69	186.555
1548.8	161.301
1552.92	473.098
1557.03	295.18
1561.14	391.283
1565.25	108.326
1569.36	7.30664
