Measurement: Raman, 514 nm, ccw, Raman Data Processed
Mineral: Bikitaite
Rruff sample: R050160
Ideal chemistry: LiAlSi_2_O_6_H_2_O
Locality: Foote mine, Kings Mountain, Cleveland County, North Carolina, USA
Source: Jim McGlasson
Description: Colorless prismatic crystals
Measured chemistry: Li_1.00_Si_2.00_O_6_Â·1.25H_2_O ; Li not measured but estimated by stoichiometry
Pin_id: M00247
Orientation: Laser parallel to -b* (0 -1 0). Fiducial mark perpendicular to laser is parallel to c [0 0 1]
Raman shift (cm-1)	intensity
54.966	0
59.164	90.48
63.36	265.505
67.554	419.504
71.747	84.172
75.937	5.658
80.125	87.786
84.311	323.141
88.496	466.239
92.678	1042.38
96.858	2239.71
101.036	4115.29
105.212	5525
109.387	5519.12
113.559	5110.57
117.729	4793.22
121.897	3624.2
126.063	2760.84
130.228	2830.68
134.39	4107.25
138.55	6928.51
142.709	10411.6
146.865	12130.1
151.019	10996.4
155.171	9797.92
159.322	10202.8
163.47	10528.4
167.617	8920.65
171.761	6338.01
175.904	3707.16
180.044	1996.63
184.183	1475.46
188.319	1772.96
192.454	3017.81
196.586	6552.15
200.717	11477.1
204.846	14092.2
208.972	9614.52
213.097	6739.81
217.22	8670.01
221.341	10260.1
225.46	7928.19
229.577	4195.78
233.692	2199.73
237.805	1656.28
241.916	2440.1
246.025	3948.44
250.132	6150.31
254.237	7360.82
258.34	5931.69
262.442	2979.66
266.541	892.533
270.639	196.882
274.734	155.874
278.828	160.969
282.919	81.379
287.009	1226.01
291.097	2576.41
295.183	2751.61
299.266	2076.74
303.348	1332.76
307.428	652.696
311.507	1164.64
315.583	793.604
319.657	14.45
323.729	54.319
327.8	61.663
331.868	314.463
335.935	53.523
339.999	1280.95
344.062	2840.83
348.123	3886.02
352.182	3995.38
356.239	3684.63
360.294	4068.3
364.347	5565.73
368.398	8712.07
372.448	13889.3
376.495	22474.3
380.54	34006
384.584	41595.6
388.626	42457.2
392.666	42462
396.704	39329
400.74	28200.3
404.774	17298.7
408.806	11295.3
412.836	8757.68
416.865	7660.26
420.891	7092.56
424.916	6351.01
428.939	5938.82
432.959	5711.99
436.978	6305.87
440.996	6854.28
445.011	6191.7
449.024	6655.98
453.036	6969.41
457.045	6947.46
461.053	5789.04
465.059	4605.6
469.063	4977.34
473.065	7099.09
477.065	10601.7
481.063	15251.9
485.06	21139.7
489.054	31037.3
493.047	41748.5
497.038	43323.6
501.027	35679.8
505.014	27715.6
508.999	20325.1
512.982	14153.1
516.964	9575.96
520.944	6288.83
524.921	4171.09
528.897	2905.71
532.871	2395.64
536.844	2105.86
540.814	1979.36
544.783	1604.08
548.749	750.014
552.714	323.047
556.677	50.859
560.638	112.331
564.597	90.454
568.555	3.763
572.511	54.629
576.464	22.794
580.416	75.407
584.366	2.306
588.315	33.126
592.261	24.673
596.206	18.995
600.148	27.4
604.089	1.167
608.028	69.798
611.965	25.846
615.901	16.382
619.834	38.854
623.766	84.568
627.696	1.289
631.624	81.578
635.551	136.46
639.475	8.14
643.398	43.269
647.318	14.946
651.237	88.036
655.155	141.736
659.07	92.982
662.984	169.507
666.895	323.497
670.805	407.192
674.713	612.189
678.62	872.942
682.524	1130.86
686.427	1454.7
690.328	1570.64
694.227	1834.36
698.124	2110.16
702.02	2364.45
705.913	2499.89
709.805	2748.5
713.695	2432.91
717.584	2226.81
721.47	1937.03
725.355	1667.98
729.238	1824.55
733.119	2248.82
736.998	2392.13
740.876	1825.26
744.752	1221.02
748.626	1048.17
752.498	1072.33
756.368	1438.84
760.237	1953.45
764.104	2332.03
767.969	2164.52
771.832	1917.61
775.693	1523.32
779.553	1121.73
783.411	1000.68
787.267	725.356
791.122	558.57
794.974	456.14
798.825	281.633
802.674	235.744
806.522	288.459
810.367	269.752
814.211	97.478
818.053	119.97
821.893	182.254
825.732	140.026
829.568	125.534
833.403	115.228
837.236	89.915
841.068	76.82
844.898	10.77
848.726	11.939
852.552	48.336
856.376	21.9
860.199	29.332
864.02	43.169
867.839	4.597
871.656	35.748
875.472	28.995
879.286	7.604
883.098	14.269
886.909	27.517
890.717	143.253
894.524	2.457
898.33	72.464
902.133	38.317
905.935	137.775
909.735	98.001
913.533	26.546
917.33	146.027
921.124	100.635
924.918	98.61
928.709	279.103
932.499	257.217
936.286	396.031
940.073	456.646
943.857	782.99
947.64	1103.08
951.421	2337.53
955.2	5682.55
958.978	13784.1
962.753	14762.7
966.527	9766.92
970.3	10852.3
974.071	7011.81
977.84	3689.14
981.607	2522.69
985.372	3165.93
989.136	6041.23
992.898	11175
996.659	8312.92
1000.42	3882.54
1004.17	1922.48
1007.93	1308.53
1011.68	1525.01
1015.43	2078.2
1019.18	1615.98
1022.93	683.935
1026.68	303.892
1030.42	25.264
1034.17	1.885
1037.91	9.092
1041.65	49.233
1045.39	80.484
1049.12	41.938
1052.86	43.014
1056.59	80.667
1060.33	174.536
1064.06	251.119
1067.78	328.009
1071.51	472.656
1075.23	819.461
1078.96	1326.07
1082.68	2082.07
1086.4	3253.95
1090.12	4730.29
1093.83	6057.8
1097.55	5446.51
1101.26	4100.01
1104.97	3610.8
1108.68	3000.18
1112.39	2392.3
1116.1	1714.49
1119.8	1156.29
1123.5	955.26
1127.2	1186.68
1130.9	1069.42
1134.6	1279.45
1138.3	1150.86
1141.99	814.906
1145.69	701.053
1149.38	743.683
1153.07	860.729
1156.76	1041.12
1160.44	1645.59
1164.13	2274.38
1167.81	2736.74
1171.49	2419.74
1175.17	1844.24
1178.85	1434.11
1182.52	965.52
1186.2	735.36
1189.87	547.335
1193.54	469.377
1197.21	369.012
1200.88	299.981
1204.55	303.675
1208.21	319.78
1211.88	215.29
1215.54	184.185
1219.2	154.826
1222.86	121.637
1226.51	109.041
1230.17	100.943
1233.82	185.21
1237.47	139.367
1241.12	94.853
1244.77	142.143
1248.42	152.358
1252.06	170.455
1255.71	119.522
1259.35	10.328
1262.99	49.81
1266.63	111.262
1270.26	82.558
1273.9	96.657
1277.53	122.333
1281.16	100.994
1284.8	75.455
1288.42	88.194
1292.05	10.026
1295.68	69.212
1299.3	42.416
1302.92	20.476
1306.55	21.966
1310.16	10.571
1313.78	74.883
1317.4	100.161
1321.01	9.993
1324.62	27.112
1328.24	63.127
1331.85	140.287
1335.45	130.947
1339.06	150.889
1342.66	100.975
1346.27	98.721
1349.87	86.83
1353.47	94.84
1357.07	104.529
1360.66	161.332
1364.26	156.564
1367.85	262.084
1371.44	144.451
1375.04	163.176
1378.62	142.378
1382.21	14.521
1385.8	30.157
1389.38	39.601
1392.96	31.106
1396.54	2.611
1400.12	18.519
1403.7	25.303
1407.28	18.115
1410.85	113.645
1414.42	34.347
1417.99	76.966
1421.56	4.286
1425.13	99.801
1428.7	64.38
1432.26	74.051
1435.83	61.942
1439.39	28.024
1442.95	43.692
1446.51	7.071
1450.06	15.125
1453.62	41.819
1457.17	45.75
1460.73	29.525
1464.28	49.484
1467.83	2.095
1471.37	99.336
1474.92	97.137
1478.46	104.217
1482.01	128.381
1485.55	11.22
1489.09	35.228
1492.63	66.914
1496.16	68.692
1499.7	8.033
1503.23	148.514
1506.76	224.894
1510.29	485.339
1513.82	693.802
1517.35	1155.66
1520.88	2153.26
1524.4	3422.52
1527.92	6148.55
