Measurement: Raman, 514 nm, ccw, Raman Data Processed
Mineral: Bikitaite
Rruff sample: R050160
Ideal chemistry: LiAlSi_2_O_6_H_2_O
Locality: Foote mine, Kings Mountain, Cleveland County, North Carolina, USA
Source: Jim McGlasson
Description: Colorless prismatic crystals
Measured chemistry: Li_1.00_Si_2.00_O_6_Â·1.25H_2_O ; Li not measured but estimated by stoichiometry
Pin_id: M00294
Orientation: Laser parallel to (1 0 1). Fiducial mark perpendicular to laser is parallel to -b [0 -1 0]
Raman shift (cm-1)	intensity
88.542	0
93.48	1264.48
98.416	5924.38
103.349	9775.56
108.28	10592.8
113.208	15892
118.134	11566.9
123.058	4811.28
127.979	890.217
132.898	95.1094
137.814	1511.87
142.728	3815.05
147.639	5958.21
152.549	5269.6
157.455	4725.89
162.359	3249.88
167.261	1211.64
172.161	519.844
177.058	41.1934
181.952	463.301
186.845	307.289
191.734	263.863
196.622	1432.42
201.507	3871.07
206.389	5745.43
211.269	2646.01
216.147	2389.66
221.022	3960.91
225.895	3174.38
230.765	1769.96
235.633	1124.1
240.498	1037.31
245.361	959.42
250.222	981.113
255.08	1725.25
259.936	2571.07
264.789	1857.35
269.64	762.754
274.488	298.486
279.334	284.826
284.178	560.863
289.019	1472.04
293.857	2595.51
298.693	2147.26
303.527	1865.78
308.358	583.594
313.187	809.572
318.013	527.875
322.837	94.459
327.659	128.291
332.478	345.123
337.294	674.703
342.108	2203.88
346.92	3121.27
351.729	3609.81
356.535	3252.84
361.34	2483.89
366.141	3444.62
370.94	5439.03
375.737	9890.08
380.531	16173.5
385.323	18778.5
390.113	16525.7
394.9	17399
399.684	17080.8
404.466	11485.2
409.245	7982.31
414.022	5945.71
418.797	5260.88
423.569	3842.23
428.338	2513.52
433.105	1550.73
437.87	975.652
442.632	946.713
447.391	841.916
452.149	658.092
456.903	897.67
461.655	2554.46
466.405	4083.57
471.152	5243.46
475.897	8103.32
480.639	9554.4
485.378	8962.27
490.116	11211.7
494.85	15268.6
499.582	17072
504.312	11645.7
509.039	6395.73
513.764	3891.11
518.486	2418.1
523.206	1898.44
527.923	1748.42
532.638	1971.18
537.35	2694.53
542.059	3022.32
546.766	1719.26
551.471	682.336
556.173	786.559
560.873	319.117
565.57	349.07
570.264	273.324
574.957	37.293
579.646	150.053
584.333	44.6348
589.018	237.471
593.7	158.527
598.379	16.8516
603.056	240.65
607.73	58.6348
612.402	185.254
617.072	18.7793
621.739	860.49
626.403	1153.53
631.065	527.547
635.724	296.016
640.381	274.707
645.035	728.35
649.687	696.412
654.336	556.481
658.983	255.582
663.627	36.3672
668.268	179.326
672.907	125.59
677.544	374.984
682.178	943.555
686.809	1026.05
691.438	899.957
696.065	773.828
700.688	1301.06
705.31	1846.79
709.929	1506.8
714.545	1020.88
719.158	600.301
723.77	528.273
728.378	557.396
732.984	341.094
737.588	148.123
742.189	241.43
746.787	117.797
751.383	92.2227
755.976	14.1484
760.567	61.8398
765.155	0.582031
769.741	290.215
774.324	54.0391
778.904	391.707
783.482	96.8086
788.058	40.9102
792.631	68.6602
797.201	11.8633
801.769	123.516
806.334	93.5117
810.897	159.043
815.457	75.7656
820.014	321.918
824.569	140.594
829.122	272.797
833.671	230.559
838.219	240.723
842.763	625.426
847.306	709.715
851.845	472.621
856.382	890.191
860.917	1143.46
865.448	954.547
869.978	572.289
874.505	481.887
879.029	506.059
883.55	368.258
888.069	406.16
892.586	480.195
897.1	439.883
901.611	449.023
906.12	349.434
910.626	128.578
915.129	182.555
919.63	229.648
924.129	72.5352
928.625	26.8086
933.118	23.2266
937.609	372.664
942.097	67.4883
946.582	502.43
951.065	1125.17
955.546	3267.88
960.023	6478.58
964.499	5726.5
968.971	6495.48
973.441	2914.84
977.909	1073.11
982.374	304.5
986.836	397.07
991.295	999.809
995.753	2322.41
1000.21	5278.48
1004.66	4623.26
1009.11	1800.75
1013.55	1364.52
1018	2091.32
1022.44	3371.75
1026.88	4602.57
1031.32	2095.01
1035.75	738.93
1040.18	513.231
1044.61	178.812
1049.04	17.7969
1053.46	181.969
1057.88	16.7109
1062.3	110.731
1066.71	89.5352
1071.13	41.9648
1075.54	327.883
1079.94	702.988
1084.35	663.207
1088.75	549.602
1093.15	412.16
1097.55	36.4258
1101.94	65.4062
1106.34	86.5742
1110.73	229.926
1115.11	21.4297
1119.5	355.188
1123.88	142.211
1128.26	397.277
1132.63	226.461
1137.01	9.82031
1141.38	164.356
1145.75	127.094
1150.12	142.945
1154.48	340.894
1158.84	561.992
1163.2	726.231
1167.55	361.633
1171.91	364.156
1176.26	42.8008
1180.61	195.551
1184.95	162.394
1189.29	247.738
1193.63	1.76172
1197.97	64.918
1202.31	387.465
1206.64	234.688
1210.97	22.6016
1215.29	220.816
1219.62	42.1094
1223.94	61.5195
1228.26	206.098
1232.57	250.551
1236.89	341.098
1241.2	278.586
1245.51	28.832
1249.81	491.09
1254.12	630.555
1258.42	166.121
1262.72	452.699
1267.01	621.586
1271.3	667.496
1275.59	795.719
1279.88	538.016
1284.17	762.148
1288.45	380.738
1292.73	1027.58
1297.01	634.324
1301.28	521.254
1305.55	531.141
1309.82	646.555
1314.09	901.898
1318.35	1026.33
1322.61	637.219
1326.87	489.938
1331.13	306.68
1335.38	158.981
1339.63	310.961
1343.88	479.949
1348.12	302.387
1352.37	280.262
1356.61	34.8594
1360.85	81.6641
1365.08	300.668
1369.31	205.707
1373.54	81.9492
1377.77	205.711
1381.99	248.75
1386.22	199.352
1390.43	379.832
1394.65	223.844
1398.87	70.2578
1403.08	368.391
1407.29	41.6094
1411.49	189.801
1415.69	53.0469
1419.89	295.609
1424.09	189.258
1428.29	231.438
1432.48	341.898
1436.67	807.312
1440.86	1056.94
1445.04	1409.66
1449.23	1260.01
1453.4	1873.87
1457.58	1809.51
1461.76	1178.46
1465.93	1093.59
1470.1	586.746
1474.26	802.691
1478.43	750.75
1482.59	570.016
1486.75	291.621
1490.9	237.453
1495.06	141.356
1499.21	274.719
1503.35	62.7383
1507.5	145.059
1511.64	232.508
1515.78	217.891
1519.92	229.019
1524.05	311.633
1528.18	355.34
1532.31	450.598
1536.44	691.84
1540.56	326.238
1544.69	267.75
1548.8	434.598
1552.92	631.273
1557.03	29.1289
1561.14	168.527
1565.25	169.078
1569.36	2.02734
