Measurement: Raman, 514 nm, ccw, Raman Data Processed
Mineral: Bikitaite
Rruff sample: R050160
Ideal chemistry: LiAlSi_2_O_6_H_2_O
Locality: Foote mine, Kings Mountain, Cleveland County, North Carolina, USA
Source: Jim McGlasson
Description: Colorless prismatic crystals
Measured chemistry: Li_1.00_Si_2.00_O_6_Â·1.25H_2_O ; Li not measured but estimated by stoichiometry
Pin_id: M00075
Orientation: Laser parallel to (0 1 1). Fiducial mark perpendicular to laser is parallel to a [1 0 0]
Raman shift (cm-1)	intensity
93.48	0
98.416	3543.19
103.349	10180
108.28	17349.5
113.208	21345.5
118.134	20945.7
123.058	13155.1
127.979	2773.3
132.898	163.967
137.814	1378.21
142.728	4718.94
147.639	4046.03
152.549	5816.31
157.455	8192.67
162.359	7254.16
167.261	5242.15
172.161	3192.65
177.058	963.477
181.952	685.976
186.845	477.315
191.734	69.7109
196.622	1915.77
201.507	4512.58
206.389	4205.13
211.269	1113.92
216.147	453.161
221.022	1210.17
225.895	979.227
230.765	174.023
235.633	369.756
240.498	1354.19
245.361	2969.34
250.222	4838.82
255.08	5357.24
259.936	3704.15
264.789	785.144
269.64	152.73
274.488	437.935
279.334	153.948
284.178	588.834
289.019	1679.43
293.857	1629.84
298.693	1332.17
303.527	1527.97
308.358	2194.86
313.187	2628.93
318.013	1182.79
322.837	940.544
327.659	667.843
332.478	789.721
337.294	1506.4
342.108	2621.18
346.92	3539.06
351.729	3780.77
356.535	4001.52
361.34	5464.39
366.141	8459.69
370.94	14137
375.737	23633.4
380.531	33313.6
385.323	36892.5
390.113	34714.3
394.9	34351.9
399.684	27929.7
404.466	17496.8
409.245	13306.7
414.022	12824.2
418.797	14506.5
423.569	15772.7
428.338	13212.5
433.105	8257.54
437.87	5312.56
442.632	5017.23
447.391	6675.4
452.149	7864
456.903	5852.12
461.655	4227.42
466.405	4583.58
471.152	7046.52
475.897	11724.3
480.639	18724
485.378	29650.2
490.116	40193
494.85	35890.2
499.582	24092.7
504.312	18177.2
509.039	15421.7
513.764	11677.3
518.486	8168.53
523.206	5922.42
527.923	4574.44
532.638	4130.02
537.35	3771.88
542.059	3308.86
546.766	1970.4
551.471	797.12
556.173	467.785
560.873	159.062
565.57	276.496
570.264	66.6641
574.957	40.5762
579.646	21.5508
584.333	147.193
589.018	124.223
593.7	122.606
598.379	164.228
603.056	240.027
607.73	42.1973
612.402	100.852
617.072	59.0586
621.739	220.26
626.403	207.852
631.065	201.963
635.724	150.742
640.381	2.02539
645.035	122.4
649.687	121.553
654.336	62.3496
658.983	57.7852
663.627	245.394
668.268	222.453
672.907	790.205
677.544	1114.7
682.178	1285.02
686.809	1583.34
691.438	1285.27
696.065	1195.89
700.688	1079.1
705.31	1141.16
709.929	1295.3
714.545	1222.68
719.158	1032.17
723.77	752.713
728.378	616.67
732.984	595.193
737.588	432.297
742.189	708.67
746.787	861.394
751.383	1373.36
755.976	2620.58
760.567	4105.52
765.155	4737.34
769.741	4056.72
774.324	3046.31
778.904	2173.87
783.482	1635.21
788.058	956.037
792.631	791.564
797.201	621.635
801.769	447.193
806.334	186.432
810.897	291.965
815.457	303.918
820.014	200.264
824.569	328.025
829.122	326.234
833.671	165.898
838.219	79.0215
842.763	190.594
847.306	296.562
851.845	96.9785
856.382	44.5547
860.917	54.6973
865.448	76.3066
869.978	47.3105
874.505	15.4004
879.029	172.641
883.55	50.3516
888.069	110.272
892.586	29.6738
897.1	21.8828
901.611	7
906.12	155.281
910.626	114.894
915.129	48.7422
919.63	119.824
924.129	1.625
928.625	124.963
933.118	130.623
937.609	85.1602
942.097	461.512
946.582	715.889
951.065	1302.88
955.546	3544.52
960.023	7128.68
964.499	10318.7
968.971	9384.6
973.441	4319.9
977.909	1593.2
982.374	1186.91
986.836	1209.24
991.295	2395.37
995.753	3214.94
1000.21	1537.07
1004.66	767.314
1009.11	561.932
1013.55	577.705
1018	553.729
1022.44	302.775
1026.88	104.156
1031.32	128.037
1035.75	175.463
1040.18	587.389
1044.61	972.426
1049.04	1793.96
1053.46	2333.64
1057.88	2317.66
1062.3	1487.07
1066.71	875.092
1071.13	433.959
1075.54	300.057
1079.94	478.387
1084.35	469.967
1088.75	560.83
1093.15	565.941
1097.55	804.184
1101.94	1030.37
1106.34	1405.4
1110.73	1204.44
1115.11	1173.44
1119.5	1848.19
1123.88	2452.52
1128.26	3819.2
1132.63	5000.53
1137.01	7238.86
1141.38	8232.89
1145.75	6534.3
1150.12	4456.07
1154.48	2671.95
1158.84	1545.05
1163.2	1054.38
1167.55	866.256
1171.91	641.473
1176.26	511.082
1180.61	587.457
1184.95	326.272
1189.29	240.93
1193.63	293.848
1197.97	369.906
1202.31	164.981
1206.64	26.043
1210.97	119.16
1215.29	25.6875
1219.62	128.486
1223.94	130.621
1228.26	70.7168
1232.57	14.9961
1236.89	56.3496
1241.2	64.957
1245.51	6.10547
1249.81	46.7441
1254.12	158.523
1258.42	145.475
1262.72	44.6895
1267.01	42.8828
1271.3	18.4336
1275.59	85.4277
1279.88	319.156
1284.17	175.398
1288.45	365.492
1292.73	29.9766
1297.01	145.949
1301.28	274.455
1305.55	80.4004
1309.82	116.652
1314.09	149.039
1318.35	404.785
1322.61	237.127
1326.87	218.394
1331.13	113.481
1335.38	175.625
1339.63	415.293
1343.88	51.2949
1348.12	157.119
1352.37	276.805
1356.61	185.627
1360.85	371.162
1365.08	16.5957
1369.31	313.588
1373.54	259.477
1377.77	72.2598
1381.99	197.459
1386.22	125.594
1390.43	105.596
1394.65	98.0312
1398.87	124.465
1403.08	29.373
1407.29	154.242
1411.49	263.705
1415.69	349.283
1419.89	198.029
1424.09	162.504
1428.29	91.6387
1432.48	95.4785
1436.67	191.853
1440.86	140.127
1445.04	336.326
1449.23	158.035
1453.4	377.623
1457.58	334.699
1461.76	118.119
1465.93	313.176
1470.1	317.102
1474.26	230.188
1478.43	70.3965
1482.59	154.734
1486.75	186.678
1490.9	218.688
1495.06	216.654
1499.21	149.512
1503.35	243.887
1507.5	142.898
1511.64	34.9336
1515.78	250.754
1519.92	249.787
1524.05	275.641
1528.18	125.805
1532.31	12.3711
1536.44	211.941
1540.56	2.87891
1544.69	171.019
1548.8	163.315
1552.92	323.859
1557.03	413.965
1561.14	216.631
1565.25	157.393
1569.36	33.8184
