Measurement: Raman, 514 nm, ccw, Raman Data Processed
Mineral: Bikitaite
Rruff sample: R050160
Ideal chemistry: LiAlSi_2_O_6_H_2_O
Locality: Foote mine, Kings Mountain, Cleveland County, North Carolina, USA
Source: Jim McGlasson
Description: Colorless prismatic crystals
Measured chemistry: Li_1.00_Si_2.00_O_6_Â·1.25H_2_O ; Li not measured but estimated by stoichiometry
Pin_id: M00294
Orientation: Laser parallel to (1 0 1). Fiducial mark perpendicular to laser is parallel to -b [0 -1 0]
Raman shift (cm-1)	intensity
87.308	0
91.012	945.229
94.714	2099.52
98.416	3606.12
102.116	4536.18
105.815	4591.64
109.512	4686.23
113.208	3788.56
116.903	3743.7
120.596	1750.56
124.288	545.271
127.979	474.695
131.668	1621.37
135.356	4794.33
139.043	8412.75
142.728	11018.9
146.412	11880.9
150.094	9992.55
153.775	7944.15
157.455	6221.98
161.134	5257.05
164.811	3815.37
168.486	2300.22
172.161	659.344
175.834	438.269
179.505	850.656
183.176	477.666
186.845	335.631
190.512	2010.34
194.178	5503.54
197.843	8821.28
201.507	11556.6
205.169	10374.1
208.829	6949.96
212.489	5573.13
216.147	6094.92
219.803	6330.6
223.459	4746.09
227.112	2485.31
230.765	1124.22
234.416	1082.3
238.066	1505.7
241.714	3038.17
245.361	5465.32
249.007	8041.81
252.651	9367.38
256.294	8530.43
259.936	5939.92
263.576	2145.3
267.215	563.064
270.852	182.508
274.488	115.6
278.123	497.56
281.756	1839.89
285.388	3272.93
289.019	4287.6
292.648	3640.86
296.276	1949.65
299.902	1005.8
303.527	1220.14
307.151	1520.43
310.773	2394.65
314.394	2332.9
318.013	1790.19
321.631	1109.46
325.248	1081.25
328.864	422.537
332.478	164.172
336.09	73.7441
339.701	1171.34
343.311	2300.11
346.92	3393.54
350.527	3585.61
354.132	3103.36
357.737	2785.66
361.34	2803.59
364.941	4409.22
368.541	7336.5
372.14	11858.4
375.737	17370.9
379.333	23414.1
382.928	27635.9
386.521	30679.4
390.113	31858.3
393.703	30347.7
397.292	24609.3
400.88	15802.2
404.466	8866.4
408.051	5029.85
411.634	3537.58
415.216	2795.02
418.797	2675.63
422.376	2511.95
425.954	2394.63
429.53	2142.12
433.105	2005.29
436.679	2192.22
440.251	2500.63
443.822	2563.14
447.391	2463.01
450.96	2541.15
454.526	3277.88
458.091	4825.58
461.655	6403.69
465.218	7811.83
468.779	8989.84
472.338	10104.6
475.897	12941.5
479.454	16798.8
483.009	21813.7
486.563	28068.5
490.116	36087.2
493.667	42609.9
497.217	43683.5
500.765	36415
504.312	24647.3
507.858	15078.5
511.402	9411.45
514.945	6004.26
518.486	4402.87
522.026	3060.29
525.565	2556.97
529.102	2231.06
532.638	2209.45
536.172	2277.94
539.705	2035.99
543.236	1459.16
546.766	948.986
550.295	627.16
553.822	427.264
557.348	171.6
560.873	20.8496
564.396	304.647
567.917	90.9082
571.438	152.603
574.957	58.9355
578.474	326.762
581.99	119.205
585.504	146.066
589.018	116.523
592.529	156.287
596.04	98.3672
599.549	8.52539
603.056	260.623
606.562	143.293
610.067	40.0469
613.57	93.5371
617.072	749.354
620.572	1267.69
624.071	2190.42
627.569	2113.52
631.065	1093.99
634.56	634.814
638.053	694
641.545	981.547
645.035	1323.85
648.524	1550.79
652.012	1228.63
655.498	970.936
658.983	489.594
662.466	38.5508
665.948	10.6367
669.428	244.603
672.907	227.945
676.385	583.469
679.861	475.394
683.336	362.65
686.809	267.029
690.281	364.699
693.752	790.715
697.221	1560.47
700.688	2289.32
704.155	2615.82
707.619	2042.66
711.083	1438.25
714.545	899.771
718.005	864.67
721.464	798.742
724.922	674.606
728.378	606.744
731.833	249.943
735.286	5.3418
738.738	114.623
742.189	33.2598
745.638	209.365
749.085	258.684
752.531	951.547
755.976	1543.5
759.419	2055.4
762.861	2416.01
766.302	2385.73
769.741	1880.42
773.178	1365.24
776.614	756.824
780.049	667.262
783.482	545.348
786.914	402.133
790.345	348.557
793.773	334.4
797.201	280.262
800.627	287.336
804.052	37.3008
807.475	75.8633
810.897	88.5293
814.317	33.252
817.736	11.4531
821.153	196.815
824.569	246.859
827.984	114.359
831.397	271.312
834.808	339.307
838.219	390.475
841.627	426.127
845.035	742.35
848.441	681.094
851.845	845.424
855.248	1182.34
858.65	1980.73
862.05	1750.54
865.448	1360.48
868.846	1081.56
872.241	735.793
875.636	536.248
879.029	506.213
882.42	496.777
885.81	330.99
889.199	510.547
892.586	273.248
895.971	634.064
899.356	414.998
902.738	441.059
906.12	405.25
909.5	204.578
912.878	225.451
916.255	136.685
919.63	65.4082
923.004	21.9297
926.377	157.805
929.748	142.176
933.118	281.57
936.486	369.26
939.853	633.08
943.218	785.613
946.582	1236.28
949.945	3168.28
953.306	7078.19
956.665	11914.7
960.023	12367.5
963.38	7763.38
966.735	3670.5
970.089	2463.8
973.441	1603.26
976.792	1229.9
980.141	569.701
983.489	194.656
986.836	701.764
990.181	847.016
993.524	1280.41
996.866	2848.94
1000.21	4835.6
1003.55	5029.4
1006.88	2787.33
1010.22	2674.49
1013.55	3912.97
1016.89	5869.65
1020.22	6460.44
1023.55	5516.36
1026.88	3836.41
1030.21	2067.59
1033.53	1021.88
1036.86	533.307
1040.18	358.853
1043.5	168.522
1046.82	78.7461
1050.14	235.926
1053.46	96.8652
1056.78	62.5332
1060.09	63.6816
1063.4	253.055
1066.71	97.8242
1070.02	2.86914
1073.33	224.932
1076.64	664.291
1079.94	1078.24
1083.25	1155.85
1086.55	1050.25
1089.85	1077.03
1093.15	1103.66
1096.45	1405.51
1099.75	2074.81
1103.04	2544.06
1106.34	2693.19
1109.63	1942.45
1112.92	1364.86
1116.21	1454.38
1119.5	1455.01
1122.78	2036.77
1126.07	2485.65
1129.35	2353.65
1132.63	1875.77
1135.92	1339.02
1139.19	900.381
1142.47	778.879
1145.75	982.506
1149.02	1179.27
1152.3	1860.15
1155.57	2465.16
1158.84	3145.3
1162.11	2801.53
1165.38	2567.84
1168.64	2169.25
1171.91	1634.74
1175.17	1283.34
1178.43	982.992
1181.69	697.801
1184.95	759.711
1188.21	631.719
1191.46	256.516
1194.72	103.16
1197.97	70.041
1201.22	390.945
1204.47	39.6465
1207.72	107.697
1210.97	11.8867
1214.21	1.20703
1217.46	115.451
1220.7	144.85
1223.94	17.3984
1227.18	14.8965
1230.42	198.957
1233.65	294.998
1236.89	484.644
1240.12	503.711
1243.35	355.277
1246.59	365.047
1249.81	676.029
1253.04	483.103
1256.27	373.356
1259.49	431.916
1262.72	481.557
1265.94	1000.24
1269.16	860.1
1272.38	1052.52
1275.59	1121.19
1278.81	868.912
1282.03	833.676
1285.24	728.367
1288.45	381.055
1291.66	938.717
1294.87	1061.51
1298.08	880.525
1301.28	775.877
1304.48	1012.55
1307.69	1187.32
1310.89	1332.42
1314.09	1088.27
1317.29	1581.16
1320.48	1242.95
1323.68	847.598
1326.87	796.764
1330.06	508.432
1333.26	105.318
1336.44	338.432
1339.63	57.7656
1342.82	266.322
1346	402.914
1349.19	277.867
1352.37	135.893
1355.55	82.3242
1358.73	27.75
1361.9	52.3262
1365.08	215.769
1368.26	473.154
1371.43	153.199
1374.6	442.914
1377.77	342.91
1380.94	578.309
1384.11	500.547
1387.27	414.185
1390.43	345.447
1393.6	273.408
1396.76	10.0312
1399.92	35.4297
1403.08	6.46094
1406.23	113.816
1409.39	258.32
1412.54	296.963
