Measurement: Raman, 514 nm, ccw, Raman Data Processed
Mineral: Bikitaite
Rruff sample: R050160
Ideal chemistry: LiAlSi_2_O_6_H_2_O
Locality: Foote mine, Kings Mountain, Cleveland County, North Carolina, USA
Source: Jim McGlasson
Description: Colorless prismatic crystals
Measured chemistry: Li_1.00_Si_2.00_O_6_Â·1.25H_2_O ; Li not measured but estimated by stoichiometry
Pin_id: M00075
Orientation: Laser parallel to (0 1 1). Fiducial mark perpendicular to laser is parallel to a [1 0 0]
Raman shift (cm-1)	intensity
93.48	0
98.416	1691.29
103.349	4022.56
108.28	4330.4
113.208	2250.64
118.134	1342.51
123.058	137.424
127.979	4.33984
132.898	1573.4
137.814	4933.49
142.728	9686.86
147.639	10652.1
152.549	8864.41
157.455	8282.05
162.359	8318.56
167.261	6777.47
172.161	3312.15
177.058	1056.67
181.952	351.059
186.845	771.664
191.734	2663.56
196.622	6269.16
201.507	10185.3
206.389	10274.2
211.269	8447
216.147	11406.1
221.022	12500
225.895	7114.66
230.765	2466.84
235.633	1225.5
240.498	1706.46
245.361	2826.71
250.222	3934.45
255.08	3217.06
259.936	1948.18
264.789	143.373
269.64	551.166
274.488	334.981
279.334	534.539
284.178	2179.11
289.019	4208.47
293.857	4487.43
298.693	3075.07
303.527	1989.77
308.358	704.367
313.187	549.727
318.013	13.5098
322.837	111.717
327.659	200.807
332.478	635.637
337.294	1305.77
342.108	2916.47
346.92	4524.59
351.729	4622.1
356.535	4722.94
361.34	5276.84
366.141	8338.06
370.94	14477.6
375.737	24023.4
380.531	34460.4
385.323	39926.5
390.113	39496
394.9	35773.9
399.684	25796.4
404.466	14393.2
409.245	9343.92
414.022	7334.19
418.797	7215.59
423.569	7430.26
428.338	6622.46
433.105	5120.93
437.87	4593.72
442.632	6398.33
447.391	10052.8
452.149	12400.2
456.903	8535.01
461.655	5178.71
466.405	4650.06
471.152	6215.06
475.897	9684.98
480.639	15701.5
485.378	25505.1
490.116	33814.9
494.85	30902.8
499.582	24379.9
504.312	22253.5
509.039	20819.2
513.764	15696.7
518.486	10024.2
523.206	6120.26
527.923	3974.84
532.638	3172.92
537.35	2825.49
542.059	2194.05
546.766	1224.46
551.471	659.74
556.173	433.791
560.873	187.324
565.57	215.441
570.264	7.7168
574.957	118.221
579.646	28.5
584.333	109.766
589.018	236.83
593.7	24.1973
598.379	115.76
603.056	127.494
607.73	177.94
612.402	34.6328
617.072	99.3223
621.739	119.393
626.403	171.279
631.065	37.3789
635.724	201.35
640.381	173.322
645.035	58.0176
649.687	272.109
654.336	36.1758
658.983	141.035
663.627	358.471
668.268	158.623
672.907	469.92
677.544	654.26
682.178	814.561
686.809	1317.37
691.438	1536.74
696.065	2141.41
700.688	2640.53
705.31	3059.54
709.929	3459.24
714.545	2977.96
719.158	2159.49
723.77	1962.49
728.378	2169.5
732.984	2151.74
737.588	1370.32
742.189	873.369
746.787	625.969
751.383	357.789
755.976	647.979
760.567	922.139
765.155	1250.93
769.741	920.348
774.324	862.697
778.904	922.926
783.482	746.627
788.058	729.439
792.631	503.578
797.201	320.769
801.769	71.9434
806.334	114.191
810.897	355.685
815.457	180.848
820.014	55.1699
824.569	30.7148
829.122	154.496
833.671	91.668
838.219	18.7363
842.763	31.1348
847.306	38.5977
851.845	25.2188
856.382	99.5176
860.917	12.9609
865.448	142.281
869.978	12.7344
874.505	278.164
879.029	26.8223
883.55	93.7324
888.069	105.387
892.586	30.8223
897.1	235.648
901.611	127.676
906.12	0.533203
910.626	158.268
915.129	43.9902
919.63	82.6289
924.129	177.328
928.625	312.025
933.118	401.971
937.609	717.615
942.097	1045.06
946.582	2317.45
951.065	5418.18
955.546	13960.6
960.023	21965.2
964.499	15437.4
968.971	9274.49
973.441	4412.59
977.909	1877.52
982.374	1131.76
986.836	1275.49
991.295	1781.13
995.753	2030.3
1000.21	1173
1004.66	485.648
1009.11	1077.83
1013.55	1736.74
1018	1419.59
1022.44	613.852
1026.88	398.402
1031.32	393.336
1035.75	330.172
1040.18	1106.51
1044.61	1706.38
1049.04	2765.57
1053.46	3306.61
1057.88	3117.44
1062.3	2161.58
1066.71	1129.05
1071.13	432.852
1075.54	297.328
1079.94	354.926
1084.35	459.106
1088.75	581.141
1093.15	183.207
1097.55	342.555
1101.94	635.039
1106.34	501.277
1110.73	349.723
1115.11	336.617
1119.5	841.805
1123.88	1504.52
1128.26	2062.66
1132.63	2536.46
1137.01	3412.48
1141.38	3829.72
1145.75	2634
1150.12	1875.19
1154.48	1127.11
1158.84	824.473
1163.2	1099.67
1167.55	1191.27
1171.91	1452
1176.26	1153.41
1180.61	592.051
1184.95	709.871
1189.29	430.742
1193.63	264.723
1197.97	224.914
1202.31	156.305
1206.64	278.019
1210.97	30.3984
1215.29	98.9922
1219.62	14.8711
1223.94	87.3477
1228.26	739.863
1232.57	95.6602
1236.89	39.3086
1241.2	35.418
1245.51	167.109
1249.81	109.492
1254.12	18.7305
1258.42	225.074
1262.72	112.856
1267.01	1.29688
1271.3	184.199
1275.59	219.863
1279.88	147.906
1284.17	297.406
1288.45	256.824
1292.73	464.324
1297.01	330.875
1301.28	486.094
1305.55	402.258
1309.82	356.172
1314.09	245.848
1318.35	304.664
1322.61	185.672
1326.87	326.035
1331.13	312.789
1335.38	470.246
1339.63	188.246
1343.88	334.055
1348.12	500.93
1352.37	438.801
1356.61	246.902
1360.85	258.445
1365.08	318.551
1369.31	429.809
1373.54	334.5
1377.77	172.41
1381.99	232.949
1386.22	110.492
1390.43	295.582
1394.65	195.809
1398.87	240.922
1403.08	178.539
1407.29	200.004
1411.49	130.426
1415.69	348.121
1419.89	175.894
1424.09	172.613
1428.29	155.879
1432.48	332.848
1436.67	439.113
1440.86	76.8711
1445.04	81.9023
1449.23	301.016
1453.4	370.176
1457.58	61.0195
1461.76	174.473
1465.93	207.922
1470.1	547.555
1474.26	198.055
1478.43	59.5312
1482.59	413.066
1486.75	464.008
1490.9	367.336
1495.06	362.914
1499.21	162.996
1503.35	378.285
1507.5	531.496
1511.64	209.863
1515.78	96.7656
1519.92	694.383
1524.05	363.492
1528.18	434.332
1532.31	253.227
1536.44	297.941
1540.56	119.695
1544.69	343.379
1548.8	181.578
1552.92	426.844
1557.03	77.7578
1561.14	13.1133
1565.25	242.144
1569.36	33.043
