Measurement: Raman, 514 nm, ccw, Raman Data Processed
Mineral: Bikitaite
Rruff sample: R050160
Ideal chemistry: LiAlSi_2_O_6_H_2_O
Locality: Foote mine, Kings Mountain, Cleveland County, North Carolina, USA
Source: Jim McGlasson
Description: Colorless prismatic crystals
Measured chemistry: Li_1.00_Si_2.00_O_6_Â·1.25H_2_O ; Li not measured but estimated by stoichiometry
Pin_id: M00374
Orientation: Laser parallel to c* (0 0 1). Fiducial mark perpendicular to laser is parallel to a [1 0 0]
Raman shift (cm-1)	intensity
53.566	0
57.765	288.797
61.962	281.44
66.157	1094.26
70.349	5183.25
74.54	6756.48
78.729	10110.1
82.916	12648.4
87.101	12339
91.284	13419.5
95.465	14995.1
99.644	17603
103.82	19541.8
107.995	21043.7
112.168	18530.6
116.339	14032.8
120.508	9667.47
124.675	7067.42
128.84	5705.04
133.003	5631.85
137.164	6871.45
141.323	8021.4
145.48	8323.41
149.635	7772.98
153.788	6978.29
157.939	6739.06
162.088	5899.7
166.235	4701.11
170.38	3644.98
174.523	2734.84
178.664	2009.73
182.803	1876.51
186.94	1881.16
191.076	2658.36
195.209	4172.29
199.34	6449.92
203.47	7800.15
207.597	6791.75
211.722	5903.45
215.846	7075.1
219.967	7554
224.087	5614.91
228.204	3538.18
232.32	2956.95
236.434	3510.74
240.545	5128.74
244.655	7479.76
248.763	9711.94
252.869	11449.6
256.973	11425.2
261.075	6739.18
265.175	2932.96
269.273	851.131
273.369	145.322
277.463	16.428
281.556	218.211
285.646	1255.5
289.734	2944.98
293.821	3822.3
297.905	3456.12
301.988	3033.32
306.069	1537.87
310.147	1112.79
314.224	56.053
318.299	654.469
322.372	709.436
326.443	837.135
330.512	887.73
334.579	331.336
338.645	692.684
342.708	1491.65
346.769	1884.55
350.829	2127.64
354.887	2147.08
358.942	1910.34
362.996	2529.86
367.048	3920.08
371.098	6490.92
375.146	10624.3
379.192	16165.2
383.236	18436.3
387.279	18958.1
391.319	18502
395.358	17647.4
399.394	14027.8
403.429	9440.06
407.462	6847.93
411.493	5612.94
415.522	5005.36
419.549	4452.05
423.575	3418.18
427.598	2759.85
431.619	2327.95
435.639	2532.43
439.657	2993.55
443.673	3561.08
447.687	3951.32
451.699	3648.73
455.709	2531.97
459.717	2468.29
463.724	3438.23
467.728	4999.8
471.731	6962.91
475.732	8538.52
479.731	10191.3
483.728	13871.6
487.723	18379
491.716	18783.7
495.708	14870.5
499.697	10903
503.685	8037.71
507.671	5808.94
511.655	4271.6
515.637	3436.14
519.617	2725.87
523.596	2205.53
527.572	1831
531.547	1883.54
535.52	2107.09
539.491	2351.62
543.46	1978.08
547.427	920.439
551.393	421.641
555.356	92.631
559.318	44.281
563.278	29.955
567.236	55.115
571.192	25.539
575.147	84.717
579.099	197.367
583.05	81.789
586.999	220.082
590.946	176.629
594.891	32.449
598.834	64.361
602.776	24.418
606.715	85.852
610.653	428.643
614.589	275.766
618.523	911.91
622.456	1418.74
626.386	1875.77
630.315	882.576
634.242	491.734
638.167	473.285
642.09	783.594
646.012	1115.33
649.931	1074.12
653.849	945.641
657.765	335.887
661.679	187.199
665.592	114.58
669.502	122.047
673.411	42.939
677.318	426.812
681.223	1022.69
685.126	1352.98
689.028	1015.58
692.927	1259.44
696.825	1232.17
700.721	1898.94
704.616	1473.73
708.508	1490.54
712.399	1226.92
716.288	914.141
720.175	667.396
724.06	394.125
727.944	544.135
731.825	446.156
735.705	115.68
739.584	59.145
743.46	88.26
747.334	40.348
751.207	88.969
755.078	288.188
758.947	158.963
762.815	27.203
766.68	58.254
770.544	102.809
774.406	367.867
778.267	426.223
782.125	916.42
785.982	652.725
789.837	739.514
793.69	476.307
797.542	403.043
801.391	95.641
805.239	265.777
809.085	263.287
812.93	223.004
816.772	395.691
820.613	559.254
824.452	236.975
828.29	352.721
832.125	399.375
835.959	204.357
839.791	548.188
843.621	756.004
847.45	794.936
851.277	845.811
855.102	921.482
858.925	1435.83
862.746	1533.76
866.566	882.293
870.384	963.42
874.2	848.918
878.015	487.77
881.828	612.111
885.639	1231.08
889.448	852.018
893.256	737.764
897.061	623.859
900.865	594.975
904.668	809.916
908.468	701.941
912.267	546.516
916.064	1015.67
919.86	770.52
923.653	468.264
927.445	585.273
931.236	675.363
935.024	804.545
938.811	883.678
942.596	818.041
946.379	1176.3
950.161	1746.16
953.94	3808.9
957.719	6879.09
961.495	9939.94
965.27	11438.7
969.043	9233.94
972.814	5205.48
976.583	3966.14
980.351	2403.64
984.117	2068.78
987.882	2269.97
991.644	2939.59
995.405	6794.89
999.165	14245.2
1002.92	10834.6
1006.68	4883.36
1010.43	3549.99
1014.18	3458.36
1017.93	3781.15
1021.68	3125.46
1025.43	3046.33
1029.18	1724.25
1032.92	1329.39
1036.66	1182.53
1040.4	1233.92
1044.14	1325.44
1047.88	1256.17
1051.62	1063.54
1055.35	894.898
1059.08	1143.77
1062.81	946.039
1066.54	1164.05
1070.27	865.076
1073.99	1415.02
1077.72	1708.02
1081.44	2248.08
1085.16	2561.31
1088.88	2017.05
1092.59	1712.72
1096.31	1605.96
1100.02	1398.21
1103.73	1511.4
1107.44	1670.2
1111.15	1645
1114.86	1416.14
1118.57	1452.8
1122.27	1512.73
1125.97	1580.5
1129.67	1481.45
1133.37	1653.91
1137.07	1738.63
1140.76	1486.39
1144.45	1186.67
1148.15	1531.6
1151.84	1970.83
1155.53	2284.5
1159.21	2862.55
1162.9	2636.09
1166.58	2716.74
1170.26	2265.95
1173.94	1798.73
1177.62	2080.49
1181.3	1619.14
1184.97	1857.95
1188.65	1898.79
1192.32	1540.9
1195.99	1595.84
1199.66	1803.68
1203.33	2241.24
1206.99	1664.84
1210.65	1779.96
1214.32	1984.88
1217.98	2043.94
1221.64	1789.74
1225.29	1963.29
1228.95	2078.15
1232.6	2099.11
1236.26	2463.12
1239.91	2511.34
1243.56	2279.69
1247.2	2746.37
1250.85	2199.39
1254.49	2130.67
1258.13	1871.12
1261.78	1616.94
1265.41	2292.86
1269.05	2168
1272.69	2203.67
1276.32	2035.11
1279.95	1886.06
1283.59	1478.12
1287.21	1298.22
1290.84	947.031
1294.47	1355.93
1298.09	1068.52
1301.72	874.875
1305.34	1039.91
1308.96	1401.31
1312.58	1283.06
1316.19	1092.61
1319.81	802.191
1323.42	547.266
1327.03	906.73
1330.64	1.387
1334.25	451.176
1337.86	463.785
1341.46	425.812
1345.07	389.281
1348.67	226.941
1352.27	449.754
1355.87	579.336
1359.46	875.328
1363.06	1196.45
1366.65	1143.52
1370.25	868.422
1373.84	913.199
1377.43	934.379
1381.02	744.855
1384.6	362.805
1388.18	23.953
1391.77	139.684
1395.35	93.094
1398.93	77.77
1402.51	20
1406.08	429.324
1409.66	302.711
1413.23	252.547
1416.8	23.012
1420.37	103.895
1423.94	317.453
1427.51	34.895
1431.08	153.215
1434.64	310.398
1438.2	1278.43
1441.76	1682.23
1445.32	2355.57
1448.88	2014.22
1452.43	2581.34
1455.99	2654.23
1459.54	2260.81
1463.09	1554.39
1466.64	889.156
1470.19	632.363
1473.74	242.406
1477.28	24.645
1480.83	124.879
1484.37	757.238
1487.91	487.91
1491.45	588.152
1494.98	1291.16
1498.52	1586.72
1502.05	2351.55
1505.59	4342.78
1509.12	6019.31
1512.65	8490.89
1516.17	11215.8
1519.7	16295.5
1523.23	23139.6
1526.75	34945.8
