Measurement: Raman, 514 nm, ccw, Raman Data Processed
Mineral: Bikitaite
Rruff sample: R050160
Ideal chemistry: LiAlSi_2_O_6_H_2_O
Locality: Foote mine, Kings Mountain, Cleveland County, North Carolina, USA
Source: Jim McGlasson
Description: Colorless prismatic crystals
Measured chemistry: Li_1.00_Si_2.00_O_6_Â·1.25H_2_O ; Li not measured but estimated by stoichiometry
Pin_id: M00247
Orientation: Laser parallel to -b* (0 -1 0). Fiducial mark perpendicular to laser is parallel to c [0 0 1]
Raman shift (cm-1)	intensity
61.962	0
66.157	220.326
70.349	259.973
74.54	10.196
78.729	502.55
82.916	5203.84
87.101	7500.67
91.284	5015.25
95.465	6363.8
99.644	9594.81
103.82	14108.6
107.995	19315.5
112.168	25706.8
116.339	27410.4
120.508	21218.2
124.675	16143
128.84	12021.8
133.003	9601.7
137.164	7754.95
141.323	7230.65
145.48	6486.82
149.635	6814.89
153.788	8067.22
157.939	10079
162.088	10418.4
166.235	9732.31
170.38	8885.06
174.523	6828.83
178.664	4454.65
182.803	2689.67
186.94	1675.72
191.076	1144.38
195.209	1356.85
199.34	2404.36
203.47	3728.51
207.597	3678.63
211.722	2153.61
215.846	1980.33
219.967	2428.65
224.087	2052.47
228.204	1233.8
232.32	510.312
236.434	479.753
240.545	745.318
244.655	1345.61
248.763	2044.65
252.869	2418.92
256.973	1811.6
261.075	704.034
265.175	5.332
269.273	323.038
273.369	80.479
277.463	221.871
281.556	105.401
285.646	147.386
289.734	732.724
293.821	1341.2
297.905	1272.95
301.988	943.098
306.069	174.184
310.147	99.577
314.224	241.367
318.299	39.111
322.372	1123.53
326.443	2322.88
330.512	1030.51
334.579	87.752
338.645	207.221
342.708	478.283
346.769	1154.98
350.829	1064.33
354.887	851.305
358.942	1005.83
362.996	1718.1
367.048	3380.43
371.098	6357.38
375.146	11040
379.192	18532.2
383.236	25607.9
387.279	27170.2
391.319	26007.9
395.358	27977.7
399.394	26756.6
403.429	18469.7
407.462	13312.7
411.493	11968.4
415.522	12729.8
419.549	13851.7
423.575	12970.5
427.598	9286.52
431.619	5645.69
435.639	4185.56
439.657	3022.59
443.673	2176.76
447.687	1682.9
451.699	1702.84
455.709	2249.96
459.717	2113.07
463.724	1831.91
467.728	2590.83
471.731	4916.15
475.732	9284.25
479.731	13200.8
483.728	16603.1
487.723	24999.6
491.716	36513.1
495.708	40672.2
499.697	33909.4
503.685	25482.8
507.671	18997.1
511.655	13506.6
515.637	9238.58
519.617	6703.39
523.596	4693.38
527.572	3364.77
531.547	2879.53
535.52	2621.63
539.491	2745.07
543.46	2294.86
547.427	1442.92
551.393	663.207
555.356	186.717
559.318	43.498
563.278	117.537
567.236	69.865
571.192	11.444
575.147	86.3
579.099	19.328
583.05	120.016
586.999	121.595
590.946	233.338
594.891	183.504
598.834	292.907
602.776	373.588
606.715	385.45
610.653	159.194
614.589	102.644
618.523	19.44
622.456	35.101
626.386	58.746
630.315	42.378
634.242	54.971
638.167	183.62
642.09	50.551
646.012	96.587
649.931	43.361
653.849	10.551
657.765	29.186
661.679	142.227
665.592	117.455
669.502	144.634
673.411	359.924
677.318	561.448
681.223	719.408
685.126	983.837
689.028	1117.85
692.927	1317.34
696.825	1722.41
700.721	1675.6
704.616	1569.5
708.508	1423.43
712.399	1256.23
716.288	962.624
720.175	740.208
724.06	716.928
727.944	701.889
731.825	833.328
735.705	1074.54
739.584	1233.75
743.46	1379.41
747.334	2321.95
751.207	3631.21
755.078	5783.24
758.947	8717.11
762.815	10958.8
766.68	10608.1
770.544	8159.91
774.406	5821.2
778.267	4101.62
782.125	2935.48
785.982	2221.09
789.837	1610.93
793.69	1343.58
797.542	1058.87
801.391	868.321
805.239	931.001
809.085	600.49
812.93	428.688
816.772	317.442
820.613	278.976
824.452	214.8
828.29	188.359
832.125	299.865
835.959	141.995
839.791	94.758
843.621	248.158
847.45	205.205
851.277	18.173
855.102	27.983
858.925	269.81
862.746	8.277
866.566	144.324
870.384	44.846
874.2	38.004
878.015	21.598
881.828	78.35
885.639	57.569
889.448	28.912
893.256	6.606
897.061	92.477
900.865	114.049
904.668	14.719
908.468	74.204
912.267	18.485
916.064	65.629
919.86	28.056
923.653	63.457
927.445	50.403
931.236	21.313
935.024	96.375
938.811	28.123
942.596	27.446
946.379	154.981
950.161	352.211
953.94	858.11
957.719	1940.74
961.495	2984.01
965.27	3181.99
969.043	5762.59
972.814	5418.56
976.583	2562.79
980.351	1203.27
984.117	722.882
987.882	1224.51
991.644	2388.01
995.405	2313.76
999.165	1045.45
1002.92	657.539
1006.68	325.569
1010.43	235.877
1014.18	548.491
1017.93	464.963
1021.68	63.537
1025.43	3.353
1029.18	0.865
1032.92	18.35
1036.66	118.378
1040.4	53.352
1044.14	38.301
1047.88	25.867
1051.62	176.267
1055.35	286.165
1059.08	380.625
1062.81	305.996
1066.54	554.274
1070.27	1016.36
1073.99	1562.84
1077.72	2308.86
1081.44	3443.02
1085.16	4690.36
1088.88	6371.73
1092.59	8359.37
1096.31	8257.96
1100.02	6551.51
1103.73	4979.83
1107.44	4170.94
1111.15	2819.54
1114.86	1972.99
1118.57	1421.51
1122.27	1104.32
1125.97	1258.46
1129.67	1532.85
1133.37	1879.28
1137.07	1635.62
1140.76	1340.62
1144.45	860.935
1148.15	750.159
1151.84	548.044
1155.53	719.268
1159.21	875.853
1162.9	1134.01
1166.58	1443.27
1170.26	1409.58
1173.94	990.953
1177.62	792.897
1181.3	498.478
1184.97	481.041
1188.65	278.505
1192.32	243.437
1195.99	131.472
1199.66	179.755
1203.33	178.087
1206.99	308.496
1210.65	68.377
1214.32	66.071
1217.98	68.7
1221.64	90.888
1225.29	15.436
1228.95	75.024
1232.6	38.371
1236.26	113.096
1239.91	77.003
1243.56	149.154
1247.2	5.927
1250.85	54.581
1254.49	10.256
1258.13	20.419
1261.78	48.721
1265.41	23.376
1269.05	71.479
1272.69	31.868
1276.32	66.639
1279.95	0.155
1283.59	5.032
1287.21	93.41
1290.84	106.573
1294.47	19.188
1298.09	34.888
1301.72	9.084
1305.34	21.711
1308.96	28.9
1312.58	138.891
1316.19	23.245
1319.81	177.195
1323.42	72.743
1327.03	9.105
1330.64	31.304
1334.25	122.129
1337.86	22.232
1341.46	56.91
1345.07	112.279
1348.67	90.966
1352.27	126.483
1355.87	226.695
1359.46	127.543
1363.06	355.75
1366.65	323.597
1370.25	318.787
1373.84	237.426
1377.43	335.284
1381.02	138.202
1384.6	241.623
1388.18	241.813
1391.77	278.749
1395.35	380.883
1398.93	326.359
1402.51	137.77
1406.08	281.831
1409.66	124.945
1413.23	187.304
1416.8	205.729
1420.37	95.776
1423.94	338.042
1427.51	342.261
1431.08	335.707
1434.64	340.774
1438.2	487.436
1441.76	491.502
1445.32	393.568
1448.88	484.195
1452.43	366.885
1455.99	392.389
1459.54	593.627
1463.09	570.613
1466.64	465.767
1470.19	266.637
1473.74	352.513
1477.28	385.533
1480.83	328.282
1484.37	140.562
1487.91	271.403
1491.45	317.241
1494.98	370.571
1498.52	260.024
1502.05	80.805
1505.59	89.225
1509.12	0.167
1512.65	115.487
1516.17	189.91
1519.7	14.627
1523.23	0
