Measurement: Raman, 514 nm, ccw, Raman Data Processed
Mineral: Bikitaite
Rruff sample: R050160
Ideal chemistry: LiAlSi_2_O_6_H_2_O
Locality: Foote mine, Kings Mountain, Cleveland County, North Carolina, USA
Source: Jim McGlasson
Description: Colorless prismatic crystals
Measured chemistry: Li_1.00_Si_2.00_O_6_Â·1.25H_2_O ; Li not measured but estimated by stoichiometry
Pin_id: M00456
Orientation: Laser parallel to a* (1 0 0). Fiducial mark perpendicular to laser is parallel to b [0 1 0]
Raman shift (cm-1)	intensity
94.071	0
98.251	166.337
102.428	2172.17
106.604	5672.66
110.777	9750.42
114.949	11068.9
119.119	8094.8
123.286	4574.23
127.452	1939.46
131.615	495.897
135.777	620.017
139.937	2294.46
144.094	4165.87
148.25	4986.76
152.403	5281.8
156.555	5387.97
160.705	4662.39
164.853	3763.42
168.998	2683.87
173.142	990.482
177.284	246.185
181.424	100.865
185.562	242.148
189.698	66.004
193.831	387.546
197.963	2320.99
202.093	4477.1
206.221	4408.43
210.347	2391.73
214.472	1742.86
218.594	2892.49
222.714	2049.75
226.832	877.457
230.948	11.835
235.063	224.375
239.175	127.746
243.286	915.45
247.394	2543.13
251.501	3739.49
255.605	3636.38
259.708	2055.55
263.808	316.404
267.907	384.848
272.004	82.638
276.099	8.677
280.192	103.28
284.283	1203.64
288.372	2942.89
292.459	2671.16
296.544	1633.05
300.627	527.564
304.709	282.24
308.788	931.682
312.865	2014.61
316.941	2788.15
321.015	2841.35
325.086	2743.28
329.156	2112.99
333.224	665.31
337.29	404.201
341.354	993.187
345.416	2016.22
349.476	2144.36
353.534	1806.4
357.591	1023.07
361.645	1044.27
365.698	1879.98
369.748	3402.19
373.797	6494.84
377.844	10811.9
381.889	14294.4
385.932	16002.3
389.973	17596.6
394.012	19850.9
398.049	19628.5
402.084	13340.4
406.118	7792.68
410.15	4978.4
414.179	3936.7
418.207	3436.3
422.233	3105.46
426.257	2519.03
430.279	2078.74
434.299	1383.11
438.318	1307.88
442.334	1164.94
446.349	1425.67
450.361	1928.42
454.372	2970.48
458.381	3715.2
462.388	3401.11
466.394	3415.32
470.397	4641.33
474.398	6422.15
478.398	9103.61
482.396	11703.6
486.391	17192.4
490.385	27487.2
494.377	38032.9
498.368	40276.7
502.356	31795.2
506.342	19759.2
510.327	12186.9
514.31	7919.96
518.291	4963.32
522.27	3232.25
526.247	2533.09
530.222	1903.82
534.196	1829.45
538.167	2184.94
542.137	1952.29
546.105	1292.49
550.071	799.524
554.035	567.389
557.998	333.536
561.958	240.066
565.917	57.602
569.874	77.226
573.829	93.559
577.782	128.727
581.733	128.11
585.683	106.656
589.63	10.078
593.576	108.626
597.52	56.044
601.462	57.052
605.402	43.509
609.341	67.026
613.277	86.452
617.212	39.065
621.145	36.366
625.076	218.595
629.006	11.251
632.933	39.986
636.859	3.27
640.783	127.382
644.705	101.722
648.625	71.383
652.543	1.587
656.46	75.164
660.375	11.944
664.288	126.636
668.199	52.556
672.108	279.125
676.016	473.213
679.921	546.029
683.825	606.261
687.727	540.068
691.628	579.429
695.526	361.326
699.423	901.76
703.318	947.729
707.211	834.234
711.102	587.272
714.992	616.867
718.879	500.968
722.765	543.755
726.649	414.27
730.532	261.933
734.412	436.891
738.291	528.5
742.168	988.55
746.043	1472.38
749.916	2554.6
753.788	4640.2
757.658	7049.09
761.526	8566.78
765.392	8378.84
769.257	6816.18
773.119	4527.5
776.98	3078.85
780.839	2357.12
784.697	1617.13
788.552	1387.27
792.406	1018.58
796.258	767.62
800.108	747.817
803.957	461.509
807.804	227.203
811.649	208.305
815.492	141.265
819.333	126.348
823.173	116.239
827.011	80.139
830.847	13.076
834.681	85.076
838.514	110.047
842.345	134.748
846.174	165.359
850.001	162.803
853.827	152.085
857.651	312.217
861.473	126.207
865.293	18.06
869.112	150.188
872.928	11.871
876.744	20.928
880.557	50.38
884.369	5.281
888.178	3.417
891.987	64.029
895.793	11.63
899.598	20.546
903.401	14.838
907.202	11.025
911.001	168.025
914.799	41.292
918.595	42.005
922.389	27.697
926.182	73.548
929.972	40.823
933.761	129.298
937.549	171.805
941.334	40.52
945.118	205.505
948.9	375.925
952.681	730.65
956.459	1579.48
960.236	3680.41
964.012	4358.58
967.785	2401.13
971.557	1145.04
975.327	933.905
979.095	380.187
982.862	47.617
986.627	211.712
990.39	41.784
994.152	113.451
997.912	387.888
1001.67	371.536
1005.43	314.26
1009.18	79.209
1012.93	66.229
1016.68	150.326
1020.43	215.496
1024.18	275.559
1027.93	93.357
1031.67	442.737
1035.42	373.136
1039.16	599.675
1042.9	704.588
1046.63	338.793
1050.37	123.057
1054.11	280.895
1057.84	451.166
1061.57	410.471
1065.3	434.306
1069.03	426.771
1072.75	800.516
1076.47	1208.45
1080.2	1958.95
1083.92	3389.51
1087.64	4586.84
1091.36	4992.5
1095.07	3851.01
1098.79	2845.97
1102.5	3304.76
1106.21	3130.54
1109.92	2451.86
1113.62	1597.13
1117.33	1454.8
1121.04	1539.33
1124.74	1928.26
1128.44	1801.1
1132.14	1320.41
1135.83	665.47
1139.53	721.322
1143.22	511.728
1146.92	673.808
1150.61	1178.02
1154.3	1324.92
1157.98	1527.65
1161.67	1480.05
1165.35	1236.88
1169.04	817.914
1172.72	734.909
1176.4	442.658
1180.07	148.286
1183.75	199.654
1187.42	63.479
1191.1	22.766
1194.77	127.191
1198.44	7.074
1202.1	161.004
1205.77	47.369
1209.43	67.28
1213.1	104.803
1216.76	55.896
1220.42	3.607
1224.07	22.073
1227.73	7.931
1231.38	40.635
1235.04	23.942
1238.69	69.304
1242.34	21.882
1245.99	37.247
1249.63	121.294
1253.28	178.947
1256.92	39.929
1260.56	121.911
1264.2	73.664
1267.84	121.768
1271.48	200.86
1275.11	105.09
1278.74	63.203
1282.38	27.835
1286.01	23.131
1289.63	9.949
1293.26	75.47
1296.89	90.477
1300.51	50.105
1304.13	85.294
1307.75	63.161
1311.37	49.709
1314.99	84.976
1318.6	43.944
1322.22	45.605
1325.83	286.968
1329.44	6.045
1333.05	192.606
1336.66	102.637
1340.26	149.737
1343.87	68.342
1347.47	116.694
1351.07	82.268
1354.67	114.095
1358.27	2.425
1361.86	28.369
1365.46	51.512
1369.05	125.762
1372.64	89.668
1376.23	109.975
1379.82	223.757
1383.41	244.292
1386.99	343.947
1390.57	341.864
1394.16	205.13
1397.74	79.488
1401.32	225.297
1404.89	163.006
1408.47	324.974
1412.04	319.582
1415.61	102.909
1419.18	298.503
1422.75	124.364
1426.32	207.189
1429.89	661.213
1433.45	212.911
1437.01	256.507
1440.58	471.053
1444.13	586.896
1447.69	680.466
1451.25	763.826
1454.81	843.098
1458.36	670.52
1461.91	786.771
1465.46	554.928
1469.01	661.986
1472.56	546.121
1476.1	726.861
1479.64	260.778
1483.19	585.699
1486.73	334.531
1490.27	646.25
1493.81	187.066
1497.34	187.604
1500.88	292.241
1504.41	24.277
1507.94	127.296
1511.47	85.414
1515	209.664
1518.53	229.454
1522.05	0.028
