Measurement: Raman, 514 nm, ccw, Raman Data Processed
Mineral: Bikitaite
Rruff sample: R050160
Ideal chemistry: LiAlSi_2_O_6_H_2_O
Locality: Foote mine, Kings Mountain, Cleveland County, North Carolina, USA
Source: Jim McGlasson
Description: Colorless prismatic crystals
Measured chemistry: Li_1.00_Si_2.00_O_6_Â·1.25H_2_O ; Li not measured but estimated by stoichiometry
Pin_id: M00081
Orientation: Laser parallel to (-1 -1 0). Fiducial mark perpendicular to laser is parallel to -c [0 0 -1]
Raman shift (cm-1)	intensity
74.54	0
78.729	2733.16
82.916	10211.9
87.101	9280.34
91.284	1130.46
95.465	1020.12
99.644	3409.61
103.82	7240
107.995	13295.9
112.168	19336.6
116.339	17726.4
120.508	8984.86
124.675	3640.87
128.84	1417.42
133.003	1082.94
137.164	539.029
141.323	598.184
145.48	828.159
149.635	1474.48
153.788	2542.1
157.939	3372.14
162.088	3054.02
166.235	2092.91
170.38	1261.15
174.523	555.579
178.664	254.151
182.803	34.793
186.94	258.981
191.076	342.49
195.209	428.136
199.34	1205.91
203.47	2807.68
207.597	2375.97
211.722	649.603
215.846	803.803
219.967	1135.32
224.087	523.1
228.204	346.41
232.32	11.101
236.434	70.308
240.545	438.749
244.655	415.393
248.763	1857.08
252.869	2633.3
256.973	2408.36
261.075	954.935
265.175	139.162
269.273	209.015
273.369	183.831
277.463	100.474
281.556	68.865
285.646	1271.11
289.734	2242.83
293.821	2315.19
297.905	3016.38
301.988	2479.61
306.069	1162.6
310.147	1180.73
314.224	1871.19
318.299	2659.19
322.372	4515.93
326.443	5724.55
330.512	3265.03
334.579	1471.08
338.645	1236.9
342.708	1755.55
346.769	2212.99
350.829	2096.79
354.887	1644.98
358.942	1257.53
362.996	1652.29
367.048	2739.9
371.098	4801.26
375.146	8120.36
379.192	12679.3
383.236	16260.1
387.279	17054.9
391.319	17946.2
395.358	21099.6
399.394	18484.9
403.429	11941.9
407.462	8622.18
411.493	7099.05
415.522	6000.39
419.549	4805.93
423.575	3492.63
427.598	2386.58
431.619	1426.98
435.639	1188.79
439.657	844.502
443.673	614.782
447.687	460.765
451.699	356.204
455.709	756.496
459.717	1064.34
463.724	2355
467.728	4119.22
471.731	6621.28
475.732	10321.4
479.731	12285.5
483.728	13573.1
487.723	18325
491.716	27121.3
495.708	34457.2
499.697	31731.4
503.685	22577.1
507.671	14519
511.655	9289.17
515.637	6106.59
519.617	4405.29
523.596	3170.17
527.572	2269.63
531.547	2014.81
535.52	1963.69
539.491	2196.26
543.46	1755.53
547.427	1068.49
551.393	535.28
555.356	290.014
559.318	250.972
563.278	10.911
567.236	87.063
571.192	76.573
575.147	23.519
579.099	48.755
583.05	147.413
586.999	54.442
590.946	125.329
594.891	46.498
598.834	45.96
602.776	78.808
606.715	43.099
610.653	60.164
614.589	39.884
618.523	47.703
622.456	116.997
626.386	217.848
630.315	111.4
634.242	9.66
638.167	181.142
642.09	18.405
646.012	14.103
649.931	192.306
653.849	13.451
657.765	18.401
661.679	12.18
665.592	179.585
669.502	41.604
673.411	122.381
677.318	225.97
681.223	394.214
685.126	662.75
689.028	941.328
692.927	1023.57
696.825	992.501
700.721	719.115
704.616	630.432
708.508	614.453
712.399	487.15
716.288	251.536
720.175	227.12
724.06	204.935
727.944	224.497
731.825	412.21
735.705	367.724
739.584	599.263
743.46	726.039
747.334	1573.98
751.207	2570.47
755.078	4324.73
758.947	6392.83
762.815	7405.55
766.68	6486.53
770.544	4648.91
774.406	3069.67
778.267	2210.44
782.125	1467.34
785.982	1083.6
789.837	751.862
793.69	496.717
797.542	454.202
801.391	222.185
805.239	187.511
809.085	297.221
812.93	20.058
816.772	155.209
820.613	28.758
824.452	15.334
828.29	23.514
832.125	58.876
835.959	78.779
839.791	65.518
843.621	238.086
847.45	226.033
851.277	54.336
855.102	158.962
858.925	416.323
862.746	360.903
866.566	318.277
870.384	82.654
874.2	149.199
878.015	18.597
881.828	64.242
885.639	187.011
889.448	30.66
893.256	136.136
897.061	75.899
900.865	165.455
904.668	28.03
908.468	124.682
912.267	10.538
916.064	12.194
919.86	24.426
923.653	9.344
927.445	23.14
931.236	21.153
935.024	0.052
938.811	2.622
942.596	10.918
946.379	67.097
950.161	327.481
953.94	971.002
957.719	2088.57
961.495	2754.92
965.27	2262
969.043	3733.05
972.814	4404.79
976.583	2478.86
980.351	931.177
984.117	224.557
987.882	154.986
991.644	387.837
995.405	284.373
999.165	186.934
1002.92	21.744
1006.68	34.893
1010.43	17.495
1014.18	19.607
1017.93	21.096
1021.68	362.032
1025.43	23.2
1029.18	16.407
1032.92	13.233
1036.66	37.06
1040.4	26.093
1044.14	2.906
1047.88	119.02
1051.62	351.395
1055.35	360.488
1059.08	681.943
1062.81	1014.69
1066.54	1117.18
1070.27	1235.39
1073.99	1452.11
1077.72	1783.7
1081.44	2912.56
1085.16	3930.93
1088.88	4306.44
1092.59	3403.57
1096.31	2544.62
1100.02	2287.97
1103.73	2392.01
1107.44	2112.19
1111.15	1386.69
1114.86	1114.37
1118.57	1078.38
1122.27	1058.07
1125.97	871.602
1129.67	531.206
1133.37	461.63
1137.07	263.982
1140.76	409.681
1144.45	377.56
1148.15	462.833
1151.84	429.55
1155.53	619.849
1159.21	637.49
1162.9	1174.68
1166.58	1119.95
1170.26	1064.44
1173.94	676.239
1177.62	606.492
1181.3	401.13
1184.97	271.229
1188.65	54.471
1192.32	116.903
1195.99	42.521
1199.66	44.13
1203.33	10.375
1206.99	81.659
1210.65	116.225
1214.32	10.177
1217.98	32.164
1221.64	108.201
1225.29	21.194
1228.95	11.581
1232.6	17.382
1236.26	137.033
1239.91	246.58
1243.56	83.955
1247.2	58.134
1250.85	28.333
1254.49	53.127
1258.13	34.779
1261.78	127.199
1265.41	178.548
1269.05	247.75
1272.69	125.813
1276.32	322.54
1279.95	203.117
1283.59	178.53
1287.21	116.503
1290.84	256.977
1294.47	222.09
1298.09	334.9
1301.72	102.323
1305.34	65.471
1308.96	215.393
1312.58	389.145
1316.19	166.727
1319.81	373.052
1323.42	271.143
1327.03	59.033
1330.64	34.276
1334.25	7.144
1337.86	44.386
1341.46	26.745
1345.07	33.303
1348.67	73.13
1352.27	19.728
1355.87	98.082
1359.46	120.64
1363.06	112.758
1366.65	79.365
1370.25	124.982
1373.84	92.203
1377.43	138.594
1381.02	139.471
1384.6	118.478
1388.18	87.053
1391.77	34.899
1395.35	178.674
1398.93	156.334
1402.51	33.01
1406.08	104.925
1409.66	33.845
1413.23	65.491
1416.8	123.888
1420.37	175.265
1423.94	350.761
1427.51	179.455
1431.08	347.199
1434.64	400.159
1438.2	593.889
1441.76	762.75
1445.32	1001.33
1448.88	1143.54
1452.43	1071.71
1455.99	1348.52
1459.54	1329.13
1463.09	1250.08
1466.64	1071.33
1470.19	652.604
1473.74	511.593
1477.28	609.036
1480.83	550.338
1484.37	406.856
1487.91	465.11
1491.45	263.928
1494.98	290.267
1498.52	266.167
1502.05	67.206
1505.59	1.981
1509.12	26.061
1512.65	20.304
1516.17	23.051
