Measurement: Raman, 514 nm, ccw, Raman Data Processed
Mineral: Bikitaite
Rruff sample: R050160
Ideal chemistry: LiAlSi_2_O_6_H_2_O
Locality: Foote mine, Kings Mountain, Cleveland County, North Carolina, USA
Source: Jim McGlasson
Description: Colorless prismatic crystals
Measured chemistry: Li_1.00_Si_2.00_O_6_Â·1.25H_2_O ; Li not measured but estimated by stoichiometry
Pin_id: M00456
Orientation: Laser parallel to a* (1 0 0). Fiducial mark perpendicular to laser is parallel to b [0 1 0]
Raman shift (cm-1)	intensity
88.496	0
92.678	2015.82
96.858	6772.07
101.036	10913.3
105.212	15188.5
109.387	19748.9
113.559	22583.2
117.729	16378.3
121.897	8027.35
126.063	3135.1
130.228	707.834
134.39	1838.02
138.55	5711.89
142.709	8606.93
146.865	10552.7
151.019	10061.5
155.171	8919.13
159.322	7004.65
163.47	4063.88
167.617	1831.05
171.761	570.314
175.904	365.437
180.044	1083.28
184.183	851.851
188.319	473.178
192.454	577.062
196.586	3795.19
200.717	7575.1
204.846	9709.51
208.972	6819.44
213.097	4068.92
217.22	4355.37
221.341	5438.62
225.46	4663.99
229.577	3401.63
233.692	2377.5
237.805	2117.5
241.916	2515.53
246.025	2938.54
250.132	3927.44
254.237	5069.15
258.34	5389.35
262.442	3549.33
266.541	1639.32
270.639	267.133
274.734	331.684
278.828	384.711
282.919	220.322
287.009	1313.61
291.097	2769.67
295.183	3196.18
299.266	2635.39
303.348	2297.32
307.428	1439.15
311.507	1508.03
315.583	1740.09
319.657	1244.47
323.729	705.227
327.8	299.144
331.868	479.019
335.935	1482.74
339.999	3508.82
344.062	5472.93
348.123	6670.1
352.182	6332.37
356.239	5457.15
360.294	5151.16
364.347	5982.82
368.398	8654.1
372.448	13678
376.495	21782.5
380.54	30640.5
384.584	33998.3
388.626	32088.8
392.666	32028.2
396.704	32791.2
400.74	28232
404.774	20978.5
408.806	15492.6
412.836	11781.3
416.865	9157.6
420.891	7262.29
424.916	5928.94
428.939	5295.61
432.959	4809.57
436.978	4617.33
440.996	4197.97
445.011	2956.46
449.024	2605.75
453.036	2682.48
457.045	3277.49
461.053	4041.39
465.059	4913.61
469.063	6999.82
473.065	11471.4
477.065	17050.8
481.063	20052.7
485.06	19795.2
489.054	23178.9
493.047	30223.8
497.038	34220.5
501.027	28959.8
505.014	19343.3
508.999	11822.4
512.982	7868.03
516.964	5556.7
520.944	4256.54
524.921	3602.49
528.897	3673.53
532.871	4544.6
536.844	5562.71
540.814	5270.84
544.783	3712.97
548.749	2725.06
552.714	1551.1
556.677	1190.06
560.638	1048.92
564.597	820.667
568.555	644.284
572.511	579.753
576.464	378.052
580.416	90.168
584.366	140.088
588.315	51.571
592.261	73.516
596.206	113.907
600.148	212.662
604.089	246.399
608.028	11.086
611.965	110.967
615.901	155.041
619.834	63.527
623.766	100.582
627.696	135.558
631.624	149.706
635.551	238.508
639.475	2.898
643.398	2.956
647.318	45.732
651.237	59.551
655.155	202.749
659.07	84.164
662.984	115.513
666.895	363.857
670.805	423.359
674.713	869.491
678.62	1555.69
682.524	2388.36
686.427	2470.87
690.328	1780.07
694.227	1547.45
698.124	1651.35
702.02	2008.37
705.913	1770.27
709.805	1750.59
713.695	1574.37
717.584	1689.52
721.47	1545.41
725.355	1496.38
729.238	1445.77
733.119	980.551
736.998	558.739
740.876	472.336
744.752	382.495
748.626	357.788
752.498	352.444
756.368	380.673
760.237	440.487
764.104	224.967
767.969	163.339
771.832	162.308
775.693	161.818
779.553	123.883
783.411	238.737
787.267	276.777
791.122	203.029
794.974	53.9
798.825	19.846
802.674	16.422
806.522	34.028
810.367	28.279
814.211	24.621
818.053	15.095
821.893	77.455
825.732	188.026
829.568	2.467
833.403	111.624
837.236	4.313
841.068	211.617
844.898	59.615
848.726	7.266
852.552	206.582
856.376	231.59
860.199	168.322
864.02	316.799
867.839	142.031
871.656	165.026
875.472	132.793
879.286	29.341
883.098	283.686
886.909	94.837
890.717	417.807
894.524	225.609
898.33	230.361
902.133	242.146
905.935	302.721
909.735	263.646
913.533	287.872
917.33	324.675
921.124	249.322
924.918	233.734
928.709	273.598
932.499	410.341
936.286	329.655
940.073	719.591
943.857	837.161
947.64	1220.05
951.421	2450.97
955.2	6173.15
958.978	11668.6
962.753	14761.7
966.527	15624.9
970.3	13472.3
974.071	7116.15
977.84	3979.98
981.607	2078.67
985.372	1381.44
989.136	1367.11
992.898	1709.51
996.659	2883.15
1000.42	4336.15
1004.17	3205.72
1007.93	1784.34
1011.68	1370.59
1015.43	1607.94
1019.18	2050.38
1022.93	1606.98
1026.68	1430.38
1030.42	1626.2
1034.17	2411.15
1037.91	4027.41
1041.65	3557.84
1045.39	1975.06
1049.12	1138.51
1052.86	585.732
1056.59	509.78
1060.33	298.395
1064.06	366.971
1067.78	365.937
1071.51	375.939
1075.23	589.407
1078.96	989.112
1082.68	1426.37
1086.4	2240.87
1090.12	2545.2
1093.83	1957.38
1097.55	1338.42
1101.26	713.69
1104.97	554.117
1108.68	316.295
1112.39	388.11
1116.1	111.742
1119.8	213.345
1123.5	206.526
1127.2	280.805
1130.9	75.009
1134.6	127.009
1138.3	340.085
1141.99	82.404
1145.69	121.609
1149.38	301.857
1153.07	537.815
1156.76	712.175
1160.44	885.455
1164.13	917.906
1167.81	782.872
1171.49	459.731
1175.17	285.989
1178.85	301.124
1182.52	161.012
1186.2	100.243
1189.87	130.55
1193.54	126.055
1197.21	46.082
1200.88	72.452
1204.55	155.064
1208.21	70.363
1211.88	9.604
1215.54	87.125
1219.2	26.663
1222.86	63.21
1226.51	100.688
1230.17	72.788
1233.82	33.627
1237.47	88.562
1241.12	75.461
1244.77	33.227
1248.42	115.438
1252.06	156.338
1255.71	21.079
1259.35	22.55
1262.99	111.649
1266.63	72.066
1270.26	136.152
1273.9	142.207
1277.53	27.247
1281.16	96.916
1284.8	19.885
1288.42	23.415
1292.05	27.805
1295.68	45.84
1299.3	60.126
1302.92	122
1306.55	154.568
1310.16	138.853
1313.78	103.821
1317.4	296.481
1321.01	102.841
1324.62	102.912
1328.24	200.707
1331.85	98.025
1335.45	19.013
1339.06	37.048
1342.66	265.595
1346.27	110.666
1349.87	92.377
1353.47	287.467
1357.07	217.016
1360.66	289.75
1364.26	77.955
1367.85	78.887
1371.44	212.996
1375.04	181.828
1378.62	103.812
1382.21	196.234
1385.8	110.727
1389.38	302.068
1392.96	267.695
1396.54	222.668
1400.12	342.488
1403.7	180.16
1407.28	65.867
1410.85	264.549
1414.42	269.938
1417.99	256.586
1421.56	367.625
1425.13	254.746
1428.7	365.65
1432.26	418.818
1435.83	401.635
1439.39	532.287
1442.95	582.477
1446.51	700.445
1450.06	690.68
1453.62	836.332
1457.17	868.877
1460.73	890.316
1464.28	546.943
1467.83	482.945
1471.37	510.18
1474.92	346.963
1478.46	397.654
1482.01	352.844
1485.55	324.291
1489.09	254.367
1492.63	222.012
1496.16	351.467
1499.7	103.021
1503.23	214.016
1506.76	263.77
1510.29	172.777
1513.82	194.617
1517.35	30.959
1520.88	42.979
