Measurement: Raman, 514 nm, ccw, Raman Data Processed
Mineral: Bikitaite
Rruff sample: R050160
Ideal chemistry: LiAlSi_2_O_6_H_2_O
Locality: Foote mine, Kings Mountain, Cleveland County, North Carolina, USA
Source: Jim McGlasson
Description: Colorless prismatic crystals
Measured chemistry: Li_1.00_Si_2.00_O_6_Â·1.25H_2_O ; Li not measured but estimated by stoichiometry
Pin_id: M00081
Orientation: Laser parallel to (-1 -1 0). Fiducial mark perpendicular to laser is parallel to -c [0 0 -1]
Raman shift (cm-1)	intensity
73.144	0
77.333	1190.57
81.521	8589.98
85.706	15187.3
89.89	4502.89
94.071	1728.15
98.251	3443.1
102.428	7779.38
106.604	12321.4
110.777	18556.3
114.949	21487.3
119.119	13918
123.286	6490.15
127.452	3129.38
131.615	1703.72
135.777	1231.75
139.937	1002.43
144.094	1179.15
148.25	1732.59
152.403	2622.09
156.555	3857.73
160.705	3748.66
164.853	2893.34
168.998	2069.28
173.142	1141.37
177.284	190.363
181.424	553.066
185.562	116.121
189.698	107.579
193.831	212.436
197.963	496.368
202.093	2767.68
206.221	3201.26
210.347	1607.93
214.472	1053.73
218.594	1774.29
222.714	1547.9
226.832	118.693
230.948	275.861
235.063	89.332
239.175	356.961
243.286	116.508
247.394	1193.85
251.501	2558.23
255.605	2918.99
259.708	1604.72
263.808	68.049
267.907	246.35
272.004	154.42
276.099	48.649
280.192	319.172
284.283	544.662
288.372	1806.19
292.459	2534.49
296.544	2832.55
300.627	3071.53
304.709	1548.3
308.788	997.766
312.865	1412.94
316.941	2079.3
321.015	3235.59
325.086	5174.43
329.156	4208.7
333.224	1642.1
337.29	972.468
341.354	1341.85
345.416	2074.53
349.476	2197.85
353.534	1921.79
357.591	1404.5
361.645	1513.72
365.698	2428.24
369.748	4152.78
373.797	7374.32
377.844	12300.9
381.889	16714.7
385.932	18467.5
389.973	18847.6
394.012	20807.9
398.049	21253.9
402.084	15246.8
406.118	10721.7
410.15	8298.57
414.179	7248.4
418.207	6023.11
422.233	4365.24
426.257	2937.88
430.279	1982.52
434.299	1499.98
438.318	1384.97
442.334	1009.46
446.349	639.259
450.361	501.72
454.372	465.565
458.381	860.716
462.388	1740.35
466.394	3454.38
470.397	5814.14
474.398	8937.16
478.398	12072.3
482.396	13451.4
486.391	16704.4
490.385	24826.9
494.377	34117.7
498.368	35941.3
502.356	28239.5
506.342	18110.5
510.327	11602.3
514.31	7675.44
518.291	5093.45
522.27	3477.36
526.247	2720.05
530.222	2180.5
534.196	1947.72
538.167	2237.69
542.137	2110.41
546.105	1278.86
550.071	674.042
554.035	471.553
557.998	222.241
561.958	99.119
565.917	47.869
569.874	53.823
573.829	22.895
577.782	23.357
581.733	24.304
585.683	59.24
589.63	8.864
593.576	71.732
597.52	57.508
601.462	51.06
605.402	77.454
609.341	61.511
613.277	11.369
617.212	44.618
621.145	8.471
625.076	128.149
629.006	38.547
632.933	142.23
636.859	94.972
640.783	162.022
644.705	29.873
648.625	61.058
652.543	34.097
656.46	27.63
660.375	69.304
664.288	26.99
668.199	38.467
672.108	189.452
676.016	362.199
679.921	578.557
683.825	724.404
687.727	1016.12
691.628	1338.4
695.526	1052.29
699.423	1225.43
703.318	930.158
707.211	679.494
711.102	560.421
714.992	626.122
718.879	319.144
722.765	395.181
726.649	398.422
730.532	400.471
734.412	551.902
738.291	605.075
742.168	914.524
746.043	1378.9
749.916	2186.12
753.788	4000.44
757.658	6259.94
761.526	7676.34
765.392	7505.36
769.257	5908.26
773.119	3960.59
776.98	2713.46
780.839	2077.98
784.697	1488.48
788.552	1180.79
792.406	723.908
796.258	540.02
800.108	503.636
803.957	221.282
807.804	58.944
811.649	128.066
815.492	15.624
819.333	81.404
823.173	64.752
827.011	106.509
830.847	90.98
834.681	112.458
838.514	12.712
842.345	18.585
846.174	64.664
850.001	58.526
853.827	91.179
857.651	227.429
861.473	209.653
865.293	85.737
869.112	68.631
872.928	0.956
876.744	6.901
880.557	44.938
884.369	44.584
888.178	13.497
891.987	1.851
895.793	165.069
899.598	7.884
903.401	17.587
907.202	22.747
911.001	66.896
914.799	51.5
918.595	29.337
922.389	20.735
926.182	29.342
929.972	10.718
933.761	114.381
937.549	198.135
941.334	90.204
945.118	248.733
948.9	495.845
952.681	892.347
956.459	2461.13
960.236	4539.76
964.012	3188.93
967.785	3283.94
971.557	4662.56
975.327	3588.35
979.095	1542.73
982.862	622.137
986.627	185.545
990.39	315.778
994.152	347.241
997.912	351.828
1001.67	96.252
1005.43	117.034
1009.18	67.933
1012.93	22.811
1016.68	108.721
1020.43	160.458
1024.18	118.083
1027.93	11.892
1031.67	48.553
1035.42	3.932
1039.16	40.451
1042.9	101.373
1046.63	155.575
1050.37	93.679
1054.11	315.975
1057.84	500.139
1061.57	781.674
1065.3	850.119
1069.03	1041.88
1072.75	1089.4
1076.47	1579.14
1080.2	2374.34
1083.92	3974.85
1087.64	5082.36
1091.36	4430.13
1095.07	3320.23
1098.79	2572.72
1102.5	2889.92
1106.21	2617.66
1109.92	1861.12
1113.62	1281.58
1117.33	1283.22
1121.04	1422.14
1124.74	936.099
1128.44	570.562
1132.14	417.175
1135.83	216.821
1139.53	210.331
1143.22	384.132
1146.92	507.624
1150.61	461.467
1154.3	563.302
1157.98	782.005
1161.67	1070.68
1165.35	1318.73
1169.04	1129.25
1172.72	1053.64
1176.4	620.915
1180.07	310.184
1183.75	320.047
1187.42	143.906
1191.1	29.361
1194.77	128.613
1198.44	26.75
1202.1	114.816
1205.77	94.672
1209.43	7.652
1213.1	27.719
1216.76	17.742
1220.42	63.032
1224.07	14.832
1227.73	38.201
1231.38	127.199
1235.04	3.083
1238.69	30.846
1242.34	21.17
1245.99	40.243
1249.63	87.812
1253.28	59.076
1256.92	21.119
1260.56	50.84
1264.2	3.841
1267.84	64.598
1271.48	9.677
1275.11	12.854
1278.74	92.214
1282.38	59.369
1286.01	45.055
1289.63	53.13
1293.26	160.931
1296.89	72.47
1300.51	92.674
1304.13	44.612
1307.75	25.358
1311.37	133.875
1314.99	96.187
1318.6	166.301
1322.22	187.23
1325.83	107.966
1329.44	41.55
1333.05	117.968
1336.66	24.735
1340.26	37.231
1343.87	93.007
1347.47	65.346
1351.07	2.564
1354.67	20.139
1358.27	39.032
1361.86	8.412
1365.46	12.047
1369.05	69.593
1372.64	88.369
1376.23	138.12
1379.82	34.622
1383.41	134.528
1386.99	191.117
1390.57	187.014
1394.16	119.632
1397.74	78.51
1401.32	135.487
1404.89	12.258
1408.47	148.084
1412.04	180.975
1415.61	40.355
1419.18	140.947
1422.75	175.343
1426.32	138.962
1429.89	186.157
1433.45	167.507
1437.01	263.526
1440.58	537.094
1444.13	720.438
1447.69	859.515
1451.25	772.375
1454.81	863.115
1458.36	802.768
1461.91	804.185
1465.46	679.513
1469.01	578.938
1472.56	554.903
1476.1	487.808
1479.64	346.357
1483.19	513.416
1486.73	359.909
1490.27	338.164
1493.81	97.975
1497.34	224.494
1500.88	63.412
1504.41	4.59
1507.94	52.147
1511.47	5.422
1515	196.169
