Measurement: Raman, 514 nm, ccw, Raman Data Processed
Mineral: Bikitaite
Rruff sample: R050160
Ideal chemistry: LiAlSi_2_O_6_H_2_O
Locality: Foote mine, Kings Mountain, Cleveland County, North Carolina, USA
Source: Jim McGlasson
Description: Colorless prismatic crystals
Measured chemistry: Li_1.00_Si_2.00_O_6_Â·1.25H_2_O ; Li not measured but estimated by stoichiometry
Pin_id: M00374
Orientation: Laser parallel to c* (0 0 1). Fiducial mark perpendicular to laser is parallel to a [1 0 0]
Raman shift (cm-1)	intensity
80.125	0
84.311	891.072
88.496	1380.26
92.678	2085.62
96.858	2928.51
101.036	3741.21
105.212	3714.39
109.387	2646.49
113.559	1965.37
117.729	1872.26
121.897	823.574
126.063	85.84
130.228	203.891
134.39	727.516
138.55	1514.23
142.709	3187.81
146.865	3982.56
151.019	3905.1
155.171	4248.62
159.322	5116.48
163.47	4950.97
167.617	3424.57
171.761	1616.61
175.904	398.988
180.044	34.098
184.183	329.559
188.319	17.438
192.454	890.148
196.586	2672.18
200.717	5435.5
204.846	5413.86
208.972	3324.62
213.097	3205.68
217.22	4366.75
221.341	4454.92
225.46	2270.39
229.577	991.09
233.692	673.994
237.805	860.084
241.916	1226.4
246.025	2207.96
250.132	3677.07
254.237	3510.91
258.34	2508.26
262.442	1205.24
266.541	339.951
270.639	331.367
274.734	279.799
278.828	174.438
282.919	148.855
287.009	630.615
291.097	1072.94
295.183	1778.3
299.266	2126.67
303.348	1230.59
307.428	653.314
311.507	191.785
315.583	65.918
319.657	14.516
323.729	58.352
327.8	538.865
331.868	126.139
335.935	653.174
339.999	1170.79
344.062	1961.38
348.123	2133.62
352.182	2666.21
356.239	2689.74
360.294	3288.95
364.347	4493.85
368.398	6686.95
372.448	10740.8
376.495	16775.6
380.54	22581.4
384.584	25544.2
388.626	26024.9
392.666	25195.6
396.704	22285.5
400.74	15106.4
404.774	9552.3
408.806	6202.84
412.836	4905.96
416.865	4090.73
420.891	3307.53
424.916	2668.35
428.939	2603.43
432.959	2662.66
436.978	3447.21
440.996	5066.55
445.011	7643.75
449.024	8901.59
453.036	6869.32
457.045	4717.91
461.053	3897.94
465.059	3723.7
469.063	4247.19
473.065	5288.4
477.065	7600.44
481.063	12365.7
485.06	19990.7
489.054	26148
493.047	23450.4
497.038	17189
501.027	13030.7
505.014	9169.23
508.999	6605.67
512.982	5138.5
516.964	3721.52
520.944	2814.48
524.921	2486.48
528.897	2259.34
532.871	1840.79
536.844	2044.2
540.814	2124.3
544.783	1109.08
548.749	659.539
552.714	357.676
556.677	25.465
560.638	183.83
564.597	120.857
568.555	217.934
572.511	42.184
576.464	59.125
580.416	77.973
584.366	401.48
588.315	536.285
592.261	410.988
596.206	674.92
600.148	612.756
604.089	569.088
608.028	439.559
611.965	345.164
615.901	1081.51
619.834	2043.37
623.766	3370.89
627.696	1862.94
631.624	1184.59
635.551	1072.07
639.475	1035.55
643.398	2119.06
647.318	2340.13
651.237	1449.5
655.155	1117
659.07	461.174
662.984	3.945
666.895	269.035
670.805	71.199
674.713	6.215
678.62	76.809
682.524	39.076
686.427	154.418
690.328	739.314
694.227	578.816
698.124	1640.95
702.02	1744.7
705.913	1285.1
709.805	1123.12
713.695	1329.94
717.584	326.971
721.47	542.383
725.355	205.805
729.238	371.312
733.119	66.459
736.998	9.828
740.876	313.51
744.752	56.146
748.626	252.068
752.498	114.969
756.368	72.312
760.237	107.234
764.104	473.852
767.969	887.785
771.832	489.09
775.693	52.145
779.553	710.906
783.411	382.414
787.267	510.664
791.122	321.668
794.974	333.441
798.825	843.16
802.674	414.715
806.522	40.02
810.367	19.086
814.211	243.785
818.053	586.258
821.893	586.086
825.732	738.438
829.568	533.805
833.403	669.992
837.236	804.871
841.068	1020.14
844.898	1100.05
848.726	1348.74
852.552	1934.29
856.376	2739.71
860.199	2780
864.02	2021.16
867.839	1892.2
871.656	1074.75
875.472	1427.65
879.286	1325.08
883.098	1002.78
886.909	1038.82
890.717	1367.57
894.524	1187.94
898.33	1016.98
902.133	966.531
905.935	1085.04
909.735	1210.71
913.533	1183.71
917.33	747.277
921.124	445.445
924.918	347.98
928.709	587
932.499	838.176
936.286	1473.3
940.073	610.328
943.857	882.039
947.64	1358.13
951.421	1321.79
955.2	1642.74
958.978	3601.52
962.753	5566.99
966.527	7653.21
970.3	6122.8
974.071	4675.65
977.84	2860.4
981.607	1388.52
985.372	907.238
989.136	1704.66
992.898	3361.9
996.659	8443.9
1000.42	13919.7
1004.17	8474.86
1007.93	4377.72
1011.68	4003.28
1015.43	4499.55
1019.18	4111.51
1022.93	3226.17
1026.68	1708.52
1030.42	1497.3
1034.17	862.707
1037.91	537.848
1041.65	1161
1045.39	925.641
1049.12	517.91
1052.86	916.375
1056.59	4.398
1060.33	320.738
1064.06	50.312
1067.78	27.793
1071.51	4.242
1075.23	543.273
1078.96	899.855
1082.68	1538.48
1086.4	1270.93
1090.12	822.309
1093.83	229.141
1097.55	235.469
1101.26	705.25
1104.97	293.137
1108.68	556.5
1112.39	206.578
1116.1	11.273
1119.8	162.902
1123.5	425.828
1127.2	13.156
1130.9	376.645
1134.6	236.762
1138.3	249.441
1141.99	228.52
1145.69	249.629
1149.38	635.828
1153.07	1074.48
1156.76	1895.57
1160.44	2172.12
1164.13	1770.13
1167.81	952.59
1171.49	1322.51
1175.17	689.902
1178.85	246.762
1182.52	461.055
1186.2	417.23
1189.87	65.133
1193.54	642.758
1197.21	150.066
1200.88	500.953
1204.55	154.512
1208.21	9.52
1211.88	191.363
1215.54	339.574
1219.2	64.836
1222.86	18.375
1226.51	504.035
1230.17	437.828
1233.82	264.188
1237.47	610.004
1241.12	475.297
1244.77	536.391
1248.42	938.434
1252.06	619.059
1255.71	750.742
1259.35	736.129
1262.99	529.168
1266.63	1048.11
1270.26	1160.35
1273.9	1343
1277.53	1190.11
1281.16	980.262
1284.8	874.695
1288.42	380.977
1292.05	821.879
1295.68	769.691
1299.3	847.305
1302.92	846.711
1306.55	768.969
1310.16	1266.12
1313.78	1590.17
1317.4	1265.15
1321.01	1646.1
1324.62	1384.69
1328.24	882.215
1331.85	859.617
1335.45	209.312
1339.06	176.469
1342.66	432.945
1346.27	610.523
1349.87	533.383
1353.47	493.566
1357.07	150.555
1360.66	59.117
1364.26	232.43
1367.85	405.426
1371.44	443.461
1375.04	489.758
1378.62	550.371
1382.21	729.543
1385.8	683.219
1389.38	973.027
1392.96	588.535
1396.54	561.168
1400.12	695.898
1403.7	524.371
1407.28	703.582
1410.85	762.52
1414.42	592.551
1417.99	1014.7
1421.56	751.992
1425.13	937.473
1428.7	1218.56
1432.26	1188.88
1435.83	1999.27
1439.39	2756.81
1442.95	4334.65
1446.51	4046.26
1450.06	5104.6
1453.62	5597.93
1457.17	5331.68
1460.73	5121.04
1464.28	4379.07
1467.83	4238.79
1471.37	3325.26
1474.92	2918.81
1478.46	2185.94
1482.01	2973.2
1485.55	2404.47
1489.09	2725.75
1492.63	973.793
1496.16	959.527
1499.7	228.316
1503.23	685.039
1506.76	769.156
1510.29	674.531
1513.82	625.707
1517.35	709.887
1520.88	137.945
