Measurement: Raman, 514 nm, ccw, Raman Data Processed
Mineral: Bikitaite
Rruff sample: R050160
Ideal chemistry: LiAlSi_2_O_6_H_2_O
Locality: Foote mine, Kings Mountain, Cleveland County, North Carolina, USA
Source: Jim McGlasson
Description: Colorless prismatic crystals
Measured chemistry: Li_1.00_Si_2.00_O_6_Â·1.25H_2_O ; Li not measured but estimated by stoichiometry
Pin_id: M00374
Orientation: Laser parallel to c* (0 0 1). Fiducial mark perpendicular to laser is parallel to a [1 0 0]
Raman shift (cm-1)	intensity
78.729	0
82.916	2971.55
87.101	1916.62
91.284	3545.27
95.465	7775.23
99.644	11901.1
103.82	14642.3
107.995	18176.8
112.168	22492.5
116.339	16762.5
120.508	7694.98
124.675	2555.68
128.84	509.004
133.003	1200.7
137.164	3162.36
141.323	5500.25
145.48	7952.21
149.635	8091.33
153.788	7177.14
157.939	6040.7
162.088	3395.11
166.235	1483.13
170.38	446.41
174.523	118.312
178.664	792.252
182.803	951.988
186.94	929.422
191.076	78.941
195.209	1990.28
199.34	5090.26
203.47	8209.52
207.597	6115
211.722	3463.94
215.846	3933.36
219.967	5006.06
224.087	4338.23
228.204	2923.18
232.32	1944.79
236.434	1593
240.545	1727.77
244.655	1815.22
248.763	2214.77
252.869	3174.31
256.973	4234.33
261.075	3190.44
265.175	1846.33
269.273	655.139
273.369	16.604
277.463	159.209
281.556	354.273
285.646	1301.52
289.734	2623.41
293.821	3350.29
297.905	2978.41
301.988	2354.62
306.069	1614.53
310.147	1852.3
314.224	1005.01
318.299	264.676
322.372	102.199
326.443	85.605
330.512	467.023
334.579	1446.3
338.645	3424.79
342.708	4297.27
346.769	4751.41
350.829	5166.25
354.887	5008.52
358.942	4334.37
362.996	4814.98
367.048	6722.61
371.098	10379.5
375.146	16808.7
379.192	25048.5
383.236	28644.9
387.279	26745
391.319	26426.6
395.358	27258.9
399.394	23506.6
403.429	17576
407.462	13494.8
411.493	11738.9
415.522	10644
419.549	9244.89
423.575	6658.78
427.598	4745.07
431.619	2929.22
435.639	2456.38
439.657	2193.28
443.673	1738.39
447.687	1900.41
451.699	1765.88
455.709	1845.48
459.717	2848.45
463.724	5146.56
467.728	8110.19
471.731	11141.9
475.732	13264.1
479.731	14266.6
483.728	19028.2
487.723	26103.2
491.716	27345.1
495.708	21352.3
499.697	15481.2
503.685	11799.9
507.671	8849.65
511.655	6723.37
515.637	5682.25
519.617	4581.58
523.596	3678.01
527.572	3334.59
531.547	3782.2
535.52	4631.85
539.491	5230.5
543.46	4621.14
547.427	2695.77
551.393	1634.36
555.356	1093.9
559.318	1012.36
563.278	813.727
567.236	617.994
571.192	559.145
575.147	340.307
579.099	103.611
583.05	65.906
586.999	632.881
590.946	346.824
594.891	61.225
598.834	169.816
602.776	78.338
606.715	34.109
610.653	72.734
614.589	224.832
618.523	26.137
622.456	72.125
626.386	396.516
630.315	23.775
634.242	181.621
638.167	83.492
642.09	232.277
646.012	59.418
649.931	68.414
653.849	412.805
657.765	131.229
661.679	230.52
665.592	306.268
669.502	761.584
673.411	957.463
677.318	864.758
681.223	1707.45
685.126	2397.14
689.028	1756.94
692.927	1653.87
696.825	1972.35
700.721	2301.6
704.616	2127.29
708.508	2596.9
712.399	1656.49
716.288	1656.19
720.175	1193.5
724.06	940.572
727.944	949.625
731.825	677.551
735.705	409.256
739.584	391.811
743.46	356.932
747.334	655.562
751.207	337.898
755.078	344.711
758.947	581.543
762.815	67.33
766.68	65.352
770.544	221.525
774.406	355.227
778.267	336.904
782.125	351.986
785.982	337.215
789.837	377.348
793.69	223.869
797.542	206.58
801.391	118.203
805.239	357.174
809.085	52.805
812.93	103.465
816.772	242.877
820.613	129.662
824.452	175.594
828.29	223.961
832.125	181.059
835.959	136.582
839.791	130.633
843.621	208.275
847.45	106.551
851.277	460.404
855.102	116.832
858.925	238.83
862.746	459.424
866.566	240.613
870.384	396.4
874.2	411.805
878.015	169.83
881.828	477.506
885.639	266.754
889.448	610.043
893.256	402.926
897.061	414.914
900.865	261.035
904.668	579.225
908.468	463.379
912.267	999.814
916.064	702.857
919.86	605.395
923.653	280.9
927.445	513.307
931.236	605.098
935.024	580.723
938.811	1116.12
942.596	891.211
946.379	1006.2
950.161	1835.62
953.94	4341.37
957.719	7916.46
961.495	7549.6
965.27	8818.54
969.043	8737
972.814	4093.67
976.583	2337.68
980.351	1569.83
984.117	2021.07
987.882	2325.14
991.644	4213.07
995.405	9690.49
999.165	19654.8
1002.92	13715
1006.68	6405.84
1010.43	3453.03
1014.18	2994.02
1017.93	2534.4
1021.68	2204.62
1025.43	1692.54
1029.18	956.16
1032.92	612.234
1036.66	665.109
1040.4	623.969
1044.14	765.508
1047.88	380.16
1051.62	269.387
1055.35	354.203
1059.08	585.766
1062.81	423.656
1066.54	425.352
1070.27	337.629
1073.99	237.141
1077.72	199.309
1081.44	594.633
1085.16	736.762
1088.88	157.969
1092.59	291.793
1096.31	469.406
1100.02	0.129
1103.73	128.379
1107.44	202.383
1111.15	266.273
1114.86	166.031
1118.57	141.742
1122.27	84.465
1125.97	148.121
1129.67	45.594
1133.37	367.645
1137.07	460.57
1140.76	47.922
1144.45	32.77
1148.15	449.129
1151.84	503.695
1155.53	458.738
1159.21	982.719
1162.9	848.953
1166.58	922.457
1170.26	774.402
1173.94	657.234
1177.62	636.688
1181.3	117.059
1184.97	477.914
1188.65	491.312
1192.32	265.949
1195.99	269.141
1199.66	188.363
1203.33	602.629
1206.99	156.758
1210.65	96.574
1214.32	289.203
1217.98	253.34
1221.64	201.57
1225.29	305.875
1228.95	114.766
1232.6	414.469
1236.26	653.113
1239.91	319.566
1243.56	322.391
1247.2	566.906
1250.85	711.102
1254.49	373.906
1258.13	168.793
1261.78	23.352
1265.41	461.203
1269.05	429.961
1272.69	483.66
1276.32	107.398
1279.95	279.422
1283.59	129.707
1287.21	166.281
1290.84	175.652
1294.47	185.703
1298.09	119.355
1301.72	94.301
1305.34	140.359
1308.96	531.391
1312.58	31.484
1316.19	476.109
1319.81	106.09
1323.42	143.68
1327.03	559.43
1330.64	63.941
1334.25	204.012
1337.86	183.559
1341.46	239.906
1345.07	106.117
1348.67	536.133
1352.27	443.914
1355.87	716.891
1359.46	737.879
1363.06	379.949
1366.65	405.855
1370.25	546.305
1373.84	238.074
1377.43	790.934
1381.02	350.988
1384.6	727.93
1388.18	525.461
1391.77	555.516
1395.35	759.625
1398.93	428.863
1402.51	721.285
1406.08	545.859
1409.66	563.773
1413.23	1046.59
1416.8	627.656
1420.37	973.547
1423.94	705.477
1427.51	478.324
1431.08	969.078
1434.64	1186.38
1438.2	1419.24
1441.76	1414.38
1445.32	1758.86
1448.88	1645.31
1452.43	2068.12
1455.99	2070.4
1459.54	1902.99
1463.09	1289.53
1466.64	1256.46
1470.19	1284.07
1473.74	889.25
1477.28	983.027
1480.83	881.664
1484.37	1230.72
1487.91	687.375
1491.45	1015.52
1494.98	915.285
1498.52	471.488
1502.05	374.852
1505.59	685.176
1509.12	487.465
1512.65	562.145
1516.17	11.285
1519.7	0
