Measurement: Raman, 514 nm, ccw, Raman Data Processed
Mineral: Bikitaite
Rruff sample: R050160
Ideal chemistry: LiAlSi_2_O_6_H_2_O
Locality: Foote mine, Kings Mountain, Cleveland County, North Carolina, USA
Source: Jim McGlasson
Description: Colorless prismatic crystals
Measured chemistry: Li_1.00_Si_2.00_O_6_Â·1.25H_2_O ; Li not measured but estimated by stoichiometry
Pin_id: M00456
Orientation: Laser parallel to a* (1 0 0). Fiducial mark perpendicular to laser is parallel to b [0 1 0]
Raman shift (cm-1)	intensity
91.284	0
95.465	407.73
99.644	1950.3
103.82	4394.9
107.995	7830.73
112.168	11527.6
116.339	11916.9
120.508	9189.73
124.675	4443.47
128.84	1102.06
133.003	1024.16
137.164	3120.66
141.323	6616.13
145.48	6961.25
149.635	5918.46
153.788	5059.61
157.939	4262.65
162.088	3265.59
166.235	2129.92
170.38	972.624
174.523	16.348
178.664	354.296
182.803	179.467
186.94	104.163
191.076	274.774
195.209	756.258
199.34	2781.68
203.47	4518.65
207.597	4187.82
211.722	2075.12
215.846	1861.47
219.967	2439.74
224.087	1933.35
228.204	889.058
232.32	112.961
236.434	71.039
240.545	252.962
244.655	1257.88
248.763	2547.42
252.869	3616.67
256.973	3570.54
261.075	2241.69
265.175	399.681
269.273	448.679
273.369	106.448
277.463	31.475
281.556	339.732
285.646	868.16
289.734	2137.15
293.821	2314.97
297.905	1578
301.988	795.649
306.069	442.237
310.147	440.8
314.224	1314.08
318.299	1808.2
322.372	2342.29
326.443	2823.44
330.512	1789.29
334.579	568.014
338.645	653.715
342.708	1247.83
346.769	2199.75
350.829	2030.4
354.887	1610.99
358.942	1206.36
362.996	1282.11
367.048	2608.52
371.098	4678.57
375.146	7986.23
379.192	12437.5
383.236	15433.3
387.279	15891.7
391.319	16177.8
395.358	17864.7
399.394	16713.7
403.429	11445.5
407.462	7850.15
411.493	5700.62
415.522	4467.34
419.549	4014.29
423.575	3418.49
427.598	2762.73
431.619	2154.29
435.639	1910.04
439.657	1600.49
443.673	1491.4
447.687	1566.66
451.699	1668.58
455.709	2620.36
459.717	2604.61
463.724	2945.19
467.728	3508.05
471.731	5254.68
475.732	8246.84
479.731	10578.9
483.728	11795.8
487.723	15583.9
491.716	22181.5
495.708	27803.3
499.697	26359
503.685	19327
507.671	12146.1
511.655	7539.06
515.637	4666.86
519.617	3367.72
523.596	2564.56
527.572	1923.35
531.547	1846.08
535.52	2013.77
539.491	2350.42
543.46	1812
547.427	1111.51
551.393	612.904
555.356	388.172
559.318	351.455
563.278	89.641
567.236	90.642
571.192	34.384
575.147	56.17
579.099	89.133
583.05	6.144
586.999	56.162
590.946	71.882
594.891	4.297
598.834	54.635
602.776	77.545
606.715	10.705
610.653	71.642
614.589	0.209
618.523	22.807
622.456	242.689
626.386	264.793
630.315	291.49
634.242	110.579
638.167	154.157
642.09	43.013
646.012	93.707
649.931	40.391
653.849	52.854
657.765	55.558
661.679	27.133
665.592	72.113
669.502	103.293
673.411	488.331
677.318	830.079
681.223	1324.48
685.126	1631.72
689.028	1288.28
692.927	1054.86
696.825	1201.17
700.721	1116.61
704.616	1101.26
708.508	1317.81
712.399	1150.06
716.288	1010.17
720.175	789.172
724.06	885.136
727.944	787.13
731.825	766.9
735.705	549.942
739.584	590.987
743.46	802.681
747.334	1230.61
751.207	1843.98
755.078	2714.53
758.947	3951.71
762.815	4553.56
766.68	4149.32
770.544	3114.2
774.406	2174.31
778.267	1684.41
782.125	1327.09
785.982	1190.64
789.837	1079.87
793.69	783.35
797.542	659.412
801.391	244.29
805.239	101.127
809.085	337.832
812.93	157.106
816.772	91.237
820.613	39.149
824.452	128.32
828.29	57.882
832.125	113.377
835.959	41.572
839.791	72.453
843.621	85.025
847.45	183.231
851.277	20.887
855.102	35.128
858.925	92.672
862.746	18.492
866.566	0.958
870.384	127.024
874.2	18.85
878.015	120.55
881.828	22.868
885.639	23.043
889.448	45.711
893.256	19.283
897.061	12.683
900.865	161.519
904.668	107.756
908.468	139.241
912.267	44.015
916.064	7.945
919.86	24.775
923.653	50.908
927.445	69.835
931.236	38.882
935.024	15.993
938.811	56.182
942.596	215.586
946.379	282.347
950.161	913.546
953.94	2072.2
957.719	4690.99
961.495	7180.66
965.27	7796.62
969.043	6708.71
972.814	4241.89
976.583	1989.65
980.351	993.611
984.117	580.469
987.882	533.535
991.644	635.647
995.405	1131
999.165	1808.01
1002.92	1706.07
1006.68	850.732
1010.43	515.219
1014.18	504.827
1017.93	577.198
1021.68	855.76
1025.43	409.78
1029.18	637.399
1032.92	1094.3
1036.66	2012.42
1040.4	2287.93
1044.14	1201.1
1047.88	619.542
1051.62	506.715
1055.35	317.581
1059.08	389.693
1062.81	330.037
1066.54	311.738
1070.27	466.188
1073.99	687.821
1077.72	916.55
1081.44	1660.02
1085.16	2461.43
1088.88	3390.28
1092.59	3212.03
1096.31	2093.26
1100.02	1841.42
1103.73	1630.86
1107.44	1600.75
1111.15	952.126
1114.86	741.425
1118.57	642.851
1122.27	925.895
1125.97	1081.82
1129.67	1042.87
1133.37	567.734
1137.07	392.286
1140.76	570.681
1144.45	381.302
1148.15	815.983
1151.84	1033.83
1155.53	1217.49
1159.21	1172.2
1162.9	1259.34
1166.58	969.912
1170.26	703.516
1173.94	356.335
1177.62	389.989
1181.3	269.01
1184.97	320.58
1188.65	137.097
1192.32	77.282
1195.99	62.351
1199.66	193.297
1203.33	55.086
1206.99	145.846
1210.65	10.371
1214.32	49.381
1217.98	100.44
1221.64	23.785
1225.29	2.567
1228.95	20.774
1232.6	7.412
1236.26	39.119
1239.91	117.959
1243.56	145.458
1247.2	86.692
1250.85	28.777
1254.49	38.153
1258.13	33.146
1261.78	21.531
1265.41	34.343
1269.05	148.555
1272.69	96.85
1276.32	139.1
1279.95	12.337
1283.59	112.72
1287.21	2.846
1290.84	16.834
1294.47	0.535
1298.09	94.866
1301.72	109.188
1305.34	17.936
1308.96	28.39
1312.58	92.252
1316.19	1.359
1319.81	107.668
1323.42	94.249
1327.03	9.445
1330.64	39.504
1334.25	24.108
1337.86	150.42
1341.46	22.663
1345.07	31.486
1348.67	116.532
1352.27	63.5
1355.87	182.726
1359.46	214.378
1363.06	267.717
1366.65	316.615
1370.25	212.306
1373.84	252.522
1377.43	177.129
1381.02	152.364
1384.6	213.287
1388.18	249.36
1391.77	290.186
1395.35	216.368
1398.93	353.626
1402.51	288.398
1406.08	90.664
1409.66	111.254
1413.23	125.354
1416.8	210.463
1420.37	133.126
1423.94	216.148
1427.51	317.92
1431.08	299.722
1434.64	269.729
1438.2	523.96
1441.76	459.062
1445.32	432.175
1448.88	391.013
1452.43	277.926
1455.99	404.131
1459.54	348.047
1463.09	644.791
1466.64	589.776
1470.19	277.711
1473.74	445.657
1477.28	341.748
1480.83	248.133
1484.37	267.485
1487.91	89.851
1491.45	218.192
1494.98	318.269
1498.52	221.351
1502.05	9.974
1505.59	49.082
1509.12	10.029
1512.65	256.654
