Measurement: Raman, 514 nm, ccw, Raman Data Processed
Mineral: Bikitaite
Rruff sample: R050160
Ideal chemistry: LiAlSi_2_O_6_H_2_O
Locality: Foote mine, Kings Mountain, Cleveland County, North Carolina, USA
Source: Jim McGlasson
Description: Colorless prismatic crystals
Measured chemistry: Li_1.00_Si_2.00_O_6_Â·1.25H_2_O ; Li not measured but estimated by stoichiometry
Pin_id: M00081
Orientation: Laser parallel to (-1 -1 0). Fiducial mark perpendicular to laser is parallel to -c [0 0 -1]
Raman shift (cm-1)	intensity
74.54	0
78.729	231.392
82.916	1668.32
87.101	1608.02
91.284	2209.95
95.465	4963.9
99.644	8106.81
103.82	8948.71
107.995	7267.91
112.168	5254.86
116.339	2654.55
120.508	891.797
124.675	211.738
128.84	155.583
133.003	919.71
137.164	3001.08
141.323	5894.2
145.48	7193.77
149.635	6562.36
153.788	5159.4
157.939	4671.08
162.088	4983.11
166.235	4400.08
170.38	2516.86
174.523	1046.51
178.664	31.099
182.803	23.482
186.94	38.807
191.076	250.97
195.209	1929.21
199.34	5314.6
203.47	8118.3
207.597	8746.13
211.722	11024.4
215.846	15940.3
219.967	16779.9
224.087	10552.4
228.204	4575.55
232.32	1483.39
236.434	684.84
240.545	1275.05
244.655	2723.54
248.763	3479.16
252.869	3996.6
256.973	4068.67
261.075	1693.07
265.175	77.682
269.273	396.243
273.369	139.674
277.463	67.979
281.556	1518.76
285.646	4782.89
289.734	8626.41
293.821	10054.6
297.905	9172.48
301.988	6376.24
306.069	2412.77
310.147	808.994
314.224	257.901
318.299	0.505
322.372	272.807
326.443	239.617
330.512	7.994
334.579	819.534
338.645	2423.74
342.708	4550.82
346.769	6335.26
350.829	6385.55
354.887	5521.62
358.942	5132.9
362.996	5954.33
367.048	8534.51
371.098	13044.1
375.146	19924.4
379.192	28599.3
383.236	34014.9
387.279	35147
391.319	34705.2
395.358	32544.2
399.394	26421
403.429	19362.4
407.462	15224.6
411.493	12384.5
415.522	10300.4
419.549	8357.69
423.575	6569.21
427.598	5499.24
431.619	5205.58
435.639	6391.03
439.657	6796.62
443.673	6064.26
447.687	5388.14
451.699	4868.97
455.709	4605.96
459.717	4227.06
463.724	4756.93
467.728	6748.52
471.731	9475.17
475.732	11523.9
479.731	12288.2
483.728	15075.2
487.723	23091.6
491.716	36390.3
495.708	45964.7
499.697	41080.4
503.685	28861.2
507.671	18075.1
511.655	11408.5
515.637	7500.73
519.617	5452.47
523.596	4115.21
527.572	3105.94
531.547	2766.61
535.52	2703.16
539.491	2923.58
543.46	2360.84
547.427	1362.94
551.393	653.847
555.356	323.544
559.318	154.016
563.278	52.245
567.236	101.899
571.192	44.225
575.147	47.606
579.099	17.614
583.05	4.744
586.999	60.079
590.946	55.075
594.891	24.682
598.834	119.994
602.776	15.983
606.715	4.471
610.653	4.704
614.589	2.907
618.523	83.16
622.456	530.289
626.386	819.968
630.315	562.19
634.242	237.947
638.167	7.587
642.09	29.866
646.012	104.858
649.931	53.903
653.849	115.838
657.765	60.246
661.679	124.629
665.592	47.467
669.502	239.566
673.411	338.979
677.318	603.388
681.223	1029.19
685.126	2029.41
689.028	2761.3
692.927	3312.21
696.825	3474.75
700.721	2864.88
704.616	2160.22
708.508	2048.94
712.399	1775.06
716.288	1396.58
720.175	1016.83
724.06	872.157
727.944	702.966
731.825	716.629
735.705	374.826
739.584	253.391
743.46	11.733
747.334	137.838
751.207	142.766
755.078	334.97
758.947	579.817
762.815	940.813
766.68	917.056
770.544	588.157
774.406	774.076
778.267	1159.09
782.125	1613.68
785.982	1606.87
789.837	1014.65
793.69	537.996
797.542	365.048
801.391	94.66
805.239	34.7
809.085	27.838
812.93	44.701
816.772	20.248
820.613	8.317
824.452	96.617
828.29	22.903
832.125	34.065
835.959	2.736
839.791	399.975
843.621	148.927
847.45	141.608
851.277	4.037
855.102	110.229
858.925	370.195
862.746	412.95
866.566	198.5
870.384	133.858
874.2	110.027
878.015	25.84
881.828	128.545
885.639	134.28
889.448	51.777
893.256	165.367
897.061	133.3
900.865	265.812
904.668	183.225
908.468	243.89
912.267	186.422
916.064	192.22
919.86	17.325
923.653	251.842
927.445	322.702
931.236	431.734
935.024	498.839
938.811	538.044
942.596	911.307
946.379	1622.71
950.161	3585.36
953.94	8757.65
957.719	20918.3
961.495	26395.2
965.27	12614.6
969.043	6006.52
972.814	3663.8
976.583	2004.72
980.351	885.002
984.117	554.107
987.882	334.082
991.644	393.56
995.405	372.535
999.165	541.021
1002.92	970.205
1006.68	493.665
1010.43	666.202
1014.18	1249.82
1017.93	1023.51
1021.68	501.278
1025.43	246.782
1029.18	78.25
1032.92	1.903
1036.66	14.012
1040.4	54.092
1044.14	36.397
1047.88	37.332
1051.62	16.338
1055.35	59.376
1059.08	227.802
1062.81	185.228
1066.54	389.437
1070.27	665.41
1073.99	846.699
1077.72	1345.67
1081.44	2037.63
1085.16	2996.72
1088.88	3715.41
1092.59	2873.86
1096.31	1969.31
1100.02	1668.48
1103.73	1658.59
1107.44	1546.33
1111.15	1018.09
1114.86	768.319
1118.57	798.37
1122.27	649.158
1125.97	572.891
1129.67	361.689
1133.37	320.444
1137.07	214.562
1140.76	446.281
1144.45	189.745
1148.15	323.656
1151.84	437.259
1155.53	814.105
1159.21	1148.27
1162.9	1943.08
1166.58	2163.04
1170.26	2080.89
1173.94	1522.64
1177.62	1047.29
1181.3	754.656
1184.97	379.937
1188.65	223.686
1192.32	89.984
1195.99	106.057
1199.66	225.795
1203.33	40.793
1206.99	92.711
1210.65	102.558
1214.32	27.685
1217.98	17.116
1221.64	5.632
1225.29	89.107
1228.95	16.346
1232.6	15.039
1236.26	78.512
1239.91	93.135
1243.56	140.552
1247.2	93.131
1250.85	27.901
1254.49	61.535
1258.13	42.201
1261.78	76.911
1265.41	28.98
1269.05	50.079
1272.69	146.583
1276.32	297.911
1279.95	87.083
1283.59	177.09
1287.21	197.919
1290.84	157.491
1294.47	12.243
1298.09	230.784
1301.72	207.532
1305.34	52.1
1308.96	155.501
1312.58	273.748
1316.19	278.842
1319.81	341.774
1323.42	258.51
1327.03	320.073
1330.64	157.539
1334.25	211.912
1337.86	3.752
1341.46	19.427
1345.07	31.706
1348.67	161.487
1352.27	69.281
1355.87	102.198
1359.46	146.832
1363.06	235.464
1366.65	128.284
1370.25	409.53
1373.84	98.22
1377.43	168.854
1381.02	63.246
1384.6	76.145
1388.18	49.569
1391.77	172.125
1395.35	114.851
1398.93	52.577
1402.51	110.018
1406.08	80.716
1409.66	33.861
1413.23	114.909
1416.8	211.428
1420.37	110.67
1423.94	370.675
1427.51	140.44
1431.08	362.898
1434.64	407.631
1438.2	644.117
1441.76	879.646
1445.32	1083.66
1448.88	1203.47
1452.43	1179.1
1455.99	1391.04
1459.54	1297.33
1463.09	1278.29
1466.64	1119.08
1470.19	626.836
1473.74	799.625
1477.28	754.456
1480.83	650.057
1484.37	537.747
1487.91	357.517
1491.45	364.018
1494.98	404.855
1498.52	271.248
1502.05	21.104
1505.59	10.276
1509.12	112.603
1512.65	114.055
1516.17	95.055
1519.7	75.049
1523.23	0
