Measurement: Raman, 514 nm, ccw, Raman Data Processed
Mineral: Bikitaite
Rruff sample: R050160
Ideal chemistry: LiAlSi_2_O_6_H_2_O
Locality: Foote mine, Kings Mountain, Cleveland County, North Carolina, USA
Source: Jim McGlasson
Description: Colorless prismatic crystals
Measured chemistry: Li_1.00_Si_2.00_O_6_Â·1.25H_2_O ; Li not measured but estimated by stoichiometry
Pin_id: M00294
Orientation: Laser parallel to (1 0 1). Fiducial mark perpendicular to laser is parallel to -b [0 -1 0]
Raman shift (cm-1)	intensity
86.072	0
89.777	692.652
93.48	3316.01
97.182	6551.29
100.883	9829.4
104.582	12284.2
108.28	13881.1
111.976	13529.5
115.671	11699.6
119.365	6777.54
123.058	2370.85
126.749	101.133
130.439	832.65
134.127	4165.27
137.814	7751.51
141.5	9516.39
145.184	9097.67
148.867	7957.01
152.549	6426.35
156.229	4911.65
159.908	3727.42
163.585	2340.28
167.261	1175.37
170.936	338.197
174.61	520.947
178.282	774.512
181.952	810.945
185.622	366.219
189.29	690.639
192.956	2907.92
196.622	5591.81
200.286	7326.36
203.948	8211.12
207.609	6432.5
211.269	5334.39
214.928	6124.94
218.585	6225.73
222.24	5045
225.895	3610.36
229.548	2550.73
233.199	2445.9
236.849	3938.64
240.498	6097.07
244.146	8785.15
247.792	11787.1
251.437	12986.7
255.08	12134.2
258.722	9094.02
262.363	4853.85
266.002	2262.3
269.64	667.568
273.276	302.434
276.912	444.647
280.545	1153.12
284.178	2384.8
287.809	3876.38
291.438	4585.92
295.067	3900.37
298.693	2753.62
302.319	2289.61
305.943	2027.37
309.566	1689.86
313.187	1621.6
316.807	1327.74
320.426	1272.94
324.043	841.541
327.659	350.486
331.273	352.176
334.886	206.137
338.498	799.396
342.108	1915.4
345.717	2780.73
349.324	3040.39
352.931	2708.5
356.535	2195.84
360.139	2311.62
363.741	3040.05
367.341	5069.12
370.94	8232.8
374.538	12512.1
378.135	17053.8
381.73	20588.3
385.323	21909.7
388.916	22241.8
392.506	21998.2
396.096	20660.2
399.684	16352.7
403.271	11269.7
406.856	8010.46
410.44	6247.94
414.022	5398.94
417.603	4875.11
421.183	4372.18
424.761	3646.63
428.338	2999.51
431.914	2618.23
435.488	2377.37
439.061	2574.16
442.632	2293.15
446.202	1988.73
449.77	1753.83
453.337	2144.59
456.903	2850.32
460.467	4327.28
464.03	6239.42
467.592	8007.78
471.152	9894.98
474.711	12154.4
478.268	13515.5
481.824	14617.9
485.378	17298.5
488.932	19961.2
492.483	23980.9
496.034	26066.4
499.582	23260.8
503.13	16897.1
506.676	10979.8
510.221	6855.51
513.764	4753.17
517.306	3136.75
520.846	2529.44
524.385	2328.14
527.923	2081.9
531.459	2431.8
534.994	2338.81
538.527	2639.83
542.059	2061.75
545.59	1407.54
549.119	675.172
552.647	286.898
556.173	261.215
559.698	283.541
563.222	64.9336
566.744	52.1641
570.264	55.998
573.784	226.791
577.302	230.629
580.818	118.475
584.333	26.1758
587.847	58.9355
591.359	306.238
594.87	107.172
598.379	146.144
601.887	49.6289
605.394	41.0391
608.899	60.4062
612.402	201.644
615.905	640.93
619.406	1466.01
622.905	2166.36
626.403	2443.45
629.9	1663.87
633.395	636.627
636.889	478.701
640.381	489.049
643.872	869.678
647.361	1324.61
650.849	1102.85
654.336	911.396
657.821	594.232
661.305	122.615
664.787	67.2617
668.268	24.3535
671.748	379.674
675.226	656.254
678.703	884.188
682.178	1144.83
685.652	982.182
689.124	757.762
692.595	735.979
696.065	1092.32
699.533	1798.11
702.999	2159.07
706.465	2222.18
709.929	1846.8
713.391	1202.63
716.852	636.481
720.311	911.467
723.77	585.623
727.226	489.106
730.681	388.225
734.135	50.1152
737.588	106.531
741.039	194.877
744.488	163.199
747.936	151.873
751.383	396.551
754.828	333.463
758.272	603.686
761.714	929.344
765.155	988.453
768.595	647.021
772.033	652.059
775.469	740.371
778.904	820.701
782.338	919.219
785.77	919.356
789.201	930.568
792.631	589.068
796.059	262.012
799.485	273.531
802.91	315.123
806.334	22.0527
809.756	227.072
813.177	118.398
816.596	5.35352
820.014	115.131
823.431	306.887
826.846	227.309
830.259	137.143
833.671	367.934
837.082	430.441
840.491	390.695
843.899	666.768
847.306	820.691
850.71	802.689
854.114	1031.82
857.516	1386.07
860.917	1852.35
864.316	1672.79
867.713	890.898
871.11	739.824
874.505	519.822
877.898	723.283
881.29	326.363
884.68	427.25
888.069	516.035
891.457	348.857
894.843	464.584
898.228	320.293
901.611	479.996
904.993	494.701
908.373	211.416
911.752	291.158
915.129	337.1
918.505	95.9414
921.88	21.8613
925.253	141.469
928.625	425.084
931.995	183.766
935.364	326.92
938.731	517.623
942.097	821.484
945.461	1165.94
948.824	2724.45
952.186	5854.83
955.546	11308.5
958.904	14580.7
962.261	11980.6
965.617	8392.13
968.971	6603.27
972.324	4070.8
975.675	2299.47
979.025	1356.27
982.374	798.221
985.72	864.316
989.066	1064.56
992.41	2179.95
995.753	4336.48
999.094	6884.16
1002.43	7235.02
1005.77	4181.06
1009.11	2617.44
1012.44	2910.35
1015.78	4117.01
1019.11	5524.22
1022.44	6413.63
1025.77	5482.19
1029.1	3800.66
1032.42	1862.74
1035.75	1154.72
1039.07	522.852
1042.4	359.123
1045.72	133.541
1049.04	113.09
1052.35	78.2402
1055.67	170.963
1058.98	55.8652
1062.3	9.30664
1065.61	9.93164
1068.92	19.9395
1072.23	402.801
1075.54	454.914
1078.84	995.594
1082.15	1348.39
1085.45	1239.02
1088.75	1086.82
1092.05	582.283
1095.35	843.875
1098.65	849.369
1101.94	1272.25
1105.24	1180.21
1108.53	1068.88
1111.82	915.662
1115.11	541.561
1118.4	712.57
1121.69	931.699
1124.97	1198.94
1128.26	1173.29
1131.54	776.758
1134.82	614.336
1138.1	503.019
1141.38	162.809
1144.66	411.695
1147.93	668.68
1151.21	869.758
1154.48	1251.92
1157.75	1535.17
1161.02	1541.52
1164.29	1493.95
1167.55	1220.24
1170.82	1137.03
1174.08	968.684
1177.34	863.418
1180.61	727.07
1183.86	379.144
1187.12	398.324
1190.38	242.781
1193.63	298.356
1196.89	199.961
1200.14	54.918
1203.39	351.523
1206.64	19.7031
1209.88	137.734
1213.13	303.992
1216.37	65.8125
1219.62	314.727
1222.86	152.695
1226.1	53.6875
1229.34	73.4102
1232.57	293.359
1235.81	356.894
1239.04	382.164
1242.28	474.543
1245.51	399.066
1248.74	927.734
1251.97	519.543
1255.19	292.512
1258.42	358.664
1261.64	752.769
1264.86	873.602
1268.09	1147.57
1271.3	1377.68
1274.52	1120.08
1277.74	1189.62
1280.95	901.277
1284.17	897.262
1287.38	756.797
1290.59	863.875
1293.8	1299.38
1297.01	1140.94
1300.21	1032.61
1303.42	1075.89
1306.62	1170.36
1309.82	1255.48
1313.02	1302.62
1316.22	1408.53
1319.42	1223.99
1322.61	1199.6
1325.81	699.519
1329	687.348
1332.19	599.305
1335.38	199.363
1338.57	300.516
1341.76	93.7812
1344.94	211.176
1348.12	101.606
1351.31	262.199
1354.49	223.762
1357.67	87.5547
1360.85	27.2266
1364.02	158.43
1367.2	327.269
1370.37	123.586
1373.54	319.82
1376.71	296.106
1379.88	482.773
1383.05	672.438
1386.22	306.215
1389.38	636.496
1392.54	94.7344
1395.7	131.66
1398.87	6.39062
1402.02	3.07812
1405.18	165.375
1408.34	66.5977
1411.49	173.484
1414.64	0
