Measurement: Raman, 514 nm, ccw, Raman Data Processed
Mineral: Bikitaite
Rruff sample: R050160
Ideal chemistry: LiAlSi_2_O_6_H_2_O
Locality: Foote mine, Kings Mountain, Cleveland County, North Carolina, USA
Source: Jim McGlasson
Description: Colorless prismatic crystals
Measured chemistry: Li_1.00_Si_2.00_O_6_Â·1.25H_2_O ; Li not measured but estimated by stoichiometry
Pin_id: M00075
Orientation: Laser parallel to (0 1 1). Fiducial mark perpendicular to laser is parallel to a [1 0 0]
Raman shift (cm-1)	intensity
93.48	0
98.416	2860.15
103.349	9832.56
108.28	16404.6
113.208	19125.5
118.134	17442
123.058	9931
127.979	1393.15
132.898	2.25391
137.814	2731.59
142.728	5796.17
147.639	5433.83
152.549	6683.94
157.455	7978.25
162.359	7535.32
167.261	5464.79
172.161	3227.58
177.058	671.74
181.952	1030.62
186.845	599.354
191.734	527.988
196.622	3035.68
201.507	5740.1
206.389	4916.04
211.269	1923.76
216.147	2357.17
221.022	3403.56
225.895	1935.82
230.765	410.816
235.633	491.619
240.498	1946.22
245.361	4714.99
250.222	6897.62
255.08	6734.83
259.936	4758.31
264.789	1142.03
269.64	290.379
274.488	696.811
279.334	148.406
284.178	1400.79
289.019	3328.32
293.857	3867.58
298.693	2397.58
303.527	1946.32
308.358	2258.87
313.187	2305.56
318.013	1056.47
322.837	796.6
327.659	934.781
332.478	543.641
337.294	1503.54
342.108	2863.17
346.92	3498.73
351.729	4056.17
356.535	4291.8
361.34	5690.86
366.141	9248.54
370.94	15743.6
375.737	25928.1
380.531	36124.4
385.323	39762.8
390.113	38512.9
394.9	37003.7
399.684	29407.9
404.466	18177.6
409.245	13853.8
414.022	13291.5
418.797	14534.6
423.569	15579.9
428.338	13081.8
433.105	8745.5
437.87	6395.54
442.632	6513.38
447.391	8688.7
452.149	10220.7
456.903	7343.71
461.655	5323.5
466.405	5658.22
471.152	8437
475.897	13214.6
480.639	20805
485.378	32130.2
490.116	42170.3
494.85	37363.4
499.582	26023.9
504.312	20307.9
509.039	17413.4
513.764	13181.6
518.486	8772.51
523.206	6273.92
527.923	4756.92
532.638	4136.22
537.35	3733.3
542.059	3219.31
546.766	1810.86
551.471	835.467
556.173	469.172
560.873	7.61914
565.57	177.193
570.264	52.1602
574.957	118.617
579.646	85.5879
584.333	101.832
589.018	111.139
593.7	216.519
598.379	406.935
603.056	302.531
607.73	251.603
612.402	23.8867
617.072	80.6231
621.739	103.203
626.403	110.717
631.065	32.5898
635.724	194.1
640.381	253.477
645.035	204.045
649.687	153.508
654.336	178.096
658.983	109.203
663.627	11.1465
668.268	447.91
672.907	606.504
677.544	1148.41
682.178	1692.54
686.809	1520.44
691.438	1565.79
696.065	1281.18
700.688	1409.31
705.31	1631.16
709.929	2054.24
714.545	1651.09
719.158	1131.59
723.77	1009.98
728.378	1042.39
732.984	1024.34
737.588	807.699
742.189	724.676
746.787	733.857
751.383	1574.77
755.976	2759.68
760.567	4338.56
765.155	4979.52
769.741	4440.78
774.324	3115.57
778.904	2440.14
783.482	1747.98
788.058	1137.62
792.631	881.928
797.201	619.928
801.769	499.562
806.334	387.58
810.897	345.111
815.457	147.572
820.014	419.269
824.569	391.223
829.122	182.41
833.671	271.832
838.219	329.543
842.763	219.51
847.306	33.2617
851.845	179.99
856.382	323.498
860.917	163.301
865.448	41.4277
869.978	20.916
874.505	98.2031
879.029	23.7441
883.55	7.89844
888.069	102.33
892.586	14.2695
897.1	161.666
901.611	92.0762
906.12	27.0898
910.626	90.9414
915.129	163.44
919.63	13.3301
924.129	203.598
928.625	279.592
933.118	299.324
937.609	389.252
942.097	532.791
946.582	935.695
951.065	2504.96
955.546	6379.66
960.023	12797.9
964.499	15896.8
968.971	13893.7
973.441	5984.46
977.909	2589.74
982.374	1462.64
986.836	1920.79
991.295	3915.78
995.753	3909.13
1000.21	1820.82
1004.66	916.215
1009.11	880.588
1013.55	1209.72
1018	905.856
1022.44	556.777
1026.88	79.9668
1031.32	136.938
1035.75	341.203
1040.18	572.279
1044.61	1302.47
1049.04	2204.67
1053.46	2970.96
1057.88	2625.78
1062.3	1840.97
1066.71	1113.48
1071.13	847.318
1075.54	559.49
1079.94	631.008
1084.35	687.359
1088.75	751.68
1093.15	802.365
1097.55	1132.16
1101.94	1735.13
1106.34	1825.97
1110.73	1487.81
1115.11	1246.37
1119.5	2229.26
1123.88	2950.32
1128.26	4556.13
1132.63	6370.78
1137.01	8489.77
1141.38	9544.06
1145.75	6902.4
1150.12	4087.67
1154.48	2622.33
1158.84	1693.18
1163.2	1318.27
1167.55	1065.06
1171.91	929.285
1176.26	851.941
1180.61	509.898
1184.95	262.475
1189.29	401.662
1193.63	317.131
1197.97	39.7246
1202.31	112.434
1206.64	82.6797
1210.97	302.744
1215.29	87.7949
1219.62	154.725
1223.94	295.002
1228.26	61.1543
1232.57	70.459
1236.89	18.4902
1241.2	0.773438
1245.51	64.2676
1249.81	165.027
1254.12	111.981
1258.42	36.2871
1262.72	178.902
1267.01	2.14648
1271.3	93.0625
1275.59	187.164
1279.88	166.016
1284.17	108.162
1288.45	83.4824
1292.73	160.797
1297.01	200.977
1301.28	246.391
1305.55	268.51
1309.82	362.219
1314.09	26.4609
1318.35	477.6
1322.61	214.766
1326.87	334.254
1331.13	172.406
1335.38	144.209
1339.63	393.938
1343.88	28.9219
1348.12	234.371
1352.37	291.4
1356.61	162.949
1360.85	281.264
1365.08	299.914
1369.31	28.584
1373.54	340.435
1377.77	259.242
1381.99	176.732
1386.22	359.055
1390.43	201.086
1394.65	181.805
1398.87	241.898
1403.08	72.6992
1407.29	250.644
1411.49	100.492
1415.69	133.418
1419.89	99.8086
1424.09	210.586
1428.29	188.84
1432.48	294.418
1436.67	153.793
1440.86	400.227
1445.04	388.203
1449.23	340.539
1453.4	331.941
1457.58	283.168
1461.76	254.367
1465.93	319.211
1470.1	162.086
1474.26	90.793
1478.43	241.644
1482.59	0.570313
1486.75	57.6797
1490.9	160.168
1495.06	300.785
1499.21	191
1503.35	44.5742
1507.5	34.3008
1511.64	335.844
1515.78	279.672
1519.92	270.07
1524.05	471.203
1528.18	294.391
1532.31	275.121
1536.44	199.152
1540.56	261.34
1544.69	351.531
1548.8	255.328
1552.92	213.453
1557.03	157.957
1561.14	7.13281
1565.25	425.043
1569.36	0.617188
