Measurement: Raman, 514 nm, ccw, Raman Data Processed
Mineral: Bikitaite
Rruff sample: R050160
Ideal chemistry: LiAlSi_2_O_6_H_2_O
Locality: Foote mine, Kings Mountain, Cleveland County, North Carolina, USA
Source: Jim McGlasson
Description: Colorless prismatic crystals
Measured chemistry: Li_1.00_Si_2.00_O_6_Â·1.25H_2_O ; Li not measured but estimated by stoichiometry
Pin_id: M00247
Orientation: Laser parallel to -b* (0 -1 0). Fiducial mark perpendicular to laser is parallel to c [0 0 1]
Raman shift (cm-1)	intensity
61.962	0
66.157	249.388
70.349	326.568
74.54	16.306
78.729	341.989
82.916	5126.79
87.101	7509.07
91.284	4847.62
95.465	6127.4
99.644	9276.97
103.82	13309.7
107.995	18468.9
112.168	24794.6
116.339	26269.7
120.508	20760.6
124.675	15761
128.84	11991
133.003	9657.48
137.164	8017.24
141.323	7647.4
145.48	7087.91
149.635	7103.77
153.788	8371.09
157.939	10250.1
162.088	10491.2
166.235	9880.07
170.38	8899.95
174.523	7015.49
178.664	4526.79
182.803	2757.69
186.94	1803.35
191.076	1285.58
195.209	1470.13
199.34	2539.5
203.47	4011.7
207.597	3817.05
211.722	2243.68
215.846	2119.45
219.967	2664.21
224.087	2255.87
228.204	1377.74
232.32	625.87
236.434	445.627
240.545	740.121
244.655	1393.44
248.763	2144.02
252.869	2487.32
256.973	1935.49
261.075	726.833
265.175	87.845
269.273	312.387
273.369	20.386
277.463	267.751
281.556	101.002
285.646	176.415
289.734	983.491
293.821	1608.08
297.905	1502.27
301.988	1032.07
306.069	149.375
310.147	272.413
314.224	197.203
318.299	20.52
322.372	954.934
326.443	2213.43
330.512	901.566
334.579	188.652
338.645	188.691
342.708	469.119
346.769	1104.54
350.829	1029.96
354.887	731.382
358.942	843.621
362.996	1498.77
367.048	3262.17
371.098	6148.37
375.146	10608.4
379.192	18150.2
383.236	25303.7
387.279	27071.9
391.319	25942.7
395.358	27882.8
399.394	26600.5
403.429	18343.8
407.462	13143.5
411.493	11671.5
415.522	12095.9
419.549	13345.9
423.575	12609.5
427.598	9191.92
431.619	5701.51
435.639	4223.77
439.657	3241.69
443.673	2391.13
447.687	1713.02
451.699	1747.7
455.709	2509.02
459.717	2176.73
463.724	1786.61
467.728	2488.26
471.731	4677.8
475.732	9018.59
479.731	12896.7
483.728	16236.8
487.723	23758.5
491.716	35404.1
495.708	40482.6
499.697	33523.1
503.685	25104.5
507.671	18770.5
511.655	13392.6
515.637	9251.51
519.617	6479.14
523.596	4512.38
527.572	3266.08
531.547	2821.24
535.52	2404.76
539.491	2524.67
543.46	2217.93
547.427	1343.45
551.393	614.213
555.356	85.214
559.318	24.3
563.278	74.032
567.236	55.153
571.192	7.852
575.147	74.188
579.099	43.563
583.05	111.924
586.999	185
590.946	261.014
594.891	93.31
598.834	379.802
602.776	379.487
606.715	345.326
610.653	240.02
614.589	124.399
618.523	13.208
622.456	57.455
626.386	53.117
630.315	21.299
634.242	22.438
638.167	117.359
642.09	5.944
646.012	59.441
649.931	34.406
653.849	98.977
657.765	39.56
661.679	82.682
665.592	117.199
669.502	173.682
673.411	351.771
677.318	535
681.223	749.581
685.126	1086.48
689.028	1179.48
692.927	1362.81
696.825	1823.76
700.721	1787.81
704.616	1667.63
708.508	1534.43
712.399	1327.72
716.288	923.37
720.175	673.376
724.06	693.438
727.944	662.684
731.825	976.04
735.705	974.017
739.584	1318.21
743.46	1361.02
747.334	2276.64
751.207	3396.98
755.078	5521.24
758.947	8388.23
762.815	10718.4
766.68	10485
770.544	8072.63
774.406	5629.1
778.267	4106.89
782.125	2935.01
785.982	2209.78
789.837	1566.17
793.69	1308.4
797.542	1139.05
801.391	725.683
805.239	512.676
809.085	635.164
812.93	398.654
816.772	358.71
820.613	143.657
824.452	169.176
828.29	162.048
832.125	186.897
835.959	64.281
839.791	274.99
843.621	224.617
847.45	173.675
851.277	2.241
855.102	59.398
858.925	114.221
862.746	36.678
866.566	80.737
870.384	27.549
874.2	110.194
878.015	18.772
881.828	77.277
885.639	80.837
889.448	38.321
893.256	23.243
897.061	86.022
900.865	186.535
904.668	7.124
908.468	60.003
912.267	40.033
916.064	33.246
919.86	17.243
923.653	91.4
927.445	3.939
931.236	153.259
935.024	9.411
938.811	12.518
942.596	75.042
946.379	149.272
950.161	411.256
953.94	807.964
957.719	2028.36
961.495	3146.49
965.27	3281.22
969.043	5768.57
972.814	5571.2
976.583	2693.44
980.351	1272.09
984.117	762.024
987.882	1258.38
991.644	2609.06
995.405	2520.54
999.165	1235.16
1002.92	761.619
1006.68	320.292
1010.43	251.191
1014.18	500.029
1017.93	437.345
1021.68	133.909
1025.43	101.81
1029.18	94.93
1032.92	39.13
1036.66	123.52
1040.4	44.442
1044.14	28.656
1047.88	128.896
1051.62	329.087
1055.35	234.165
1059.08	415.104
1062.81	543.988
1066.54	660.79
1070.27	1153.78
1073.99	1510.26
1077.72	2240.52
1081.44	3465.95
1085.16	4641.3
1088.88	6345.84
1092.59	8362.93
1096.31	8163.52
1100.02	6668.76
1103.73	5018.17
1107.44	4468.64
1111.15	3004.64
1114.86	1929.36
1118.57	1392.94
1122.27	1122.51
1125.97	1182.81
1129.67	1503.7
1133.37	1807.52
1137.07	1749.63
1140.76	1373.74
1144.45	695.68
1148.15	798.518
1151.84	614.884
1155.53	731.041
1159.21	837.368
1162.9	1179.88
1166.58	1363.55
1170.26	1469.51
1173.94	938.138
1177.62	925.4
1181.3	571.493
1184.97	437.824
1188.65	284.967
1192.32	315.451
1195.99	233.405
1199.66	195.867
1203.33	164.132
1206.99	237.608
1210.65	62.989
1214.32	113.28
1217.98	81.9
1221.64	8.933
1225.29	3.399
1228.95	3.036
1232.6	291.962
1236.26	119.489
1239.91	160.902
1243.56	153.879
1247.2	48.493
1250.85	20.58
1254.49	68.706
1258.13	107.157
1261.78	40.12
1265.41	66.536
1269.05	86.914
1272.69	28.685
1276.32	59.398
1279.95	5.223
1283.59	13.303
1287.21	4.502
1290.84	179.608
1294.47	69.098
1298.09	32.551
1301.72	15.75
1305.34	35.298
1308.96	19.636
1312.58	83.504
1316.19	11.308
1319.81	70.876
1323.42	67.365
1327.03	53.427
1330.64	9.231
1334.25	109.339
1337.86	106.142
1341.46	16.529
1345.07	152.543
1348.67	170.231
1352.27	83.689
1355.87	317.578
1359.46	230.519
1363.06	322.063
1366.65	288.344
1370.25	386.969
1373.84	264.076
1377.43	294.623
1381.02	278.49
1384.6	308.356
1388.18	421.769
1391.77	385.906
1395.35	257.958
1398.93	234.618
1402.51	382.693
1406.08	380.566
1409.66	148.702
1413.23	313.78
1416.8	251.094
1420.37	330.703
1423.94	352.648
1427.51	202.628
1431.08	308.986
1434.64	344.28
1438.2	483.421
1441.76	406.624
1445.32	536.292
1448.88	619.785
1452.43	373.683
1455.99	621.67
1459.54	489.036
1463.09	584.298
1466.64	761.554
1470.19	396.288
1473.74	622.052
1477.28	459.137
1480.83	374.042
1484.37	316.679
1487.91	300.743
1491.45	189.5
1494.98	900.408
1498.52	277.222
1502.05	15.888
1505.59	134.24
1509.12	20.302
1512.65	168.968
1516.17	241.54
1519.7	9.948
1523.23	10.517
