Measurement: Raman, 514 nm, ccw, Raman Data Processed
Mineral: Bobdownsite
Rruff sample: R050109
Ideal chemistry: Ca_9_Mg(PO_4_)_6_(PO_3_F)
Locality: Big Fish River, Yukon Territory, Canada
Source: Rock Currier
Description: Colorless hexagonal tabular crystals, type sample
Measured chemistry: (Ca_8.76_Na_0.24_)_Σ=9_(Mg_0.72_Fe^3+^_0.13_Al_0.11_Fe^2+^_0.04_)_Σ=1_(P_1.00_O_4_)_6_(P_1.00_O_3_F_1.00_); Fe^2+^ and Fe^3+^ by charge balance
Pin_id: L00194
Orientation: Laser parallel to c* (0 0 1). Fiducial mark perpendicular to laser is parallel to a [1 0 0]
Raman shift (cm-1)	intensity
91.284	0
95.465	81.41
99.644	399.334
103.82	367.747
107.995	257.989
112.168	86.8
116.339	152.333
120.508	57.281
124.675	80.858
128.84	16.363
133.003	142.72
137.164	197.604
141.323	181.192
145.48	172.609
149.635	253.92
153.788	493.505
157.939	854.085
162.088	954.3
166.235	794.321
170.38	632.666
174.523	717.336
178.664	762.198
182.803	389.585
186.94	187.537
191.076	144.059
195.209	74.145
199.34	16.914
203.47	6.041
207.597	17.654
211.722	12.867
215.846	62.032
219.967	102.953
224.087	127.278
228.204	133.829
232.32	175.817
236.434	142.665
240.545	211.195
244.655	240.906
248.763	205.236
252.869	309.208
256.973	303.442
261.075	371.934
265.175	354.736
269.273	362.949
273.369	392.074
277.463	464.064
281.556	610.437
285.646	646.149
289.734	522.48
293.821	353.416
297.905	250.957
301.988	155.125
306.069	95.916
310.147	87.298
314.224	24.008
318.299	3.097
322.372	30.339
326.443	8.672
330.512	43.838
334.579	25.837
338.645	16.285
342.708	12.166
346.769	18.465
350.829	15.081
354.887	33.067
358.942	12.292
362.996	47.597
367.048	68.032
371.098	42.705
375.146	97.122
379.192	127.412
383.236	201.893
387.279	229.771
391.319	485.537
395.358	664.28
399.394	961.693
403.429	1434.06
407.462	2025.65
411.493	2066
415.522	1604.27
419.549	1370.36
423.575	1237.2
427.598	1287.8
431.619	1420.12
435.639	1490.16
439.657	1453.92
443.673	1474.41
447.687	1522.66
451.699	1546.65
455.709	1639.38
459.717	1696.86
463.724	1623.14
467.728	1270.26
471.731	1120.08
475.732	1028.09
479.731	1003.42
483.728	1111.09
487.723	1049.59
491.716	783.151
495.708	559.326
499.697	346.899
503.685	231.376
507.671	241.2
511.655	166.556
515.637	158.938
519.617	148.957
523.596	157.48
527.572	157.69
531.547	186.865
535.52	235.909
539.491	382.138
543.46	820.01
547.427	1235.55
551.393	1201.57
555.356	1222.09
559.318	1846.04
563.278	1934.54
567.236	1375.92
571.192	862.663
575.147	545.652
579.099	362.387
583.05	318.614
586.999	478.537
590.946	743.505
594.891	800.371
598.834	945.315
602.776	1292.34
606.715	1555.69
610.653	1112.44
614.589	827.657
618.523	971.883
622.456	1157.66
626.386	1060.47
630.315	1036.02
634.242	929.49
638.167	475.887
642.09	176.191
646.012	130.201
649.931	50.606
653.849	37.711
657.765	47.461
661.679	34.255
665.592	48.391
669.502	49.925
673.411	24.608
677.318	4.949
681.223	14.169
685.126	8.698
689.028	41.953
692.927	10.734
696.825	0.341
700.721	46.055
704.616	92.952
708.508	80.137
712.399	14.295
716.288	19.326
720.175	49.238
724.06	0.983
727.944	7.347
731.825	25.154
735.705	0.552
739.584	22.174
743.46	51.938
747.334	16.961
751.207	19.899
755.078	0.975
758.947	6.539
762.815	9.033
766.68	43.503
770.544	35.113
774.406	5.129
778.267	13.272
782.125	38.343
785.982	14.357
789.837	21.316
793.69	44.777
797.542	30.807
801.391	21.345
805.239	2.121
809.085	10.746
812.93	21.682
816.772	55.705
820.613	0.983
824.452	5.803
828.29	28.739
832.125	30.474
835.959	29.351
839.791	28.514
843.621	5.427
847.45	1.927
851.277	26.585
855.102	2.844
858.925	0.55
862.746	65.792
866.566	49.612
870.384	56.275
874.2	36.327
878.015	41.479
881.828	28.58
885.639	120.84
889.448	115.638
893.256	138.575
897.061	166.102
900.865	238.806
904.668	330.677
908.468	400.824
912.267	625.033
916.064	961.949
919.86	1937.73
923.653	4475.23
927.445	7348.71
931.236	5278.29
935.024	2003.71
938.811	1250.32
942.596	1130.01
946.379	1375.87
950.161	2044.74
953.94	3834.08
957.719	8829.09
961.495	23014.6
965.27	34078.8
969.043	37555.6
972.814	37279.4
976.583	29125.6
980.351	12161.6
984.117	4667.09
987.882	3026.97
991.644	2717.6
995.405	2982.98
999.165	3591.7
1002.92	3754.63
1006.68	3160.52
1010.43	2140.8
1014.18	1760.95
1017.93	1749.69
1021.68	1846.88
1025.43	2041.42
1029.18	2200.7
1032.92	2384.07
1036.66	2404.26
1040.4	2152.28
1044.14	1656.7
1047.88	1303.89
1051.62	1367.23
1055.35	1366.71
1059.08	1437.34
1062.81	1406.14
1066.54	1379.1
1070.27	1376.76
1073.99	1409.02
1077.72	1480.44
1081.44	1470.02
1085.16	1718.72
1088.88	2008.54
1092.59	2032.5
1096.31	1711.58
1100.02	1561.85
1103.73	1443.32
1107.44	1260.9
1111.15	949.606
1114.86	583.45
1118.57	413.26
1122.27	427.449
1125.97	321.517
1129.67	258.471
1133.37	182.949
1137.07	172.21
1140.76	124.708
1144.45	105.001
1148.15	128.235
1151.84	186.049
1155.53	180.258
1159.21	92.263
1162.9	71.93
1166.58	8.345
1170.26	52.745
1173.94	32.26
1177.62	46.94
1181.3	26.199
1184.97	11.649
1188.65	17.849
1192.32	8.083
1195.99	55.729
1199.66	38.142
1203.33	41.787
1206.99	50.075
1210.65	34.823
1214.32	102.009
1217.98	44.704
1221.64	66.774
1225.29	90.659
1228.95	43.065
1232.6	101.793
1236.26	55.432
1239.91	16.055
1243.56	116.81
1247.2	87.353
1250.85	63.29
1254.49	53.917
1258.13	17.5
1261.78	59.203
1265.41	17.488
1269.05	40.622
1272.69	48.592
1276.32	118.26
1279.95	8.303
1283.59	8.987
1287.21	30.432
1290.84	4.684
1294.47	14.992
1298.09	3.601
1301.72	1.03
1305.34	1.167
1308.96	16.76
1312.58	29.114
1316.19	71.663
1319.81	10.499
1323.42	34.002
1327.03	31.918
1330.64	56.043
1334.25	23.527
1337.86	23.602
1341.46	31.926
1345.07	35.484
1348.67	57.125
1352.27	69.102
1355.87	36.847
1359.46	100.218
1363.06	36.175
1366.65	47.604
1370.25	1.825
1373.84	66.021
1377.43	60.614
1381.02	114.677
1384.6	144.162
1388.18	110.487
1391.77	75.606
1395.35	64.515
1398.93	74.302
1402.51	38.193
1406.08	69.443
1409.66	82.696
1413.23	111.864
1416.8	134.169
1420.37	188.08
1423.94	113.82
1427.51	90.979
1431.08	78.042
1434.64	100.73
1438.2	54.797
1441.76	75.159
1445.32	92.718
1448.88	63.044
1452.43	58.318
1455.99	159.417
1459.54	192.977
1463.09	164.711
1466.64	172.262
1470.19	170.91
1473.74	69.392
1477.28	73.847
1480.83	65.387
1484.37	89.104
1487.91	111.282
1491.45	114.592
1494.98	84.522
1498.52	144.788
1502.05	192.824
1505.59	171.465
1509.12	131.124
1512.65	102.13
1516.17	36.34
1519.7	62.596
