Measurement: Raman, 514 nm, ccw, Raman Data Processed
Mineral: Bobdownsite
Rruff sample: R050109
Ideal chemistry: Ca_9_Mg(PO_4_)_6_(PO_3_F)
Locality: Big Fish River, Yukon Territory, Canada
Source: Rock Currier
Description: Colorless hexagonal tabular crystals, type sample
Measured chemistry: (Ca_8.76_Na_0.24_)_Σ=9_(Mg_0.72_Fe^3+^_0.13_Al_0.11_Fe^2+^_0.04_)_Σ=1_(P_1.00_O_4_)_6_(P_1.00_O_3_F_1.00_); Fe^2+^ and Fe^3+^ by charge balance
Pin_id: L00351
Orientation: Laser parallel to a* (1 0 0). Fiducial mark perpendicular to laser is parallel to -c [0 0 -1]
Raman shift (cm-1)	intensity
49.365	0
53.566	101.481
57.765	229.14
61.962	405.914
66.157	461.521
70.349	341.762
74.54	160.151
78.729	74.635
82.916	2.573
87.101	38.749
91.284	2.091
95.465	210.859
99.644	715.382
103.82	854.406
107.995	641.769
112.168	517.418
116.339	528.317
120.508	462.46
124.675	505.315
128.84	623.657
133.003	775.148
137.164	819.597
141.323	798.285
145.48	794.958
149.635	1013.44
153.788	1403.32
157.939	1889.99
162.088	2062.69
166.235	1759.45
170.38	1579.25
174.523	1632.11
178.664	1656.01
182.803	1233.96
186.94	937.034
191.076	778.311
195.209	727.297
199.34	663.006
203.47	562.277
207.597	538.753
211.722	539.471
215.846	570.216
219.967	563.328
224.087	559.504
228.204	601.466
232.32	639.287
236.434	664.276
240.545	603.773
244.655	649.17
248.763	707.338
252.869	728.998
256.973	755.844
261.075	776.59
265.175	795.879
269.273	794.23
273.369	796.639
277.463	854.1
281.556	1070.61
285.646	1153.17
289.734	941.761
293.821	681.38
297.905	510.018
301.988	369.668
306.069	232.329
310.147	239.998
314.224	152.678
318.299	94.374
322.372	31.091
326.443	54.827
330.512	6.422
334.579	9.666
338.645	54.909
342.708	43.194
346.769	34.519
350.829	16.877
354.887	12.749
358.942	5.641
362.996	0.847
367.048	40.763
371.098	13.396
375.146	9.969
379.192	95.347
383.236	96.714
387.279	250.051
391.319	481.369
395.358	692.691
399.394	982.028
403.429	1504.39
407.462	2206.82
411.493	2240.33
415.522	1747
419.549	1471.82
423.575	1365.7
427.598	1476.6
431.619	1648.52
435.639	1697.45
439.657	1712.4
443.673	1700.37
447.687	1749.33
451.699	1768.31
455.709	1859.29
459.717	1994.27
463.724	1838.26
467.728	1452.24
471.731	1194.21
475.732	1056.17
479.731	1065.11
483.728	1143.95
487.723	1130.65
491.716	826.684
495.708	534.766
499.697	287.609
503.685	166.231
507.671	135.037
511.655	78.579
515.637	98.429
519.617	54.048
523.596	66.821
527.572	81.016
531.547	138.896
535.52	211.803
539.491	424.027
543.46	1048.71
547.427	1684.99
551.393	1700.91
555.356	1351.58
559.318	1759.64
563.278	2415.06
567.236	1861.96
571.192	998.65
575.147	556.65
579.099	383.611
583.05	393.695
586.999	580.275
590.946	945.183
594.891	1013.46
598.834	1224.63
602.776	1773.43
606.715	1942.85
610.653	1347.23
614.589	987.219
618.523	1106.21
622.456	1497.65
626.386	1533.56
630.315	1415.96
634.242	1215.28
638.167	597.426
642.09	251.551
646.012	105.795
649.931	78.035
653.849	87.654
657.765	39.594
661.679	31.865
665.592	27.205
669.502	36.34
673.411	9.408
677.318	44.466
681.223	38.705
685.126	24.37
689.028	14.835
692.927	8.931
696.825	32.794
700.721	46.236
704.616	41.616
708.508	14.808
712.399	25.635
716.288	9.63
720.175	1.26
724.06	4.339
727.944	22.164
731.825	29.24
735.705	3.442
739.584	24.916
743.46	9.765
747.334	1.354
751.207	39.298
755.078	36.052
758.947	36.636
762.815	2.067
766.68	0.313
770.544	10.392
774.406	1.304
778.267	31.059
782.125	1.327
785.982	7.135
789.837	14.523
793.69	0.309
797.542	14.199
801.391	32.746
805.239	15.51
809.085	43.973
812.93	14.909
816.772	32.752
820.613	0.928
824.452	6.114
828.29	0.656
832.125	39.248
835.959	17.588
839.791	37.17
843.621	0.617
847.45	6.508
851.277	53.039
855.102	0.398
858.925	71.869
862.746	62.6
866.566	124.024
870.384	50.271
874.2	53.134
878.015	80.554
881.828	87.427
885.639	121.656
889.448	136.399
893.256	155.609
897.061	270.169
900.865	314.528
904.668	451.498
908.468	629.768
912.267	976.379
916.064	1853.83
919.86	4146.72
923.653	8359.48
927.445	8664.46
931.236	4812.59
935.024	2223.43
938.811	1597.52
942.596	1688.27
946.379	1962.08
950.161	2967.28
953.94	5743.95
957.719	13578.7
961.495	34702.6
965.27	47809.5
969.043	52933.4
972.814	51759.7
976.583	35857.7
980.351	14405.8
984.117	7532.24
987.882	7970.29
991.644	9118.12
995.405	7766.15
999.165	6231.19
1002.92	4376.76
1006.68	2841.41
1010.43	2129.29
1014.18	2066.38
1017.93	2417.83
1021.68	2862.34
1025.43	3323.4
1029.18	3421.21
1032.92	3399.99
1036.66	3256.98
1040.4	2583.42
1044.14	1771.54
1047.88	1610.31
1051.62	1544.82
1055.35	1589.28
1059.08	1670.28
1062.81	1976.24
1066.54	2097.42
1070.27	2053.6
1073.99	2344.94
1077.72	2767.47
1081.44	2537.17
1085.16	2141.05
1088.88	1944.1
1092.59	2011.28
1096.31	1926.6
1100.02	1827.05
1103.73	1766.67
1107.44	1592.44
1111.15	1346.36
1114.86	972.47
1118.57	597.666
1122.27	510.168
1125.97	350.814
1129.67	220.608
1133.37	198.69
1137.07	132.558
1140.76	149.03
1144.45	118.953
1148.15	203.728
1151.84	200.093
1155.53	113.619
1159.21	103.081
1162.9	46.505
1166.58	1.838
1170.26	32
1173.94	69.552
1177.62	63.128
1181.3	6.588
1184.97	10.103
1188.65	30.804
1192.32	32.732
1195.99	21.485
1199.66	22.917
1203.33	6.87
1206.99	53.934
1210.65	50.972
1214.32	83.661
1217.98	105.77
1221.64	99.617
1225.29	73.993
1228.95	57.34
1232.6	62.242
1236.26	62.875
1239.91	84.965
1243.56	65.08
1247.2	101.765
1250.85	135.833
1254.49	137.028
1258.13	27.063
1261.78	47.922
1265.41	29.56
1269.05	68.335
1272.69	29.616
1276.32	100.757
1279.95	111.759
1283.59	56.417
1287.21	33.008
1290.84	0.89
1294.47	8.987
1298.09	6.698
1301.72	21.216
1305.34	26.487
1308.96	23.487
1312.58	55.117
1316.19	110.72
1319.81	19.917
1323.42	17.926
1327.03	8.287
1330.64	2.599
1334.25	27.296
1337.86	71.302
1341.46	54.807
1345.07	71.285
1348.67	89.621
1352.27	63.197
1355.87	49.629
1359.46	41.598
1363.06	3.392
1366.65	1.536
1370.25	0.854
1373.84	53.98
1377.43	70.449
1381.02	100.774
1384.6	76.011
1388.18	101.031
1391.77	158.76
1395.35	45.236
1398.93	56.115
1402.51	55.601
1406.08	80.439
1409.66	62.776
1413.23	125.306
1416.8	156.125
1420.37	117.234
1423.94	104.436
1427.51	154.592
1431.08	126.286
1434.64	103.072
1438.2	101.712
1441.76	121.699
1445.32	85.207
1448.88	110.38
1452.43	103.774
1455.99	205.449
1459.54	203.131
1463.09	212.025
1466.64	131
1470.19	135.506
1473.74	41.886
1477.28	59.786
1480.83	78.608
1484.37	40.235
1487.91	52.37
1491.45	119.616
1494.98	87.354
1498.52	159.276
1502.05	170.8
1505.59	159.935
1509.12	161.841
1512.65	138.843
1516.17	117.423
1519.7	68.356
