Measurement: Raman, 514 nm, ccw, Raman Data Processed
Mineral: Bobdownsite
Rruff sample: R050109
Ideal chemistry: Ca_9_Mg(PO_4_)_6_(PO_3_F)
Locality: Big Fish River, Yukon Territory, Canada
Source: Rock Currier
Description: Colorless hexagonal tabular crystals, type sample
Measured chemistry: (Ca_8.76_Na_0.24_)_Σ=9_(Mg_0.72_Fe^3+^_0.13_Al_0.11_Fe^2+^_0.04_)_Σ=1_(P_1.00_O_4_)_6_(P_1.00_O_3_F_1.00_); Fe^2+^ and Fe^3+^ by charge balance
Pin_id: L00351
Orientation: Laser parallel to a* (1 0 0). Fiducial mark perpendicular to laser is parallel to -c [0 0 -1]
Raman shift (cm-1)	intensity
49.365	0
53.566	155.719
57.765	292.6
61.962	384.692
66.157	279.29
70.349	60.116
74.54	19.459
78.729	17.619
82.916	54.499
87.101	193.602
91.284	306.268
95.465	591.77
99.644	696.727
103.82	685.914
107.995	564.243
112.168	612.834
116.339	591.551
120.508	475.888
124.675	661.401
128.84	1118.44
133.003	2113.26
137.164	2871.12
141.323	2311.69
145.48	1498.98
149.635	1050.7
153.788	1060.18
157.939	1078.55
162.088	826.837
166.235	407.027
170.38	146.125
174.523	39.132
178.664	47.046
182.803	39.863
186.94	126.584
191.076	243.944
195.209	335.969
199.34	287.397
203.47	172.354
207.597	115.353
211.722	56.321
215.846	85.854
219.967	106.203
224.087	104.896
228.204	212.331
232.32	228.11
236.434	266.575
240.545	250.67
244.655	232.553
248.763	285.393
252.869	326.054
256.973	482.252
261.075	759.421
265.175	923.549
269.273	888.633
273.369	898.667
277.463	1179.64
281.556	1947.52
285.646	2678.32
289.734	2706.07
293.821	2329.75
297.905	2106.35
301.988	1752.84
306.069	1191.23
310.147	729.532
314.224	451.755
318.299	301.898
322.372	179.968
326.443	105.951
330.512	58.395
334.579	27.557
338.645	17.409
342.708	13.921
346.769	7.441
350.829	10.219
354.887	0.982
358.942	4.995
362.996	12.465
367.048	24.216
371.098	36.518
375.146	23.68
379.192	8.214
383.236	11.1
387.279	5.352
391.319	51.757
395.358	115.063
399.394	203.305
403.429	362.526
407.462	509.751
411.493	562.959
415.522	595.114
419.549	706.067
423.575	935.167
427.598	1276.08
431.619	1546.93
435.639	1610.69
439.657	1407.38
443.673	1194.01
447.687	1073.58
451.699	1043.07
455.709	965.499
459.717	796.858
463.724	667.157
467.728	594.385
471.731	477.565
475.732	329.669
479.731	183.682
483.728	120.618
487.723	101.457
491.716	47.658
495.708	71.329
499.697	29.749
503.685	23.694
507.671	28.288
511.655	23.543
515.637	29.399
519.617	37.485
523.596	59.065
527.572	89.878
531.547	111.625
535.52	205.312
539.491	449.977
543.46	888.791
547.427	1682.59
551.393	3066.85
555.356	2518.96
559.318	1389.02
563.278	988.274
567.236	937.391
571.192	844.583
575.147	554.701
579.099	375.966
583.05	298.578
586.999	292.771
590.946	213.712
594.891	281.657
598.834	319.295
602.776	440.023
606.715	559.578
610.653	757.793
614.589	1032.92
618.523	1406.31
622.456	1836.24
626.386	2980.99
630.315	5292.54
634.242	7610.58
638.167	4947.87
642.09	2024.68
646.012	922.558
649.931	444.956
653.849	328.329
657.765	193.548
661.679	176.936
665.592	161.996
669.502	111.013
673.411	121.492
677.318	91.462
681.223	66.694
685.126	41.337
689.028	54.499
692.927	57.604
696.825	69.67
700.721	67.362
704.616	32.916
708.508	44.318
712.399	11.552
716.288	16.594
720.175	49.452
724.06	3.861
727.944	22.611
731.825	22.909
735.705	36.053
739.584	3.959
743.46	26.82
747.334	0.439
751.207	46.879
755.078	67.134
758.947	9.191
762.815	31.047
766.68	25.258
770.544	28.764
774.406	12.467
778.267	49.64
782.125	50.556
785.982	19.269
789.837	19.158
793.69	10.731
797.542	2.494
801.391	10.57
805.239	3.473
809.085	42.659
812.93	24.039
816.772	51.386
820.613	52.696
824.452	3.867
828.29	9.043
832.125	15.203
835.959	6.427
839.791	15.257
843.621	28.085
847.45	36.276
851.277	7.475
855.102	40.058
858.925	27.024
862.746	86.632
866.566	119.453
870.384	39.252
874.2	90.041
878.015	103.661
881.828	128.606
885.639	146.574
889.448	249.73
893.256	237.99
897.061	389.136
900.865	529.307
904.668	641.303
908.468	825.605
912.267	1175.15
916.064	2110.68
919.86	4675.75
923.653	8934.02
927.445	8807.21
931.236	4640.23
935.024	2172.84
938.811	1561.53
942.596	1544.18
946.379	1988.72
950.161	2977.65
953.94	6017.31
957.719	14551.2
961.495	38353
965.27	53056.4
969.043	57470.6
972.814	56065.7
976.583	38400.9
980.351	14738.3
984.117	6378.46
987.882	4719.49
991.644	4479.34
995.405	3700.92
999.165	2862.36
1002.92	1934.96
1006.68	1275.04
1010.43	955.322
1014.18	792.831
1017.93	694.573
1021.68	705.013
1025.43	742.144
1029.18	762.911
1032.92	876.127
1036.66	597.739
1040.4	664.203
1044.14	832.552
1047.88	904.915
1051.62	849.752
1055.35	760.936
1059.08	687.016
1062.81	618.179
1066.54	703.524
1070.27	956.204
1073.99	1311.08
1077.72	1947.03
1081.44	2859.18
1085.16	4750.54
1088.88	7210.1
1092.59	6811.83
1096.31	4754.72
1100.02	3878.8
1103.73	3755.05
1107.44	3840.45
1111.15	3722.03
1114.86	2864.79
1118.57	1949.73
1122.27	1406.83
1125.97	954.129
1129.67	670.143
1133.37	565.845
1137.07	419.75
1140.76	275.174
1144.45	230.555
1148.15	76.302
1151.84	164.973
1155.53	139.646
1159.21	98.027
1162.9	70.112
1166.58	28.105
1170.26	0.816
1173.94	50.165
1177.62	44.445
1181.3	26.028
1184.97	16.23
1188.65	50.296
1192.32	36.842
1195.99	2.919
1199.66	20.477
1203.33	4.052
1206.99	33.132
1210.65	58.21
1214.32	78.008
1217.98	102.948
1221.64	113.368
1225.29	83.398
1228.95	65.629
1232.6	65.321
1236.26	54.04
1239.91	42.305
1243.56	102.364
1247.2	160.252
1250.85	150.151
1254.49	83.893
1258.13	109.759
1261.78	71.599
1265.41	61.296
1269.05	42.604
1272.69	45.538
1276.32	99.508
1279.95	64.143
1283.59	87.367
1287.21	28.392
1290.84	15.779
1294.47	47.916
1298.09	1.977
1301.72	13.58
1305.34	42.551
1308.96	5.293
1312.58	55.762
1316.19	89.551
1319.81	93.029
1323.42	29.686
1327.03	29.35
1330.64	10.359
1334.25	41.336
1337.86	39.147
1341.46	106.001
1345.07	67.369
1348.67	24.443
1352.27	86.863
1355.87	57.878
1359.46	19.723
1363.06	27.239
1366.65	22.574
1370.25	41.842
1373.84	21.481
1377.43	77.212
1381.02	144.98
1384.6	78.346
1388.18	163.525
1391.77	84.508
1395.35	89.276
1398.93	67.402
1402.51	91.768
1406.08	69.232
1409.66	20.464
1413.23	116.875
1416.8	104.287
1420.37	174.185
1423.94	140.037
1427.51	115.89
1431.08	127.983
1434.64	42.378
1438.2	5.209
1441.76	11.989
1445.32	59.03
1448.88	77.985
1452.43	114.654
1455.99	162.323
1459.54	140.423
1463.09	151.888
1466.64	152.724
1470.19	144.97
1473.74	49.048
1477.28	43.572
1480.83	4.056
1484.37	44.53
1487.91	0.367
1491.45	90.248
1494.98	122.522
1498.52	125.122
1502.05	121.14
1505.59	183.62
1509.12	120.505
1512.65	116.934
1516.17	112.67
1519.7	0
