Measurement: Raman, 514 nm, ccw, Raman Data Processed
Mineral: Bobdownsite
Rruff sample: R050109
Ideal chemistry: Ca_9_Mg(PO_4_)_6_(PO_3_F)
Locality: Big Fish River, Yukon Territory, Canada
Source: Rock Currier
Description: Colorless hexagonal tabular crystals, type sample
Measured chemistry: (Ca_8.76_Na_0.24_)_Σ=9_(Mg_0.72_Fe^3+^_0.13_Al_0.11_Fe^2+^_0.04_)_Σ=1_(P_1.00_O_4_)_6_(P_1.00_O_3_F_1.00_); Fe^2+^ and Fe^3+^ by charge balance
Pin_id: L00351
Orientation: Laser parallel to a* (1 0 0). Fiducial mark perpendicular to laser is parallel to -c [0 0 -1]
Raman shift (cm-1)	intensity
49.365	0
53.566	26.302
57.765	116.099
61.962	181.643
66.157	196.41
70.349	48.559
74.54	14.513
78.729	49.339
82.916	62.567
87.101	102.284
91.284	289.705
95.465	481.447
99.644	809.898
103.82	895.81
107.995	739.07
112.168	594.608
116.339	666.37
120.508	571.708
124.675	710.979
128.84	992.958
133.003	1499.71
137.164	1960.45
141.323	1981.13
145.48	2076.48
149.635	2093.39
153.788	1859.19
157.939	1691.94
162.088	1563.65
166.235	1204.33
170.38	892.994
174.523	742.636
178.664	687.254
182.803	483.848
186.94	408.995
191.076	427.001
195.209	444.823
199.34	450.332
203.47	350.912
207.597	265.047
211.722	306.21
215.846	398.047
219.967	428.391
224.087	400.62
228.204	441.438
232.32	515.156
236.434	551.226
240.545	509.603
244.655	610.649
248.763	682.242
252.869	727.988
256.973	823.277
261.075	965.61
265.175	1007.97
269.273	1023.36
273.369	960.766
277.463	1059.18
281.556	1340.6
285.646	1542.03
289.734	1437.43
293.821	1179.79
297.905	994.114
301.988	795.4
306.069	505.647
310.147	302.859
314.224	142.04
318.299	30.193
322.372	2.695
326.443	13.646
330.512	43.701
334.579	17.912
338.645	43.768
342.708	34.735
346.769	14.321
350.829	5.573
354.887	35.185
358.942	54.815
362.996	69.503
367.048	86.652
371.098	209.752
375.146	279.296
379.192	421.839
383.236	621.354
387.279	977.82
391.319	1639.24
395.358	2593.66
399.394	4065.09
403.429	6462.57
407.462	8960.1
411.493	8340.64
415.522	6212.16
419.549	5150.65
423.575	4370.12
427.598	3994.54
431.619	4103.92
435.639	4166.26
439.657	3771.56
443.673	3186.83
447.687	2789.07
451.699	2396.3
455.709	2161.51
459.717	1962.68
463.724	1694.8
467.728	1453.91
471.731	1193.99
475.732	997.03
479.731	958.6
483.728	924.744
487.723	904.332
491.716	615.921
495.708	331.518
499.697	160.94
503.685	67.355
507.671	66
511.655	51.909
515.637	2.526
519.617	11.514
523.596	1.505
527.572	0.205
531.547	57.825
535.52	235.028
539.491	392.891
543.46	823.99
547.427	1472.39
551.393	1947.18
555.356	1674.34
559.318	1488.02
563.278	1621.65
567.236	1301.04
571.192	889.564
575.147	520.472
579.099	337.257
583.05	320.029
586.999	544.356
590.946	892.028
594.891	937.418
598.834	1075.2
602.776	1286.14
606.715	1514.89
610.653	1495.75
614.589	1747.4
618.523	2546.38
622.456	3391.09
626.386	3627.61
630.315	3998.79
634.242	4190.68
638.167	2595.37
642.09	1040.04
646.012	427.842
649.931	235.579
653.849	151.874
657.765	83.799
661.679	69.749
665.592	48.099
669.502	29.379
673.411	26.336
677.318	54.876
681.223	16.886
685.126	7.602
689.028	5.119
692.927	15.538
696.825	65.613
700.721	79.029
704.616	40.404
708.508	1.737
712.399	6.621
716.288	60.497
720.175	49.349
724.06	14.428
727.944	3.238
731.825	5.802
735.705	21.125
739.584	46.222
743.46	18.111
747.334	2.22
751.207	7.207
755.078	25.391
758.947	27.345
762.815	20.021
766.68	0.586
770.544	8.546
774.406	5.445
778.267	13.9
782.125	28.461
785.982	25.575
789.837	156.583
793.69	36.754
797.542	1.747
801.391	6.93
805.239	22.16
809.085	6.891
812.93	4.621
816.772	39.517
820.613	0.509
824.452	15.414
828.29	36.207
832.125	23.435
835.959	13.397
839.791	37.046
843.621	16.31
847.45	39.669
851.277	25.271
855.102	24.459
858.925	46.47
862.746	67.926
866.566	49.303
870.384	45.708
874.2	1.946
878.015	42.739
881.828	88.377
885.639	73.206
889.448	179.477
893.256	170.35
897.061	218.847
900.865	357.302
904.668	447.429
908.468	597.075
912.267	831.879
916.064	1577.61
919.86	3650.37
923.653	7258.6
927.445	7407.73
931.236	4019.96
935.024	1816.02
938.811	1331.69
942.596	1332.7
946.379	1681.72
950.161	2535.07
953.94	5064.32
957.719	11733.9
961.495	31266.4
965.27	43337.7
969.043	48128.4
972.814	46980.4
976.583	32792.4
980.351	12981.9
984.117	6232.57
987.882	5806.67
991.644	6464.23
995.405	5743.06
999.165	4706.83
1002.92	3196.66
1006.68	2182.13
1010.43	1557.81
1014.18	1486.52
1017.93	1624.68
1021.68	1840.98
1025.43	1922.71
1029.18	2045.79
1032.92	2064.44
1036.66	1918.15
1040.4	1702.04
1044.14	1462.84
1047.88	1434
1051.62	1399.72
1055.35	1298.01
1059.08	1411.31
1062.81	1511.97
1066.54	1605.88
1070.27	1744.01
1073.99	2177.32
1077.72	2704.81
1081.44	3329.49
1085.16	4265.39
1088.88	5664.48
1092.59	5869.72
1096.31	4675.1
1100.02	4050.67
1103.73	3665.39
1107.44	3424.3
1111.15	2849.38
1114.86	2097.99
1118.57	1444.33
1122.27	1024.91
1125.97	763.696
1129.67	645.645
1133.37	475.894
1137.07	432.573
1140.76	300.439
1144.45	234.646
1148.15	287.565
1151.84	247.23
1155.53	229.687
1159.21	161.374
1162.9	123.631
1166.58	20.987
1170.26	59.396
1173.94	60.556
1177.62	51.273
1181.3	17.197
1184.97	82.995
1188.65	19.975
1192.32	72.824
1195.99	22.48
1199.66	6.772
1203.33	60.978
1206.99	21.403
1210.65	49.492
1214.32	59.987
1217.98	125.39
1221.64	77.797
1225.29	52.993
1228.95	27.322
1232.6	69.245
1236.26	63.57
1239.91	88.441
1243.56	102.514
1247.2	155.668
1250.85	113.315
1254.49	157.098
1258.13	9.181
1261.78	78.914
1265.41	58.124
1269.05	58.56
1272.69	45.471
1276.32	138.158
1279.95	116.576
1283.59	50.68
1287.21	19.495
1290.84	10.002
1294.47	44.732
1298.09	24.094
1301.72	19.716
1305.34	94.159
1308.96	21.319
1312.58	70.177
1316.19	92.568
1319.81	66.25
1323.42	49.388
1327.03	31.251
1330.64	56.682
1334.25	40.851
1337.86	42.113
1341.46	86.935
1345.07	179.563
1348.67	68.057
1352.27	82.381
1355.87	39.44
1359.46	11.311
1363.06	53.848
1366.65	82.215
1370.25	42.218
1373.84	108.187
1377.43	105.581
1381.02	127.58
1384.6	182.365
1388.18	213.888
1391.77	139.634
1395.35	101.503
1398.93	10.424
1402.51	70.227
1406.08	127.675
1409.66	77.004
1413.23	138.1
1416.8	212.277
1420.37	230.642
1423.94	219.852
1427.51	159.695
1431.08	88.65
1434.64	71.181
1438.2	112.979
1441.76	138.249
1445.32	94.941
1448.88	173.364
1452.43	165.862
1455.99	242.68
1459.54	270.98
1463.09	203.648
1466.64	117.875
1470.19	91.533
1473.74	132.46
1477.28	39.353
1480.83	42.824
1484.37	57.972
1487.91	82.104
1491.45	127.918
1494.98	85.215
1498.52	176.036
1502.05	248.669
1505.59	265.933
1509.12	200.547
1512.65	90.422
1516.17	59.662
