Measurement: Raman, 514 nm, ccw, Raman Data Processed
Mineral: Bobdownsite
Rruff sample: R050109
Ideal chemistry: Ca_9_Mg(PO_4_)_6_(PO_3_F)
Locality: Big Fish River, Yukon Territory, Canada
Source: Rock Currier
Description: Colorless hexagonal tabular crystals, type sample
Measured chemistry: (Ca_8.76_Na_0.24_)_Σ=9_(Mg_0.72_Fe^3+^_0.13_Al_0.11_Fe^2+^_0.04_)_Σ=1_(P_1.00_O_4_)_6_(P_1.00_O_3_F_1.00_); Fe^2+^ and Fe^3+^ by charge balance
Pin_id: L00194
Orientation: Laser parallel to c* (0 0 1). Fiducial mark perpendicular to laser is parallel to a [1 0 0]
Raman shift (cm-1)	intensity
88.496	0
92.678	58.632
96.858	290.837
101.036	484.4
105.212	288.611
109.387	122.175
113.559	63.585
117.729	159.354
121.897	7.902
126.063	3.548
130.228	43.037
134.39	217.144
138.55	278.645
142.709	196.539
146.865	225.807
151.019	436.408
155.171	789.769
159.322	1025.25
163.47	1211.24
167.617	1114.59
171.761	892.269
175.904	972.96
180.044	901.984
184.183	445.408
188.319	213.265
192.454	188.573
196.586	147.18
200.717	116.875
204.846	1.587
208.972	24.576
213.097	79.533
217.22	152.95
221.341	170.287
225.46	272.975
229.577	312.176
233.692	320.557
237.805	327.503
241.916	405.287
246.025	375.126
250.132	442.578
254.237	492.422
258.34	622.732
262.442	627.409
266.541	561.006
270.639	575.443
274.734	656.65
278.828	691.608
282.919	845.483
287.009	855.307
291.097	706.619
295.183	398.337
299.266	216.721
303.348	209.763
307.428	147.46
311.507	98.776
315.583	17.545
319.657	25.823
323.729	4.583
327.8	46.202
331.868	13.537
335.935	25.643
339.999	5.629
344.062	29.356
348.123	5.477
352.182	27.889
356.239	14.537
360.294	16.289
364.347	92.555
368.398	95.844
372.448	94.849
376.495	124.229
380.54	160.665
384.584	220.652
388.626	416.961
392.666	585.045
396.704	807.856
400.74	956.403
404.774	1336.74
408.806	1526.88
412.836	1427.83
416.865	1357.58
420.891	1294.09
424.916	1171.32
428.939	1338.28
432.959	1436.95
436.978	1443.56
440.996	1395.43
445.011	1414.6
449.024	1443.84
453.036	1574.13
457.045	1658.13
461.053	1590.56
465.059	1429.61
469.063	1180.64
473.065	992.439
477.065	873.424
481.063	904.261
485.06	1093.15
489.054	994.954
493.047	633.412
497.038	433.652
501.027	333.166
505.014	221.221
508.999	205.872
512.982	149.879
516.964	150.324
520.944	171.32
524.921	204.291
528.897	200.631
532.871	223.405
536.844	311.331
540.814	718.238
544.783	1320.22
548.749	1597.13
552.714	1393.64
556.677	1702.45
560.638	2555.57
564.597	2099.87
568.555	1271.63
572.511	850.262
576.464	558.314
580.416	425.482
584.366	475.94
588.315	825.852
592.261	1249.61
596.206	1159.5
600.148	1358.94
604.089	1877.88
608.028	1857.95
611.965	1365.99
615.901	1248.87
619.834	1594.33
623.766	1778.65
627.696	1741.35
631.624	1497.49
635.551	975.799
639.475	428.169
643.398	152.012
647.318	122.708
651.237	96.643
655.155	31.291
659.07	9.788
662.984	43.537
666.895	31.211
670.805	47.582
674.713	17.865
678.62	17.805
682.524	27.323
686.427	23.968
690.328	41.903
694.227	15.554
698.124	10.252
702.02	38.702
705.913	30.538
709.805	43.486
713.695	64.015
717.584	24.401
721.47	50.989
725.355	55.762
729.238	61.766
733.119	11.368
736.998	20.315
740.876	18.118
744.752	40.288
748.626	39.593
752.498	50.794
756.368	5.881
760.237	31.797
764.104	54.597
767.969	36.314
771.832	52.937
775.693	28.464
779.553	27.922
783.411	25.698
787.267	18.558
791.122	53.732
794.974	10.797
798.825	7.211
802.674	17.316
806.522	23.083
810.367	25.251
814.211	56.724
818.053	23.54
821.893	48.391
825.732	51.816
829.568	23.246
833.403	29.931
837.236	17.928
841.068	38.315
844.898	8.206
848.726	5.118
852.552	2.176
856.376	32.076
860.199	39.378
864.02	99.51
867.839	46.22
871.656	42.219
875.472	135.218
879.286	104.536
883.098	74.883
886.909	42.013
890.717	141.067
894.524	165.395
898.33	288.027
902.133	346.767
905.935	407.329
909.735	490.754
913.533	732.438
917.33	1484.57
921.124	3341.61
924.918	6788.75
928.709	8944.24
932.499	4504.83
936.286	1864.96
940.073	1464.72
943.857	1542.28
947.64	1991.81
951.421	2915.24
955.2	5661.16
958.978	14371.2
962.753	35583.9
966.527	46096.1
970.3	49051.1
974.071	43534.7
977.84	26897.8
981.607	9803.85
985.372	4559.63
989.136	3608.57
992.898	3517.5
996.659	4004.83
1000.42	4541.59
1004.17	4527.24
1007.93	3614.07
1011.68	2523.13
1015.43	2396.2
1019.18	2360.08
1022.93	2340.84
1026.68	2503.28
1030.42	2632.58
1034.17	2777.8
1037.91	2977.74
1041.65	2441.41
1045.39	1894.62
1049.12	1601.42
1052.86	1464.94
1056.59	1559.21
1060.33	1729.09
1064.06	1886.19
1067.78	1812.47
1071.51	1744.91
1075.23	1840.55
1078.96	1731.44
1082.68	1826.42
1086.4	2338.6
1090.12	2834.95
1093.83	2814.47
1097.55	2488.16
1101.26	2090.01
1104.97	1770.02
1108.68	1504.21
1112.39	1101.58
1116.1	738.138
1119.8	502.716
1123.5	775.224
1127.2	380.412
1130.9	184.108
1134.6	157.591
1138.3	136.333
1141.99	160.202
1145.69	234.646
1149.38	303.988
1153.07	278.881
1156.76	93.959
1160.44	104.902
1164.13	20.275
1167.81	14.018
1171.49	74.669
1175.17	22.978
1178.85	1.212
1182.52	6.522
1186.2	5.688
1189.87	15.645
1193.54	43.968
1197.21	39.059
1200.88	97.991
1204.55	31.483
1208.21	123.788
1211.88	103.23
1215.54	36.273
1219.2	50.132
1222.86	2.063
1226.51	115.247
1230.17	127.916
1233.82	111.046
1237.47	103.122
1241.12	151.331
1244.77	101.378
1248.42	35.482
1252.06	22.76
1255.71	35.769
1259.35	27.771
1262.99	18.377
1266.63	110.046
1270.26	81.602
1273.9	49.803
1277.53	3.351
1281.16	28.607
1284.8	11.201
1288.42	41.637
1292.05	7.209
1295.68	63.613
1299.3	86.165
1302.92	25.449
1306.55	116.491
1310.16	79.911
1313.78	30.541
1317.4	3.494
1321.01	5.309
1324.62	19.498
1328.24	10.383
1331.85	79.467
1335.45	88.031
1339.06	112.464
1342.66	69.348
1346.27	0.999
1349.87	65.923
1353.47	18.589
1357.07	14.78
1360.66	83.829
1364.26	104.029
1367.85	110.749
1371.44	105.972
1375.04	85.324
1378.62	85.694
1382.21	66.445
1385.8	78.015
1389.38	87.389
1392.96	119.604
1396.54	156.538
1400.12	172.586
1403.7	157.748
1407.28	221.735
1410.85	242.54
1414.42	156.938
1417.99	110.533
1421.56	34.645
1425.13	40.421
1428.7	33.218
1432.26	53.386
1435.83	127.932
1439.39	109.774
1442.95	175.28
1446.51	169.832
1450.06	249.537
1453.62	138.655
1457.17	142.413
1460.73	76.366
1464.28	58.682
1467.83	54.363
1471.37	50.817
1474.92	105.441
1478.46	191.454
1482.01	124.163
1485.55	112.96
1489.09	132.572
1492.63	162.022
1496.16	187.237
1499.7	39.153
1503.23	13.764
1506.76	24.428
1510.29	60.288
1513.82	19.261
