Measurement: Raman, 514 nm, ccw, Raman Data Processed
Mineral: Bobdownsite
Rruff sample: R050109
Ideal chemistry: Ca_9_Mg(PO_4_)_6_(PO_3_F)
Locality: Big Fish River, Yukon Territory, Canada
Source: Rock Currier
Description: Colorless hexagonal tabular crystals, type sample
Measured chemistry: (Ca_8.76_Na_0.24_)_Σ=9_(Mg_0.72_Fe^3+^_0.13_Al_0.11_Fe^2+^_0.04_)_Σ=1_(P_1.00_O_4_)_6_(P_1.00_O_3_F_1.00_); Fe^2+^ and Fe^3+^ by charge balance
Pin_id: L00194
Orientation: Laser parallel to c* (0 0 1). Fiducial mark perpendicular to laser is parallel to a [1 0 0]
Raman shift (cm-1)	intensity
91.284	0
95.465	133.061
99.644	436.729
103.82	491.598
107.995	284.544
112.168	65.526
116.339	158.505
120.508	116.688
124.675	12.434
128.84	82.783
133.003	211.526
137.164	265.332
141.323	362.239
145.48	291.788
149.635	418.481
153.788	582.533
157.939	799.925
162.088	924.313
166.235	865.854
170.38	687.366
174.523	735.424
178.664	825.632
182.803	418.334
186.94	173.594
191.076	148.43
195.209	117.842
199.34	65.045
203.47	1.052
207.597	4.614
211.722	41.289
215.846	29.606
219.967	137.595
224.087	109.103
228.204	157.616
232.32	225.432
236.434	200.241
240.545	218.978
244.655	199.36
248.763	294.407
252.869	327.129
256.973	382.854
261.075	370.899
265.175	414.609
269.273	446.409
273.369	368.144
277.463	456.697
281.556	642.036
285.646	742.131
289.734	562.92
293.821	417.181
297.905	276.296
301.988	118.081
306.069	103.533
310.147	115.646
314.224	12.758
318.299	29.827
322.372	14.472
326.443	5.662
330.512	13.379
334.579	15.539
338.645	32.143
342.708	21.8
346.769	2.155
350.829	2.39
354.887	58.86
358.942	40.858
362.996	80.374
367.048	55.906
371.098	104.314
375.146	84.185
379.192	200.085
383.236	248.747
387.279	426
391.319	601.21
395.358	937.29
399.394	1322.36
403.429	2111.22
407.462	3219.93
411.493	3203.47
415.522	2389.84
419.549	1959.03
423.575	1662.01
427.598	1640.74
431.619	1744.21
435.639	1876.42
439.657	1878.36
443.673	1794.09
447.687	1767.56
451.699	1702.77
455.709	1778.75
459.717	1850.48
463.724	1751.26
467.728	1362.12
471.731	1215.17
475.732	1171.76
479.731	1035.92
483.728	1151.03
487.723	1229.67
491.716	853.865
495.708	600.816
499.697	328.052
503.685	275.131
507.671	196.308
511.655	173.286
515.637	131.811
519.617	108.033
523.596	176.226
527.572	184.156
531.547	201.079
535.52	254.676
539.491	375.711
543.46	833.586
547.427	1252.72
551.393	1269.53
555.356	1327.3
559.318	1973.89
563.278	2757.94
567.236	2031.56
571.192	929.618
575.147	544.398
579.099	389.183
583.05	347.505
586.999	486.256
590.946	784.231
594.891	835.146
598.834	1001.98
602.776	1339.95
606.715	1627.64
610.653	1164.05
614.589	932.094
618.523	1081.8
622.456	1400.5
626.386	1285.1
630.315	1182.13
634.242	1014.67
638.167	687.172
642.09	227.251
646.012	127.413
649.931	58.09
653.849	79.272
657.765	27.903
661.679	82.97
665.592	33.805
669.502	34.258
673.411	48.998
677.318	53.716
681.223	53.42
685.126	35.587
689.028	56.975
692.927	22.991
696.825	36.812
700.721	42.564
704.616	45.65
708.508	38.062
712.399	38.624
716.288	12.833
720.175	58.898
724.06	72.804
727.944	39.574
731.825	24.223
735.705	76.738
739.584	37.106
743.46	29.323
747.334	25.411
751.207	2.602
755.078	36.217
758.947	7.869
762.815	22.41
766.68	25.174
770.544	40.076
774.406	8.784
778.267	4.779
782.125	27.109
785.982	2.094
789.837	0.598
793.69	18.206
797.542	29.755
801.391	3.245
805.239	6.904
809.085	6.369
812.93	6.407
816.772	2.679
820.613	7.04
824.452	38.47
828.29	2.647
832.125	30.546
835.959	29.738
839.791	15.276
843.621	34.035
847.45	13.284
851.277	19.117
855.102	59.418
858.925	6.491
862.746	28.247
866.566	14.088
870.384	71.616
874.2	48.317
878.015	26.98
881.828	31.921
885.639	69.145
889.448	89.51
893.256	115.887
897.061	183.831
900.865	228.459
904.668	336.218
908.468	401.739
912.267	512.855
916.064	918.674
919.86	1855.35
923.653	4289.6
927.445	7289.88
931.236	5491.45
935.024	2080.57
938.811	1150.94
942.596	1075.5
946.379	1317.29
950.161	2116.26
953.94	3864.24
957.719	8572.45
961.495	22764.8
965.27	34240.2
969.043	38135.8
972.814	38419.3
976.583	30742.6
980.351	13006.4
984.117	5000.83
987.882	3264.13
991.644	3093.87
995.405	3362.47
999.165	3635.67
1002.92	3475.11
1006.68	2854.17
1010.43	2089.76
1014.18	1805.87
1017.93	1736.04
1021.68	1824.43
1025.43	2166.49
1029.18	2287.36
1032.92	2361.15
1036.66	2303.95
1040.4	2103.7
1044.14	1577.27
1047.88	1324.06
1051.62	1291.01
1055.35	1311.64
1059.08	1488.97
1062.81	1429.49
1066.54	1394.17
1070.27	1410.04
1073.99	1546.07
1077.72	1567.27
1081.44	1605.65
1085.16	1794.2
1088.88	2100.94
1092.59	2107.84
1096.31	1858.87
1100.02	1660.08
1103.73	1591.36
1107.44	1300.77
1111.15	981.338
1114.86	652.04
1118.57	447.923
1122.27	420.951
1125.97	385.774
1129.67	278.925
1133.37	181.111
1137.07	191.497
1140.76	151.68
1144.45	52.158
1148.15	79.259
1151.84	158.175
1155.53	174.853
1159.21	158.515
1162.9	176.87
1166.58	61.133
1170.26	9.445
1173.94	59.19
1177.62	113.254
1181.3	7.583
1184.97	30.558
1188.65	5.913
1192.32	66.848
1195.99	1.621
1199.66	8.94
1203.33	36.129
1206.99	13.694
1210.65	2.442
1214.32	75.838
1217.98	134.671
1221.64	117.158
1225.29	68.087
1228.95	38.127
1232.6	54.742
1236.26	78.57
1239.91	110.433
1243.56	52.989
1247.2	127.617
1250.85	147.957
1254.49	130.505
1258.13	57.95
1261.78	54.467
1265.41	43.741
1269.05	18.794
1272.69	36.721
1276.32	112.299
1279.95	144.637
1283.59	66.652
1287.21	36.645
1290.84	27.382
1294.47	20.116
1298.09	21.15
1301.72	8.825
1305.34	48.991
1308.96	19.388
1312.58	92.768
1316.19	51.891
1319.81	16.232
1323.42	58.638
1327.03	13.368
1330.64	1.378
1334.25	69.947
1337.86	4.083
1341.46	87.567
1345.07	94.8
1348.67	111.997
1352.27	87.176
1355.87	105.189
1359.46	111.202
1363.06	16.977
1366.65	50.846
1370.25	13.661
1373.84	85.708
1377.43	87.129
1381.02	146.001
1384.6	277.231
1388.18	188.183
1391.77	189.041
1395.35	116.623
1398.93	84.081
1402.51	44.116
1406.08	81.387
1409.66	86.276
1413.23	142.997
1416.8	234.928
1420.37	181.971
1423.94	218.146
1427.51	202.609
1431.08	134.592
1434.64	117.823
1438.2	63.304
1441.76	85.324
1445.32	94.504
1448.88	66.561
1452.43	150.406
1455.99	194.728
1459.54	209.741
1463.09	178.74
1466.64	195.352
1470.19	132.058
1473.74	79.272
1477.28	58.771
1480.83	97.696
1484.37	113.99
1487.91	40.422
1491.45	110.892
1494.98	112.44
1498.52	168.323
1502.05	161.254
1505.59	232.745
1509.12	192.694
1512.65	138.249
1516.17	117.168
1519.7	133.01
