Measurement: Raman, 514 nm, ccw, Raman Data Processed
Mineral: Boleite
Rruff sample: R050022
Ideal chemistry: KAg_9_Pb_26_Cu_24_Cl_62_(OH)_48_
Locality: Amelia mine, Boleo, Baja California, Mexico
Source: Eugene Schlepp
Description: Dark blue colored interpenetrating cubes
Pin_id: L00323
Orientation: Laser parallel to c* (0 0 1). Fiducial mark perpendicular to laser is parallel to a [1 0 0]
Raman shift (cm-1)	intensity
78.729	0
82.916	126.335
87.101	600.718
91.284	1714.23
95.465	4293.06
99.644	8738.37
103.82	13361.9
107.995	17612.5
112.168	18380.9
116.339	16629
120.508	17104.7
124.675	18879.1
128.84	17565
133.003	14848
137.164	13444.4
141.323	15034.8
145.48	17007.7
149.635	16529.3
153.788	15730.7
157.939	15842.7
162.088	15341.2
166.235	13409.7
170.38	11157.6
174.523	9715.58
178.664	8303.92
182.803	7824.23
186.94	8363.36
191.076	8502.32
195.209	8901.53
199.34	9549.87
203.47	10131.2
207.597	10427.3
211.722	10874.6
215.846	11513.9
219.967	11921.8
224.087	11069.7
228.204	9857.18
232.32	9088.72
236.434	7648.71
240.545	6325.57
244.655	5313.02
248.763	4339.39
252.869	3291.08
256.973	2375.12
261.075	1902.65
265.175	1560.8
269.273	928.535
273.369	585.725
277.463	298.532
281.556	210.74
285.646	59.037
289.734	16.859
293.821	331.896
297.905	906.938
301.988	1673.03
306.069	1884.94
310.147	1567.31
314.224	392.696
318.299	208.965
322.372	408.9
326.443	438.645
330.512	550.649
334.579	635.149
338.645	522.293
342.708	320.018
346.769	215.123
350.829	124.769
354.887	703.172
358.942	1612.12
362.996	2577.55
367.048	2740.44
371.098	1866.95
375.146	1067.05
379.192	518.472
383.236	259.172
387.279	127.548
391.319	111.624
395.358	13.754
399.394	12.016
403.429	26.514
407.462	113.777
411.493	121.906
415.522	113.718
419.549	240.786
423.575	317.054
427.598	415.387
431.619	478.239
435.639	610.411
439.657	765.689
443.673	946.985
447.687	1269.4
451.699	2033.75
455.709	4032.74
459.717	5291.56
463.724	3920.89
467.728	2687.88
471.731	2122.43
475.732	1925.8
479.731	1921.42
483.728	1565.58
487.723	1648.74
491.716	1681.21
495.708	1782.19
499.697	1759.54
503.685	1673.16
507.671	1521.73
511.655	1378.91
515.637	1209.73
519.617	1065.49
523.596	892.773
527.572	895.61
531.547	740.047
535.52	699.137
539.491	641.709
543.46	667.885
547.427	608.142
551.393	554.517
555.356	463.87
559.318	398.854
563.278	384.537
567.236	351.476
571.192	314.226
575.147	193.792
579.099	179.739
583.05	174.943
586.999	96.547
590.946	46.566
594.891	37.736
598.834	55.691
602.776	66.076
606.715	49.913
610.653	33.392
614.589	17.88
618.523	18.926
622.456	14.02
626.386	30.628
630.315	12.004
634.242	11.97
638.167	46.352
642.09	56.464
646.012	47.773
649.931	39.674
653.849	81.341
657.765	111.881
661.679	141.157
665.592	62.911
669.502	133.633
673.411	192.989
677.318	278.989
681.223	260.655
685.126	303.008
689.028	326.975
692.927	468.456
696.825	569.076
700.721	584.102
704.616	632.662
708.508	559.111
712.399	579.898
716.288	674.891
720.175	794.293
724.06	898.084
727.944	1166.98
731.825	1386.81
735.705	1532.45
739.584	1561.24
743.46	1359.99
747.334	1245.72
751.207	1257.29
755.078	1247.7
758.947	1143.34
762.815	1049.39
766.68	915.871
770.544	884.383
774.406	836.096
778.267	840.743
782.125	756.467
785.982	663.909
789.837	648.98
793.69	715.785
797.542	718.9
801.391	637.694
805.239	652.301
809.085	662.539
812.93	746.119
816.772	803.837
820.613	785.714
824.452	772.696
828.29	641.791
832.125	582.005
835.959	591.308
839.791	568.711
843.621	500.238
847.45	367.886
851.277	300.651
855.102	269.541
858.925	249.565
862.746	207.723
866.566	146.011
870.384	119.43
874.2	29.984
878.015	60.652
881.828	112.425
885.639	79.307
889.448	26.303
893.256	4.42
897.061	10.506
900.865	34.005
904.668	9.317
908.468	3.23
912.267	24.261
916.064	30.194
919.86	7.392
923.653	37.061
927.445	53.807
931.236	34.768
935.024	17.681
938.811	7.673
942.596	60.918
946.379	18.957
950.161	10.607
953.94	26.516
957.719	44.069
961.495	24.464
965.27	20.278
969.043	5.832
972.814	17.804
976.583	114.763
980.351	41.607
984.117	37.972
987.882	71.155
991.644	67.904
995.405	111.771
999.165	103.896
1002.92	148.083
1006.68	175.685
1010.43	142.916
1014.18	135.33
1017.93	135.994
1021.68	181.35
1025.43	177.309
1029.18	145.32
1032.92	138.642
1036.66	60.423
1040.4	104.394
1044.14	74.948
1047.88	84.207
1051.62	74.181
1055.35	53.213
1059.08	30.803
1062.81	81.739
1066.54	49.73
1070.27	58.115
1073.99	75.509
1077.72	22.917
1081.44	55.659
1085.16	30.335
1088.88	27.382
1092.59	32.358
1096.31	26.476
1100.02	28.286
1103.73	57.964
1107.44	38.696
1111.15	47.618
1114.86	5.219
1118.57	24.894
1122.27	23.906
1125.97	12.115
1129.67	37.698
1133.37	57.367
1137.07	6.953
1140.76	5.543
1144.45	2.395
1148.15	25.758
1151.84	33.711
1155.53	19.218
1159.21	11.871
1162.9	70.597
1166.58	23.265
1170.26	25.65
1173.94	23.96
1177.62	18.297
1181.3	17.355
1184.97	18.321
1188.65	20.185
1192.32	20.963
1195.99	17.408
1199.66	23.782
1203.33	2.829
1206.99	16.319
1210.65	37.346
1214.32	35.27
1217.98	44.099
1221.64	31.83
1225.29	19.34
1228.95	1.843
1232.6	58.213
1236.26	47.449
1239.91	41.343
1243.56	56.492
1247.2	39.183
1250.85	49.042
1254.49	40.364
1258.13	55.755
1261.78	81.128
1265.41	57.643
1269.05	26.178
1272.69	56.144
1276.32	44.168
1279.95	55.067
1283.59	18.496
1287.21	51.113
1290.84	32.4
1294.47	37.119
1298.09	8.756
1301.72	48.709
1305.34	46.86
1308.96	36.411
1312.58	41.995
1316.19	48.963
1319.81	30.451
1323.42	38.441
1327.03	42.123
1330.64	11.349
1334.25	18.25
1337.86	57.457
1341.46	44.483
1345.07	40.186
1348.67	30.73
1352.27	58.911
1355.87	39.162
1359.46	49.676
1363.06	86.712
1366.65	90.215
1370.25	80.484
1373.84	66.808
1377.43	59.277
1381.02	75.907
1384.6	137.809
1388.18	132.313
1391.77	78.702
1395.35	61.851
1398.93	111.19
1402.51	75.189
1406.08	122.57
1409.66	71.549
1413.23	83.113
1416.8	102.914
1420.37	79.926
1423.94	118.794
1427.51	75.531
1431.08	56.658
1434.64	55.623
1438.2	17.949
1441.76	62.294
1445.32	48.595
1448.88	60.921
1452.43	47.24
1455.99	73.61
1459.54	82.99
1463.09	111.387
1466.64	23.837
1470.19	63.44
1473.74	59.15
1477.28	11.976
1480.83	62.9
1484.37	8.928
1487.91	36.094
1491.45	22.346
1494.98	59.755
1498.52	47.936
1502.05	48.485
1505.59	40.198
1509.12	56.107
1512.65	34.793
1516.17	8.902
