Measurement: Raman, 514 nm, ccw, Raman Data Processed
Mineral: Boleite
Rruff sample: R050022
Ideal chemistry: KAg_9_Pb_26_Cu_24_Cl_62_(OH)_48_
Locality: Amelia mine, Boleo, Baja California, Mexico
Source: Eugene Schlepp
Description: Dark blue colored interpenetrating cubes
Pin_id: L00323
Orientation: Laser parallel to c* (0 0 1). Fiducial mark perpendicular to laser is parallel to a [1 0 0]
Raman shift (cm-1)	intensity
70.349	0
74.54	428.495
78.729	62.02
82.916	183.983
87.101	1823.23
91.284	3596.23
95.465	7611.81
99.644	15700.7
103.82	25940.5
107.995	37025.2
112.168	40897.1
116.339	39609.9
120.508	41929.2
124.675	40892
128.84	34366.5
133.003	26849.9
137.164	23132.7
141.323	24831.3
145.48	29071.5
149.635	32762.7
153.788	35936.9
157.939	40454.4
162.088	45933.5
166.235	42304.6
170.38	31007
174.523	21730.2
178.664	15700.2
182.803	12790.3
186.94	11564.5
191.076	10569
195.209	10068.5
199.34	10340.6
203.47	10554.6
207.597	10161.9
211.722	9908.94
215.846	10022.5
219.967	10066
224.087	9079.19
228.204	8166.58
232.32	7382.39
236.434	6356.3
240.545	5231.98
244.655	4365.04
248.763	3617.02
252.869	2956.45
256.973	2390.49
261.075	2195.07
265.175	1748.81
269.273	945.837
273.369	420.087
277.463	240.416
281.556	119.25
285.646	125.457
289.734	145.28
293.821	170.149
297.905	638.698
301.988	1361.16
306.069	1571.21
310.147	1011.78
314.224	349.789
318.299	242.813
322.372	373.429
326.443	323.526
330.512	362.351
334.579	291.985
338.645	123.269
342.708	193.122
346.769	232.362
350.829	255.586
354.887	634.824
358.942	1342.99
362.996	2247.84
367.048	2338.41
371.098	1595.09
375.146	888.715
379.192	440.94
383.236	205.971
387.279	191.553
391.319	74.348
395.358	12.242
399.394	162.836
403.429	146.275
407.462	44.124
411.493	12.214
415.522	39.469
419.549	105.656
423.575	217.614
427.598	274.589
431.619	308.962
435.639	384.965
439.657	542.129
443.673	808.686
447.687	1031.68
451.699	1685.18
455.709	3340.71
459.717	4241.06
463.724	3025.09
467.728	1999.24
471.731	1581.1
475.732	1494.36
479.731	1549.65
483.728	1511.67
487.723	1460.53
491.716	1680.76
495.708	1646.66
499.697	1625.09
503.685	1582.33
507.671	1535.28
511.655	1373.69
515.637	1168.07
519.617	968.271
523.596	778.307
527.572	755.221
531.547	666.037
535.52	597.764
539.491	540.838
543.46	701.455
547.427	584.582
551.393	435.95
555.356	401.567
559.318	315.823
563.278	282.788
567.236	241.161
571.192	198.015
575.147	100.646
579.099	12.196
583.05	42.183
586.999	67.266
590.946	32.979
594.891	46.966
598.834	15.696
602.776	27.135
606.715	34.282
610.653	19.946
614.589	6.125
618.523	44.493
622.456	4.16
626.386	39.848
630.315	4.475
634.242	15.199
638.167	100.419
642.09	77.598
646.012	70.12
649.931	98.141
653.849	169.664
657.765	273.432
661.679	255.021
665.592	283.292
669.502	333.217
673.411	567.781
677.318	656.002
681.223	775.899
685.126	856.405
689.028	1095.11
692.927	1457.31
696.825	1935.74
700.721	2084.98
704.616	1872.53
708.508	1519.5
712.399	1244.59
716.288	1129.64
720.175	1069.87
724.06	1022
727.944	1163.57
731.825	1376.45
735.705	1523.99
739.584	1407.68
743.46	1248
747.334	1077.82
751.207	1072.81
755.078	1070.04
758.947	954.037
762.815	764.266
766.68	662.58
770.544	620.409
774.406	610.496
778.267	567.287
782.125	492.815
785.982	398.352
789.837	359.967
793.69	381.818
797.542	451.761
801.391	429.038
805.239	351.419
809.085	345.607
812.93	429.39
816.772	450.459
820.613	439.447
824.452	449.031
828.29	368.101
832.125	313.838
835.959	315.338
839.791	408.004
843.621	293.002
847.45	227.117
851.277	136.344
855.102	125.679
858.925	125.135
862.746	146.708
866.566	104.407
870.384	10.242
874.2	22.203
878.015	97.284
881.828	171.466
885.639	102.738
889.448	67.106
893.256	10.418
897.061	29.425
900.865	4.66
904.668	80.205
908.468	83.176
912.267	136.18
916.064	112.677
919.86	192.5
923.653	307.802
927.445	364.506
931.236	249.004
935.024	124.672
938.811	23.607
942.596	41.342
946.379	53.626
950.161	19.901
953.94	14.706
957.719	28.263
961.495	0.261
965.27	37.579
969.043	30.747
972.814	50.749
976.583	77.393
980.351	87.08
984.117	55.355
987.882	51.821
991.644	63.105
995.405	20.4
999.165	91.291
1002.92	114.277
1006.68	67.772
1010.43	85.49
1014.18	82.783
1017.93	87.415
1021.68	142.232
1025.43	254.257
1029.18	183.167
1032.92	136.556
1036.66	99.843
1040.4	108.731
1044.14	124.239
1047.88	84.228
1051.62	151.189
1055.35	127.519
1059.08	56.066
1062.81	15.814
1066.54	14.983
1070.27	115.441
1073.99	88.816
1077.72	102.724
1081.44	96.284
1085.16	80.319
1088.88	1.538
1092.59	76.389
1096.31	56.86
1100.02	57.194
1103.73	114.101
1107.44	121.271
1111.15	69.643
1114.86	33.553
1118.57	13.988
1122.27	21.305
1125.97	64.834
1129.67	114.459
1133.37	98.421
1137.07	58.761
1140.76	1.13
1144.45	39.238
1148.15	21.078
1151.84	58.25
1155.53	117.444
1159.21	91.262
1162.9	96.997
1166.58	37.604
1170.26	0.065
1173.94	11.639
1177.62	45.369
1181.3	104.263
1184.97	129.166
1188.65	117.827
1192.32	47.353
1195.99	13.357
1199.66	12.491
1203.33	38.502
1206.99	24.384
1210.65	48.857
1214.32	107.104
1217.98	89.532
1221.64	89.002
1225.29	3.973
1228.95	66.088
1232.6	19.992
1236.26	77.484
1239.91	73.961
1243.56	70.514
1247.2	149.22
1250.85	139.65
1254.49	402.125
1258.13	28.527
1261.78	23.504
1265.41	45.995
1269.05	49.23
1272.69	129.237
1276.32	170.934
1279.95	141.946
1283.59	131.139
1287.21	50.098
1290.84	34.21
1294.47	37.307
1298.09	38.243
1301.72	83.411
1305.34	153.16
1308.96	108.204
1312.58	92.587
1316.19	77.93
1319.81	83.193
1323.42	108.938
1327.03	29.112
1330.64	59.54
1334.25	107.994
1337.86	119.153
1341.46	205.53
1345.07	204.779
1348.67	181.651
1352.27	140.345
1355.87	130.629
1359.46	105.277
1363.06	31.32
1366.65	103.449
1370.25	104.748
1373.84	124.753
1377.43	203.994
1381.02	222.409
1384.6	231.871
1388.18	209.441
1391.77	153.592
1395.35	96.5
1398.93	106.438
1402.51	62.593
1406.08	121.47
1409.66	137.574
1413.23	168.552
1416.8	158.651
1420.37	215.727
1423.94	141.194
1427.51	123.399
1431.08	60.708
1434.64	42.154
1438.2	14.561
1441.76	126.047
1445.32	79.499
1448.88	96.143
1452.43	144.867
1455.99	123.657
1459.54	153.521
1463.09	153.485
1466.64	40.695
1470.19	52.049
1473.74	77.31
1477.28	19.026
1480.83	20.677
1484.37	36.661
1487.91	83.011
1491.45	114.689
1494.98	165.582
1498.52	138.832
1502.05	200.11
1505.59	186.542
1509.12	104.59
1512.65	73.113
1516.17	7.876
1519.7	0
