Measurement: Raman, 514 nm, ccw, Raman Data Processed
Mineral: Boleite
Rruff sample: R050022
Ideal chemistry: KAg_9_Pb_26_Cu_24_Cl_62_(OH)_48_
Locality: Amelia mine, Boleo, Baja California, Mexico
Source: Eugene Schlepp
Description: Dark blue colored interpenetrating cubes
Pin_id: L00323
Orientation: Laser parallel to c* (0 0 1). Fiducial mark perpendicular to laser is parallel to a [1 0 0]
Raman shift (cm-1)	intensity
70.349	0
74.54	302.498
78.729	283.266
82.916	1402.52
87.101	3817.96
91.284	5758.42
95.465	9038.61
99.644	14518.5
103.82	19958.2
107.995	25488.8
112.168	26439.9
116.339	24102.2
120.508	24298.9
124.675	26455
128.84	24646.9
133.003	20841.7
137.164	19086.4
141.323	20822.5
145.48	23525.1
149.635	23278.8
153.788	22417
157.939	22478.5
162.088	22121.6
166.235	19687.5
170.38	16235.1
174.523	14294
178.664	12263.7
182.803	11693.8
186.94	12254.4
191.076	12325.5
195.209	12647.4
199.34	13677.5
203.47	14464.9
207.597	14673.4
211.722	14970.5
215.846	15843.7
219.967	15876.9
224.087	14969.6
228.204	13567
232.32	12444.8
236.434	10720.1
240.545	8734.42
244.655	7350.24
248.763	6251.89
252.869	4804.64
256.973	3611.08
261.075	3101.73
265.175	2538.39
269.273	1842.28
273.369	1168.12
277.463	851.466
281.556	665.796
285.646	358.872
289.734	368.572
293.821	720.658
297.905	1364.9
301.988	2330.04
306.069	2600.61
310.147	1780.35
314.224	759.214
318.299	27.88
322.372	284.073
326.443	411.768
330.512	499.531
334.579	632.746
338.645	587.591
342.708	365.064
346.769	162.964
350.829	204.194
354.887	894.83
358.942	2093.97
362.996	3309
367.048	3493.87
371.098	2422.23
375.146	1316.63
379.192	608.304
383.236	218.428
387.279	93.216
391.319	41.217
395.358	43.553
399.394	185.613
403.429	153.02
407.462	29.46
411.493	34.659
415.522	2.488
419.549	134.595
423.575	229.851
427.598	331.712
431.619	417.071
435.639	538.797
439.657	797.103
443.673	1001.03
447.687	1470.86
451.699	2521.47
455.709	5009.75
459.717	6600.13
463.724	4860.46
467.728	3275.69
471.731	2566.99
475.732	2164.7
479.731	2000.92
483.728	1881.25
487.723	1898.11
491.716	1993.29
495.708	2155.72
499.697	2167.48
503.685	2108.6
507.671	1945.28
511.655	1766.17
515.637	1535.12
519.617	1235.41
523.596	1106.06
527.572	1017.1
531.547	936.584
535.52	780.569
539.491	707.772
543.46	758.699
547.427	761.279
551.393	629.099
555.356	543.854
559.318	504.743
563.278	415.991
567.236	329.204
571.192	234.155
575.147	194.858
579.099	126.06
583.05	130.118
586.999	98.744
590.946	62.418
594.891	10.69
598.834	9.506
602.776	60.789
606.715	61.266
610.653	40.053
614.589	20.866
618.523	26.722
622.456	25.513
626.386	10.282
630.315	20.075
634.242	49.321
638.167	89.979
642.09	68.083
646.012	63.079
649.931	27.468
653.849	132.541
657.765	151.344
661.679	195.821
665.592	174.677
669.502	170.364
673.411	280.582
677.318	351.346
681.223	373.682
685.126	396.611
689.028	437.146
692.927	682.495
696.825	779.971
700.721	793.834
704.616	812.197
708.508	785.206
712.399	854.264
716.288	898.11
720.175	1010.23
724.06	1166.6
727.944	1485.34
731.825	1806.5
735.705	2044.07
739.584	1956.65
743.46	1808.4
747.334	1551.05
751.207	1583.5
755.078	1552.93
758.947	1519.66
762.815	1308.06
766.68	1177.85
770.544	1120.9
774.406	1087.96
778.267	1046.56
782.125	941.437
785.982	869.429
789.837	788.543
793.69	863.528
797.542	932.996
801.391	867.833
805.239	844.242
809.085	877.019
812.93	957.189
816.772	1096.62
820.613	1035.97
824.452	990.622
828.29	807.369
832.125	841.211
835.959	786.155
839.791	752.202
843.621	622.367
847.45	515.656
851.277	464.084
855.102	377.244
858.925	321.404
862.746	295.321
866.566	227.442
870.384	142.735
874.2	107.168
878.015	71.744
881.828	140.454
885.639	91.299
889.448	38.279
893.256	18.385
897.061	19.755
900.865	13.06
904.668	19.346
908.468	25.869
912.267	12.475
916.064	12.823
919.86	35.029
923.653	89.896
927.445	123.888
931.236	61.42
935.024	21.608
938.811	20.123
942.596	48.71
946.379	65.079
950.161	15.501
953.94	33.704
957.719	12.025
961.495	38.504
965.27	19.089
969.043	15.956
972.814	90.336
976.583	112.423
980.351	81.785
984.117	95.826
987.882	33.341
991.644	101.825
995.405	127.903
999.165	130.885
1002.92	184.754
1006.68	141.126
1010.43	160.821
1014.18	157.32
1017.93	226.858
1021.68	185.256
1025.43	242.797
1029.18	229.308
1032.92	160.957
1036.66	133.166
1040.4	106.776
1044.14	114.749
1047.88	132.282
1051.62	103.699
1055.35	113.719
1059.08	102.457
1062.81	109.878
1066.54	79.256
1070.27	87.168
1073.99	93.935
1077.72	75.171
1081.44	65.738
1085.16	81.15
1088.88	3.913
1092.59	34.749
1096.31	30.431
1100.02	11.95
1103.73	27.829
1107.44	78.984
1111.15	24.964
1114.86	37.885
1118.57	24.962
1122.27	63.905
1125.97	15.74
1129.67	64.378
1133.37	49.903
1137.07	44.719
1140.76	7.983
1144.45	8.629
1148.15	0.096
1151.84	40.888
1155.53	42.606
1159.21	15.819
1162.9	11.276
1166.58	42.638
1170.26	19.511
1173.94	3.412
1177.62	58.925
1181.3	51.283
1184.97	52.48
1188.65	45.482
1192.32	44.288
1195.99	34.949
1199.66	36.515
1203.33	5.901
1206.99	65.131
1210.65	47.261
1214.32	52.25
1217.98	39.111
1221.64	19.808
1225.29	41.379
1228.95	22.369
1232.6	3.348
1236.26	46.714
1239.91	35.671
1243.56	60.59
1247.2	64.738
1250.85	54.451
1254.49	78.076
1258.13	4.161
1261.78	55.386
1265.41	35.734
1269.05	64.8
1272.69	54.669
1276.32	119.724
1279.95	33.686
1283.59	99.061
1287.21	35.829
1290.84	31.466
1294.47	26.652
1298.09	39.225
1301.72	23.238
1305.34	56.827
1308.96	22.533
1312.58	46.963
1316.19	42.239
1319.81	31.953
1323.42	35.029
1327.03	31.934
1330.64	74.206
1334.25	44.931
1337.86	83.209
1341.46	108.342
1345.07	72.704
1348.67	80.499
1352.27	74.471
1355.87	66.593
1359.46	51.014
1363.06	106.366
1366.65	117.41
1370.25	54.793
1373.84	76.9
1377.43	147.713
1381.02	114.107
1384.6	169.188
1388.18	159.05
1391.77	112.716
1395.35	98.05
1398.93	109.165
1402.51	110.778
1406.08	225.739
1409.66	117.376
1413.23	149.077
1416.8	143.113
1420.37	99.005
1423.94	137.229
1427.51	78.616
1431.08	99.997
1434.64	64.465
1438.2	46.882
1441.76	54.269
1445.32	98.707
1448.88	100.189
1452.43	52.81
1455.99	106.535
1459.54	59.377
1463.09	90.422
1466.64	54.662
1470.19	87.139
1473.74	52.713
1477.28	10.533
1480.83	74.613
1484.37	39.027
1487.91	65.848
1491.45	98.082
1494.98	63.974
1498.52	98.63
1502.05	71.323
1505.59	99.484
1509.12	108.914
1512.65	7.936
1516.17	0
