Measurement: Raman, 514 nm, ccw, Raman Data Processed
Mineral: Braunite
Rruff sample: R050390
Ideal chemistry: Mn^2+^Mn^3+^_6_SiO_12_
Locality: Oehrenstock, Thuringia, Germany
Source: University of Arizona Mineral Museum
Description: Mass of black octahedra
Measured chemistry: (Mn^2+^_0.83_Ca_0.17_)_Î£=1_Mn^3+^_6.00_Si_1.00_O_12_
Pin_id: M00051
Orientation: Laser parallel to -a* (-1 0 0). Fiducial mark perpendicular to laser is parallel to -c [0 0 -1]
Raman shift (cm-1)	intensity
302.319	0
305.943	391.539
309.566	407.695
313.187	3.44141
316.807	12.0664
320.426	430.203
324.043	657.09
327.659	1659.39
331.273	1792.71
334.886	2400.44
338.498	2806.71
342.108	2885
345.717	3450.31
349.324	2313.5
352.931	1648.27
356.535	1863.1
360.139	1229.54
363.741	1143.79
367.341	860.309
370.94	791.082
374.538	806.129
378.135	732.012
381.73	849.688
385.323	651.606
388.916	706.883
392.506	509.465
396.096	87.1562
399.684	217.859
403.271	195.164
406.856	20.3281
410.44	23.5352
414.022	224.789
417.603	267.297
421.183	511.227
424.761	204.07
428.338	167.059
431.914	148.328
435.488	90.3945
439.061	189.293
442.632	189.566
446.202	429.789
449.77	405.086
453.337	1203.23
456.903	1021.33
460.467	1013.8
464.03	1703.88
467.592	1954.73
471.152	2221.54
474.711	2382.91
478.268	2472.58
481.824	2581.22
485.378	2535.4
488.932	2780.19
492.483	2933.5
496.034	3468.28
499.582	3509.54
503.13	3959.27
506.676	4147
510.221	4396.23
513.764	5048.33
517.306	5567.46
520.846	5792.15
524.385	5616.49
527.923	5277.29
531.459	4743.22
534.994	4553.01
538.527	4728.91
542.059	3700.71
545.59	3376.38
549.119	2997.58
552.647	2955.98
556.173	3182.55
559.698	3369.78
563.222	3220.16
566.744	3502.53
570.264	3481.73
573.784	3495.4
577.302	3271.1
580.818	3183.43
584.333	2831.43
587.847	3276.18
591.359	3272.26
594.87	3279.4
598.379	3418.6
601.887	4116.97
605.394	5111.63
608.899	6031.82
612.402	7093.52
615.905	8732.73
619.406	10387.4
622.905	12275.6
626.403	13498.2
629.9	13592.9
633.395	13434.5
636.889	11917.5
640.381	10485.2
643.872	9041.93
647.361	7392.74
650.849	7013.81
654.336	5883.33
657.821	5419.01
661.305	4641.29
664.787	5253.04
668.268	4854.7
671.748	4614.95
675.226	5007.07
678.703	5065.59
682.178	5276.34
685.652	5265.55
689.124	6416.48
692.595	6079.15
696.065	6498.36
699.533	6562.51
702.999	5832.71
706.465	5833.72
709.929	5229
713.391	4553.32
716.852	3816.12
720.311	3127.91
723.77	2720.52
727.226	1828.09
730.681	1309.06
734.135	1089.73
737.588	981.074
741.039	583.082
744.488	731.738
747.936	531.023
751.383	406.93
754.828	313.902
758.272	209.543
761.714	240.227
765.155	138.481
768.595	52.6797
772.033	180.637
775.469	4.51953
778.904	35.8242
782.338	151.078
785.77	59.6914
789.201	261.023
792.631	264.402
796.059	195.481
799.485	290.484
802.91	169.09
806.334	48.2891
809.756	425.102
813.177	491.93
816.596	32.1016
820.014	144.578
823.431	160.562
826.846	385.344
830.259	95.6953
833.671	49.6289
837.082	192.121
840.491	389.066
843.899	9.10547
847.306	232.031
850.71	236.781
854.114	265.254
857.516	308.652
860.917	245.492
864.316	145.961
867.713	83.5039
871.11	282.594
874.505	501.242
877.898	149.457
881.29	225.254
884.68	275.641
888.069	406.625
891.457	458.234
894.843	505.457
898.228	538.316
901.611	560.828
904.993	758.41
908.373	1181.81
911.752	986.285
915.129	1184.95
918.505	1084.69
921.88	1088.18
925.253	1245.21
928.625	1052.17
931.995	1433.25
935.364	1803.23
938.731	1472.24
942.097	2105.87
945.461	2100.47
948.824	2100.59
952.186	2204.59
955.546	2507.23
958.904	2625.93
962.261	2232.28
965.617	2822.14
968.971	2425.72
972.324	2199.26
975.675	2680.8
979.025	2708.23
982.374	2740.39
985.72	2692.53
989.066	2731.53
992.41	2692.95
995.753	2343.93
999.094	2329.59
1002.43	2429.36
1005.77	2473.36
1009.11	2632.71
1012.44	2113.03
1015.78	2592.01
1019.11	2483.76
1022.44	2282.47
1025.77	2686.01
1029.1	2187.57
1032.42	2388.02
1035.75	2203.12
1039.07	2430.2
1042.4	2439.14
1045.72	2594.55
1049.04	2786.73
1052.35	3108.89
1055.67	3152.09
1058.98	3005.12
1062.3	3279.39
1065.61	3280.23
1068.92	3422.85
1072.23	3429.87
1075.54	3209
1078.84	3325.08
1082.15	3509.63
1085.45	3122.66
1088.75	3656.17
1092.05	3232.27
1095.35	2999.53
1098.65	2858.45
1101.94	2964.62
1105.24	2537.52
1108.53	2664.54
1111.82	2397.33
1115.11	2933.45
1118.4	2808.74
1121.69	2890.87
1124.97	1974.21
1128.26	2439.8
1131.54	1937.66
1134.82	1624.04
1138.1	2010.09
1141.38	1933.52
1144.66	1868.01
1147.93	1696.46
1151.21	1621.06
1154.48	1458.65
1157.75	1001.94
1161.02	730.512
1164.29	845.164
1167.55	642.059
1170.82	620.461
1174.08	338.375
1177.34	487.211
1180.61	413.957
1183.86	444.121
1187.12	47.1328
1190.38	443.34
1193.63	49.7148
1196.89	357.227
1200.14	99.6953
1203.39	23.6328
1206.64	42.9258
1209.88	1.17969
1213.13	177.562
1216.37	59.3359
1219.62	185.883
1222.86	53.3789
1226.1	136.625
1229.34	66.9414
1232.57	491.176
1235.81	309.734
1239.04	330.516
1242.28	8.125
1245.51	170.914
1248.74	360.035
1251.97	449.731
1255.19	430.301
1258.42	173.656
1261.64	86.1484
1264.86	255.34
1268.09	245.215
1271.3	131.531
1274.52	355.617
1277.74	387.578
1280.95	311.32
1284.17	355.769
1287.38	222.422
1290.59	12.4492
1293.8	98.168
1297.01	829.898
1300.21	78.1055
1303.42	40.5898
1306.62	392.746
1309.82	348.633
1313.02	439.203
1316.22	367.582
1319.42	194.707
1322.61	337.594
1325.81	417.746
1329	301.723
1332.19	445.019
1335.38	327.137
1338.57	387.93
1341.76	570.973
1344.94	574.695
1348.12	275.922
1351.31	500.789
1354.49	309.144
1357.67	301.434
1360.85	438.613
1364.02	711.234
1367.2	399.734
1370.37	495.879
1373.54	78.5312
1376.71	678.691
1379.88	300.652
1383.05	98.2969
1386.22	588.172
1389.38	620.516
1392.54	670.59
1395.7	601.082
1398.87	642.394
1402.02	611.207
1405.18	283.617
1408.34	267.008
1411.49	370.996
1414.64	418.609
1417.8	575.769
1420.94	38.707
1424.09	519.531
1427.24	721.457
1430.38	518.332
1433.53	427.84
1436.67	431.227
1439.81	529.754
1442.95	373.07
1446.09	428.731
1449.23	440.59
1452.36	422.062
1455.49	42.5195
1458.63	634.727
1461.76	247.961
1464.89	35.2227
1468.01	517.16
1471.14	559.43
1474.26	615.668
1477.39	567.664
1480.51	605.031
1483.63	565.633
1486.75	232.512
1489.86	217.812
1492.98	316.367
1496.09	357.859
1499.21	513.746
1502.32	7.94141
1505.43	468.871
1508.54	358.176
1511.64	154.031
1514.75	554.164
1517.85	52.2891
1520.95	248.801
1524.05	59.9297
1527.15	283.059
1530.25	399.023
1533.35	507.676
1536.44	59.7695
1539.53	23.8711
1542.62	403.332
1545.72	55.0312
1548.8	352.57
1551.89	74.4883
1554.98	0.117188
1558.06	16.4492
1561.14	566.656
1564.23	257.859
1567.31	15.6328
1570.38	0.089844
