Measurement: Raman, 514 nm, ccw, Raman Data Processed
Mineral: Braunite
Rruff sample: R050385
Ideal chemistry: Mn^2+^Mn^3+^_6_SiO_12_
Locality: Jhabua District, Madhya Pradesh, India
Source: University of Arizona Mineral Museum
Description: Black prismatic crystals
Measured chemistry: (Fe^2+^_0.61_Mn^2+^_0.39_)_Σ=1_(Mn^3+^_5.94_Al_0.06_)_Σ=6_Si_1.00_O_12_
Pin_id: M00114
Orientation: Laser parallel to c* (0 0 1). Fiducial mark perpendicular to laser is parallel to -b [0 -1 0]
Raman shift (cm-1)	intensity
178.282	0
183.176	45.335
188.067	778.458
192.956	1729.08
197.843	2836.07
202.727	5078.43
207.609	3091.98
212.489	4020.91
217.366	3870.85
222.24	3394.88
227.112	2545.08
231.982	1737.61
236.849	1281.48
241.714	800.529
246.577	482.507
251.437	506.769
256.294	359.565
261.149	217.386
266.002	184.084
270.852	24.3589
275.7	9.75586
280.545	14.0679
285.388	97.4336
290.229	108.233
295.067	13.8003
299.902	9.53369
304.735	128.49
309.566	62.9834
314.394	49.2617
319.22	126.241
324.043	706.323
328.864	868.657
333.682	727.925
338.498	497.524
343.311	338.753
348.122	155.285
352.931	94.7573
357.737	216.115
362.54	213.319
367.341	280.594
372.14	234.192
376.936	95.7969
381.73	159.234
386.521	54.4609
391.31	106.683
396.096	66.0488
400.88	54.5161
405.661	3.46777
410.44	122.056
415.216	177.118
419.99	195.244
424.761	258.109
429.53	27.1909
434.297	12.5015
439.061	171.909
443.822	254.873
448.581	271.978
453.337	127.701
458.091	293.632
462.843	268.555
467.592	478.404
472.338	487.597
477.082	627.489
481.824	499.138
486.563	340.291
491.3	402.626
496.034	533.157
500.765	780.406
505.494	1271.24
510.221	1400.68
514.945	1143.08
519.666	810.304
524.385	360.29
529.102	329.251
533.816	102.355
538.527	166.205
543.236	61.9082
547.943	8.82617
552.647	19.3965
557.348	263.475
562.047	237.469
566.744	479.432
571.438	512.509
576.129	506.546
580.818	547.191
585.504	566.556
590.188	723.87
594.87	967.331
599.549	1524.42
604.225	2396.97
608.899	3885.54
613.57	4166.16
618.239	4158.77
622.905	3506.51
627.569	2705.27
632.23	1960.72
636.889	1255.62
641.545	1013.92
646.198	810.869
650.849	775.665
655.498	796.727
660.144	877.266
664.787	1085.59
669.428	1068.16
674.067	1306.73
678.703	1957.91
683.336	2290.6
687.967	2154.33
692.595	1950.04
697.221	1297.29
701.844	951.314
706.465	557.819
711.083	480.632
715.698	249.987
720.311	243.944
724.922	106.73
729.53	7.54981
734.135	104.187
738.738	96.1865
743.338	52.3223
747.936	16.0811
752.531	33.0278
757.124	83.1987
761.714	81.8433
766.302	29.9971
770.887	42.6914
775.469	5.9126
780.049	37.0625
784.626	10.5601
789.201	23.5737
793.773	50.3154
798.343	96.6787
802.91	12.4595
807.475	27.0654
812.037	58.4409
816.596	87.3599
821.153	44.2085
825.707	3.44043
830.259	18.1655
834.808	3.604
839.355	26.2046
843.899	53.3232
848.441	145.342
852.98	102.959
857.516	104.18
862.05	10.041
866.581	88.4028
871.11	242.533
875.636	65.2925
880.159	116.08
884.68	218.275
889.199	126.61
893.714	186.162
898.228	149.441
902.738	239.601
907.246	280.494
911.752	317.257
916.255	197.053
920.755	257.088
925.253	392.027
929.748	512.817
934.241	455.235
938.731	673.097
943.218	654.649
947.703	686.273
952.186	856.558
956.665	972.925
961.142	1002.23
965.617	947.006
970.089	736.558
974.558	678.515
979.025	589.273
983.489	590.273
987.951	523.999
992.41	536.329
996.866	461.56
1001.32	387.261
1005.77	389.082
1010.22	361.694
1014.67	460.797
1019.11	448
1023.55	294.296
1027.99	443.722
1032.42	360.32
1036.86	439.188
1041.29	404.288
1045.72	345.541
1050.14	439.252
1054.56	367.279
1058.98	520.303
1063.4	534.412
1067.82	514.854
1072.23	458.18
1076.64	486.188
1081.05	494.611
1085.45	449.655
1089.85	509.573
1094.25	557.92
1098.65	377.659
1103.04	406.527
1107.43	411.708
1111.82	235.251
1116.21	384.036
1120.59	286.06
1124.97	252.026
1129.35	200.836
1133.73	199.83
1138.1	142.607
1142.47	51.6685
1146.84	184.911
1151.21	63.3784
1155.57	45.5772
1159.93	127.168
1164.29	70.0981
1168.64	121.231
1172.99	7.09082
1177.34	101.467
1181.69	27.9341
1186.04	10.5337
1190.38	75.7388
1194.72	34.0283
1199.05	33.0679
1203.39	2.07861
1207.72	133.99
1212.05	10.7881
1216.37	81.4639
1220.7	74.8579
1225.02	86.3325
1229.34	44.9492
1233.65	88.4775
1237.97	102.178
1242.28	84.96
1246.59	102.818
1250.89	105.816
1255.19	6.90674
1259.49	19.0137
1263.79	66.0034
1268.09	151.811
1272.38	39.6523
1276.67	8.52393
1280.95	92.4126
1285.24	27.3091
1289.52	73.1768
1293.8	40.9106
1298.08	64.356
1302.35	113.209
1306.62	136.807
1310.89	127.025
1315.15	118.128
1319.42	73.2896
1323.68	125.679
1327.94	137.528
1332.19	155.151
1336.44	83.644
1340.69	158.65
1344.94	108.483
1349.19	126.188
1353.43	126.736
1357.67	73.9707
1361.9	76.2686
1366.14	139.535
1370.37	157.246
1374.6	136.359
1378.83	87.9858
1383.05	123.7
1387.27	79.9155
1391.49	80.6572
1395.7	72.1748
1399.92	119.686
1404.13	137
1408.34	76.9844
1412.54	118.749
1416.74	60.7134
1420.94	99.8306
1425.14	36.8081
1429.34	43.9526
1433.53	197.05
1437.72	117.978
1441.9	163.195
1446.09	83.1924
1450.27	111.846
1454.45	41.3565
1458.63	76.3555
1462.8	46.1065
1466.97	67.4365
1471.14	104.781
1475.31	86.8916
1479.47	47.5772
1483.63	166.544
1487.79	115.544
1491.94	125.452
1496.09	242.273
1500.24	59.4844
1504.39	120.634
1508.54	134.632
1512.68	26.4453
1516.82	78.8721
1520.95	92.6904
1525.09	33.4853
1529.22	222.301
1533.35	239.698
1537.47	64.2978
1541.6	118.692
1545.72	43.9385
1549.83	63.4131
1553.95	83.6904
1558.06	19.3086
1562.17	69.2803
1566.28	92.6123
1570.38	0
