Measurement: Raman, 514 nm, ccw, Raman Data Processed
Mineral: Braunite
Rruff sample: R050388
Ideal chemistry: Mn^2+^Mn^3+^_6_SiO_12_
Locality: Langban, Filipstad, Varmland, Sweden
Source: University of Arizona Mineral Museum
Description: Black crystals
Measured chemistry: (Mn^2+^_0.96_Mg_0.04_)_Î£=1_Mn^3+^_6.00_Si_1.00_O_12_
Pin_id: M00354
Orientation: Laser parallel to -c* (0 0 -1). Fiducial mark perpendicular to laser is parallel to a [1 0 0]
Raman shift (cm-1)	intensity
157.455	0
162.359	27.4141
167.261	1208.36
172.161	1038.45
177.058	1039.31
181.952	1741.89
186.845	3528.3
191.734	5840.65
196.622	8741.69
201.507	12108
206.389	12344.2
211.269	13061.6
216.147	10326
221.022	8184.83
225.895	5805.02
230.765	3903.06
235.633	2101.38
240.498	1301.5
245.361	900.211
250.222	634.543
255.08	496.863
259.936	209.902
264.789	333.652
269.64	115.281
274.488	35.3477
279.334	193.938
284.178	62.7656
289.019	26.4414
293.857	123.172
298.693	183.219
303.527	68.1562
308.358	284.211
313.187	319.16
318.013	925.129
322.837	1842.86
327.659	2394.67
332.478	1929.42
337.294	1016.39
342.108	400.305
346.92	360.625
351.729	56.8398
356.535	379.203
361.34	463.711
366.141	262.594
370.94	489.258
375.737	386.969
380.531	455.84
385.323	137.809
390.113	68.1289
394.9	35.4648
399.684	217.824
404.466	102.945
409.245	521.18
414.022	580.809
418.797	795.074
423.569	806.066
428.338	637.648
433.105	696.43
437.87	480.793
442.632	694.238
447.391	1157.74
452.149	763.445
456.903	914.82
461.655	1212.27
466.405	1318.09
471.152	1499.42
475.897	1385.47
480.639	1849.12
485.378	1656.27
490.116	1871.29
494.85	1961.18
499.582	2666.48
504.312	4291.33
509.039	4567.84
513.764	3857.11
518.486	3157.25
523.206	3023.31
527.923	2683.33
532.638	2239.45
537.35	2208.11
542.059	2342.98
546.766	2602.72
551.471	2986.43
556.173	3025.41
560.873	2680.66
565.57	3168.05
570.264	3608.66
574.957	2484.9
579.646	1811.61
584.333	843.133
589.018	710.969
593.7	1212.85
598.379	1828.5
603.056	2903.98
607.73	5163.02
612.402	7392.38
617.072	8283.71
621.739	7233.71
626.403	5285.72
631.065	3528.46
635.724	2621.05
640.381	1835.25
645.035	1328.76
649.687	770.684
654.336	955.152
658.983	756.383
663.627	1508.24
668.268	1307.14
672.907	2177.39
677.544	2922.46
682.178	4119.84
686.809	4762.56
691.438	4325.15
696.065	3964.1
700.688	2331.16
705.31	1137.11
709.929	600.656
714.545	302.992
719.158	363.371
723.77	283.777
728.378	35.4414
732.984	159.769
737.588	144.852
742.189	167.504
746.787	135.078
751.383	489.043
755.976	126.078
760.567	22.4453
765.155	1.85547
769.741	221.25
774.324	97.6562
778.904	90.4805
783.482	98.4336
788.058	51.2891
792.631	108.094
797.201	211.664
801.769	139.019
806.334	205.035
810.897	254.801
815.457	145.078
820.014	90.125
824.569	251.957
829.122	45.4102
833.671	55.6914
838.219	68.4492
842.763	169.234
847.306	63.2969
851.845	90.3555
856.382	59.0898
860.917	347.109
865.448	146.738
869.978	300.109
874.505	270.254
879.029	86.5156
883.55	22.8672
888.069	163.691
892.586	226.703
897.1	2.85938
901.611	276.035
906.12	218.684
910.626	455.008
915.129	332.43
919.63	470.262
924.129	534.922
928.625	536.465
933.118	607.457
937.609	644.16
942.097	602.016
946.582	981.727
951.065	1418.8
955.546	1554.12
960.023	1486.41
964.499	1424.97
968.971	1009.82
973.441	577.434
977.909	852.125
982.374	623.805
986.836	687.504
991.295	630.492
995.753	731.918
1000.21	472.934
1004.66	251.348
1009.11	550.285
1013.55	572.984
1018	489.566
1022.44	1042.71
1026.88	594.207
1031.32	598.367
1035.75	594.25
1040.18	804.258
1044.61	913.484
1049.04	943.047
1053.46	877.656
1057.88	1053.11
1062.3	1075.81
1066.71	1056.11
1071.13	959.586
1075.54	1150.37
1079.94	1000.64
1084.35	900.609
1088.75	1186.18
1093.15	1045.52
1097.55	695.191
1101.94	1102.85
1106.34	934.941
1110.73	927.059
1115.11	704.023
1119.5	587.789
1123.88	599.492
1128.26	775.211
1132.63	484.723
1137.01	417.957
1141.38	407.977
1145.75	221.547
1150.12	488.734
1154.48	121.547
1158.84	237.438
1163.2	231.109
1167.55	59.7969
1171.91	85.3164
1176.26	280.984
1180.61	337.879
1184.95	217.793
1189.29	12.2773
1193.63	31.1484
1197.97	115.356
1202.31	237.871
1206.64	23.7344
1210.97	330.977
1215.29	377.562
1219.62	121.457
1223.94	265.66
1228.26	368.266
1232.57	43.8398
1236.89	462.269
1241.2	473.656
1245.51	184.301
1249.81	373.172
1254.12	17.2617
1258.42	150.531
1262.72	140.519
1267.01	330.879
1271.3	241.481
1275.59	499.254
1279.88	316.18
1284.17	315.227
1288.45	137.516
1292.73	1.5
1297.01	146.633
1301.28	466.086
1305.55	335.34
1309.82	676.758
1314.09	135.242
1318.35	319.508
1322.61	449.406
1326.87	376.211
1331.13	306.699
1335.38	563.215
1339.63	411.75
1343.88	658.523
1348.12	583.144
1352.37	222.231
1356.61	388.121
1360.85	521.887
1365.08	569.727
1369.31	460.934
1373.54	644.754
1377.77	404.18
1381.99	452.168
1386.22	400.727
1390.43	548.797
1394.65	526.086
1398.87	202.231
1403.08	377.062
1407.29	792.824
1411.49	394.648
1415.69	240.434
1419.89	275.965
1424.09	483.07
1428.29	247.812
1432.48	479.098
1436.67	186.109
1440.86	481.996
1445.04	353.332
1449.23	434.883
1453.4	341.766
1457.58	249.477
1461.76	1.95312
1465.93	290.277
1470.1	180.344
1474.26	393.195
1478.43	405.816
1482.59	127.25
1486.75	278.164
1490.9	256.977
1495.06	297.414
1499.21	306.551
1503.35	330.941
1507.5	198.637
1511.64	100.633
1515.78	87.8203
1519.92	465.711
1524.05	87.0078
1528.18	309.789
1532.31	520.898
1536.44	118.742
1540.56	385.469
1544.69	544.004
1548.8	496.785
1552.92	84.3125
1557.03	112.164
1561.14	266.91
1565.25	289.922
1569.36	0.238281
