Measurement: Raman, 514 nm, ccw, Raman Data Processed
Mineral: Braunite
Rruff sample: R050390
Ideal chemistry: Mn^2+^Mn^3+^_6_SiO_12_
Locality: Oehrenstock, Thuringia, Germany
Source: University of Arizona Mineral Museum
Description: Mass of black octahedra
Measured chemistry: (Mn^2+^_0.83_Ca_0.17_)_Î£=1_Mn^3+^_6.00_Si_1.00_O_12_
Pin_id: M00380
Orientation: Laser parallel to c* (0 0 1). Fiducial mark perpendicular to laser is parallel to a [1 0 0]
Raman shift (cm-1)	intensity
298.693	0
302.319	142.389
305.943	281.611
309.566	326.148
313.187	77.582
316.807	356.238
320.426	424.4
324.043	581.832
327.659	979.688
331.273	1161.87
334.886	1421.87
338.498	1420.26
342.108	1425.73
345.717	1314.19
349.324	1091.28
352.931	873.549
356.535	585.771
360.139	536.002
363.741	561.746
367.341	358.518
370.94	612.225
374.538	492.768
378.135	499.215
381.73	625.445
385.323	701.654
388.916	264.894
392.506	577.123
396.096	366.432
399.684	239.727
403.271	29.9902
406.856	51.7832
410.44	35.5488
414.022	121.256
417.603	2.83203
421.183	200.219
424.761	508.428
428.338	134.148
431.914	257.826
435.488	398.566
439.061	5.41406
442.632	335.627
446.202	649.562
449.77	387.986
453.337	729.281
456.903	603.502
460.467	985.141
464.03	770.424
467.592	1270.54
471.152	985.402
474.711	1461.95
478.268	1477.09
481.824	1819.86
485.378	2010.28
488.932	2207
492.483	2420.27
496.034	2431.66
499.582	2307.41
503.13	2468.28
506.676	2747.28
510.221	2920.2
513.764	3405.57
517.306	3432.44
520.846	3661.36
524.385	3606.7
527.923	3299.25
531.459	3059.59
534.994	2862.08
538.527	2695.41
542.059	2322.58
545.59	2392.71
549.119	2182.75
552.647	2261.75
556.173	2151.47
559.698	2361.63
563.222	2361.51
566.744	2563.82
570.264	3058.51
573.784	2878.54
577.302	3037.08
580.818	2247.36
584.333	1690.9
587.847	1035.67
591.359	1440
594.87	1407.86
598.379	1416.26
601.887	1528.22
605.394	1908.7
608.899	2241.66
612.402	2934.1
615.905	3537
619.406	4285.35
622.905	5453.13
626.403	6146.34
629.9	6434.13
633.395	6610.15
636.889	6529.93
640.381	5930.26
643.872	7446.85
647.361	4114.19
650.849	3718
654.336	3140.07
657.821	2470.05
661.305	2165.47
664.787	2184.16
668.268	2151.8
671.748	2040
675.226	2123.88
678.703	2097.78
682.178	2303.04
685.652	2729.18
689.124	3120.74
692.595	3241.22
696.065	3657.11
699.533	3690.38
702.999	3911.38
706.465	3413.64
709.929	3051.64
713.391	2886.6
716.852	2509.58
720.311	1924.36
723.77	1576.05
727.226	1134.61
730.681	861.047
734.135	598.344
737.588	676.492
741.039	278.477
744.488	678.113
747.936	426.644
751.383	512.977
754.828	381.434
758.272	300.375
761.714	767.461
765.155	57.9492
768.595	82.2578
772.033	15.7773
775.469	367.641
778.904	141.406
782.338	2.79688
785.77	158.184
789.201	34.0508
792.631	63.3594
796.059	90.1172
799.485	111.93
802.91	403.5
806.334	419.961
809.756	77.7617
813.177	43.625
816.596	295.324
820.014	10.3555
823.431	76.0859
826.846	159.867
830.259	54.6445
833.671	143.137
837.082	336.348
840.491	216.277
843.899	134.934
847.306	294.328
850.71	19.5391
854.114	312.273
857.516	83.8359
860.917	497.156
864.316	157.25
867.713	320.113
871.11	242.762
874.505	76.2031
877.898	176.449
881.29	689.508
884.68	230.383
888.069	579.082
891.457	702.617
894.843	338.996
898.228	331.227
901.611	618.141
904.993	381.106
908.373	462.898
911.752	633.32
915.129	760.344
918.505	604.152
921.88	847.238
925.253	756.969
928.625	751.582
931.995	800.211
935.364	1174.09
938.731	1134.52
942.097	1168.13
945.461	1214
948.824	1409.2
952.186	1445.71
955.546	1636.36
958.904	1610.49
962.261	1655.66
965.617	1774.93
968.971	1797.32
972.324	1769.75
975.675	1946.35
979.025	1946.04
982.374	1762.24
985.72	1925.7
989.066	1912.35
992.41	1827.96
995.753	1898.65
999.094	1928.75
1002.43	1663.32
1005.77	1891.54
1009.11	1772.36
1012.44	2295.59
1015.78	1838.78
1019.11	1906.22
1022.44	1754.62
1025.77	1743.44
1029.1	1792.68
1032.42	1967.39
1035.75	1807.58
1039.07	1692.46
1042.4	1811.55
1045.72	1960.56
1049.04	1998.42
1052.35	2376.73
1055.67	2218.82
1058.98	1929.58
1062.3	2165.1
1065.61	2044.36
1068.92	2086.44
1072.23	2443.18
1075.54	2110.66
1078.84	2380.11
1082.15	2303.21
1085.45	2074.16
1088.75	1879.63
1092.05	2088.17
1095.35	1857.41
1098.65	1698.36
1101.94	1743.99
1105.24	1751.44
1108.53	1771.7
1111.82	1487.36
1115.11	1544.95
1118.4	1386.85
1121.69	1274.77
1124.97	1328.16
1128.26	1088.63
1131.54	1295.48
1134.82	721.504
1138.1	585.359
1141.38	677.219
1144.66	639.516
1147.93	478.117
1151.21	668.344
1154.48	459.562
1157.75	599.102
1161.02	349.68
1164.29	603.547
1167.55	86.8242
1170.82	189.035
1174.08	442.656
1177.34	27.25
1180.61	387.047
1183.86	31.3867
1187.12	48.8555
1190.38	128.312
1193.63	163.508
1196.89	622.523
1200.14	371.66
1203.39	331.894
1206.64	18.1992
1209.88	205.566
1213.13	276.191
1216.37	288.598
1219.62	114.695
1222.86	183.164
1226.1	535.059
1229.34	224.363
1232.57	213.992
1235.81	26.1992
1239.04	8.23047
1242.28	20.7109
1245.51	207.453
1248.74	64.2578
1251.97	64.457
1255.19	351.969
1258.42	49.7422
1261.64	90.9961
1264.86	88.1289
1268.09	117.688
1271.3	239.16
1274.52	352.398
1277.74	171.867
1280.95	183.266
1284.17	214.848
1287.38	132.516
1290.59	8.44531
1293.8	31.1523
1297.01	76.832
1300.21	23.3086
1303.42	163.867
1306.62	96.4961
1309.82	1.14844
1313.02	262.473
1316.22	449.488
1319.42	382.992
1322.61	310.473
1325.81	239.723
1329	318.852
1332.19	242.648
1335.38	228.996
1338.57	37.4648
1341.76	537.305
1344.94	225.801
1348.12	55.7188
1351.31	458.102
1354.49	478.644
1357.67	523.273
1360.85	491.594
1364.02	530.68
1367.2	503.914
1370.37	233.578
1373.54	223.883
1376.71	305.664
1379.88	342.121
1383.05	474.938
1386.22	42.7891
1389.38	432.129
1392.54	323.356
1395.7	138.945
1398.87	470.027
1402.02	55.9844
1405.18	220.754
1408.34	64.8477
1411.49	250.535
1414.64	352.406
1417.8	436.898
1420.94	64.1797
1424.09	38.3945
1427.24	273.848
1430.38	154.117
1433.53	240
1436.67	192.246
1439.81	344.68
1442.95	39.082
1446.09	321.617
1449.23	457.262
1452.36	405.41
1455.49	442.125
1458.63	260.852
1461.76	195.469
1464.89	292.324
1468.01	65.25
1471.14	470.773
1474.26	71.0703
1477.39	251.191
1480.51	368.973
1483.63	102.731
1486.75	108.738
1489.86	128.5
1492.98	95.3867
1496.09	49.6172
1499.21	252.117
1502.32	290.836
1505.43	176.711
1508.54	270.531
1511.64	258.379
1514.75	118.965
1517.85	267.977
1520.95	167.879
1524.05	190.098
1527.15	226.797
1530.25	325.359
1533.35	84.2539
1536.44	73.5859
1539.53	436.863
1542.62	137.059
1545.72	16.9727
1548.8	401.102
1551.89	458.066
1554.98	484.273
1558.06	442.949
1561.14	450.359
1564.23	401.316
1567.31	91.6094
1570.38	0.636719
