Measurement: Raman, 514 nm, ccw, Raman Data Processed
Mineral: Braunite
Rruff sample: R050385
Ideal chemistry: Mn^2+^Mn^3+^_6_SiO_12_
Locality: Jhabua District, Madhya Pradesh, India
Source: University of Arizona Mineral Museum
Description: Black prismatic crystals
Measured chemistry: (Fe^2+^_0.61_Mn^2+^_0.39_)_Σ=1_(Mn^3+^_5.94_Al_0.06_)_Σ=6_Si_1.00_O_12_
Pin_id: M00114
Orientation: Laser parallel to c* (0 0 1). Fiducial mark perpendicular to laser is parallel to -b [0 -1 0]
Raman shift (cm-1)	intensity
178.282	0
183.176	10.0669
188.067	499.633
192.956	1050.7
197.843	1863.77
202.727	3428.12
207.609	2109.54
212.489	3096.26
217.366	3416.22
222.24	3361.23
227.112	2859.37
231.982	1991.08
236.849	1325.82
241.714	835.704
246.577	687.092
251.437	418.772
256.294	290.49
261.149	171.059
266.002	132.934
270.852	47.4199
275.7	72.0381
280.545	8.06738
285.388	46.604
290.229	83.6831
295.067	158.861
299.902	38.7085
304.735	261.706
309.566	161.802
314.394	18.8516
319.22	215.487
324.043	530.759
328.864	789.336
333.682	618.018
338.498	389.352
343.311	125.566
348.122	117.251
352.931	49.0894
357.737	156.966
362.54	137.714
367.341	147.479
372.14	113.807
376.936	157.619
381.73	47.9834
386.521	22.3735
391.31	64.856
396.096	99.9761
400.88	20.5703
405.661	115.226
410.44	173.326
415.216	161.763
419.99	167.394
424.761	154.602
429.53	105.801
434.297	141.046
439.061	165.308
443.822	400.245
448.581	255.925
453.337	381.623
458.091	486.692
462.843	565.482
467.592	763.226
472.338	929.882
477.082	728.275
481.824	565.416
486.563	477.728
491.3	502.317
496.034	673.681
500.765	1061.3
505.494	1627.24
510.221	1683.01
514.945	1393.94
519.666	812.949
524.385	481.21
529.102	328.739
533.816	214.515
538.527	90.625
543.236	140.474
547.943	83.7842
552.647	149.487
557.348	258.974
562.047	348.094
566.744	460.453
571.438	557.475
576.129	535.892
580.818	546.657
585.504	624.815
590.188	765.813
594.87	1295.07
599.549	1906.18
604.225	2718.67
608.899	3695.08
613.57	4090.94
618.239	3971.28
622.905	3241.8
627.569	2424.34
632.23	1944.3
636.889	1280.64
641.545	1062.36
646.198	1108.47
650.849	831.223
655.498	981.554
660.144	961.642
664.787	1066.67
669.428	1307.66
674.067	1675.67
678.703	1976.49
683.336	2313.22
687.967	2234.91
692.595	1798.88
697.221	1212.47
701.844	967.394
706.465	671.607
711.083	419.588
715.698	397.358
720.311	216.139
724.922	201.732
729.53	226.883
734.135	198.451
738.738	82.7734
743.338	81.7739
747.936	5.1543
752.531	170.972
757.124	31.4277
761.714	43.3945
766.302	85.7446
770.887	86.3062
775.469	5.23975
780.049	77.4619
784.626	10.4385
789.201	28.1548
793.773	43.5967
798.343	64.2612
802.91	10.9023
807.475	20.0747
812.037	46.8286
816.596	25.2793
821.153	34.646
825.707	12.1831
830.259	9.24268
834.808	94.8916
839.355	59.0547
843.899	133.673
848.441	87.8208
852.98	15.6455
857.516	189.075
862.05	104.497
866.581	10.9888
871.11	173.415
875.636	252.544
880.159	113.391
884.68	39.2026
889.199	164.527
893.714	20.4575
898.228	296.311
902.738	212.841
907.246	107.003
911.752	307.836
916.255	271.33
920.755	226.716
925.253	364.43
929.748	237.594
934.241	416.25
938.731	553.039
943.218	580.037
947.703	709.944
952.186	841.659
956.665	986.024
961.142	902.567
965.617	873.168
970.089	766.547
974.558	664.713
979.025	607.77
983.489	460.81
987.951	413.785
992.41	369.616
996.866	399.728
1001.32	456.04
1005.77	458.286
1010.22	415.453
1014.67	242.83
1019.11	392.664
1023.55	340.819
1027.99	184.552
1032.42	291.255
1036.86	253.664
1041.29	349.441
1045.72	357.277
1050.14	367.179
1054.56	352.306
1058.98	338.916
1063.4	462.278
1067.82	387.78
1072.23	453.42
1076.64	471.369
1081.05	266.603
1085.45	437.698
1089.85	298.524
1094.25	357.502
1098.65	251.714
1103.04	296.129
1107.43	215.779
1111.82	268.152
1116.21	458.266
1120.59	774.534
1124.97	704.332
1129.35	354.603
1133.73	7.36719
1138.1	210.309
1142.47	82.3906
1146.84	7.3833
1151.21	100.935
1155.57	31.186
1159.93	33.7388
1164.29	120.431
1168.64	20.7432
1172.99	26.8247
1177.34	20.0679
1181.69	45.063
1186.04	26.1855
1190.38	25.5981
1194.72	38.3227
1199.05	96.9907
1203.39	56.3174
1207.72	117.751
1212.05	33.6484
1216.37	134.187
1220.7	64.1411
1225.02	177.715
1229.34	143.424
1233.65	155.395
1237.97	49.0688
1242.28	183.561
1246.59	236.189
1250.89	25.0815
1255.19	126.304
1259.49	167.301
1263.79	47.9609
1268.09	29.687
1272.38	129.085
1276.67	26.2061
1280.95	66.3892
1285.24	232.344
1289.52	48.3335
1293.8	126.215
1298.08	147.57
1302.35	183.171
1306.62	109.165
1310.89	72.4819
1315.15	206.398
1319.42	253.899
1323.68	257.29
1327.94	244.942
1332.19	227.042
1336.44	125.857
1340.69	279.93
1344.94	235.1
1349.19	178.403
1353.43	314.017
1357.67	257.803
1361.9	298.27
1366.14	342.878
1370.37	200.428
1374.6	361.012
1378.83	325.596
1383.05	230.988
1387.27	238.22
1391.49	286.849
1395.7	206.173
1399.92	208.428
1404.13	228.665
1408.34	138.833
1412.54	143.792
1416.74	188.998
1420.94	182.917
1425.14	109.623
1429.34	98.8227
1433.53	83.5303
1437.72	60.7315
1441.9	62.2007
1446.09	94.2134
1450.27	95.5352
1454.45	106.872
1458.63	14.0908
1462.8	73.9512
1466.97	55.8931
1471.14	85.7764
1475.31	109.433
1479.47	12.1743
1483.63	172.052
1487.79	83.0727
1491.94	117.74
1496.09	6.33643
1500.24	82.7666
1504.39	10.7148
1508.54	33.5786
1512.68	178.805
1516.82	188.084
1520.95	88.9121
1525.09	44.481
1529.22	208.297
1533.35	4.29834
1537.47	178.734
1541.6	156.322
1545.72	25.439
1549.83	40.9224
1553.95	80.7915
1558.06	93.6206
1562.17	4.19775
1566.28	94.8281
1570.38	0
