Measurement: Raman, 514 nm, ccw, Raman Data Processed
Mineral: Braunite
Rruff sample: R050385
Ideal chemistry: Mn^2+^Mn^3+^_6_SiO_12_
Locality: Jhabua District, Madhya Pradesh, India
Source: University of Arizona Mineral Museum
Description: Black prismatic crystals
Measured chemistry: (Fe^2+^_0.61_Mn^2+^_0.39_)_Σ=1_(Mn^3+^_5.94_Al_0.06_)_Σ=6_Si_1.00_O_12_
Pin_id: L01451
Orientation: Laser parallel to a* (1 0 0). Fiducial mark perpendicular to laser is parallel to c [0 0 1]
Raman shift (cm-1)	intensity
178.282	0
183.176	20.0752
188.067	963.481
192.956	1373.41
197.843	2431.17
202.727	4902.92
207.609	698.766
212.489	1839.18
217.366	2761.6
222.24	3119.8
227.112	2865.36
231.982	2217.96
236.849	1468.92
241.714	918.633
246.577	1028.27
251.437	420.155
256.294	316.981
261.149	475.209
266.002	543.132
270.852	381.615
275.7	612.215
280.545	339.188
285.388	90.7549
290.229	262.885
295.067	573.247
299.902	89.0342
304.735	185.515
309.566	257.619
314.394	116.63
319.22	404.585
324.043	1312.6
328.864	3277.65
333.682	4293.41
338.498	3251.43
343.311	2035.13
348.122	1233.04
352.931	689.09
357.737	657.299
362.54	776.055
367.341	802.016
372.14	871.807
376.936	675.336
381.73	290.537
386.521	248.343
391.31	158.639
396.096	10.9629
400.88	47.5107
405.661	54.2891
410.44	130.183
415.216	107.142
419.99	336.397
424.761	577.61
429.53	330.931
434.297	391.178
439.061	265.866
443.822	394.859
448.581	734.356
453.337	883.434
458.091	1593.3
462.843	3205.01
467.592	5508.26
472.338	7902.33
477.082	8397.82
481.824	6395.72
486.563	4471.07
491.3	3228.91
496.034	3235.39
500.765	3779.56
505.494	5411.38
510.221	7649
514.945	7572.88
519.666	5211
524.385	3469.46
529.102	1792.31
533.816	932.523
538.527	503.978
543.236	401.231
547.943	141.823
552.647	283.882
557.348	408.321
562.047	765.011
566.744	1307.85
571.438	1802.93
576.129	2114.18
580.818	2041.43
585.504	1697.68
590.188	1621.55
594.87	2121.2
599.549	3021.95
604.225	4490.05
608.899	6615.3
613.57	8094.19
618.239	8109.87
622.905	7090.85
627.569	5309.09
632.23	4065.68
636.889	3045.93
641.545	2530.43
646.198	2411.04
650.849	2574.11
655.498	2498.29
660.144	2327.83
664.787	2191.42
669.428	2549.03
674.067	2275.88
678.703	3027.23
683.336	3644.84
687.967	4152.77
692.595	3683.06
697.221	3113.94
701.844	2501.7
706.465	2106.77
711.083	1769.65
715.698	1299.19
720.311	956.374
724.922	585.962
729.53	462.56
734.135	303.092
738.738	199.495
743.338	187.335
747.936	122.932
752.531	85.9883
757.124	10.5732
761.714	146.667
766.302	60.2559
770.887	126.689
775.469	51.4893
780.049	69.9668
784.626	14.7783
789.201	194.423
793.773	28.5137
798.343	156.022
802.91	193.361
807.475	69.5762
812.037	46.1924
816.596	82.0908
821.153	74.5469
825.707	40.3496
830.259	82.8623
834.808	51.2148
839.355	9.56152
843.899	169.538
848.441	106.734
852.98	177.09
857.516	224.6
862.05	219.237
866.581	143.065
871.11	230.082
875.636	265.302
880.159	437.746
884.68	414.418
889.199	378.324
893.714	469.474
898.228	465.341
902.738	608.19
907.246	624.639
911.752	598.679
916.255	678.692
920.755	659.264
925.253	695.738
929.748	890.115
934.241	803.923
938.731	1222.42
943.218	1345.29
947.703	1550.25
952.186	1682.66
956.665	1538.75
961.142	1518.78
965.617	1461.93
970.089	1271.38
974.558	1343.51
979.025	1214.47
983.489	909.161
987.951	771.457
992.41	802.471
996.866	757.27
1001.32	912.975
1005.77	644.872
1010.22	631.181
1014.67	737.525
1019.11	585.669
1023.55	492.891
1027.99	575.114
1032.42	512.34
1036.86	435.754
1041.29	729.719
1045.72	551.551
1050.14	839.073
1054.56	621.688
1058.98	712.81
1063.4	738.642
1067.82	832.564
1072.23	798.333
1076.64	775.269
1081.05	801.051
1085.45	774.331
1089.85	766.079
1094.25	688.597
1098.65	596.318
1103.04	672.356
1107.43	576.709
1111.82	535.372
1116.21	737.237
1120.59	769.293
1124.97	724.562
1129.35	464.046
1133.73	287.721
1138.1	366.6
1142.47	250.679
1146.84	263.955
1151.21	140.434
1155.57	146.117
1159.93	208.009
1164.29	99.1064
1168.64	295.322
1172.99	118.675
1177.34	55.1435
1181.69	214.656
1186.04	127.402
1190.38	210.233
1194.72	203.844
1199.05	61.6279
1203.39	20.9512
1207.72	43.5312
1212.05	77.1553
1216.37	134.944
1220.7	90.9482
1225.02	82.1016
1229.34	96.4297
1233.65	212.912
1237.97	132.596
1242.28	231.528
1246.59	207.597
1250.89	124.799
1255.19	173.558
1259.49	235.107
1263.79	142.383
1268.09	177.252
1272.38	76.2666
1276.67	6.41699
1280.95	28.6885
1285.24	41.0713
1289.52	67.5664
1293.8	67.1719
1298.08	163.695
1302.35	239.885
1306.62	307.367
1310.89	216.398
1315.15	317.984
1319.42	457.647
1323.68	437.483
1327.94	341.488
1332.19	577.213
1336.44	421.462
1340.69	599.54
1344.94	548.102
1349.19	473.459
1353.43	497.484
1357.67	541.226
1361.9	719.216
1366.14	1168.3
1370.37	781.458
1374.6	877.783
1378.83	869.281
1383.05	935.429
1387.27	925.88
1391.49	919.521
1395.7	875.951
1399.92	789.279
1404.13	761.462
1408.34	680.416
1412.54	717.318
1416.74	618.402
1420.94	447.184
1425.14	447.772
1429.34	454.339
1433.53	423.35
1437.72	277.678
1441.9	304.01
1446.09	144.767
1450.27	140.878
1454.45	106.511
1458.63	85.5107
1462.8	1.35938
1466.97	33.919
1471.14	63.1719
1475.31	75.459
1479.47	32.8955
1483.63	112.597
1487.79	11.251
1491.94	74.1562
1496.09	296.108
1500.24	251.357
1504.39	161.082
1508.54	8.57129
1512.68	37.0781
1516.82	200.799
1520.95	30.1895
1525.09	155.155
1529.22	193.457
1533.35	256.411
1537.47	145.946
1541.6	67.9629
1545.72	205.447
1549.83	154.346
1553.95	10.8711
1558.06	127.376
1562.17	140.786
1566.28	147.704
1570.38	0
