Measurement: Raman, 514 nm, ccw, Raman Data Processed
Mineral: Braunite
Rruff sample: R050388
Ideal chemistry: Mn^2+^Mn^3+^_6_SiO_12_
Locality: Langban, Filipstad, Varmland, Sweden
Source: University of Arizona Mineral Museum
Description: Black crystals
Measured chemistry: (Mn^2+^_0.96_Mg_0.04_)_Î£=1_Mn^3+^_6.00_Si_1.00_O_12_
Pin_id: M00455
Orientation: Laser parallel to a* (1 0 0). Fiducial mark perpendicular to laser is parallel to c [0 0 1]
Raman shift (cm-1)	intensity
175.834	0
180.729	91.0156
185.622	167.691
190.512	932.93
195.4	1804.98
200.286	2278.45
205.169	1649.76
210.049	1124.62
214.928	2999.51
219.803	3509.48
224.677	2568.76
229.548	2041.18
234.416	2063.36
239.282	1634.56
244.146	1002.52
249.007	523.281
253.866	454.019
258.722	524.004
263.576	410.957
268.427	344.773
273.276	7.04688
278.123	376.582
282.967	16.5664
287.809	180.621
292.648	12.2539
297.485	769.809
302.319	606.168
307.151	122.164
311.98	132.398
316.807	77.8867
321.631	192.777
326.454	19.6055
331.273	411.09
336.09	903.734
340.905	1305.64
345.717	563.606
350.527	236.418
355.334	457.918
360.139	357.281
364.941	216.551
369.741	525.672
374.538	563.617
379.333	705.238
384.126	317.992
388.916	383.91
393.703	394.707
398.488	657.453
403.271	58.2383
408.051	333.519
412.828	68.6992
417.603	7.4375
422.376	214.523
427.146	197.504
431.914	715.922
436.679	487.75
441.442	409.019
446.202	611.375
450.96	651.621
455.715	637.856
460.467	774.738
465.218	852.871
469.965	1227.09
474.711	1821.96
479.454	1868.44
484.194	1808.91
488.932	1352.25
493.667	1924.66
498.4	1158.82
503.13	1298.77
507.858	1322.52
512.583	1768.27
517.306	2646.89
522.026	2475.42
526.744	2040.11
531.459	1315.02
536.172	1463.11
540.882	1159.58
545.59	1439
550.295	1562.37
554.998	1315.93
559.698	1509.49
564.396	1294.89
569.091	2090.5
573.784	1691.25
578.474	1913
583.162	1822.02
587.847	1454.84
592.529	1146.66
597.209	600.684
601.887	557.312
606.562	802.125
611.235	1015.31
615.905	1588.61
620.572	2275.04
625.237	2392.04
629.9	2336.52
634.56	1598.62
639.217	1901.81
643.872	624.898
648.524	794.785
653.174	819.457
657.821	976.102
662.466	788.231
667.108	750.477
671.748	414.969
676.385	558.574
681.02	232.953
685.652	672.082
690.281	444.375
694.908	342.008
699.533	410.106
704.155	297.418
708.774	281.328
713.391	187.742
718.005	399.82
722.617	153.582
727.226	69.1445
731.833	170.445
736.437	22.7188
741.039	66.0195
745.638	157.344
750.234	245.094
754.828	205.582
759.419	101.777
764.008	46.3047
768.595	159.141
773.178	134.281
777.759	280.863
782.338	49.0469
786.914	345.641
791.488	57.4883
796.059	257.906
800.627	164.215
805.193	107.391
809.756	38.5312
814.317	33.6289
818.875	209.481
823.431	219.723
827.984	140.945
832.534	302.758
837.082	148.141
841.627	41.7773
846.17	137.965
850.71	179.969
855.248	179.981
859.783	85.7031
864.316	45.5
868.846	178.727
873.373	293.32
877.898	166.809
882.42	234.602
886.94	264.606
891.457	438.141
895.971	186.164
900.483	450.598
904.993	373.465
909.5	588.766
914.004	586.699
918.505	772
923.004	876.098
927.501	787.207
931.995	874.859
936.486	976.586
940.975	1373.82
945.461	1457.35
949.945	1430.43
954.426	1172.38
958.904	1419.34
963.38	1425.98
967.853	1616.23
972.324	1965.76
976.792	1556.85
981.258	1874.38
985.72	1842.85
990.181	2187.93
994.639	2527.27
999.094	2580.64
1003.55	2411.05
1008	2373.39
1012.44	2441.45
1016.89	2013.65
1021.33	2327.13
1025.77	2146.5
1030.21	2680.83
1034.64	2467.13
1039.07	2635.5
1043.5	2582.92
1047.93	2616.06
1052.35	2620.5
1056.78	2956.77
1061.19	2574.54
1065.61	2684.33
1070.02	2639.25
1074.43	2727.52
1078.84	2650.24
1083.25	2533.44
1087.65	2266.27
1092.05	2088.33
1096.45	2468.36
1100.85	2122.07
1105.24	1739.44
1109.63	1605.57
1114.02	1643.38
1118.4	1497.17
1122.78	1399.98
1127.16	1015.25
1131.54	1060.13
1135.92	640.125
1140.29	1015.01
1144.66	869.773
1149.02	666.281
1153.39	372.894
1157.75	445.941
1162.11	318.793
1166.46	136.176
1170.82	19.0234
1175.17	281.695
1179.52	57.3789
1183.86	126.055
1188.21	364.066
1192.55	272.184
1196.89	51.3164
1201.22	183.016
1205.55	175.539
1209.88	183.328
1214.21	23.8633
1218.54	34.918
1222.86	7.09375
1227.18	492.258
1231.5	251.731
1235.81	190.856
1240.12	156.973
1244.43	163.879
1248.74	176.398
1253.04	56.0586
1257.34	11.1602
1261.64	60.582
1265.94	276.055
1270.23	87.7305
1274.52	76.6133
1278.81	21.9922
1283.1	34.418
1287.38	241.551
1291.66	144.141
1295.94	243.402
1300.21	96.5508
1304.48	258.086
1308.75	10.5977
1313.02	319.133
1317.29	90.3711
1321.55	106.883
1325.81	254.188
1330.06	555.676
1334.32	457.07
1338.57	664.102
1342.82	486.539
1347.06	179
1351.31	250.816
1355.55	492.152
1359.79	544.75
1364.02	645.606
1368.26	459.406
1372.49	691.688
1376.71	303.812
1380.94	533.902
1385.16	496.945
1389.38	528.539
1393.6	172.195
1397.81	481.965
1402.02	416.473
1406.23	162.457
1410.44	24.6055
1414.64	136.047
1418.85	164.625
1423.04	320.82
1427.24	47.8242
1431.43	262.609
1435.62	139.328
1439.81	147.812
1444	613.762
1448.18	194.254
1452.36	356.211
1456.54	271.426
1460.71	150.574
1464.89	260.949
1469.06	151.981
1473.22	152.469
1477.39	88.5039
1481.55	355.277
1485.71	163.031
1489.86	337.07
1494.02	376.098
1498.17	342.555
1502.32	172.984
1506.46	353.09
1510.61	401.82
1514.75	465.289
1518.88	449.184
1523.02	339.445
1527.15	396.242
1531.28	276.023
1535.41	321.606
1539.53	383.75
1543.66	300.977
1547.78	98.7305
1551.89	146.762
1556.01	117.766
1560.12	263.422
1564.23	43.2422
1568.33	0.703125
1572.43	0
