Measurement: Raman, 514 nm, ccw, Raman Data Processed
Mineral: Braunite
Rruff sample: R050385
Ideal chemistry: Mn^2+^Mn^3+^_6_SiO_12_
Locality: Jhabua District, Madhya Pradesh, India
Source: University of Arizona Mineral Museum
Description: Black prismatic crystals
Measured chemistry: (Fe^2+^_0.61_Mn^2+^_0.39_)_Σ=1_(Mn^3+^_5.94_Al_0.06_)_Σ=6_Si_1.00_O_12_
Pin_id: M00114
Orientation: Laser parallel to c* (0 0 1). Fiducial mark perpendicular to laser is parallel to -b [0 -1 0]
Raman shift (cm-1)	intensity
178.282	0
183.176	542.741
188.067	1367.88
192.956	1617.92
197.843	3177.67
202.727	4988.44
207.609	3058.74
212.489	3913.03
217.366	3819.88
222.24	2990.84
227.112	2319.69
231.982	1937.88
236.849	1821.03
241.714	2041.27
246.577	1813.02
251.437	1238.65
256.294	1005.43
261.149	823.328
266.002	596.457
270.852	379.457
275.7	387.032
280.545	49.4556
285.388	58.5464
290.229	91.7602
295.067	93.9019
299.902	65.2593
304.735	52.064
309.566	17.0659
314.394	142.055
319.22	599.473
324.043	1101.39
328.864	1249.69
333.682	1130.34
338.498	701.921
343.311	456.312
348.122	406.56
352.931	198.401
357.737	295.222
362.54	335.104
367.341	284.64
372.14	307.81
376.936	220.606
381.73	205.769
386.521	201.386
391.31	169.419
396.096	151.776
400.88	126.07
405.661	237.267
410.44	223.761
415.216	273.143
419.99	299.659
424.761	199.631
429.53	42.3213
434.297	206.676
439.061	18.7656
443.822	77.9409
448.581	4.15723
453.337	28.2056
458.091	184.367
462.843	422.311
467.592	585.133
472.338	670.763
477.082	658.137
481.824	670.114
486.563	441.988
491.3	549.732
496.034	637.061
500.765	907.293
505.494	1461.01
510.221	1433.67
514.945	1169.37
519.666	883.61
524.385	465.251
529.102	354.69
533.816	352.74
538.527	346.85
543.236	324.947
547.943	312.266
552.647	280.019
557.348	440.569
562.047	469.745
566.744	640.647
571.438	687.036
576.129	407.278
580.818	390.57
585.504	329.891
590.188	145.742
594.87	280.743
599.549	453.564
604.225	731.283
608.899	872.038
613.57	892.308
618.239	1067.35
622.905	748.344
627.569	506.7
632.23	427.874
636.889	269.269
641.545	262.975
646.198	322.257
650.849	375.672
655.498	454.978
660.144	634.96
664.787	872.222
669.428	1441.84
674.067	1951.7
678.703	3345.91
683.336	4419.22
687.967	4645.86
692.595	4181.69
697.221	2907.76
701.844	1921.45
706.465	1365.8
711.083	844.852
715.698	618.342
720.311	474.036
724.922	337.685
729.53	265.863
734.135	194.512
738.738	298.69
743.338	67.9619
747.936	81.4097
752.531	22.1094
757.124	31.605
761.714	18.4458
766.302	53.5552
770.887	7.76074
775.469	56.3052
780.049	55.2295
784.626	46.5361
789.201	40.2656
793.773	8.58935
798.343	56.3213
802.91	63.4482
807.475	41.8232
812.037	42.2305
816.596	50.3569
821.153	35.8423
825.707	20.8818
830.259	36.0859
834.808	16.769
839.355	39.0317
843.899	119.733
848.441	8.83594
852.98	8.67529
857.516	110.284
862.05	106.919
866.581	117.219
871.11	48.5425
875.636	147.79
880.159	115.066
884.68	82.022
889.199	250.702
893.714	234.674
898.228	255.767
902.738	243.584
907.246	251.686
911.752	336.846
916.255	375.566
920.755	361.335
925.253	392.587
929.748	618.329
934.241	711.06
938.731	911.824
943.218	1135.16
947.703	1564.65
952.186	1961.9
956.665	2054.45
961.142	1918.26
965.617	1553.34
970.089	1182.9
974.558	1019.44
979.025	735.941
983.489	665.695
987.951	658.458
992.41	609.911
996.866	604.766
1001.32	629.725
1005.77	446.685
1010.22	380.09
1014.67	459.346
1019.11	437.72
1023.55	500.271
1027.99	501.857
1032.42	444.565
1036.86	420.4
1041.29	473.376
1045.72	499.304
1050.14	598.789
1054.56	551.387
1058.98	527.259
1063.4	531.408
1067.82	669.036
1072.23	540.852
1076.64	565.983
1081.05	483.411
1085.45	478.281
1089.85	407.938
1094.25	367.562
1098.65	431.678
1103.04	342.088
1107.43	353.769
1111.82	400.798
1116.21	435.063
1120.59	885.814
1124.97	723.542
1129.35	367.465
1133.73	294.521
1138.1	154.709
1142.47	41.543
1146.84	49.7598
1151.21	103.973
1155.57	106.417
1159.93	121.772
1164.29	56.9248
1168.64	74.5186
1172.99	50.6357
1177.34	34.0674
1181.69	83.3281
1186.04	21.8359
1190.38	46.4941
1194.72	56.6885
1199.05	83.2051
1203.39	11.2285
1207.72	28.5928
1212.05	71.7852
1216.37	9.58984
1220.7	60.8389
1225.02	41.918
1229.34	94.7607
1233.65	140.675
1237.97	221.658
1242.28	1.7041
1246.59	50.792
1250.89	56.8887
1255.19	63.1465
1259.49	89.5371
1263.79	4.21582
1268.09	127.1
1272.38	4.4082
1276.67	79.6562
1280.95	158.876
1285.24	90.6504
1289.52	59.2422
1293.8	118.406
1298.08	49.5215
1302.35	150.59
1306.62	50.2559
1310.89	163.032
1315.15	234.972
1319.42	237.113
1323.68	220.636
1327.94	222.332
1332.19	213.235
1336.44	244.011
1340.69	334.044
1344.94	205.835
1349.19	260.692
1353.43	135.705
1357.67	262.065
1361.9	258.377
1366.14	363.64
1370.37	395.374
1374.6	351.046
1378.83	223.903
1383.05	295.585
1387.27	208.671
1391.49	136.821
1395.7	166.032
1399.92	236.441
1404.13	148.315
1408.34	161.81
1412.54	183.251
1416.74	139.87
1420.94	231.679
1425.14	109.258
1429.34	4.83691
1433.53	2.67285
1437.72	135.216
1441.9	53.4863
1446.09	126.42
1450.27	106.666
1454.45	124.412
1458.63	106.629
1462.8	65.5068
1466.97	16.3701
1471.14	40.1836
1475.31	27.6836
1479.47	114.264
1483.63	162.152
1487.79	214.165
1491.94	146.334
1496.09	186.583
1500.24	62.9629
1504.39	51.7236
1508.54	12.252
1512.68	133.731
1516.82	138.092
1520.95	43.5791
1525.09	82.6094
1529.22	164.241
1533.35	163.471
1537.47	45.6006
1541.6	103.535
1545.72	61.165
1549.83	75.1768
1553.95	76.0928
1558.06	122.944
1562.17	89.6816
1566.28	1.72559
1570.38	0
