Measurement: Raman, 514 nm, ccw, Raman Data Processed
Mineral: Braunite
Rruff sample: R050388
Ideal chemistry: Mn^2+^Mn^3+^_6_SiO_12_
Locality: Langban, Filipstad, Varmland, Sweden
Source: University of Arizona Mineral Museum
Description: Black crystals
Measured chemistry: (Mn^2+^_0.96_Mg_0.04_)_Î£=1_Mn^3+^_6.00_Si_1.00_O_12_
Pin_id: M00455
Orientation: Laser parallel to a* (1 0 0). Fiducial mark perpendicular to laser is parallel to c [0 0 1]
Raman shift (cm-1)	intensity
175.834	0
180.729	212.383
185.622	244.008
190.512	1116.39
195.4	1584.93
200.286	2066.38
205.169	1718.34
210.049	319.875
214.928	1253.24
219.803	2209.04
224.677	1928.6
229.548	1101.75
234.416	596.098
239.282	517.543
244.146	479.176
249.007	446.953
253.866	531.121
258.722	228.832
263.576	317.695
268.427	398.742
273.276	332.125
278.123	363.699
282.967	25.4766
287.809	315.602
292.648	246.918
297.485	5.44141
302.319	98.0352
307.151	243.008
311.98	223.051
316.807	3.50781
321.631	98.2969
326.454	383.59
331.273	769.117
336.09	1825.85
340.905	2459.99
345.717	1557.31
350.527	929.047
355.334	914.703
360.139	558.047
364.941	412.461
369.741	408.574
374.538	841.188
379.333	816.394
384.126	902.856
388.916	637.66
393.703	728.281
398.488	743.789
403.271	480.66
408.051	675.113
412.828	698.273
417.603	475.449
422.376	690.836
427.146	833.445
431.914	1171.36
436.679	1148.51
441.442	926.269
446.202	985.668
450.96	976.328
455.715	1193.21
460.467	1369.88
465.218	1548.58
469.965	1743.49
474.711	2512.42
479.454	3512.42
484.194	3584.31
488.932	3022.19
493.667	2508.09
498.4	2534.01
503.13	2434.05
507.858	2960.32
512.583	3844.79
517.306	4509.54
522.026	4591.64
526.744	3810.2
531.459	3219.52
536.172	2473.99
540.882	2642.23
545.59	2568.17
550.295	2628.73
554.998	2461.77
559.698	2855.27
564.396	2644.41
569.091	2675.03
573.784	2659.68
578.474	2097.79
583.162	1374.49
587.847	731.481
592.529	726.801
597.209	650.859
601.887	733.238
606.562	757.484
611.235	1548.68
615.905	2530.91
620.572	3418.68
625.237	4125.77
629.9	3329.38
634.56	2280.35
639.217	1405.12
643.872	1034.89
648.524	586.539
653.174	506.781
657.821	325.543
662.466	33.5742
667.108	236.922
671.748	257.269
676.385	174.328
681.02	92.3125
685.652	377.324
690.281	93.4453
694.908	590.894
699.533	519.883
704.155	292.742
708.774	212.711
713.391	130.297
718.005	34.5117
722.617	83.7969
727.226	400.609
731.833	311.117
736.437	196.723
741.039	228.125
745.638	92.9727
750.234	170.227
754.828	257.508
759.419	123.512
764.008	147.445
768.595	171.176
773.178	206.789
777.759	139.328
782.338	115.625
786.914	27.6562
791.488	34.6406
796.059	188.93
800.627	289.012
805.193	224.418
809.756	161.144
814.317	30.0195
818.875	62.5039
823.431	105.418
827.984	11.0391
832.534	105.371
837.082	23.7148
841.627	302.59
846.17	105.363
850.71	76.4648
855.248	17.6758
859.783	202.578
864.316	177.305
868.846	66.4961
873.373	99.3008
877.898	150.852
882.42	42.1172
886.94	375.191
891.457	166.922
895.971	277.172
900.483	261.133
904.993	404.449
909.5	291.754
914.004	633.117
918.505	406.504
923.004	660.438
927.501	670.438
931.995	770.391
936.486	974.519
940.975	712.754
945.461	1162.49
949.945	626.769
954.426	927.766
958.904	1061.2
963.38	981.273
967.853	880.656
972.324	950.809
976.792	1109.55
981.258	1244.17
985.72	1210.93
990.181	1192.48
994.639	1283.64
999.094	1894.51
1003.55	1274.54
1008	1346.11
1012.44	1138.62
1016.89	1557.35
1021.33	1309.41
1025.77	1473.51
1030.21	1441.3
1034.64	1499.76
1039.07	1463.31
1043.5	1417.82
1047.93	1845.06
1052.35	1884.07
1056.78	1539.8
1061.19	1707.28
1065.61	2042.56
1070.02	1838.64
1074.43	2162.58
1078.84	2093.99
1083.25	1997.22
1087.65	2035.54
1092.05	1782.57
1096.45	1943.25
1100.85	1729.65
1105.24	2019.17
1109.63	1681.16
1114.02	1670.81
1118.4	1781.02
1122.78	1822.48
1127.16	1503.33
1131.54	1110.35
1135.92	955.941
1140.29	894.016
1144.66	773.137
1149.02	571.152
1153.39	648.652
1157.75	718.699
1162.11	548.231
1166.46	621.606
1170.82	575.953
1175.17	185.738
1179.52	564.715
1183.86	578.996
1188.21	405.57
1192.55	323.426
1196.89	633.559
1201.22	264.769
1205.55	187.387
1209.88	60.1445
1214.21	3.64453
1218.54	66.832
1222.86	311.394
1227.18	136.039
1231.5	177.016
1235.81	112.906
1240.12	43.707
1244.43	125.562
1248.74	177.394
1253.04	320.269
1257.34	181.406
1261.64	391.473
1265.94	141.75
1270.23	60.4648
1274.52	165.047
1278.81	215.406
1283.1	699.363
1287.38	223.031
1291.66	105.648
1295.94	123.852
1300.21	233.535
1304.48	105.519
1308.75	346.25
1313.02	398.844
1317.29	458.348
1321.55	639.723
1325.81	710.031
1330.06	156.777
1334.32	515.102
1338.57	600.731
1342.82	359.258
1347.06	501.578
1351.31	558.789
1355.55	9.61719
1359.79	275.836
1364.02	155.207
1368.26	239.777
1372.49	416.207
1376.71	382.961
1380.94	193.156
1385.16	331.574
1389.38	622.586
1393.6	453.527
1397.81	569.012
1402.02	509.574
1406.23	316.125
1410.44	295.621
1414.64	177.606
1418.85	671.348
1423.04	327.027
1427.24	131.055
1431.43	252.594
1435.62	164.793
1439.81	319.086
1444	74.0391
1448.18	91.4219
1452.36	634.922
1456.54	270.727
1460.71	85.043
1464.89	362.211
1469.06	219.176
1473.22	257.363
1477.39	43.7695
1481.55	119.57
1485.71	407.219
1489.86	169.297
1494.02	447.949
1498.17	778.633
1502.32	432.219
1506.46	270.519
1510.61	200.906
1514.75	307.352
1518.88	499.082
1523.02	352.898
1527.15	463.867
1531.28	420.508
1535.41	134.887
1539.53	249.617
1543.66	296.356
1547.78	248.68
1551.89	372.531
1556.01	313.195
1560.12	304.606
1564.23	13.4141
1568.33	167.207
1572.43	0
