Measurement: Raman, 514 nm, ccw, Raman Data Processed
Mineral: Braunite
Rruff sample: R050388
Ideal chemistry: Mn^2+^Mn^3+^_6_SiO_12_
Locality: Langban, Filipstad, Varmland, Sweden
Source: University of Arizona Mineral Museum
Description: Black crystals
Measured chemistry: (Mn^2+^_0.96_Mg_0.04_)_Î£=1_Mn^3+^_6.00_Si_1.00_O_12_
Pin_id: M00354
Orientation: Laser parallel to -c* (0 0 -1). Fiducial mark perpendicular to laser is parallel to a [1 0 0]
Raman shift (cm-1)	intensity
157.455	0
162.359	123.473
167.261	663.734
172.161	738.25
177.058	873.715
181.952	1614.15
186.845	2748.07
191.734	4885.22
196.622	7695.33
201.507	12951.6
206.389	12643.7
211.269	12971.8
216.147	10194.1
221.022	6489.94
225.895	4077.83
230.765	3023.25
235.633	2818.03
240.498	3805.55
245.361	4060.19
250.222	2879.34
255.08	1828.34
259.936	1529.44
264.789	437.07
269.64	222.684
274.488	248.207
279.334	142.227
284.178	32.4961
289.019	72.7383
293.857	216.875
298.693	132.09
303.527	174.367
308.358	76.9648
313.187	151.199
318.013	596.984
322.837	1855.18
327.659	2678.02
332.478	2761.2
337.294	1425.5
342.108	626.277
346.92	678.441
351.729	384.461
356.535	435.68
361.34	403.07
366.141	448.566
370.94	730.141
375.737	598.512
380.531	370.156
385.323	219.312
390.113	369.793
394.9	458.027
399.684	494.559
404.466	612.859
409.245	560.938
414.022	686.148
418.797	575.684
423.569	662.438
428.338	531.512
433.105	638.586
437.87	431.371
442.632	326.723
447.391	436.391
452.149	105.922
456.903	751.875
461.655	784.031
466.405	1213.03
471.152	1434.89
475.897	1814.75
480.639	1752.66
485.378	1921.59
490.116	1850.64
494.85	1903.89
499.582	2007.47
504.312	3130.65
509.039	3980.76
513.764	3198.42
518.486	2723.51
523.206	2642.03
527.923	1618.47
532.638	1770.64
537.35	1864.3
542.059	2109.66
546.766	2062.62
551.471	1821.13
556.173	1865.22
560.873	1913.11
565.57	1982.7
570.264	2055.5
574.957	1809.56
579.646	1133.84
584.333	196.91
589.018	28.4023
593.7	192.219
598.379	369.523
603.056	631.281
607.73	666.809
612.402	1425.42
617.072	1287.21
621.739	1108.95
626.403	513.394
631.065	717.688
635.724	449.898
640.381	121.074
645.035	170.789
649.687	383.144
654.336	461.215
658.983	657.574
663.627	1195.3
668.268	1886.14
672.907	2653.58
677.544	4482.91
682.178	7366.59
686.809	10137
691.438	9845.41
696.065	7000.31
700.688	4585.38
705.31	2356.34
709.929	1663.48
714.545	1032.32
719.158	515.469
723.77	488.324
728.378	357.848
732.984	576.098
737.588	459.039
742.189	794.309
746.787	247.191
751.383	78.2891
755.976	25.3945
760.567	90.0273
765.155	205.656
769.741	177.41
774.324	114.246
778.904	446.356
783.482	108.34
788.058	11.0117
792.631	234.055
797.201	163.023
801.769	126.188
806.334	186.473
810.897	62.7734
815.457	253.781
820.014	227.223
824.569	236.293
829.122	91.0664
833.671	17.4297
838.219	176.375
842.763	39.8828
847.306	78.2109
851.845	172.844
856.382	12.2383
860.917	308.078
865.448	22.7227
869.978	210.891
874.505	211.223
879.029	118.898
883.55	344.004
888.069	222.285
892.586	571.949
897.1	429.008
901.611	621.5
906.12	493.258
910.626	292.281
915.129	786.43
919.63	387.914
924.129	551.387
928.625	936.383
933.118	939.531
937.609	1488.32
942.097	1901.21
946.582	2896.41
951.065	4301.78
955.546	4682.75
960.023	3164.05
964.499	1712.04
968.971	1576.22
973.441	1058.01
977.909	655.231
982.374	834.613
986.836	754.449
991.295	693.586
995.753	680.023
1000.21	614.949
1004.66	548.59
1009.11	300.41
1013.55	605.215
1018	385.742
1022.44	407.856
1026.88	506.543
1031.32	685.566
1035.75	435.051
1040.18	659.805
1044.61	696.039
1049.04	912.527
1053.46	874.898
1057.88	614.062
1062.3	884.934
1066.71	673.5
1071.13	611.254
1075.54	800.828
1079.94	914.981
1084.35	829.844
1088.75	793.102
1093.15	890.269
1097.55	943.832
1101.94	753.512
1106.34	669.207
1110.73	735.555
1115.11	676.824
1119.5	614.262
1123.88	598.5
1128.26	1103.77
1132.63	135.984
1137.01	487.848
1141.38	372.777
1145.75	694.656
1150.12	190.769
1154.48	432.75
1158.84	183.211
1163.2	286.004
1167.55	255.258
1171.91	172.879
1176.26	224.273
1180.61	87.3867
1184.95	270.172
1189.29	0.945313
1193.63	18.7617
1197.97	216.719
1202.31	212.387
1206.64	31.1875
1210.97	150.207
1215.29	124.519
1219.62	147.031
1223.94	357.742
1228.26	94.7461
1232.57	120.969
1236.89	103.324
1241.2	210.734
1245.51	139.426
1249.81	310.215
1254.12	116.863
1258.42	94.9492
1262.72	0.226563
1267.01	235.547
1271.3	109.34
1275.59	5.64844
1279.88	28.8867
1284.17	274.422
1288.45	4.00391
1292.73	103.25
1297.01	452.828
1301.28	251.242
1305.55	524.781
1309.82	282.273
1314.09	231.637
1318.35	450.91
1322.61	437.207
1326.87	403.332
1331.13	484.082
1335.38	135.57
1339.63	176.746
1343.88	493.144
1348.12	438.836
1352.37	795.43
1356.61	383.383
1360.85	404.809
1365.08	299.852
1369.31	694.297
1373.54	379.102
1377.77	392.445
1381.99	514.449
1386.22	318.848
1390.43	435.504
1394.65	311.91
1398.87	417.422
1403.08	480.348
1407.29	412.641
1411.49	474.832
1415.69	49.1797
1419.89	160.633
1424.09	351.516
1428.29	176.812
1432.48	144.559
1436.67	256.019
1440.86	167.031
1445.04	335.973
1449.23	71.3125
1453.4	14.3164
1457.58	415.09
1461.76	110.223
1465.93	123.051
1470.1	296.789
1474.26	116.203
1478.43	378.566
1482.59	137.176
1486.75	54.9062
1490.9	312.981
1495.06	40.3203
1499.21	241.887
1503.35	242.801
1507.5	371.586
1511.64	215.555
1515.78	445.703
1519.92	21.6719
1524.05	115.672
1528.18	326.273
1532.31	273.375
1536.44	484.301
1540.56	365.606
1544.69	579.094
1548.8	187.09
1552.92	337.41
1557.03	472.898
1561.14	162.41
1565.25	630.703
1569.36	0.191406
