Measurement: Raman, 514 nm, ccw, Raman Data Processed
Mineral: Braunite
Rruff sample: R050390
Ideal chemistry: Mn^2+^Mn^3+^_6_SiO_12_
Locality: Oehrenstock, Thuringia, Germany
Source: University of Arizona Mineral Museum
Description: Mass of black octahedra
Measured chemistry: (Mn^2+^_0.83_Ca_0.17_)_Î£=1_Mn^3+^_6.00_Si_1.00_O_12_
Pin_id: M00051
Orientation: Laser parallel to -a* (-1 0 0). Fiducial mark perpendicular to laser is parallel to -c [0 0 -1]
Raman shift (cm-1)	intensity
299.902	0
303.527	88.9512
307.151	383.238
310.773	230.967
314.394	37.4316
318.013	151.94
321.631	903.918
325.248	2096.57
328.864	2861.08
332.478	4296.92
336.09	5587.42
339.701	7217.06
343.311	6962.18
346.92	6077.75
350.527	4768.49
354.132	3498.37
357.737	2571.55
361.34	2404.4
364.941	2075.17
368.541	1942.66
372.14	1661.63
375.737	1519.53
379.333	1826.9
382.928	1430.03
386.521	1821.07
390.113	1281.04
393.703	292.598
397.292	935.01
400.88	284.051
404.466	131.908
408.051	370.863
411.634	293.406
415.216	394.672
418.797	334.772
422.376	297.287
425.954	419.121
429.53	71.2891
433.105	404.352
436.679	62.1836
440.251	1116.66
443.822	553.898
447.391	1905.14
450.96	989.607
454.526	1615.67
458.091	2008.04
461.655	3550.25
465.218	3856.22
468.779	5385.73
472.338	6125.7
475.897	7045.83
479.454	9583
483.009	9893.24
486.563	10573.3
490.116	10264.8
493.667	10497.2
497.217	9576.6
500.765	9871.89
504.312	9066.44
507.858	9172.4
511.402	10013.1
514.945	10891.3
518.486	11642.4
522.026	12004.3
525.565	11608.9
529.102	10477.9
532.638	8771.14
536.172	6837.06
539.705	6194.48
543.236	4788.09
546.766	3920.9
550.295	4344.69
553.822	3232.49
557.348	3281.19
560.873	3203.33
564.396	3300.98
567.917	3605.67
571.438	3224.03
574.957	3091.58
578.474	2804.23
581.99	2504.72
585.504	2240.97
589.018	2239.14
592.529	2211.2
596.04	2725.11
599.549	2878.83
603.056	3522.9
606.562	4375.14
610.067	5567.07
613.57	7455.68
617.072	9166.95
620.572	10594.8
624.071	12593.3
627.569	13749.1
631.065	13959.3
634.56	12595.9
638.053	11401.5
641.545	9380.07
645.035	7628.6
648.524	6376.06
652.012	5361.63
655.498	4580.1
658.983	3889.87
662.466	3506.97
665.948	2997.75
669.428	3057.57
672.907	2701
676.385	2707.72
679.861	3150.61
683.336	2911.12
686.809	2974.68
690.281	2860.72
693.752	3007.77
697.221	3270.01
700.688	3388.71
704.155	2978.25
707.619	2872.92
711.083	2579.72
714.545	2092.06
718.005	1714.8
721.464	1633.04
724.922	1285.21
728.378	839.35
731.833	1346.55
735.286	692.836
738.738	501.582
742.189	897.35
745.638	777.555
749.085	239.236
752.531	216.377
755.976	92.959
759.419	165.963
762.861	21.3477
766.302	59.2891
769.741	159.981
773.178	88.9023
776.614	22.1562
780.049	402.918
783.482	96.9082
786.914	372.639
790.345	7.16016
793.773	175.197
797.201	21.6777
800.627	78.7598
804.052	88.8477
807.475	52.2969
810.897	260.185
814.317	108.465
817.736	15.8281
821.153	152.666
824.569	111.623
827.984	178.143
831.397	118.758
834.808	243.484
838.219	71.5859
841.627	22.6484
845.035	59.6621
848.441	104.402
851.845	9.59961
855.248	408.932
858.65	248.789
862.05	411.65
865.448	365.295
868.846	366.834
872.241	520.166
875.636	397.565
879.029	414.934
882.42	644.615
885.81	578.709
889.199	899.236
892.586	623.205
895.971	820.629
899.356	1156.55
902.738	1149.77
906.12	1278.43
909.5	1688.46
912.878	1485.76
916.255	1382.76
919.63	1720.44
923.004	1426.38
926.377	1478.61
929.748	1857.48
933.118	1648.87
936.486	2232.41
939.853	2066.09
943.218	2057.44
946.582	2552.39
949.945	2273.73
953.306	2484.51
956.665	2646.04
960.023	2882.99
963.38	2781.93
966.735	2973.22
970.089	2456.55
973.441	2900.14
976.792	2885.78
980.141	2950.71
983.489	2926.83
986.836	3187.29
990.181	3709.44
993.524	3080.86
996.866	3248.34
1000.21	3288.88
1003.55	3349.47
1006.88	3115.7
1010.22	3206.02
1013.55	3088.24
1016.89	3019.4
1020.22	3103.48
1023.55	2912.66
1026.88	3137.2
1030.21	2823.82
1033.53	2854.03
1036.86	3033.6
1040.18	3157.08
1043.5	3082.77
1046.82	3197.97
1050.14	3463.98
1053.46	3284.71
1056.78	3865.12
1060.09	3671.38
1063.4	3616.88
1066.71	3971.78
1070.02	3880.05
1073.33	4012.96
1076.64	3994.42
1079.94	3880.26
1083.25	3621.2
1086.55	3806.78
1089.85	3510.05
1093.15	3544.31
1096.45	3361.17
1099.75	3228.48
1103.04	2964.73
1106.34	2786.24
1109.63	2522.29
1112.92	2866.83
1116.21	2442.74
1119.5	2159.43
1122.78	2430.11
1126.07	2347.61
1129.35	2275.03
1132.63	1797.85
1135.92	1695.2
1139.19	1457.95
1142.47	1432.01
1145.75	1210.52
1149.02	1334.97
1152.3	1045.58
1155.57	954.271
1158.84	792.209
1162.11	343.135
1165.38	811.65
1168.64	502.867
1171.91	330.207
1175.17	423.076
1178.43	500.684
1181.69	461.5
1184.95	348.51
1188.21	86.7227
1191.46	454.578
1194.72	218.783
1197.97	275.68
1201.22	36.5918
1204.47	121.203
1207.72	2.86914
1210.97	78.4414
1214.21	49.5195
1217.46	81.3945
1220.7	118.426
1223.94	44.8535
1227.18	78.7168
1230.42	5.82422
1233.65	36.9453
1236.89	150.65
1240.12	196.195
1243.35	171.488
1246.59	101.557
1249.81	145.277
1253.04	284.869
1256.27	99.7695
1259.49	238.078
1262.72	167.477
1265.94	145.18
1269.16	275.19
1272.38	129.715
1275.59	398.957
1278.81	390.334
1282.03	446.609
1285.24	177.963
1288.45	224.611
1291.66	201.049
1294.87	357.137
1298.08	66.2402
1301.28	31.0488
1304.48	206.875
1307.69	318.543
1310.89	387.975
1314.09	314.164
1317.29	372.537
1320.48	614.225
1323.68	808.557
1326.87	633.887
1330.06	782.606
1333.26	721.68
1336.44	703.014
1339.63	844.158
1342.82	711.084
1346	991.111
1349.19	983.699
1352.37	1040.31
1355.55	833.461
1358.73	948.875
1361.9	657.137
1365.08	954.691
1368.26	1064.54
1371.43	796.936
1374.6	792.498
1377.77	1108.68
1380.94	802.492
1384.11	1016.59
1387.27	785.475
1390.43	574.367
1393.6	631.723
1396.76	808.932
1399.92	842.723
1403.08	1076.1
1406.23	716.703
1409.39	924.164
1412.54	680.979
1415.69	769.625
1418.85	792.232
1421.99	1008.21
1425.14	913.607
1428.29	811.916
1431.43	1062.11
1434.58	776.402
1437.72	749.426
1440.86	842.998
1444	793.316
1447.13	941.664
1450.27	500.932
1453.4	487.772
1456.54	479.656
1459.67	577.215
1462.8	515.736
1465.93	378.725
1469.06	388.121
1472.18	159.834
1475.31	190.951
1478.43	342.326
1481.55	351.59
1484.67	559.629
1487.79	178.32
1490.9	360.58
1494.02	90.9629
1497.13	151.637
1500.24	153.279
1503.35	405.94
1506.46	295.547
1509.57	205.07
1512.68	232.578
1515.78	67.3731
1518.88	5.50977
1521.99	266.578
1525.09	188.117
1528.18	481.236
1531.28	321.691
1534.38	12.8027
1537.47	181.984
1540.56	195.516
1543.66	4.27539
1546.74	155.336
1549.83	461.935
1552.92	418.434
1556.01	262.342
1559.09	50.4902
1562.17	379.551
1565.25	21.9453
1568.33	46.4434
1571.41	0
