Measurement: Raman, 514 nm, ccw, Raman Data Processed
Mineral: Braunite
Rruff sample: R050390
Ideal chemistry: Mn^2+^Mn^3+^_6_SiO_12_
Locality: Oehrenstock, Thuringia, Germany
Source: University of Arizona Mineral Museum
Description: Mass of black octahedra
Measured chemistry: (Mn^2+^_0.83_Ca_0.17_)_Î£=1_Mn^3+^_6.00_Si_1.00_O_12_
Pin_id: M00051
Orientation: Laser parallel to -a* (-1 0 0). Fiducial mark perpendicular to laser is parallel to -c [0 0 -1]
Raman shift (cm-1)	intensity
304.735	0
308.358	122.129
311.98	258.43
315.601	107.66
319.22	141.715
322.837	5.55078
326.454	471.367
330.068	861.68
333.682	1169.24
337.294	1393.14
340.905	1346.99
344.514	1264.22
348.122	813.305
351.729	439.039
355.334	193.336
358.938	86.7109
362.54	153.207
366.141	6.28125
369.741	59.707
373.339	11.9414
376.936	118.656
380.531	126.934
384.126	331.586
387.718	50.0859
391.31	474.691
394.9	133.394
398.488	194.121
402.075	413.941
405.661	196.934
409.245	204.586
412.828	597.766
416.41	700.941
419.99	941.512
423.569	1203.53
427.146	1354.95
430.722	1501.78
434.297	1740.97
437.87	1423.5
441.442	1575.34
445.012	1689.45
448.581	2419.23
452.149	2535.83
455.715	2785.8
459.28	3014.81
462.843	3087.85
466.405	3259.95
469.965	3395.29
473.525	4251.32
477.082	5063.11
480.639	5661.68
484.194	6835.81
487.747	7450.16
491.3	7044.71
494.85	7625.58
498.4	7814.56
501.948	8484.77
505.494	9228.34
509.039	9564.35
512.583	9840.63
516.125	10560
519.666	11522.1
523.206	11257.1
526.744	11578.1
530.281	11480
533.816	13591.9
537.35	12400.5
540.882	11489.1
544.413	11279.3
547.943	12509.3
551.471	13737.9
554.998	13117.2
558.523	13575.2
562.047	14022.9
565.57	13522.1
569.091	14210.9
572.611	13221.4
576.129	11095.3
579.646	8372.84
583.162	5077.89
586.676	2815.41
590.188	1567.41
593.7	1030.91
597.209	835.945
600.718	996.473
604.225	921.07
607.73	1237.71
611.235	1427.43
614.737	1854.68
618.239	2155.06
621.739	2302.43
625.237	2929.46
628.734	3077.59
632.23	3157.31
635.724	2765.96
639.217	2641.16
642.708	2255.12
646.198	1853.64
649.687	1972.38
653.174	1682.98
656.66	1611.37
660.144	1519.99
663.627	1597.51
667.108	1560.88
670.588	1334.37
674.067	1337.05
677.544	1197.05
681.02	1270.32
684.494	863.394
687.967	1148.08
691.438	1009.9
694.908	842.566
698.377	789.246
701.844	856.652
705.31	775.352
708.774	633.863
712.237	679.5
715.698	407.887
719.158	402.781
722.617	310.731
726.074	338.426
729.53	230.488
732.984	371.625
736.437	60.5977
739.888	118.832
743.338	4.51953
746.787	153.004
750.234	9.03516
753.68	2.65234
757.124	32.1875
760.567	113.512
764.008	82.4141
767.448	48.6719
770.887	251.867
774.324	81.7891
777.759	135.266
781.194	201.918
784.626	41.7852
788.058	18.5273
791.488	6.21094
794.916	88.7695
798.343	94.6562
801.769	145.902
805.193	115.371
808.616	349.144
812.037	91.9727
815.457	43.8906
818.875	90.5117
822.292	285.422
825.707	163.863
829.122	46.9062
832.534	33.207
835.945	211.078
839.355	168.496
842.763	129.453
846.17	231.894
849.576	150.863
852.98	79.3242
856.382	145.254
859.783	271.695
863.183	6.27734
866.581	159.223
869.978	257.285
873.373	163.93
876.767	304.406
880.159	311.394
883.55	325.953
886.94	315.258
890.328	351.379
893.714	98.2383
897.1	345.852
900.483	301.176
903.866	464.551
907.246	421.922
910.626	525.562
914.004	365.547
917.38	247.613
920.755	275.141
924.129	675.844
927.501	599.051
930.872	606.371
934.241	781.793
937.609	815.152
940.975	935.832
944.34	991.148
947.703	1436.73
951.065	1326.21
954.426	1153.09
957.785	1335.73
961.142	1245.62
964.499	1062.54
967.853	1002.98
971.207	1041.2
974.558	772.328
977.909	1101.8
981.258	1204.06
984.605	1005.83
987.951	1111.73
991.295	1139.29
994.639	1090.68
997.98	1022.44
1001.32	802.484
1004.66	1024.95
1008	907.973
1011.33	993.406
1014.67	900.188
1018	835.234
1021.33	932.637
1024.66	926.559
1027.99	1006.04
1031.32	957.004
1034.64	1133.47
1037.97	939.492
1041.29	1049.41
1044.61	1015.86
1047.93	1234.87
1051.25	1209.68
1054.56	969.094
1057.88	1386.09
1061.19	1530.7
1064.51	1321.84
1067.82	1234.63
1071.13	1467.04
1074.43	1312.95
1077.74	1221.52
1081.05	1524.31
1084.35	1503.81
1087.65	1481.36
1090.95	1316.89
1094.25	1266.68
1097.55	1283.67
1100.85	1355.06
1104.14	1228.79
1107.43	1206.88
1110.73	1378.3
1114.02	1272.11
1117.31	1324.26
1120.59	1203.75
1123.88	1244.86
1127.16	1089.12
1130.45	836.715
1133.73	952.531
1137.01	902.199
1140.29	926.598
1143.57	735.102
1146.84	516.242
1150.12	472.652
1153.39	354.324
1156.66	488.258
1159.93	179.555
1163.2	159.664
1166.46	403.59
1169.73	199.852
1172.99	180.188
1176.26	473.961
1179.52	285.027
1182.78	255.867
1186.04	301.879
1189.29	259.172
1192.55	340.84
1195.8	54.5938
1199.05	120.773
1202.31	95.0898
1205.55	104.422
1208.8	259.93
1212.05	77.3555
1215.29	139.703
1218.54	98.0977
1221.78	48.5391
1225.02	200.59
1228.26	247.738
1231.5	13.0117
1234.73	339.336
1237.97	128.695
1241.2	226.086
1244.43	205.051
1247.66	193.938
1250.89	211.82
1254.12	57.2812
1257.34	247.715
1260.57	18.168
1263.79	47.6211
1267.01	37.2188
1270.23	125.812
1273.45	134.637
1276.67	133.078
1279.88	371.984
1283.1	125.219
1286.31	34.1641
1289.52	232.844
1292.73	159.219
1295.94	47.5352
1299.14	122.637
1302.35	75.8164
1305.55	212.184
1308.75	193.43
1311.95	478.828
1315.15	278.449
1318.35	165.402
1321.55	396.113
1324.74	408.438
1327.94	428.352
1331.13	392.977
1334.32	400.098
1337.51	151.641
1340.69	160.266
1343.88	466.32
1347.06	284.945
1350.25	181.773
1353.43	428.383
1356.61	466.727
1359.79	508.109
1362.96	495.981
1366.14	298.777
1369.31	191.297
1372.49	145.738
1375.66	354.973
1378.83	305.328
1381.99	304.367
1385.16	359.551
1388.33	350.301
1391.49	162.973
1394.65	384.051
1397.81	225.539
1400.97	352.894
1404.13	340.742
1407.29	309.93
1410.44	409.211
1413.59	532.465
1416.74	225.609
1419.89	364.797
1423.04	192.836
1426.19	268.137
1429.34	265.535
1432.48	287.828
1435.62	239.512
1438.77	533.891
1441.9	162.066
1445.04	388.305
1448.18	405.723
1451.32	399.703
1454.45	411.727
1457.58	233.539
1460.71	361.5
1463.84	213.644
1466.97	228.637
1470.1	137.391
1473.22	366.961
1476.35	443.457
1479.47	282.707
1482.59	11.7344
1485.71	228.004
1488.83	433.918
1491.94	271.148
1495.06	433.727
1498.17	242.508
1501.28	112.258
1504.39	411.402
1507.5	213.816
1510.61	365.426
1513.71	291.258
1516.82	325.32
1519.92	359
1523.02	133.445
1526.12	429.289
1529.22	221.812
1532.31	119.09
1535.41	360.59
1538.5	340.519
1541.6	367.543
1544.69	315.324
1547.78	327.809
1550.86	299.68
1553.95	123.008
1557.03	107.934
1560.12	152.883
1563.2	172.289
1566.28	254.441
1569.36	1.30078
