Measurement: Raman, 514 nm, ccw, Raman Data Processed
Mineral: Braunite
Rruff sample: R050388
Ideal chemistry: Mn^2+^Mn^3+^_6_SiO_12_
Locality: Langban, Filipstad, Varmland, Sweden
Source: University of Arizona Mineral Museum
Description: Black crystals
Measured chemistry: (Mn^2+^_0.96_Mg_0.04_)_Î£=1_Mn^3+^_6.00_Si_1.00_O_12_
Pin_id: M00455
Orientation: Laser parallel to a* (1 0 0). Fiducial mark perpendicular to laser is parallel to c [0 0 1]
Raman shift (cm-1)	intensity
175.834	0
180.729	253.402
185.622	266.777
190.512	1252.13
195.4	1871.74
200.286	2873.6
205.169	2708.67
210.049	2634.16
214.928	5416.1
219.803	7302.16
224.677	5749.41
229.548	3607.08
234.416	3257.17
239.282	2046.88
244.146	1058.06
249.007	515.617
253.866	509.891
258.722	656.215
263.576	620.906
268.427	633.637
273.276	361.047
278.123	453.633
282.967	158.086
287.809	146.09
292.648	351.523
297.485	157.547
302.319	205.328
307.151	139.891
311.98	130.941
316.807	107.91
321.631	31.1797
326.454	183.875
331.273	613.82
336.09	1468.7
340.905	1523.61
345.717	646.207
350.527	912.488
355.334	568.914
360.139	695.336
364.941	518.012
369.741	208.809
374.538	757.836
379.333	534.602
384.126	877.606
388.916	707.898
393.703	297.25
398.488	597.688
403.271	249.609
408.051	543.664
412.828	267.117
417.603	395.453
422.376	843.961
427.146	434.606
431.914	766.922
436.679	810.957
441.442	527.594
446.202	875.289
450.96	669.531
455.715	824.738
460.467	607.633
465.218	703.277
469.965	616.672
474.711	838.297
479.454	1053.28
484.194	897.383
488.932	955.688
493.667	1069.26
498.4	1087.16
503.13	1106.23
507.858	1607.89
512.583	1511.44
517.306	2416.82
522.026	2419.01
526.744	1709.29
531.459	1343.81
536.172	1173.06
540.882	1133.75
545.59	1065.77
550.295	1082.13
554.998	993.793
559.698	1129
564.396	1072.89
569.091	1001.41
573.784	1318.89
578.474	1061.56
583.162	563.074
587.847	490.199
592.529	436.277
597.209	434.117
601.887	559.371
606.562	1232.88
611.235	1553.34
615.905	2604.66
620.572	4014.75
625.237	4899.61
629.9	4914.23
634.56	2873.61
639.217	1953.71
643.872	991.352
648.524	683.883
653.174	692.43
657.821	294.957
662.466	339.996
667.108	437.594
671.748	497.543
676.385	780.215
681.02	544.473
685.652	949.281
690.281	1811.01
694.908	2495.22
699.533	2154.17
704.155	1918.01
708.774	743.609
713.391	239.84
718.005	149.141
722.617	207.269
727.226	48.2305
731.833	44.1836
736.437	68.9414
741.039	105.422
745.638	155.676
750.234	86.7461
754.828	172.617
759.419	180.254
764.008	235.652
768.595	376.793
773.178	207.676
777.759	101.719
782.338	283.328
786.914	23.9336
791.488	83.7148
796.059	91.7891
800.627	93.2461
805.193	267.121
809.756	227.348
814.317	101.332
818.875	56.7422
823.431	146.934
827.984	12.5078
832.534	107.934
837.082	8.77344
841.627	34.25
846.17	64.9648
850.71	11.4414
855.248	197.703
859.783	217.863
864.316	245.504
868.846	247.266
873.373	121.168
877.898	528.004
882.42	86.7031
886.94	361.285
891.457	349.731
895.971	443.051
900.483	705.266
904.993	544.398
909.5	776.484
914.004	395.723
918.505	947.758
923.004	846.977
927.501	846.156
931.995	794.582
936.486	839.859
940.975	1068.38
945.461	1118.25
949.945	1153.64
954.426	1126.18
958.904	1429.62
963.38	1686.79
967.853	1704.34
972.324	2043.48
976.792	1755.25
981.258	1910.02
985.72	2218.62
990.181	2457.65
994.639	2656.48
999.094	2464.61
1003.55	2798.76
1008	2548.14
1012.44	2524.5
1016.89	2307.66
1021.33	2202.58
1025.77	2485.23
1030.21	2664.59
1034.64	2461.45
1039.07	2572.28
1043.5	3026
1047.93	2793.61
1052.35	3122.19
1056.78	2866.53
1061.19	2853.47
1065.61	3005.65
1070.02	2973.82
1074.43	2988.85
1078.84	2718.79
1083.25	2758.28
1087.65	2733.7
1092.05	2313.2
1096.45	2280.94
1100.85	2252.19
1105.24	1885.73
1109.63	1968.09
1114.02	1822.21
1118.4	1458.56
1122.78	1461.61
1127.16	1288.22
1131.54	1102.65
1135.92	857.945
1140.29	866.379
1144.66	665.637
1149.02	440.469
1153.39	716.133
1157.75	418.801
1162.11	170.848
1166.46	239.32
1170.82	106.137
1175.17	307.363
1179.52	322.164
1183.86	226.023
1188.21	110.34
1192.55	360.926
1196.89	126.019
1201.22	22.3477
1205.55	36.7891
1209.88	7.25391
1214.21	140.633
1218.54	103.238
1222.86	203.195
1227.18	10.4375
1231.5	49.6328
1235.81	76.5938
1240.12	21.582
1244.43	74.2695
1248.74	81.6211
1253.04	21.4375
1257.34	206.438
1261.64	249.852
1265.94	338.195
1270.23	62.9414
1274.52	51.5039
1278.81	210.004
1283.1	19.5117
1287.38	99.3398
1291.66	145.742
1295.94	115.012
1300.21	138.777
1304.48	55.6211
1308.75	308.32
1313.02	417.652
1317.29	530.969
1321.55	302.016
1325.81	414.883
1330.06	214.148
1334.32	434.785
1338.57	288.625
1342.82	315.543
1347.06	241.598
1351.31	476.672
1355.55	352.016
1359.79	227.578
1364.02	381.93
1368.26	357.199
1372.49	290.027
1376.71	24.4727
1380.94	378.09
1385.16	102.012
1389.38	435.492
1393.6	222.902
1397.81	601.191
1402.02	377.898
1406.23	228.641
1410.44	166.519
1414.64	456.418
1418.85	145.359
1423.04	166.562
1427.24	64.3125
1431.43	417.008
1435.62	20.7539
1439.81	398.414
1444	215.582
1448.18	129.242
1452.36	460.418
1456.54	160.051
1460.71	121.066
1464.89	85.8516
1469.06	423.008
1473.22	361.285
1477.39	75.6172
1481.55	476.109
1485.71	226.269
1489.86	371.879
1494.02	468.344
1498.17	215.41
1502.32	405.234
1506.46	659.441
1510.61	571.277
1514.75	473.312
1518.88	408.719
1523.02	345.711
1527.15	477.516
1531.28	430.195
1535.41	56.5234
1539.53	309.008
1543.66	308.656
1547.78	292.086
1551.89	445.848
1556.01	378.527
1560.12	388.988
1564.23	108.293
1568.33	254.656
1572.43	0
