Measurement: Raman, 514 nm, ccw, Raman Data Processed
Mineral: Braunite
Rruff sample: R050390
Ideal chemistry: Mn^2+^Mn^3+^_6_SiO_12_
Locality: Oehrenstock, Thuringia, Germany
Source: University of Arizona Mineral Museum
Description: Mass of black octahedra
Measured chemistry: (Mn^2+^_0.83_Ca_0.17_)_Î£=1_Mn^3+^_6.00_Si_1.00_O_12_
Pin_id: M00380
Orientation: Laser parallel to c* (0 0 1). Fiducial mark perpendicular to laser is parallel to a [1 0 0]
Raman shift (cm-1)	intensity
297.485	0
301.111	169.488
304.735	236.531
308.358	16.123
311.98	337.281
315.601	85.4238
319.22	56.2285
322.837	251.951
326.454	873.502
330.068	1318.19
333.682	1872.56
337.294	1648.55
340.905	1585.36
344.514	1545.29
348.122	1358.55
351.729	688.088
355.334	832.949
358.938	760.666
362.54	509.15
366.141	571.391
369.741	652.502
373.339	652.512
376.936	508.397
380.531	325.367
384.126	336.519
387.718	437.963
391.31	382.478
394.9	230.803
398.488	221.973
402.075	46.9609
405.661	295
409.245	10.8672
412.828	294.67
416.41	112.584
419.99	8.10547
423.569	42.2988
427.146	110.934
430.722	24.6836
434.297	254.111
437.87	24.3281
441.442	67.7461
445.012	185.016
448.581	162.264
452.149	293.295
455.715	424.287
459.28	466.873
462.843	660.996
466.405	740.359
469.965	1038.42
473.525	1046.12
477.082	1205.38
480.639	1462.2
484.194	1696.65
487.747	2002.96
491.3	2246.59
494.85	2247.2
498.4	2332.72
501.948	2456.05
505.494	2564.72
509.039	2728.61
512.583	3063.82
516.125	3284.78
519.666	3612.57
523.206	3836.25
526.744	3373.51
530.281	3122.45
533.816	2990.99
537.35	2467.19
540.882	2738.89
544.413	2518.65
547.943	2586.32
551.471	2617.3
554.998	2607.78
558.523	2756.43
562.047	2601.95
565.57	2637.62
569.091	2908.52
572.611	2798.16
576.129	2339.94
579.646	2089.42
583.162	1920.27
586.676	1756.55
590.188	1464.28
593.7	1334.44
597.209	1342.05
600.718	1257.07
604.225	1446.58
607.73	1450.56
611.235	1531.93
614.737	1608.68
618.239	1701.78
621.739	1665.87
625.237	2041.75
628.734	2276.66
632.23	3204.15
635.724	2532.13
639.217	3140.09
642.708	2177.33
646.198	2083.16
649.687	1914.82
653.174	1728.96
656.66	1514.65
660.144	1559.43
663.627	1562.48
667.108	1381.04
670.588	1797.52
674.067	1842.8
677.544	1890.73
681.02	2305.39
684.494	2470.09
687.967	2912.83
691.438	3612.61
694.908	4245.44
698.377	5076.29
701.844	5371.27
705.31	6005.27
708.774	5504.32
712.237	4714.51
715.698	6059.76
719.158	4647.98
722.617	2957.16
726.074	2247.29
729.53	1528.37
732.984	1343.39
736.437	836.35
739.888	731.231
743.338	433.728
746.787	410.607
750.234	165.215
753.68	431.766
757.124	118.238
760.567	91.0039
764.008	109.981
767.448	285.842
770.887	22.8359
774.324	160.435
777.759	155.103
781.194	132.934
784.626	47.7539
788.058	46.6133
791.488	32.2285
794.916	41.8086
798.343	93.9297
801.769	62.1387
805.193	22.0156
808.616	21.5469
812.037	255.553
815.457	166.381
818.875	282.084
822.292	102.67
825.707	203.147
829.122	443.514
832.534	288.781
835.945	122.949
839.355	556.023
842.763	152.004
846.17	211.9
849.576	211.715
852.98	319.451
856.382	307.111
859.783	210.711
863.183	233.25
866.581	351.732
869.978	254.18
873.373	35.5859
876.767	167.139
880.159	239.375
883.55	65.9082
886.94	3.22852
890.328	338.106
893.714	418.777
897.1	317.252
900.483	389.603
903.866	205.506
907.246	230.312
910.626	316.539
914.004	295.404
917.38	420.705
920.755	351.971
924.129	279.211
927.501	487.947
930.872	672.863
934.241	794.707
937.609	800.324
940.975	1197.88
944.34	1299.33
947.703	1546.37
951.065	1780.01
954.426	2184.39
957.785	2412.5
961.142	2878.37
964.499	2779.85
967.853	2540.77
971.207	2761.04
974.558	2398.66
977.909	2175.61
981.258	2220.93
984.605	2066.72
987.951	1721.93
991.295	1681.61
994.639	1609.74
997.98	1952.29
1001.32	1750.86
1004.66	1530.94
1008	1612.01
1011.33	1439.85
1014.67	1512.76
1018	1495.89
1021.33	1295.68
1024.66	1366.9
1027.99	1155.56
1031.32	1382.66
1034.64	1685.29
1037.97	1414.66
1041.29	1377.62
1044.61	1616.5
1047.93	1656.01
1051.25	1622.24
1054.56	1577.7
1057.88	1849.8
1061.19	2016.48
1064.51	1841.9
1067.82	1854.01
1071.13	2049.95
1074.43	1933.99
1077.74	2028.26
1081.05	1849.83
1084.35	1676.89
1087.65	1601.27
1090.95	1631.81
1094.25	1739.37
1097.55	1722.66
1100.85	1493.64
1104.14	1401.11
1107.43	1504.98
1110.73	1620.78
1114.02	1412.22
1117.31	1445.04
1120.59	1317.03
1123.88	1239.26
1127.16	1263.1
1130.45	1092.02
1133.73	867.604
1137.01	780.223
1140.29	549.279
1143.57	499.699
1146.84	539.922
1150.12	481.859
1153.39	564.916
1156.66	211.652
1159.93	301.906
1163.2	181.512
1166.46	436.256
1169.73	283.35
1172.99	237.477
1176.26	52.123
1179.52	61.1211
1182.78	160.152
1186.04	151.803
1189.29	291.838
1192.55	7.64844
1195.8	114.461
1199.05	101.287
1202.31	70.5918
1205.55	85.8106
1208.8	85.2129
1212.05	14.4707
1215.29	86.7734
1218.54	47.4512
1221.78	56.4961
1225.02	182.826
1228.26	126.022
1231.5	15.0527
1234.73	103.695
1237.97	33.332
1241.2	15.1074
1244.43	75.6582
1247.66	1.72656
1250.89	171.068
1254.12	221.094
1257.34	140.019
1260.57	4.41602
1263.79	97.0723
1267.01	77.0469
1270.23	182.295
1273.45	287.397
1276.67	134.295
1279.88	371.848
1283.1	72.2559
1286.31	129.227
1289.52	250.935
1292.73	60.5312
1295.94	46.6562
1299.14	150.215
1302.35	159.518
1305.55	103.279
1308.75	87.8711
1311.95	209.787
1315.15	290.672
1318.35	630.281
1321.55	126.566
1324.74	300.59
1327.94	363.012
1331.13	539.676
1334.32	354.289
1337.51	193.787
1340.69	537.064
1343.88	297.264
1347.06	158.141
1350.25	434.785
1353.43	456.361
1356.61	561.225
1359.79	435.801
1362.96	323.447
1366.14	204.221
1369.31	307.723
1372.49	239.207
1375.66	632.477
1378.83	367.768
1381.99	406.602
1385.16	462.668
1388.33	159.334
1391.49	477.076
1394.65	493.935
1397.81	608.334
1400.97	506.115
1404.13	449.762
1407.29	433.359
1410.44	244.467
1413.59	341.617
1416.74	502.027
1419.89	234.969
1423.04	399.902
1426.19	192.984
1429.34	197.777
1432.48	520.613
1435.62	243.379
1438.77	445.158
1441.9	273.414
1445.04	181.834
1448.18	379.283
1451.32	76.0625
1454.45	76.4434
1457.58	61.4551
1460.71	11.3926
1463.84	265.246
1466.97	3.37695
1470.1	158.422
1473.22	25.875
1476.35	10.0527
1479.47	53.8789
1482.59	195.441
1485.71	163.496
1488.83	248.75
1491.94	254.738
1495.06	229.912
1498.17	136.885
1501.28	116.525
1504.39	263.6
1507.5	353.117
1510.61	277.746
1513.71	166.121
1516.82	134.137
1519.92	478.904
1523.02	231.981
1526.12	100.004
1529.22	390.197
1532.31	417.805
1535.41	453.246
1538.5	421.875
1541.6	443.908
1544.69	379.547
1547.78	176.315
1550.86	161.539
1553.95	212.572
1557.03	227.516
1560.12	313.898
1563.2	0.212891
1566.28	275.674
1569.36	175.301
