Measurement: Raman, 514 nm, ccw, Raman Data Processed
Mineral: Braunite
Rruff sample: R050385
Ideal chemistry: Mn^2+^Mn^3+^_6_SiO_12_
Locality: Jhabua District, Madhya Pradesh, India
Source: University of Arizona Mineral Museum
Description: Black prismatic crystals
Measured chemistry: (Fe^2+^_0.61_Mn^2+^_0.39_)_Σ=1_(Mn^3+^_5.94_Al_0.06_)_Σ=6_Si_1.00_O_12_
Pin_id: L01451
Orientation: Laser parallel to a* (1 0 0). Fiducial mark perpendicular to laser is parallel to c [0 0 1]
Raman shift (cm-1)	intensity
178.282	0
183.176	29.1953
188.067	882.79
192.956	1541.61
197.843	2681.51
202.727	5321.15
207.609	1975.85
212.489	3715.2
217.366	5525.17
222.24	6359.4
227.112	6467.97
231.982	5466.5
236.849	4035.35
241.714	2711.86
246.577	2603.15
251.437	2174.82
256.294	1345.08
261.149	904.181
266.002	413.47
270.852	580.72
275.7	814.205
280.545	668.297
285.388	1130.05
290.229	2424.6
295.067	3571.88
299.902	1988.62
304.735	432.376
309.566	246.273
314.394	435.384
319.22	47.2119
324.043	705.57
328.864	2052.41
333.682	2883.43
338.498	2180.67
343.311	1221.98
348.122	515.158
352.931	297.617
357.737	363.117
362.54	465.723
367.341	518.458
372.14	627.677
376.936	605.638
381.73	402.512
386.521	292.302
391.31	260.94
396.096	270.906
400.88	13.0508
405.661	1.04981
410.44	154.824
415.216	51.3984
419.99	93.5186
424.761	223.252
429.53	32.8076
434.297	115.161
439.061	101.605
443.822	389.217
448.581	533.459
453.337	969.239
458.091	1659.42
462.843	2650.76
467.592	4036.95
472.338	5540.57
477.082	5729.15
481.824	4539.62
486.563	2969.52
491.3	2428.58
496.034	2410.99
500.765	2952.97
505.494	4277.51
510.221	6265.19
514.945	6126
519.666	4540.17
524.385	3117.97
529.102	2355.92
533.816	1641.59
538.527	1073.63
543.236	819.572
547.943	598.488
552.647	675.878
557.348	940.613
562.047	1754.49
566.744	2992.68
571.438	4402.84
576.129	5172.12
580.818	4234.88
585.504	3020.66
590.188	2430.89
594.87	2176.11
599.549	2311.77
604.225	3190.88
608.899	4487.03
613.57	5397.58
618.239	5993.5
622.905	5557.06
627.569	4580.93
632.23	3612.64
636.889	3063.45
641.545	2788.07
646.198	2762.26
650.849	2953.2
655.498	2857.44
660.144	2567.33
664.787	2421.87
669.428	2190.24
674.067	2225.88
678.703	2319.3
683.336	2862.23
687.967	3039.08
692.595	2901.4
697.221	2588.36
701.844	2059.16
706.465	1661.74
711.083	1362.4
715.698	995.394
720.311	850.9
724.922	463.071
729.53	266.103
734.135	172.97
738.738	124.944
743.338	124.668
747.936	427.912
752.531	195.75
757.124	0.162109
761.714	6.91699
766.302	64.6406
770.887	16.5645
775.469	100.585
780.049	112.772
784.626	52.377
789.201	67.2344
793.773	74.7402
798.343	110.638
802.91	82.8477
807.475	83.832
812.037	24.0098
816.596	12.2852
821.153	26.1133
825.707	5.78223
830.259	37.1143
834.808	15.0908
839.355	128.472
843.899	93.1953
848.441	159.094
852.98	69.2695
857.516	300.743
862.05	80.5596
866.581	303.702
871.11	212.19
875.636	366.031
880.159	192.833
884.68	421.835
889.199	300.816
893.714	333.953
898.228	467.198
902.738	497.901
907.246	608.596
911.752	649.709
916.255	781.41
920.755	710.417
925.253	949.898
929.748	1216.91
934.241	1455.35
938.731	1814.66
943.218	2360.93
947.703	2940.42
952.186	3021
956.665	2732.37
961.142	2568.05
965.617	2350.58
970.089	2118.15
974.558	1838.58
979.025	1544.2
983.489	1255.53
987.951	1120.5
992.41	1080.81
996.866	807.463
1001.32	1064.4
1005.77	826.79
1010.22	731.865
1014.67	855.096
1019.11	696.465
1023.55	678.977
1027.99	646.672
1032.42	525.165
1036.86	690.056
1041.29	668.166
1045.72	621.859
1050.14	764.276
1054.56	709.442
1058.98	873.812
1063.4	768.562
1067.82	689.534
1072.23	704.208
1076.64	746.819
1081.05	764.383
1085.45	755.558
1089.85	602.366
1094.25	554.777
1098.65	660.709
1103.04	656.166
1107.43	430.098
1111.82	509.506
1116.21	797.209
1120.59	1330.24
1124.97	1405.59
1129.35	647.499
1133.73	186.191
1138.1	103.274
1142.47	205.927
1146.84	117.749
1151.21	71.0693
1155.57	83.7471
1159.93	84.2461
1164.29	167.185
1168.64	40.3096
1172.99	139.643
1177.34	104.103
1181.69	46.2207
1186.04	41.3623
1190.38	14.4062
1194.72	60.6924
1199.05	14.9629
1203.39	99.5606
1207.72	26.9131
1212.05	33.873
1216.37	41.082
1220.7	177.63
1225.02	205.84
1229.34	168.269
1233.65	172.904
1237.97	247.728
1242.28	84.1777
1246.59	227.943
1250.89	78.2734
1255.19	144.988
1259.49	35.3418
1263.79	40.084
1268.09	4.12988
1272.38	104.05
1276.67	39.7568
1280.95	23.2344
1285.24	47.0078
1289.52	139.589
1293.8	183.2
1298.08	132.875
1302.35	66.29
1306.62	93.3691
1310.89	297.28
1315.15	272.757
1319.42	273.328
1323.68	236.342
1327.94	272.735
1332.19	376.325
1336.44	397.543
1340.69	416.156
1344.94	364.92
1349.19	380.577
1353.43	389.92
1357.67	494.284
1361.9	537.264
1366.14	516.681
1370.37	517.477
1374.6	659.512
1378.83	676.655
1383.05	870.854
1387.27	637.069
1391.49	700.67
1395.7	556.58
1399.92	594.582
1404.13	591.919
1408.34	480.704
1412.54	372.013
1416.74	456.507
1420.94	526.098
1425.14	360.32
1429.34	156.677
1433.53	238.98
1437.72	91.7227
1441.9	171.956
1446.09	212.626
1450.27	41.2637
1454.45	120.14
1458.63	27.6035
1462.8	49.083
1466.97	93.4561
1471.14	78.6919
1475.31	2.83838
1479.47	1.99072
1483.63	65.1523
1487.79	150.671
1491.94	15.4717
1496.09	119.754
1500.24	102.158
1504.39	94.8018
1508.54	195.85
1512.68	77.894
1516.82	54.9102
1520.95	213.905
1525.09	166.629
1529.22	185.62
1533.35	130.528
1537.47	86.27
1541.6	11.0703
1545.72	25.2505
1549.83	121.668
1553.95	152.353
1558.06	181.118
1562.17	156.731
1566.28	1.79736
1570.38	0
