Measurement: Raman, 514 nm, ccw, Raman Data Processed
Mineral: Braunite
Rruff sample: R050385
Ideal chemistry: Mn^2+^Mn^3+^_6_SiO_12_
Locality: Jhabua District, Madhya Pradesh, India
Source: University of Arizona Mineral Museum
Description: Black prismatic crystals
Measured chemistry: (Fe^2+^_0.61_Mn^2+^_0.39_)_Σ=1_(Mn^3+^_5.94_Al_0.06_)_Σ=6_Si_1.00_O_12_
Pin_id: L01451
Orientation: Laser parallel to a* (1 0 0). Fiducial mark perpendicular to laser is parallel to c [0 0 1]
Raman shift (cm-1)	intensity
178.282	0
183.176	257.19
188.067	1633.02
192.956	3429.9
197.843	5974.65
202.727	11387.9
207.609	10585
212.489	11727.7
217.366	11377.1
222.24	10354.1
227.112	8607.67
231.982	5907.62
236.849	4094.99
241.714	3342.92
246.577	2718.74
251.437	1847.66
256.294	1417.15
261.149	903.062
266.002	629.533
270.852	218.106
275.7	259.396
280.545	131.52
285.388	187.371
290.229	104.803
295.067	159.665
299.902	226.662
304.735	275.449
309.566	265.313
314.394	47.1709
319.22	845.61
324.043	1966.23
328.864	2982.58
333.682	2299.72
338.498	1463.79
343.311	855.496
348.122	547.157
352.931	454.031
357.737	280.458
362.54	484.715
367.341	679.357
372.14	616.351
376.936	380.566
381.73	331.983
386.521	76.7422
391.31	10.7871
396.096	81.4297
400.88	141.167
405.661	241.435
410.44	416.545
415.216	451.143
419.99	552.11
424.761	523.486
429.53	319.675
434.297	257.148
439.061	253.963
443.822	334.592
448.581	311.154
453.337	412.293
458.091	575.204
462.843	842.91
467.592	1533.2
472.338	1606.17
477.082	1566.47
481.824	1277.1
486.563	1103.1
491.3	1052.15
496.034	1394.02
500.765	2272.4
505.494	3457.4
510.221	4029.46
514.945	3996.14
519.666	2294.7
524.385	1273.53
529.102	480.409
533.816	144.035
538.527	210.958
543.236	96.0635
547.943	86.3857
552.647	49.46
557.348	263.293
562.047	534.545
566.744	747.411
571.438	964.391
576.129	1000.51
580.818	901.35
585.504	934.592
590.188	1347.62
594.87	2184.32
599.549	3595.81
604.225	5481.48
608.899	7956.52
613.57	9924.43
618.239	9937.21
622.905	8405.22
627.569	6176.32
632.23	4241.88
636.889	3064.72
641.545	2301.13
646.198	2026.5
650.849	1785.98
655.498	1862.56
660.144	2298.28
664.787	2666.23
669.428	3413.07
674.067	4465.59
678.703	6127.02
683.336	8135.41
687.967	8817.55
692.595	7558.17
697.221	5519.89
701.844	3994.23
706.465	2996.04
711.083	1921.35
715.698	1355.34
720.311	741.968
724.922	683.17
729.53	459.791
734.135	420.65
738.738	219.762
743.338	162.654
747.936	178.741
752.531	101.679
757.124	56.7471
761.714	93.4404
766.302	28.7695
770.887	19.7266
775.469	12.7119
780.049	69.3662
784.626	111.244
789.201	12.9385
793.773	12.3135
798.343	3.67773
802.91	95.3203
807.475	22.959
812.037	3.16699
816.596	86.6103
821.153	41.3467
825.707	51.0957
830.259	46.3369
834.808	11.9883
839.355	44.29
843.899	38.4707
848.441	86.624
852.98	17.0273
857.516	132.186
862.05	146.481
866.581	78.0371
871.11	295.82
875.636	371.584
880.159	255.662
884.68	235.097
889.199	240.185
893.714	319.57
898.228	405.535
902.738	576.611
907.246	544.166
911.752	721.562
916.255	598.207
920.755	793.508
925.253	797.99
929.748	1131.12
934.241	1294.07
938.731	1605.88
943.218	1930.31
947.703	2111.47
952.186	2702.95
956.665	2840.37
961.142	2713.36
965.617	2532.29
970.089	2115.16
974.558	1699.69
979.025	1328.7
983.489	1039.45
987.951	1044.12
992.41	807.293
996.866	805.329
1001.32	798.586
1005.77	721.931
1010.22	655.492
1014.67	727.052
1019.11	667.619
1023.55	717.211
1027.99	754.381
1032.42	690.542
1036.86	643.123
1041.29	640.969
1045.72	680.912
1050.14	740.041
1054.56	699.806
1058.98	849.731
1063.4	819.969
1067.82	918.012
1072.23	817.814
1076.64	942.652
1081.05	786.067
1085.45	715.859
1089.85	738.195
1094.25	654.062
1098.65	659.856
1103.04	515.326
1107.43	458.519
1111.82	437.944
1116.21	516.337
1120.59	488.117
1124.97	492.846
1129.35	329.721
1133.73	405.797
1138.1	219.377
1142.47	291.292
1146.84	430.99
1151.21	99.54
1155.57	115.828
1159.93	71.4141
1164.29	28.2979
1168.64	18.4238
1172.99	75.8008
1177.34	19.5234
1181.69	2.4043
1186.04	29.5566
1190.38	101.555
1194.72	39.0977
1199.05	56.4062
1203.39	11.8271
1207.72	51.2012
1212.05	49.5332
1216.37	98.1738
1220.7	89.0762
1225.02	122.217
1229.34	259.591
1233.65	248.186
1237.97	195.009
1242.28	290.038
1246.59	50.3018
1250.89	106.153
1255.19	34.6103
1259.49	4.01172
1263.79	77.7744
1268.09	44.5478
1272.38	114.694
1276.67	69.8213
1280.95	182.906
1285.24	48.6611
1289.52	139.185
1293.8	224.345
1298.08	115.106
1302.35	268.438
1306.62	289.934
1310.89	178.081
1315.15	273.191
1319.42	265.7
1323.68	267.655
1327.94	314.286
1332.19	342.64
1336.44	414.582
1340.69	302.806
1344.94	317.991
1349.19	292.132
1353.43	330.828
1357.67	344.25
1361.9	364.297
1366.14	348.897
1370.37	419.639
1374.6	367.462
1378.83	349.443
1383.05	407.09
1387.27	451.353
1391.49	392.162
1395.7	387.914
1399.92	289.773
1404.13	332.91
1408.34	388.398
1412.54	285.691
1416.74	219.807
1420.94	208.528
1425.14	309.795
1429.34	131.634
1433.53	177.596
1437.72	219.398
1441.9	68.0195
1446.09	10.5693
1450.27	24.6836
1454.45	104.37
1458.63	247.891
1462.8	57.6494
1466.97	15.1748
1471.14	106.29
1475.31	79.5557
1479.47	141.977
1483.63	279.517
1487.79	150.212
1491.94	157.101
1496.09	166.155
1500.24	40.4971
1504.39	136.19
1508.54	184.292
1512.68	189.361
1516.82	217.511
1520.95	216.269
1525.09	190.839
1529.22	249.748
1533.35	146.707
1537.47	158.216
1541.6	140.989
1545.72	237.527
1549.83	161.876
1553.95	190.914
1558.06	84.1572
1562.17	137.919
1566.28	66.4023
1570.38	0
