Measurement: Raman, 514 nm, ccw, Raman Data Processed
Mineral: Braunite
Rruff sample: R050390
Ideal chemistry: Mn^2+^Mn^3+^_6_SiO_12_
Locality: Oehrenstock, Thuringia, Germany
Source: University of Arizona Mineral Museum
Description: Mass of black octahedra
Measured chemistry: (Mn^2+^_0.83_Ca_0.17_)_Î£=1_Mn^3+^_6.00_Si_1.00_O_12_
Pin_id: M00380
Orientation: Laser parallel to c* (0 0 1). Fiducial mark perpendicular to laser is parallel to a [1 0 0]
Raman shift (cm-1)	intensity
293.857	0
297.485	257.68
301.111	170.352
304.735	22.7285
308.358	12.9922
311.98	27.498
315.601	38.0039
319.22	174.922
322.837	317.207
326.454	487.293
330.068	1174.81
333.682	1327.89
337.294	1354.9
340.905	1549.38
344.514	1527.71
348.122	1410.36
351.729	786.465
355.334	712.303
358.938	670.018
362.54	425.74
366.141	499.727
369.741	562.744
373.339	539.469
376.936	445.887
380.531	504.043
384.126	592.047
387.718	260.893
391.31	473.58
394.9	2.88867
398.488	129.449
402.075	179.418
405.661	54.4648
409.245	21.3574
412.828	212.928
416.41	54.2695
419.99	43.8828
423.569	169.457
427.146	76.9082
430.722	208.459
434.297	183.557
437.87	252.82
441.442	318.394
445.012	330.269
448.581	240.791
452.149	516.83
455.715	807.981
459.28	819.363
462.843	1038.89
466.405	1025.05
469.965	993.734
473.525	1188.92
477.082	1515.61
480.639	1884.88
484.194	2225.73
487.747	1981.21
491.3	2187.2
494.85	2465.49
498.4	2501.86
501.948	2486.7
505.494	2801.08
509.039	2593.18
512.583	3484.13
516.125	3351.99
519.666	3688.67
523.206	3984.07
526.744	3514.44
530.281	3433.86
533.816	2962.11
537.35	2762.9
540.882	2355.78
544.413	2599.74
547.943	2432.4
551.471	2472.53
554.998	2392.16
558.523	2472.4
562.047	2408.13
565.57	2399.51
569.091	2560.77
572.611	2519.38
576.129	2079.42
579.646	2031.87
583.162	1666.77
586.676	1542.11
590.188	1493.91
593.7	1669.18
597.209	1682.88
600.718	1752.02
604.225	1955.58
607.73	2018.54
611.235	2831.89
614.737	3447.6
618.239	4351.68
621.739	4794.92
625.237	5725.53
628.734	6642.71
632.23	6636.47
635.724	6481.89
639.217	6278.89
642.708	5434.81
646.198	4509.15
649.687	3923.55
653.174	3401.6
656.66	2736.72
660.144	2684.09
663.627	2282.68
667.108	2216.56
670.588	1980.76
674.067	2189.9
677.544	2174.7
681.02	2449.04
684.494	2305.1
687.967	3056.19
691.438	2832.81
694.908	3422.25
698.377	3451.3
701.844	3914.79
705.31	3522.34
708.774	3277.85
712.237	2824.14
715.698	2567.35
719.158	2060.45
722.617	1855.43
726.074	1492.28
729.53	816.984
732.984	1102.54
736.437	779.941
739.888	352.17
743.338	489.498
746.787	174.93
750.234	434.557
753.68	127.334
757.124	78.0723
760.567	117.309
764.008	57.7578
767.448	136.369
770.887	82.8184
774.324	0.519531
777.759	54.5586
781.194	3.96484
784.626	138.459
788.058	88.4062
791.488	152.178
794.916	227.783
798.343	151.85
801.769	129.106
805.193	413.227
808.616	124.305
812.037	103.84
815.457	124.969
818.875	21.2598
822.292	135.184
825.707	92.8164
829.122	76.8652
832.534	90.9277
835.945	104.35
839.355	81.4727
842.763	62.6875
846.17	41.0391
849.576	119.557
852.98	93.2051
856.382	71.2578
859.783	169.742
863.183	157.644
866.581	214.31
869.978	20.752
873.373	263.965
876.767	12.0371
880.159	190.734
883.55	363.303
886.94	250.674
890.328	432.853
893.714	258.035
897.1	451.861
900.483	437.682
903.866	722.104
907.246	461.262
910.626	540.184
914.004	764.393
917.38	895.838
920.755	755.438
924.129	695.676
927.501	611.5
930.872	886.631
934.241	1028.65
937.609	968.525
940.975	1128.06
944.34	1171.63
947.703	1236.1
951.065	1387.3
954.426	1510.12
957.785	1340.54
961.142	1475.11
964.499	1610.7
967.853	1722.18
971.207	1738.63
974.558	1860.92
977.909	1744.26
981.258	1652.35
984.605	1763.64
987.951	1911.29
991.295	1386.4
994.639	1565.83
997.98	1689.61
1001.32	1518.67
1004.66	1626.03
1008	1354.76
1011.33	1616.5
1014.67	1617.8
1018	1429.4
1021.33	1385.31
1024.66	1554.58
1027.99	1478.2
1031.32	1414.24
1034.64	1319.75
1037.97	1357.84
1041.29	1428.55
1044.61	1392.96
1047.93	1662.63
1051.25	1491.78
1054.56	1761.43
1057.88	1710.01
1061.19	1575.22
1064.51	1749.03
1067.82	1856.35
1071.13	1724.45
1074.43	1760.27
1077.74	1838.83
1081.05	1854.99
1084.35	1714.84
1087.65	1579.9
1090.95	1454.75
1094.25	1533.33
1097.55	1606.45
1100.85	1406.31
1104.14	1479.84
1107.43	1325.48
1110.73	1340.77
1114.02	1087.58
1117.31	1023.92
1120.59	1063.45
1123.88	1001.18
1127.16	1073.34
1130.45	710.178
1133.73	762
1137.01	489.283
1140.29	491.834
1143.57	228.736
1146.84	671.881
1150.12	340.644
1153.39	423.25
1156.66	120.746
1159.93	377.6
1163.2	432.211
1166.46	64.3164
1169.73	84.6367
1172.99	388.744
1176.26	348.693
1179.52	123.791
1182.78	78.9629
1186.04	80.6621
1189.29	6.21875
1192.55	343.449
1195.8	114.115
1199.05	13.1738
1202.31	260.736
1205.55	280.029
1208.8	308.285
1212.05	275.316
1215.29	37.7461
1218.54	67.6445
1221.78	26.4727
1225.02	53.6348
1228.26	65.4805
1231.5	18.4141
1234.73	66.6465
1237.97	70.3027
1241.2	42.2715
1244.43	281.99
1247.66	186.379
1250.89	265.15
1254.12	82.5254
1257.34	115.092
1260.57	41.8613
1263.79	9.88281
1267.01	109.519
1270.23	124.752
1273.45	284.781
1276.67	15.1992
1279.88	156.816
1283.1	31.2871
1286.31	156.635
1289.52	71.8359
1292.73	211.078
1295.94	102.867
1299.14	77.8867
1302.35	225.744
1305.55	226.023
1308.75	219.328
1311.95	820.172
1315.15	50.2891
1318.35	655.57
1321.55	336.125
1324.74	245.207
1327.94	199.461
1331.13	493.34
1334.32	287.719
1337.51	355.449
1340.69	421.785
1343.88	319.961
1347.06	385.828
1350.25	364.098
1353.43	556.816
1356.61	70.9492
1359.79	469.301
1362.96	612.508
1366.14	438.859
1369.31	357.758
1372.49	350.723
1375.66	380.871
1378.83	298.121
1381.99	401.414
1385.16	303.465
1388.33	729.938
1391.49	225.906
1394.65	357.086
1397.81	330.418
1400.97	408.508
1404.13	544.543
1407.29	198.258
1410.44	360.598
1413.59	465.102
1416.74	517.938
1419.89	412.949
1423.04	237.969
1426.19	251.164
1429.34	422.699
1432.48	180.215
1435.62	100.84
1438.77	62.043
1441.9	244.102
1445.04	378.738
1448.18	535.746
1451.32	183.633
1454.45	115.098
1457.58	75.3594
1460.71	117.539
1463.84	251.914
1466.97	151.797
1470.1	365.277
1473.22	106.777
1476.35	153.227
1479.47	189.953
1482.59	356.461
1485.71	381.613
1488.83	294.707
1491.94	96.8906
1495.06	227.555
1498.17	118.461
1501.28	36.6211
1504.39	92.418
1507.5	179.156
1510.61	143.316
1513.71	17.1484
1516.82	124.621
1519.92	39.5117
1523.02	133.562
1526.12	188.059
1529.22	35.3984
1532.31	71.2539
1535.41	197.391
1538.5	196
1541.6	360.394
1544.69	75.0469
1547.78	217.695
1550.86	17.3516
1553.95	62.1719
1557.03	66.375
1560.12	254.598
1563.2	178.859
1566.28	124.359
1569.36	126.055
