Measurement: Raman, 514 nm, ccw, Raman Data Processed
Mineral: Braunite
Rruff sample: R050388
Ideal chemistry: Mn^2+^Mn^3+^_6_SiO_12_
Locality: Langban, Filipstad, Varmland, Sweden
Source: University of Arizona Mineral Museum
Description: Black crystals
Measured chemistry: (Mn^2+^_0.96_Mg_0.04_)_Î£=1_Mn^3+^_6.00_Si_1.00_O_12_
Pin_id: M00354
Orientation: Laser parallel to -c* (0 0 -1). Fiducial mark perpendicular to laser is parallel to a [1 0 0]
Raman shift (cm-1)	intensity
157.455	0
162.359	105.172
167.261	481.789
172.161	1083.41
177.058	878.594
181.952	1189.73
186.845	2732.21
191.734	4416.79
196.622	6847.39
201.507	10112.8
206.389	11362
211.269	11119.7
216.147	8768.05
221.022	7016.93
225.895	5127.09
230.765	3258.01
235.633	1910.84
240.498	1354.43
245.361	552.227
250.222	747.629
255.08	274.043
259.936	785.988
264.789	186.523
269.64	95.0547
274.488	26.9297
279.334	111.082
284.178	556.859
289.019	222.269
293.857	65.6367
298.693	63.9414
303.527	737.203
308.358	203.059
313.187	248.324
318.013	668.172
322.837	1090.52
327.659	2054.68
332.478	2320.87
337.294	821.398
342.108	702.996
346.92	173.75
351.729	404.023
356.535	273.848
361.34	477.961
366.141	422.863
370.94	280.715
375.737	508.68
380.531	522.609
385.323	223.531
390.113	82.5781
394.9	199.731
399.684	283.769
404.466	208.109
409.245	208.961
414.022	410
418.797	379.539
423.569	571.316
428.338	384.203
433.105	279.969
437.87	176.449
442.632	443.434
447.391	411.168
452.149	647.246
456.903	510.559
461.655	582.375
466.405	990.578
471.152	1140.19
475.897	1113.1
480.639	912.297
485.378	969.805
490.116	1082.68
494.85	1035.96
499.582	1546.81
504.312	2298.19
509.039	3075.2
513.764	2911.78
518.486	1914.46
523.206	1362.87
527.923	1067.01
532.638	1268.13
537.35	1204.84
542.059	778.742
546.766	1073.34
551.471	949.191
556.173	1488.02
560.873	1339.11
565.57	1446.5
570.264	1860.68
574.957	1152.86
579.646	542.621
584.333	896.348
589.018	842.09
593.7	902.383
598.379	1831.23
603.056	2831.73
607.73	4436.27
612.402	6409.88
617.072	7709.83
621.739	6680.84
626.403	5097.62
631.065	3345.81
635.724	2132.37
640.381	1647.29
645.035	1191.46
649.687	407.492
654.336	895.711
658.983	995.469
663.627	893.543
668.268	1420.72
672.907	2008.78
677.544	2724.58
682.178	3654.99
686.809	4535.12
691.438	4067.61
696.065	2611.48
700.688	1640.9
705.31	597.312
709.929	584.832
714.545	435.066
719.158	202.781
723.77	5.47656
728.378	158.879
732.984	46.3281
737.588	270.852
742.189	90.1484
746.787	156.262
751.383	114.055
755.976	265.316
760.567	132.934
765.155	12.4922
769.741	173.481
774.324	124.586
778.904	113.117
783.482	53.6055
788.058	180.793
792.631	81.3789
797.201	133.43
801.769	13.5586
806.334	112.746
810.897	122.402
815.457	127.195
820.014	237.531
824.569	172.457
829.122	4.91016
833.671	532.449
838.219	192.516
842.763	110.488
847.306	14.0469
851.845	214.152
856.382	130.016
860.917	285.332
865.448	0.5
869.978	48.6992
874.505	77.5664
879.029	171.871
883.55	5.41406
888.069	313.965
892.586	33.1484
897.1	96.8438
901.611	209.426
906.12	189.941
910.626	300.137
915.129	342.66
919.63	609.934
924.129	207.062
928.625	419.234
933.118	619.547
937.609	528.762
942.097	888.055
946.582	1034.57
951.065	1256.69
955.546	1465.36
960.023	1023.45
964.499	1300.44
968.971	1196.62
973.441	594.938
977.909	799.934
982.374	615.422
986.836	228.504
991.295	658.453
995.753	765.602
1000.21	396.109
1004.66	461.269
1009.11	537.246
1013.55	380.019
1018	576.441
1022.44	177.188
1026.88	904.727
1031.32	896.852
1035.75	762.922
1040.18	723.227
1044.61	767.019
1049.04	802.438
1053.46	742.586
1057.88	727.137
1062.3	747.309
1066.71	789.289
1071.13	774.727
1075.54	998.637
1079.94	1007.45
1084.35	1106.39
1088.75	1032.93
1093.15	742.406
1097.55	713.859
1101.94	902.734
1106.34	779.109
1110.73	608.039
1115.11	936.191
1119.5	733.422
1123.88	828.324
1128.26	682.727
1132.63	381.68
1137.01	496.453
1141.38	506.121
1145.75	492.719
1150.12	347.731
1154.48	263.344
1158.84	194.465
1163.2	67.8945
1167.55	51.3125
1171.91	354.5
1176.26	236.34
1180.61	190.019
1184.95	371.488
1189.29	251.426
1193.63	238.246
1197.97	54.3867
1202.31	6.87891
1206.64	266.184
1210.97	402.625
1215.29	337.586
1219.62	128.227
1223.94	182.059
1228.26	109.375
1232.57	321.273
1236.89	280.43
1241.2	305.844
1245.51	197.488
1249.81	119.535
1254.12	152.457
1258.42	182.633
1262.72	54.9844
1267.01	413.488
1271.3	166.891
1275.59	251.328
1279.88	80.0273
1284.17	415.359
1288.45	63.1094
1292.73	10.8125
1297.01	86.6523
1301.28	373.637
1305.55	2.86328
1309.82	370.269
1314.09	338.352
1318.35	398.965
1322.61	453.891
1326.87	481.301
1331.13	389.363
1335.38	224.176
1339.63	765.32
1343.88	217.238
1348.12	71.375
1352.37	20.7617
1356.61	464.144
1360.85	367.777
1365.08	693.328
1369.31	658.07
1373.54	376.844
1377.77	284.531
1381.99	414.207
1386.22	333.891
1390.43	200.148
1394.65	256.086
1398.87	474.598
1403.08	99.918
1407.29	151.664
1411.49	214.824
1415.69	141.266
1419.89	183.691
1424.09	524.527
1428.29	66.5078
1432.48	54.9258
1436.67	237.992
1440.86	15.9844
1445.04	6.02344
1449.23	128.055
1453.4	598.488
1457.58	222.016
1461.76	274.598
1465.93	308.102
1470.1	190.129
1474.26	312.734
1478.43	18.0312
1482.59	176.121
1486.75	316.262
1490.9	230.106
1495.06	194.812
1499.21	86.75
1503.35	29.3555
1507.5	202.484
1511.64	239.414
1515.78	140.328
1519.92	242.625
1524.05	506.203
1528.18	396.168
1532.31	274.941
1536.44	408.106
1540.56	553.949
1544.69	332.238
1548.8	363.625
1552.92	156.184
1557.03	219.625
1561.14	42.1953
1565.25	22.2539
1569.36	1.34375
