Measurement: Raman, 514 nm, ccw, Raman Data Processed
Mineral: Brazilianite
Rruff sample: R050504
Ideal chemistry: NaAl_3_(PO_4_)_2_(OH)_4_
Locality: CÃ³rrego Frio, Minas Gerais, Brazil
Source: Marcus Origlieri
Description: Yellowish green fragment
Measured chemistry: Na_1.00_Al_3.00_(P_1.00_O_4_)_2_(OH)_4_
Pin_id: L00677
Orientation: Laser parallel to -c* (0 0 -1). Fiducial mark perpendicular to laser is parallel to a [1 0 0]
Raman shift (cm-1)	intensity
72.477	0
77.423	1394.12
82.367	8259.26
87.308	14408.9
92.246	9430.2
97.182	6089.76
102.116	15677.8
107.047	11701.5
111.976	3519.57
116.903	2188.96
121.827	132.344
126.749	134.184
131.668	266.066
136.585	150.658
141.5	779.574
146.412	2405.1
151.321	1607.73
156.229	1535.7
161.134	4033.14
166.036	9835.68
170.936	17299.7
175.834	8242.36
180.729	1815.3
185.622	679.244
190.512	1143.91
195.4	2234.2
200.286	3206.12
205.169	4412.61
210.049	3472.64
214.928	2336.17
219.803	3119.21
224.677	2614.97
229.548	3988.62
234.416	2272.26
239.282	1952.94
244.146	2239.19
249.007	1021.86
253.866	682.193
258.722	286.969
263.576	191.631
268.427	2185.46
273.276	7149.84
278.123	14478.7
282.967	6494.04
287.809	1375.13
292.648	118.984
297.485	1.69531
302.319	459.313
307.151	2679.22
311.98	9383.88
316.807	10418.9
321.631	6670.57
326.454	4058.94
331.273	2606
336.09	1959.71
340.905	1245.02
345.717	1450.92
350.527	3872.37
355.334	9405.35
360.139	8697.85
364.941	3018.89
369.741	685.852
374.538	270.754
379.333	93.6689
384.126	161.082
388.916	223.245
393.703	764.837
398.488	3010.51
403.271	6419.07
408.051	8629.82
412.828	8338.77
417.603	5749.49
422.376	4173.65
427.146	2374.56
431.914	1219.06
436.679	802.74
441.442	399.661
446.202	342.259
450.96	100.676
455.715	122.757
460.467	322.642
465.218	775.981
469.965	910.761
474.711	1403.97
479.454	3031.59
484.194	5474.61
488.932	6915.01
493.667	9936.76
498.4	14330.8
503.13	17059.2
507.858	17735.9
512.583	18460.7
517.306	17455.3
522.026	18244.6
526.744	23250.2
531.459	28240
536.172	27170.4
540.882	20755.4
545.59	17364.9
550.295	19175.1
554.998	25645.3
559.698	28896.8
564.396	27069.7
569.091	21201.2
573.784	13770.1
578.474	11286
583.162	13134.3
587.847	18826
592.529	31434.6
597.209	48000.6
601.887	41495.6
606.562	22706.4
611.235	14189.1
615.905	11085.8
620.572	8167.33
625.237	6623.33
629.9	6668.6
634.56	6898.85
639.217	5142.97
643.872	3884.88
648.524	3863.53
653.174	4200.87
657.821	4515.14
662.466	3730.98
667.108	2409.76
671.748	1370.8
676.385	736.73
681.02	442.06
685.652	439.747
690.281	71.6367
694.908	181.182
699.533	176.047
704.155	172.975
708.774	67.7466
713.391	25.6885
718.005	16.7969
722.617	73.0967
727.226	71.8472
731.833	251.278
736.437	398.712
741.039	710.546
745.638	1076.15
750.234	1453.32
754.828	1839.06
759.419	2358.08
764.008	2948.83
768.595	2866.04
773.178	2703.96
777.759	2675.04
782.338	2760.46
786.914	3446.48
791.488	4064.1
796.059	4737.32
800.627	4983.15
805.193	4428.56
809.756	3704.58
814.317	2876.19
818.875	2152.41
823.431	1730.26
827.984	1435.44
832.534	966.802
837.082	773.818
841.627	540.038
846.17	434.756
850.71	215.838
855.248	237.292
859.783	176.072
864.316	168.635
868.846	40.1055
873.373	104.915
877.898	58.9824
882.42	210.87
886.94	109.002
891.457	107.497
895.971	139.78
900.483	92.4727
904.993	40.0767
909.5	8.15576
914.004	220.427
918.505	386.756
923.004	563.877
927.501	980.84
931.995	1513.71
936.486	2509.58
940.975	4082.51
945.461	6176.53
949.945	7767.73
954.426	8300.22
958.904	8728.92
963.38	10559.1
967.853	14330.7
972.324	19212.2
976.792	21949.4
981.258	27677.2
985.72	41219.3
990.181	42595.7
994.639	25623.2
999.094	17387.9
1003.55	16580.8
1008	20451.3
1012.44	31775.1
1016.89	45978.3
1021.33	45534.7
1025.77	33950.8
1030.21	25737.2
1034.64	21210.6
1039.07	19510.9
1043.5	17678.8
1047.93	15750.3
1052.35	15140.9
1056.78	16725.5
1061.19	18656.2
1065.61	17612.9
1070.02	15833.6
1074.43	14572.6
1078.84	13716.1
1083.25	12266.3
1087.65	10411
1092.05	8041.72
1096.45	6247.8
1100.85	5190.14
1105.24	5023.22
1109.63	5738.57
1114.02	8514.98
1118.4	8990.76
1122.78	6912.11
1127.16	5508.78
1131.54	4492.07
1135.92	3745.42
1140.29	3428.86
1144.66	3394.35
1149.02	3211.52
1153.39	2183.29
1157.75	1617.02
1162.11	1267.81
1166.46	1098.43
1170.82	850.714
1175.17	497.484
1179.52	368.646
1183.86	186.144
1188.21	18.9473
1192.55	21.9795
1196.89	32.7383
1201.22	42.4248
1205.55	50.0762
1209.88	33.7031
1214.21	51.8237
1218.54	48.0933
1222.86	47.3813
1227.18	76.8564
1231.5	77.0356
1235.81	105.83
1240.12	28.852
1244.43	42.4805
1248.74	7.97314
1253.04	73.6167
1257.34	5.06055
1261.64	103.005
1265.94	94.1509
1270.23	58.1636
1274.52	41.1802
1278.81	81.7949
1283.1	198.88
1287.38	151.579
1291.66	186.486
1295.94	278.839
1300.21	256.161
1304.48	412.255
1308.75	338.915
1313.02	372.957
1317.29	362.399
1321.55	411.905
1325.81	376.879
1330.06	352.376
1334.32	212.894
1338.57	273.169
1342.82	333.013
1347.06	265.477
1351.31	341.298
1355.55	280.394
1359.79	253.266
1364.02	283.204
1368.26	277.54
1372.49	290.039
1376.71	187.628
1380.94	288.146
1385.16	214.335
1389.38	100.074
1393.6	141.479
1397.81	192.318
1402.02	138.194
1406.23	1.91846
1410.44	44.2515
1414.64	59.1904
1418.85	28.7436
1423.04	123.577
1427.24	108.469
1431.43	157.751
1435.62	277.419
1439.81	482.636
1444	615.623
1448.18	610.906
1452.36	555.287
1456.54	464.314
1460.71	461.621
1464.89	458.979
1469.06	242.148
1473.22	220.947
1477.39	297.585
1481.55	97.7163
1485.71	165.151
1489.86	67.2632
1494.02	98.8936
1498.17	164.408
1502.32	33.1382
1506.46	103.641
1510.61	224.079
1514.75	18.2598
1518.88	161.282
1523.02	188.205
1527.15	119.567
1531.28	94.7227
1535.41	187.917
1539.53	214.423
1543.66	177.221
1547.78	148.703
1551.89	115.181
1556.01	218.695
1560.12	70.0439
1564.23	69.1802
1568.33	180.79
