Measurement: Raman, 514 nm, ccw, Raman Data Processed
Mineral: Brazilianite
Rruff sample: R050126
Ideal chemistry: NaAl_3_(PO_4_)_2_(OH)_4_
Locality: Linopolis, Minas Gerais, Brazil
Source: Carlos and Paulo Vasconcelos
Description: Pair of greenish yellow elongated crystals
Measured chemistry: Na_1.00_Al_3.00_(P_1.00_O_4_)_2_((OH)_3.80_F_0.20_)_Î£=4_
Pin_id: L00364
Orientation: Laser parallel to (1 0 1). Fiducial mark perpendicular to laser is parallel to b [0 1 0]
Raman shift (cm-1)	intensity
134.381	0
138.564	30.084
142.745	555.597
146.923	1159.42
151.099	751.589
155.272	475.866
159.444	889.104
163.613	1473.7
167.78	4579.35
171.945	15064.1
176.108	26569.6
180.268	8135.45
184.426	2205.69
188.582	1153.04
192.736	560.932
196.887	338.091
201.036	1258.31
205.184	2514.48
209.328	3458.37
213.471	3501.96
217.611	3225.5
221.75	3638.62
225.886	2441.77
230.019	3295.45
234.151	4085.91
238.281	2208.21
242.408	487.961
246.533	936.04
250.656	1329.32
254.776	1387.65
258.895	237.012
263.011	16.408
267.125	393.182
271.237	288.495
275.346	1640.39
279.454	5606.46
283.559	5241.66
287.662	1309.16
291.763	573.875
295.862	1921.79
299.959	2058.93
304.053	774.365
308.146	672.232
312.236	1430.22
316.324	2518.53
320.409	1882.62
324.493	1175.15
328.574	1002.89
332.654	92.64
336.731	582.967
340.806	235.449
344.879	308.213
348.949	135.111
353.018	838.51
357.084	3246.38
361.148	5656.75
365.21	3566.2
369.27	1007.53
373.328	942.605
377.384	1306.36
381.437	1038.03
385.488	54.653
389.538	61.668
393.585	75.796
397.63	102.287
401.672	64.557
405.713	1432.73
409.752	3277.73
413.788	3883.73
417.822	3900.59
421.854	3438.48
425.884	3648.54
429.912	2978.56
433.938	1948.16
437.962	1817.75
441.983	2618.09
446.003	2079.11
450.02	1230.82
454.035	1233.22
458.048	1926.28
462.059	2030
466.068	1294.46
470.075	829.658
474.08	1605.52
478.082	2781.99
482.083	3659.06
486.081	4416.7
490.077	5934.9
494.072	7923.63
498.064	9746.05
502.054	11621.2
506.041	13211.9
510.027	14315
514.011	14996.4
517.993	14298.3
521.972	13280.8
525.95	14592.7
529.925	16916.3
533.898	17919.9
537.869	17568.2
541.839	15987.1
545.806	14557.7
549.771	14040.4
553.734	15018.8
557.694	20175.8
561.653	27137.6
565.61	29007.3
569.565	26188.1
573.517	19960.2
577.468	13662.2
581.416	10518.2
585.362	9419.18
589.307	8747.97
593.249	10508.1
597.189	17124.9
601.127	28808.5
605.064	30312.3
608.998	18246.4
612.93	12340.6
616.86	10484.9
620.787	8759.29
624.713	6233.73
628.637	5028.2
632.559	5602.72
636.479	7497.23
640.396	7531.75
644.312	4896.25
648.226	2580.72
652.137	2105.14
656.047	2479.72
659.954	2244.76
663.86	1610.19
667.763	755.881
671.665	743.61
675.564	1119.05
679.462	1098.04
683.357	417.856
687.25	292.846
691.142	138.094
695.031	615.71
698.918	549.802
702.804	106.215
706.687	463.58
710.568	272.936
714.447	502.636
718.325	741.676
722.2	355.195
726.073	229.853
729.944	0.012
733.814	607.985
737.681	1012.41
741.546	564.283
745.409	43.21
749.27	239.277
753.13	910.661
756.987	1431.28
760.842	1456.87
764.695	925.968
768.547	834.584
772.396	1292.71
776.243	1910.35
780.089	1687.51
783.932	1134.17
787.773	780.357
791.613	1216.06
795.45	2131.27
799.285	2486
803.119	1990.26
806.95	1314.05
810.78	967.37
814.607	1440.22
818.433	1732.6
822.256	1444.51
826.078	685.906
829.898	140.816
833.715	476.159
837.531	1028.1
841.345	1137.96
845.157	706.642
848.966	2.862
852.774	204.088
856.58	366.884
860.384	989.315
864.186	1025.62
867.986	264.112
871.784	294.91
875.581	373.92
879.375	664.681
883.167	1238.14
886.957	815.791
890.746	121.231
894.532	356.037
898.317	252.056
902.099	525.789
905.88	1062.57
909.659	581.354
913.435	49.874
917.21	68.546
920.983	257.239
924.754	1135.92
928.523	1804.67
932.29	2093.53
936.056	1702.49
939.819	1891.54
943.58	3160.65
947.34	5170.02
951.097	6979.74
954.853	7429.73
958.606	6360.04
962.358	6180.6
966.108	7201.36
969.856	10502.4
973.602	14843.7
977.346	16313.2
981.088	16051.4
984.828	17353.6
988.567	21472.3
992.303	22563.9
996.038	18637.5
999.77	15708.3
1003.5	15872.8
1007.23	17427.5
1010.96	23424
1014.68	35721.5
1018.4	52419.3
1022.13	54134.3
1025.85	47979.7
1029.56	36360.1
1033.28	28723.9
1036.99	23878.6
1040.7	22097.7
1044.41	20771.9
1048.12	18124.3
1051.83	15796
1055.53	13933.1
1059.24	13195.4
1062.94	13441.1
1066.63	12530.3
1070.33	11257.5
1074.03	9495.17
1077.72	7593.83
1081.41	5412.46
1085.1	3668.72
1088.79	2718.9
1092.47	2321.68
1096.16	2430.36
1099.84	2659.8
1103.52	2298.31
1107.2	1644.59
1110.87	736.877
1114.55	224.823
1118.22	841.271
1121.89	1464.95
1125.56	2070.63
1129.23	2355.58
1132.89	1850.93
1136.56	1220.24
1140.22	978.149
1143.88	1294.14
1147.53	2629.13
1151.19	3066.69
1154.84	2958.32
1158.5	2730.67
1162.15	2100.93
1165.8	1440.11
1169.44	1184.38
1173.09	1097.73
1176.73	1346.82
1180.37	1636.68
1184.01	1582.27
1187.65	1195.6
1191.28	622.124
1194.92	236.945
1198.55	227.073
1202.18	85.622
1205.81	338.13
1209.43	990.216
1213.06	1300.03
1216.68	814.579
1220.3	310.801
1223.92	19.841
1227.54	131.935
1231.15	34.637
1234.77	502.407
1238.38	1060.96
1241.99	1349.33
1245.6	1266.65
1249.21	1032.81
1252.81	399.346
1256.41	44.043
1260.01	168.866
1263.61	23.302
1267.21	862.543
1270.81	1325.39
1274.4	1627.82
1277.99	1291.02
1281.58	903.137
1285.17	213.655
1288.76	224.651
1292.34	88.95
1295.93	519.37
1299.51	927.929
1303.09	1447.08
1306.66	1634.05
1310.24	1620.15
1313.82	865.715
1317.39	501.083
1320.96	63.863
1324.53	150.11
1328.09	82.924
1331.66	695.425
1335.22	1347.86
1338.79	1869.07
1342.35	2040.25
1345.9	1569.11
1349.46	746.393
1353.01	250.217
1356.57	166.646
1360.12	96.898
1363.67	636.594
1367.21	1205.13
1370.76	1445.33
1374.3	1262.36
1377.85	1937.14
1381.39	1596.77
1384.93	879.654
1388.46	386.592
1392	163.556
1395.53	99.189
1399.06	451.638
1402.59	891.663
1406.12	1318.32
1409.65	2062.49
1413.17	2107.85
1416.69	1625.94
1420.22	1160.94
1423.74	728.202
1427.25	39.708
1430.77	59.333
1434.28	63.052
1437.8	456.728
1441.31	1124.21
1444.82	1654.41
1448.32	1965.59
1451.83	2235.83
1455.33	1885.28
1458.83	1585.54
1462.34	1074.24
1465.83	591.687
1469.33	311.472
1472.83	187.97
1476.32	422.967
1479.81	784.672
1483.3	1293.99
1486.79	1771.6
1490.28	2185.72
1493.76	2226.46
1497.24	1947.7
1500.72	1438.22
1504.2	1231.8
1507.68	699.754
1511.16	320.817
1514.63	5.165
