Measurement: Raman, 514 nm, ccw, Raman Data Processed
Mineral: Brazilianite
Rruff sample: R050504
Ideal chemistry: NaAl_3_(PO_4_)_2_(OH)_4_
Locality: CÃ³rrego Frio, Minas Gerais, Brazil
Source: Marcus Origlieri
Description: Yellowish green fragment
Measured chemistry: Na_1.00_Al_3.00_(P_1.00_O_4_)_2_(OH)_4_
Pin_id: L00856
Orientation: Laser parallel to -a* (-1 0 0). Fiducial mark perpendicular to laser is parallel to b [0 1 0]
Raman shift (cm-1)	intensity
79.895	0
84.837	3259.16
89.777	5315.89
94.714	1824.92
99.649	3119.16
104.582	7849.77
109.512	4664.24
114.44	3869.69
119.365	1064.98
124.288	56.4258
129.209	291.653
134.127	188.169
139.043	641.54
143.956	2425.1
148.867	2199.18
153.775	1600.35
158.681	2658.95
163.585	7328.61
168.486	6436.17
173.385	4586.01
178.282	1935.21
183.176	1180.02
188.067	1395.24
192.956	1926.21
197.843	2011.89
202.727	1220.24
207.609	794.1
212.489	2177.51
217.366	3640.01
222.24	3143.95
227.112	2478.99
231.982	2990.57
236.849	3506.79
241.714	3989.99
246.577	2909.51
251.437	3489.09
256.294	1715.01
261.149	893.59
266.002	894.193
270.852	889.174
275.7	1050.94
280.545	1062.92
285.388	1407.61
290.229	2470.33
295.067	3885.62
299.902	2271.09
304.735	1566.78
309.566	1929.72
314.394	2541.92
319.22	2270.41
324.043	1385.2
328.864	394.389
333.682	332.307
338.498	496.357
343.311	567.449
348.122	219.723
352.931	383.559
357.737	821.934
362.54	567.584
367.341	900.633
372.14	1167.52
376.936	1018.25
381.73	439.527
386.521	290.285
391.31	658.549
396.096	1166.37
400.88	1830.89
405.661	1763.36
410.44	1533.6
415.216	690.66
419.99	159.041
424.761	13.6016
429.53	992.311
434.297	2624.89
439.061	4294.17
443.822	2917.18
448.581	2377.94
453.337	3050.45
458.091	4288.26
462.843	5357.83
467.592	4659.75
472.338	4133.51
477.082	5744.58
481.824	7920.33
486.563	9677.87
491.3	11125.4
496.034	14349.7
500.765	17543
505.494	18486.6
510.221	18652.7
514.945	16259.1
519.666	13978
524.385	13827.2
529.102	15250.8
533.816	14837.8
538.527	12010.2
543.236	9534.8
547.943	10280.4
552.647	15641.5
557.348	21498.9
562.047	21008.7
566.744	18548.5
571.438	13880.9
576.129	10450.8
580.818	9177.81
585.504	9099.93
590.188	11707.2
594.87	18887.7
599.549	25374.7
604.225	19384.5
608.899	13473.7
613.57	12543.9
618.239	10634.3
622.905	7395.05
627.569	6596.73
632.23	6901.8
636.889	5605.52
641.545	3498.89
646.198	2470.87
650.849	2423.38
655.498	2507.37
660.144	2394.79
664.787	1642.61
669.428	815.768
674.067	557.223
678.703	16.9297
683.336	172.184
687.967	513.877
692.595	36.8242
697.221	244.486
701.844	186.691
706.465	66.2891
711.083	212.918
715.698	216.963
720.311	354.721
724.922	382.867
729.53	226.988
734.135	147.502
738.738	410.231
743.338	554.789
747.936	789.309
752.531	749.023
757.124	1424.2
761.714	1792.78
766.302	1659.62
770.887	1810.29
775.469	1463.61
780.049	1402.06
784.626	1203.96
789.201	1427.81
793.773	1961.61
798.343	2423.34
802.91	2650.99
807.475	2415.53
812.037	2248.96
816.596	1809.27
821.153	1549.43
825.707	1085.15
830.259	812.781
834.808	808.729
839.355	389.631
843.899	329.967
848.441	191.856
852.98	87.1055
857.516	193.109
862.05	12.9062
866.581	140.697
871.11	62.2168
875.636	309.227
880.159	40.9688
884.68	283.289
889.199	147.459
893.714	74.4004
898.228	168.045
902.738	67.3613
907.246	211.887
911.752	231.736
916.255	302.906
920.755	123.488
925.253	523.533
929.748	887.076
934.241	1178.15
938.731	1631.83
943.218	2217.14
947.703	2851.41
952.186	3113.39
956.665	3838.16
961.142	5076.31
965.617	6891.55
970.089	11062.8
974.558	14071.7
979.025	16847.8
983.489	24551.5
987.951	31548.5
992.41	23797.9
996.866	15353.7
1001.32	12975.7
1005.77	14217.9
1010.22	20196.5
1014.67	30642.2
1019.11	35934.6
1023.55	30746.9
1027.99	23942.8
1032.42	20331.6
1036.86	18702.7
1041.29	18254.8
1045.72	16329.3
1050.14	14050.3
1054.56	12826.4
1058.98	11860.2
1063.4	11066.6
1067.82	9634.9
1072.23	8502.62
1076.64	7554.89
1081.05	6442.44
1085.45	5012
1089.85	3452.2
1094.25	2650.5
1098.65	1727.31
1103.04	2050.49
1107.43	2440.62
1111.82	4352.71
1116.21	6681.87
1120.59	6071.15
1124.97	5785.33
1129.35	5249.49
1133.73	4806.39
1138.1	4917.77
1142.47	7171.78
1146.84	10194.1
1151.21	7326.39
1155.57	3890.35
1159.93	2173.89
1164.29	1920.14
1168.64	1872.92
1172.99	1212.36
1177.34	539.189
1181.69	468.447
1186.04	113.068
1190.38	241.756
1194.72	148.465
1199.05	15.2227
1203.39	73.5762
1207.72	70.3066
1212.05	25.0488
1216.37	83.2852
1220.7	115.731
1225.02	144.734
1229.34	135.365
1233.65	64.2324
1237.97	191.801
1242.28	35.334
1246.59	309.607
1250.89	26.9336
1255.19	14.4355
1259.49	0.507813
1263.79	66.4531
1268.09	63.0547
1272.38	51.4531
1276.67	164.695
1280.95	258.711
1285.24	256.879
1289.52	281.066
1293.8	349.91
1298.08	236.969
1302.35	490.309
1306.62	560.273
1310.89	486.914
1315.15	324.715
1319.42	466.988
1323.68	417.789
1327.94	318.82
1332.19	351.172
1336.44	270.973
1340.69	408.301
1344.94	311.019
1349.19	335.09
1353.43	170.215
1357.67	555.078
1361.9	540.144
1366.14	216.027
1370.37	385.387
1374.6	636.09
1378.83	203.891
1383.05	353.961
1387.27	431.168
1391.49	507.055
1395.7	180.504
1399.92	304.781
1404.13	330.398
1408.34	18.5078
1412.54	169.5
1416.74	210.004
1420.94	217.144
1425.14	60.4883
1429.34	211.856
1433.53	225.379
1437.72	389.148
1441.9	323.938
1446.09	533.641
1450.27	307.043
1454.45	684.969
1458.63	548.293
1462.8	466.824
1466.97	371.004
1471.14	548.652
1475.31	310.387
1479.47	290.918
1483.63	350.977
1487.79	423.305
1491.94	130.387
1496.09	104.711
1500.24	43.2812
1504.39	276.379
1508.54	231.273
1512.68	67.5234
1516.82	188.496
1520.95	430.309
1525.09	315.285
1529.22	315.188
1533.35	282.852
1537.47	365.059
1541.6	443.133
1545.72	408.984
1549.83	171.793
1553.95	297.621
1558.06	105.106
1562.17	457.926
1566.28	317.277
1570.38	0
