Measurement: Raman, 514 nm, ccw, Raman Data Processed
Mineral: Brazilianite
Rruff sample: R050319
Ideal chemistry: NaAl_3_(PO_4_)_2_(OH)_4_
Locality: Minas Gerais, Brazil
Source: American Museum of Natural History
Description: Pale green fragment
Measured chemistry: Na_1.00_Al_3.00_(PO_4_)_2_(OH)_4_
Pin_id: M00183
Orientation: Laser parallel to a* (1 0 0). Fiducial mark perpendicular to laser is parallel to -b [0 -1 0]
Raman shift (cm-1)	intensity
86.072	0
91.012	208.143
95.948	24.8467
100.883	11.9595
105.815	362.315
110.744	553.537
115.671	502.811
120.596	213.169
125.519	315.72
130.439	421.069
135.356	384.19
140.271	1129.87
145.184	1370.74
150.094	1001.91
155.002	758.738
159.908	1860.89
164.811	6999.21
169.711	11732.8
174.61	9072.44
179.505	2860.38
184.399	1060.98
189.29	736.46
194.178	685.959
199.064	546.575
203.948	495.358
208.829	768.327
213.708	1453.5
218.585	1830.9
223.459	1091.56
228.33	533.875
233.199	846.231
238.066	1574.69
242.93	4240.16
247.792	6236.5
252.651	6830.35
257.508	2914.39
262.363	807.271
267.215	1094.85
272.064	1867.65
276.912	1658.81
281.756	822.744
286.598	310.366
291.438	303.599
296.276	270.389
301.111	273.69
305.943	907.456
310.773	1465.57
315.601	1247.91
320.426	507.431
325.248	456.138
330.068	355.057
334.886	400.201
339.701	396.585
344.514	672.216
349.324	1235.1
354.132	1872.26
358.938	1519.68
363.741	446.388
368.541	90.6289
373.339	150.864
378.135	113.424
382.928	266.894
387.718	251.261
392.506	227.585
397.292	0.935547
402.075	704.638
406.856	1820.89
411.634	2314.94
416.41	2235.71
421.183	1971.87
425.954	2921.08
430.722	5866.01
435.488	9468.47
440.251	9806.44
445.012	6665.95
449.77	5665.99
454.526	7794.57
459.28	10855.7
464.03	12376.4
468.779	9355.58
473.525	4594.38
478.268	2327.75
483.009	1783.69
487.747	2093.22
492.483	2971.33
497.217	4043.07
501.948	5049.42
506.676	5446.51
511.402	5921.56
516.125	6457.6
520.846	7238.1
525.565	8358.53
530.281	9628.97
534.994	9874.04
539.705	9097.6
544.413	9159.26
549.119	11406.4
553.822	16319.9
558.523	21669.9
563.222	22265
567.917	17380.7
572.611	10854.2
577.302	6514.45
581.99	4610.39
586.676	3748.99
591.359	3877.17
596.04	5167.99
600.718	6144.43
605.394	6781.47
610.067	8032.16
614.737	8018.39
619.406	5773.12
624.071	4811.35
628.734	5278.08
633.395	5621.57
638.053	4455.2
642.708	2503.37
647.361	1486.78
652.012	961.863
656.66	713.46
661.305	575.096
665.948	294.301
670.588	322.185
675.226	170.472
679.861	156.421
684.494	96.0811
689.124	103.538
693.752	13.75
698.377	188.099
702.999	115.353
707.619	215.532
712.237	729.842
716.852	1238.71
721.464	1476.77
726.074	1137.44
730.681	903.633
735.286	687.343
739.888	659.56
744.488	336.748
749.085	385.283
753.68	261.684
758.272	213.154
762.861	197.304
767.448	187.147
772.033	113.688
776.614	122.487
781.194	16.667
785.77	115.01
790.345	53.4922
794.916	88.8613
799.485	68.7812
804.052	35.835
808.616	115.51
813.177	48.3086
817.736	45.3457
822.292	125.539
826.846	88.7881
831.397	27.6416
835.945	15.1924
840.491	92.5576
845.035	56.9678
849.576	28.6738
854.114	27.9902
858.65	27.5986
863.183	137.701
867.713	67.3525
872.241	85.4941
876.767	112.098
881.29	107.811
885.81	8.63867
890.328	41.2588
894.843	104.445
899.356	255.758
903.866	15.2871
908.373	70.9482
912.878	170.302
917.38	309.312
921.88	359.067
926.377	474.24
930.872	746.941
935.364	746.4
939.853	962.484
944.34	1337.88
948.824	1878.73
953.306	2842.64
957.785	4153.39
962.261	7213.28
966.735	11938.4
971.207	16007
975.675	15001.7
980.141	12126.6
984.605	11190.8
989.066	10328.8
993.524	8075.06
997.98	7673.22
1002.43	9224.87
1006.88	13892.8
1011.33	23657.6
1015.78	37073.6
1020.22	41590.1
1024.66	34705
1029.1	28019.6
1033.53	24190.8
1037.97	21774.1
1042.4	18309.1
1046.82	14034.8
1051.25	10172
1055.67	7728.77
1060.09	6509.06
1064.51	5707.16
1068.92	5126.61
1073.33	3961.27
1077.74	2802.77
1082.15	2307.7
1086.55	1746.54
1090.95	1246.64
1095.35	1033.35
1099.75	886.879
1104.14	1121.14
1108.53	2304.45
1112.92	4028.95
1117.31	4233
1121.69	3230.35
1126.07	2241.05
1130.45	1216.51
1134.82	1052.88
1139.19	1048.88
1143.57	1885.22
1147.93	2285.3
1152.3	1473.82
1156.66	743.675
1161.02	506.941
1165.38	489.513
1169.73	467.388
1174.08	177.542
1178.43	185.026
1182.78	117.304
1187.12	11.5918
1191.46	29.2686
1195.8	0.225586
1200.14	74.6875
1204.47	36.417
1208.8	139.516
1213.13	35.1826
1217.46	18.6602
1221.78	32.8242
1226.1	12.5449
1230.42	40.623
1234.73	37.8027
1239.04	27.1445
1243.35	30.123
1247.66	26.1426
1251.97	19.2188
1256.27	58.7578
1260.57	64.5264
1264.86	153.301
1269.16	125.788
1273.45	175.867
1277.74	80.6387
1282.03	113.859
1286.31	60.0674
1290.59	201.769
1294.87	209.279
1299.14	229.592
1303.42	283.138
1307.69	308.513
1311.95	436.108
1316.22	291.016
1320.48	167.857
1324.74	229.24
1329	27.8018
1333.26	327.664
1337.51	300.204
1341.76	207.584
1346	198.768
1350.25	184.889
1354.49	263.403
1358.73	98.3057
1362.96	122.916
1367.2	104.999
1371.43	151.591
1375.66	73.5127
1379.88	187.684
1384.11	164.14
1388.33	180.352
1392.54	66.9522
1396.76	18.5244
1400.97	273.308
1405.18	111.148
1409.39	185.834
1413.59	144.056
1417.8	153.062
1421.99	153.006
1426.19	82.4541
1430.38	287.799
1434.58	39.125
1438.77	323.221
1442.95	381.615
1447.13	297.161
1451.32	336.647
1455.49	429.317
1459.67	295.214
1463.84	143.031
1468.01	267.166
1472.18	91.6357
1476.35	110.001
1480.51	237.54
1484.67	12.6084
1488.83	117.295
1492.98	171.911
1497.13	143.177
1501.28	178.634
1505.43	59.3301
1509.57	142.524
1513.71	63.9053
1517.85	265.853
1521.99	158.7
1526.12	253.802
1530.25	217.068
1534.38	89.7285
1538.5	142.438
1542.62	131.054
1546.74	67.6523
1550.86	186.809
1554.98	201.518
1559.09	107.033
1563.2	20.6992
1567.31	1.97852
