Measurement: Raman, 514 nm, ccw, Raman Data Processed
Mineral: Brazilianite
Rruff sample: R050319
Ideal chemistry: NaAl_3_(PO_4_)_2_(OH)_4_
Locality: Minas Gerais, Brazil
Source: American Museum of Natural History
Description: Pale green fragment
Measured chemistry: Na_1.00_Al_3.00_(PO_4_)_2_(OH)_4_
Pin_id: M00275
Orientation: Laser parallel to b* (0 1 0). Fiducial mark perpendicular to laser is parallel to c [0 0 1]
Raman shift (cm-1)	intensity
78.659	0
83.602	3812.25
88.542	5699.78
93.48	3475.65
98.416	5226.12
103.349	11914.5
108.28	4838.18
113.208	1527.35
118.134	878.159
123.058	170.054
127.979	170.056
132.898	235.506
137.814	198.694
142.728	513.73
147.639	1086.98
152.549	583.569
157.455	458.362
162.359	2298.43
167.261	5503.27
172.161	12084.5
177.058	3916.01
181.952	607.841
186.845	151.057
191.734	257.736
196.622	754.547
201.507	1164.28
206.389	1343.48
211.269	1620.49
216.147	1535.81
221.022	1614.38
225.895	1125.85
230.765	1847.52
235.633	1025.85
240.498	1518.14
245.361	2141.58
250.222	2869.96
255.08	2236.72
259.936	338.53
264.789	311.512
269.64	1069.02
274.488	1676.62
279.334	1972.64
284.178	2334.22
289.019	1003.92
293.857	83.7656
298.693	1062.9
303.527	538.915
308.358	2299.47
313.187	3976.36
318.013	3986.53
322.837	3563.98
327.659	2665.83
332.478	1632.1
337.294	1307.57
342.108	1497.43
346.92	2901.65
351.729	6632.21
356.535	10544.1
361.34	7804.26
366.141	2963.71
370.94	735.457
375.737	375.487
380.531	431.66
385.323	302.396
390.113	402.617
394.9	213.704
399.684	1449.21
404.466	3230.23
409.245	4661.13
414.022	5066.99
418.797	4089.19
423.569	3654.08
428.338	3042.04
433.105	3403.39
437.87	4323.47
442.632	3317.24
447.391	1943.03
452.149	1724.21
456.903	2030.69
461.655	2704.46
466.405	3111.52
471.152	2137.81
475.897	892.285
480.639	209.508
485.378	786.752
490.116	1641.67
494.85	3393.67
499.582	5564.75
504.312	6485.88
509.039	6918.02
513.764	7645.18
518.486	8473.41
523.206	10516.3
527.923	13403.4
532.638	14709.1
537.35	12911.1
542.059	10216.1
546.766	9492.86
551.471	11773.1
556.173	17382.8
560.873	20180
565.57	19122.4
570.264	14039.1
574.957	8844.6
579.646	7296.62
584.333	8449.99
589.018	13124.8
593.7	20780.4
598.379	25787.7
603.056	17660.7
607.73	9784.94
612.402	6296.35
617.072	4822.98
621.739	3784.57
626.403	3629.45
631.065	3922.25
635.724	3915.98
640.381	3375.86
645.035	2946.19
649.687	3626.91
654.336	4182.15
658.983	5030.45
663.627	4036.46
668.268	2365.74
672.907	1372.46
677.544	600.59
682.178	158.373
686.809	12.2559
691.438	187.268
696.065	124.691
700.688	268.926
705.31	71.9629
709.929	47.5645
714.545	120
719.158	104.064
723.77	275.287
728.378	212.85
732.984	241.934
737.588	406.99
742.189	226.955
746.787	274.832
751.383	508.307
755.976	292.76
760.567	578.207
765.155	585.184
769.741	727.551
774.324	405.035
778.904	411.195
783.482	368.096
788.058	319.721
792.631	421.041
797.201	213.022
801.769	427.603
806.334	87.8359
810.897	341.238
815.457	131.42
820.014	303.728
824.569	342.609
829.122	270.26
833.671	59.5449
838.219	102.721
842.763	86.9141
847.306	18.5664
851.845	125.164
856.382	187.672
860.917	212.535
865.448	56.8008
869.978	296.775
874.505	84.2012
879.029	75.584
883.55	46.5488
888.069	86.0273
892.586	93.6894
897.1	1.57422
901.611	137.035
906.12	2.26562
910.626	173.08
915.129	188.369
919.63	397.42
924.129	679.586
928.625	789.1
933.118	1475.32
937.609	2417.8
942.097	3299.1
946.582	4841.43
951.065	5989.25
955.546	6181.54
960.023	7086.74
964.499	9996.16
968.971	15123.8
973.441	19119.1
977.909	19332.1
982.374	22191.2
986.836	27372.5
991.295	23562.5
995.753	15198.5
1000.21	11615
1004.66	11984.8
1009.11	16298.3
1013.55	26079
1018	35105.1
1022.44	33104.4
1026.88	25434.2
1031.32	19632
1035.75	16951.2
1040.18	14410.4
1044.61	11296.2
1049.04	8332.23
1053.46	6708.28
1057.88	5766.22
1062.3	6675.24
1066.71	9005.94
1071.13	11578
1075.54	11553.6
1079.94	11175.6
1084.35	10157.6
1088.75	8447.01
1093.15	7166.66
1097.55	5659.12
1101.94	5284.46
1106.34	6111.46
1110.73	9216.9
1115.11	14073.5
1119.5	12186.6
1123.88	7354.72
1128.26	3905.33
1132.63	2402.42
1137.01	1524.04
1141.38	1422.89
1145.75	1233.59
1150.12	854.885
1154.48	876.57
1158.84	761.428
1163.2	429.486
1167.55	384.387
1171.91	307.853
1176.26	231.756
1180.61	23.959
1184.95	66.6309
1189.29	139.477
1193.63	135.518
1197.97	120.764
1202.31	12.957
1206.64	140.547
1210.97	179.139
1215.29	8.99609
1219.62	26.4961
1223.94	8.88672
1228.26	52.3125
1232.57	84.0703
1236.89	76.5195
1241.2	20.0156
1245.51	54.4668
1249.81	100.898
1254.12	211.227
1258.42	144.367
1262.72	176.022
1267.01	27.3281
1271.3	78.1602
1275.59	178.598
1279.88	91.0644
1284.17	152.869
1288.45	31.7246
1292.73	254.652
1297.01	264.672
1301.28	316.336
1305.55	293.748
1309.82	184.555
1314.09	247.41
1318.35	317.981
1322.61	405.256
1326.87	369.475
1331.13	306.99
1335.38	448.56
1339.63	165.504
1343.88	365.682
1348.12	315.738
1352.37	330.188
1356.61	295.986
1360.85	127.393
1365.08	462.072
1369.31	272.35
1373.54	503.342
1377.77	35.5195
1381.99	125.785
1386.22	330.254
1390.43	383.826
1394.65	195.582
1398.87	5.39453
1403.08	35.0723
1407.29	332.938
1411.49	132.285
1415.69	291.744
1419.89	22.2695
1424.09	381.613
1428.29	382.219
1432.48	99.7402
1436.67	347.328
1440.86	337.027
1445.04	196.857
1449.23	247.838
1453.4	326.277
1457.58	241.674
1461.76	246.045
1465.93	463.887
1470.1	335.648
1474.26	319.269
1478.43	156.072
1482.59	237.623
1486.75	178.674
1490.9	355.076
1495.06	199.662
1499.21	266.309
1503.35	348.09
1507.5	145.701
1511.64	207.574
1515.78	275.174
1519.92	463.508
1524.05	252.727
1528.18	187.01
1532.31	181.098
1536.44	341.685
1540.56	281.422
1544.69	28.1758
1548.8	244.627
1552.92	211.367
1557.03	86.2539
1561.14	315.705
1565.25	209.662
1569.36	23.4727
