Measurement: Raman, 514 nm, ccw, Raman Data Processed
Mineral: Brazilianite
Rruff sample: R050126
Ideal chemistry: NaAl_3_(PO_4_)_2_(OH)_4_
Locality: Linopolis, Minas Gerais, Brazil
Source: Carlos and Paulo Vasconcelos
Description: Pair of greenish yellow elongated crystals
Measured chemistry: Na_1.00_Al_3.00_(P_1.00_O_4_)_2_((OH)_3.80_F_0.20_)_Î£=4_
Pin_id: L00391
Orientation: Laser parallel to c* (0 0 1). Fiducial mark perpendicular to laser is parallel to a [1 0 0]
Raman shift (cm-1)	intensity
134.381	0
138.564	35.196
142.745	785.965
146.923	2711.82
151.099	3113.53
155.272	1377.69
159.444	1146.46
163.613	3981.72
167.78	8873.35
171.945	5940.43
176.108	2802.86
180.268	1049.97
184.426	531.531
188.582	617.051
192.736	920
196.887	1464.51
201.036	1675.44
205.184	718.302
209.328	294.161
213.471	843.843
217.611	1808.03
221.75	3150.49
225.886	2342.36
230.019	1933.25
234.151	2398.48
238.281	2399.77
242.408	3231.81
246.533	3728.39
250.656	1783.35
254.776	864.057
258.895	607.264
263.011	496.178
267.125	669.768
271.237	595.897
275.346	586.184
279.454	1637.52
283.559	1680.94
287.662	776.486
291.763	591.201
295.862	942.119
299.959	1157.4
304.053	1266.53
308.146	1508.45
312.236	1591.29
316.324	2024.11
320.409	2571.28
324.493	2404.42
328.574	1485.24
332.654	298.463
336.731	311.146
340.806	479.406
344.879	488.984
348.949	371.982
353.018	243.194
357.084	66.664
361.148	120.896
365.21	13.186
369.27	459.228
373.328	1223.36
377.384	1155.36
381.437	933.421
385.488	889.73
389.538	949.223
393.585	1194.83
397.63	1707.49
401.672	2381.77
405.713	2895.83
409.752	2831.39
413.788	1908.34
417.822	1072.48
421.854	491.995
425.884	302.883
429.912	253.146
433.938	581.788
437.962	1372.81
441.983	2274.23
446.003	2104.04
450.02	1495.24
454.035	1965.86
458.048	3227.88
462.059	3929.3
466.068	3920.12
470.075	3117.28
474.08	2738.72
478.082	3899.42
482.083	5788.36
486.081	8080.53
490.077	10542.9
494.072	13485.5
498.064	17317
502.054	21543.5
506.041	24924
510.027	26669.9
514.011	27520
517.993	24929.4
521.972	21350.8
525.95	19813.4
529.925	20388.2
533.898	20456.4
537.869	19097.6
541.839	15876.9
545.806	13296.9
549.771	12159.1
553.734	14057
557.694	20397.6
561.653	25967.8
565.61	23749.1
569.565	20261.4
573.517	16355.8
577.468	12170.3
581.416	10185.7
585.362	9522.06
589.307	9799.19
593.249	11837.1
597.189	18565.6
601.127	31424.8
605.064	36724.4
608.998	24794.6
612.93	17165.2
616.86	15846.4
620.787	14058
624.713	9980.15
628.637	7452.76
632.559	7195.84
636.479	7949.38
640.396	7153.39
644.312	5007.84
648.226	3592.75
652.137	3359.1
656.047	3687.07
659.954	4071.52
663.86	3902.85
667.763	2798
671.665	1927.52
675.564	1296.04
679.462	738.272
683.357	317.071
687.25	37.678
691.142	128.112
695.031	126.484
698.918	226.054
702.804	195.371
706.687	134.984
710.568	17.653
714.447	30.885
718.325	105.515
722.2	31.003
726.073	11.02
729.944	58.126
733.814	247.147
737.681	480.016
741.546	509.777
745.409	582.85
749.27	759.201
753.13	1196.2
756.987	1613.64
760.842	1850.79
764.695	2141.9
768.547	2368.98
772.396	2368.01
776.243	2162.99
780.089	1713.89
783.932	1485.72
787.773	1465.47
791.613	1843.12
795.45	2310.67
799.285	2928.11
803.119	3172.43
806.95	3333.62
810.78	3187.69
814.607	2911.61
818.433	2484.34
822.256	2119.89
826.078	1632.21
829.898	1298.3
833.715	1093.14
837.531	987.725
841.345	784.315
845.157	535.468
848.966	313.563
852.774	134.526
856.58	99.622
860.384	45.81
864.186	19.388
867.986	128.87
871.784	139.768
875.581	195.927
879.375	75.535
883.167	33.284
886.957	101.244
890.746	60.363
894.532	62.337
898.317	35.032
902.099	145.602
905.88	125.834
909.659	212.778
913.435	315.481
917.21	405.947
920.983	587.179
924.754	895.179
928.523	1040.95
932.29	1331.51
936.056	1513.84
939.819	1939
943.58	2538.01
947.34	3334.89
951.097	3856.65
954.853	4073.27
958.606	4318.81
962.358	4769.23
966.108	5755.55
969.856	7295.82
973.602	10103.1
977.346	13530.3
981.088	18347.5
984.828	26104.6
988.567	36051.8
992.303	36678.8
996.038	26955.9
999.77	20383
1003.5	17500.1
1007.23	17176.8
1010.96	19938.6
1014.68	27377.5
1018.4	36826.9
1022.13	37255.6
1025.85	30011.8
1029.56	23035.9
1033.28	19328
1036.99	17977.5
1040.7	18311.2
1044.41	18600.5
1048.12	17673.4
1051.83	16714.6
1055.53	16030.8
1059.24	15999.2
1062.94	15927.6
1066.63	14836.3
1070.33	13335
1074.03	12043.9
1077.72	10612.9
1081.41	8962.58
1085.1	7121.85
1088.79	5396.98
1092.47	3940.97
1096.16	2859.45
1099.84	2352.39
1103.52	1967.75
1107.2	1761.02
1110.87	2133.41
1114.55	3286.68
1118.22	4356.43
1121.89	4374.98
1125.56	4405.88
1129.23	4110.23
1132.89	3588.29
1136.56	3151.42
1140.22	2850
1143.88	2697.98
1147.53	2682.93
1151.19	2401.81
1154.84	1863.64
1158.5	1552.93
1162.15	1310.62
1165.8	1143.47
1169.44	1039.19
1173.09	877.97
1176.73	745.208
1180.37	605.99
1184.01	523.648
1187.65	394.538
1191.28	321.095
1194.92	201.272
1198.55	168.76
1202.18	152.731
1205.81	173.387
1209.43	187.179
1213.06	162.831
1216.68	123.274
1220.3	10.035
1223.92	26.556
1227.54	34.836
1231.15	85.462
1234.77	64.428
1238.38	9.543
1241.99	26.204
1245.6	9.351
1249.21	36.618
1252.81	46.588
1256.41	16.169
1260.01	87.201
1263.61	73.705
1267.21	65.431
1270.81	11.791
1274.4	23.65
1277.99	33.009
1281.58	2.94
1285.17	20.258
1288.76	46.78
1292.34	16.541
1295.93	9.428
1299.51	25.454
1303.09	63.002
1306.66	102.275
1310.24	89.214
1313.82	141.895
1317.39	77.338
1320.96	97.636
1324.53	65.652
1328.09	93.41
1331.66	89.959
1335.22	140.444
1338.79	152.467
1342.35	171.252
1345.9	184.891
1349.46	140.22
1353.01	110.857
1356.57	109.636
1360.12	93.264
1363.67	116.565
1367.21	176.375
1370.76	171.009
1374.3	137.357
1377.85	161.506
1381.39	221.082
1384.93	196.884
1388.46	135.955
1392	124.494
1395.53	81.109
1399.06	135.758
1402.59	83.795
1406.12	77.94
1409.65	166.636
1413.17	130.112
1416.69	102.186
1420.22	120.846
1423.74	56.812
1427.25	60.106
1430.77	58.719
1434.28	50.17
1437.8	34.59
1441.31	77.194
1444.82	128.229
1448.32	135.83
1451.83	130.772
1455.33	154.443
1458.83	94.608
1462.34	120.05
1465.83	116.026
1469.33	42.039
1472.83	68.801
1476.32	71.432
1479.81	67.124
1483.3	33.655
1486.79	92.739
1490.28	124.298
1493.76	177.367
1497.24	120.598
1500.72	80.942
1504.2	101.91
1507.68	23.286
1511.16	15.665
1514.63	13.047
1518.1	0.251
