Measurement: Raman, 514 nm, ccw, Raman Data Processed
Mineral: Brazilianite
Rruff sample: R050126
Ideal chemistry: NaAl_3_(PO_4_)_2_(OH)_4_
Locality: Linopolis, Minas Gerais, Brazil
Source: Carlos and Paulo Vasconcelos
Description: Pair of greenish yellow elongated crystals
Measured chemistry: Na_1.00_Al_3.00_(P_1.00_O_4_)_2_((OH)_3.80_F_0.20_)_Î£=4_
Pin_id: L00364
Orientation: Laser parallel to (1 0 1). Fiducial mark perpendicular to laser is parallel to b [0 1 0]
Raman shift (cm-1)	intensity
134.381	0
138.564	39.775
142.745	589.297
146.923	1990.18
151.099	2507.4
155.272	1247.46
159.444	1173.14
163.613	3358.43
167.78	8061.9
171.945	7529.71
176.108	5654.06
180.268	1794.33
184.426	513.148
188.582	582.472
192.736	831.186
196.887	1245.63
201.036	1598.11
205.184	1179.93
209.328	867.053
213.471	1030.19
217.611	1544.93
221.75	2635.47
225.886	2055.76
230.019	1660.48
234.151	2404.98
238.281	2292.32
242.408	2821.69
246.533	3357.26
250.656	1771.89
254.776	1041.78
258.895	580.808
263.011	452.928
267.125	729.115
271.237	840.236
275.346	1338.91
279.454	3786.09
283.559	3661.82
287.662	1326.12
291.763	886.007
295.862	1388.5
299.959	1724.82
304.053	1414.01
308.146	1418.02
312.236	1625.5
316.324	2560.43
320.409	2698.18
324.493	2212.32
328.574	1342.55
332.654	170.559
336.731	534.942
340.806	577.91
344.879	528.888
348.949	567.954
353.018	285.026
357.084	248.163
361.148	845.131
365.21	435.989
369.27	501.808
373.328	1195.65
377.384	1371.61
381.437	1217.85
385.488	763.626
389.538	682.932
393.585	886.695
397.63	1305.89
401.672	1782.76
405.713	2433.53
409.752	2731.39
413.788	2020.76
417.822	1262.8
421.854	776.464
425.884	632.684
429.912	354.435
433.938	466.703
437.962	956.488
441.983	1748.79
446.003	1611.61
450.02	1062.94
454.035	1299.77
458.048	2311.11
462.059	2847.96
466.068	2698.35
470.075	2135.27
474.08	2002.63
478.082	3076.4
482.083	5001.55
486.081	6731.06
490.077	9210.93
494.072	11061.1
498.064	14233.9
502.054	17704.2
506.041	20134.4
510.027	21487.7
514.011	22302.6
517.993	20334.5
521.972	17327.6
525.95	16151.1
529.925	17025.2
533.898	17589.9
537.869	16527.2
541.839	13775
545.806	11236.5
549.771	10262.2
553.734	11588.2
557.694	17203.9
561.653	22526.2
565.61	21057.9
569.565	18410.7
573.517	15061.3
577.468	11095.2
581.416	9048.84
585.362	8642.53
589.307	8926.64
593.249	10701.4
597.189	16126.8
601.127	27752.7
605.064	33059
608.998	22285.8
612.93	15512.9
616.86	14430.4
620.787	12808.2
624.713	8896.49
628.637	6585.07
632.559	6274
636.479	6903.26
640.396	6392.85
644.312	4472.75
648.226	3238.95
652.137	3046.45
656.047	3301.57
659.954	3647.13
663.86	3561.44
667.763	2454.47
671.665	1575.72
675.564	1202.48
679.462	813.477
683.357	399.686
687.25	0.098
691.142	117.312
695.031	45.747
698.918	102.471
702.804	217.421
706.687	263.428
710.568	187.096
714.447	63.143
718.325	65.46
722.2	19.844
726.073	141.43
729.944	103.103
733.814	165.396
737.681	391.127
741.546	428.823
745.409	368.466
749.27	655.413
753.13	1057.56
756.987	1512.33
760.842	1807.45
764.695	1955.07
768.547	2069.54
772.396	2151.86
776.243	2108
780.089	1814.98
783.932	1461.77
787.773	1389.39
791.613	1779.81
795.45	2408.03
799.285	2871.06
803.119	2977.88
806.95	3052.49
810.78	2828.89
814.607	2589.06
818.433	2233.98
822.256	1902.62
826.078	1321.97
829.898	1057.02
833.715	995.755
837.531	973.185
841.345	790.181
845.157	565.742
848.966	345.928
852.774	75.271
856.58	139.228
860.384	204.383
864.186	215.57
867.986	46.974
871.784	195.449
875.581	206.615
879.375	7.572
883.167	100.771
886.957	18.251
890.746	97.107
894.532	158.599
898.317	169.498
902.099	39.888
905.88	184.878
909.659	105.604
913.435	127.12
917.21	163.459
920.983	306.631
924.754	617.639
928.523	903.511
932.29	1236.32
936.056	1401.04
939.819	1622.67
943.58	2385.18
947.34	3216.62
951.097	3873.05
954.853	4275.49
958.606	4174.94
962.358	4539.38
966.108	5386.82
969.856	6994.28
973.602	9721.75
977.346	12539.2
981.088	16136.7
984.828	22664.2
988.567	31401.7
992.303	31699.3
996.038	23677
999.77	18354.8
1003.5	16230
1007.23	16037.7
1010.96	19080.4
1014.68	25993
1018.4	34678.5
1022.13	35364
1025.85	28955.1
1029.56	22483.6
1033.28	18541.1
1036.99	16945.1
1040.7	17140.6
1044.41	17287.4
1048.12	16230.7
1051.83	15683.6
1055.53	15412.7
1059.24	15883.6
1062.94	15855.6
1066.63	14627.9
1070.33	12940.5
1074.03	11253.2
1077.72	9801.44
1081.41	8248.49
1085.1	6366.26
1088.79	4663.08
1092.47	3431.06
1096.16	2525.24
1099.84	2237.32
1103.52	1893.52
1107.2	1707.72
1110.87	1826.54
1114.55	2653.19
1118.22	3510.96
1121.89	3363.19
1125.56	3622.75
1129.23	3280.41
1132.89	2823.29
1136.56	2616.76
1140.22	2359.14
1143.88	2338.27
1147.53	2617.67
1151.19	2467.59
1154.84	1977.96
1158.5	1749.97
1162.15	1606.13
1165.8	1300.91
1169.44	1159.5
1173.09	965.555
1176.73	893.893
1180.37	730.409
1184.01	688.163
1187.65	484.957
1191.28	281.661
1194.92	9.457
1198.55	56.597
1202.18	40.753
1205.81	102.237
1209.43	204.055
1213.06	337.298
1216.68	140.441
1220.3	34.88
1223.92	98.999
1227.54	102.61
1231.15	76.214
1234.77	124.207
1238.38	103.397
1241.99	186.433
1245.6	129.972
1249.21	66.538
1252.81	29.25
1256.41	103.129
1260.01	120.393
1263.61	92.468
1267.21	109.778
1270.81	254.178
1274.4	276.733
1277.99	211.696
1281.58	113.452
1285.17	43.294
1288.76	114.457
1292.34	1.927
1295.93	37.091
1299.51	172.756
1303.09	283.111
1306.66	343.011
1310.24	364.537
1313.82	147.743
1317.39	86.627
1320.96	33.276
1324.53	16.543
1328.09	12.473
1331.66	159.051
1335.22	316.273
1338.79	344.069
1342.35	388.534
1345.9	380.142
1349.46	174.139
1353.01	150.375
1356.57	124.653
1360.12	26.678
1363.67	173.012
1367.21	286.405
1370.76	249.222
1374.3	297.946
1377.85	429.541
1381.39	398.445
1384.93	294.87
1388.46	129.282
1392	90.778
1395.53	75.72
1399.06	146.479
1402.59	244.859
1406.12	264.437
1409.65	414.571
1413.17	408.098
1416.69	332.934
1420.22	302.548
1423.74	297.216
1427.25	72.205
1430.77	96.152
1434.28	6.822
1437.8	135.61
1441.31	306.475
1444.82	428.672
1448.32	503.437
1451.83	618.722
1455.33	1140.73
1458.83	403.956
1462.34	287.985
1465.83	180.566
1469.33	156.629
1472.83	98.031
1476.32	126.919
1479.81	213.025
1483.3	274.7
1486.79	329.506
1490.28	390.426
1493.76	376.418
1497.24	317.772
1500.72	368.295
1504.2	265.944
1507.68	125.874
1511.16	82.07
1514.63	0.837
