Measurement: Raman, 514 nm, ccw, Raman Data Processed
Mineral: Brazilianite
Rruff sample: R050126
Ideal chemistry: NaAl_3_(PO_4_)_2_(OH)_4_
Locality: Linopolis, Minas Gerais, Brazil
Source: Carlos and Paulo Vasconcelos
Description: Pair of greenish yellow elongated crystals
Measured chemistry: Na_1.00_Al_3.00_(P_1.00_O_4_)_2_((OH)_3.80_F_0.20_)_Î£=4_
Pin_id: L00438
Orientation: Laser parallel to -a* (-1 0 0). Fiducial mark perpendicular to laser is parallel to b [0 1 0]
Raman shift (cm-1)	intensity
134.381	0
138.564	27.952
142.745	1123.98
146.923	3487.43
151.099	4170.23
155.272	2041.5
159.444	1757.05
163.613	5521.22
167.78	12458.8
171.945	7651.25
176.108	3023.39
180.268	1323.87
184.426	971.75
188.582	1243.23
192.736	1533.46
196.887	2229.09
201.036	2441.41
205.184	727.394
209.328	67.1
213.471	1224.99
217.611	2599.73
221.75	4467.29
225.886	3261.14
230.019	2525.97
234.151	3128.14
238.281	3205.8
242.408	4599.88
246.533	5563.51
250.656	2863.45
254.776	1615.99
258.895	1103.43
263.011	933.648
267.125	939.604
271.237	755.18
275.346	176.958
279.454	70.779
283.559	142.686
287.662	482.735
291.763	823.461
295.862	1168.24
299.959	1322.51
304.053	1486.19
308.146	1904.14
312.236	1832.73
316.324	1874.69
320.409	2681.24
324.493	3141.87
328.574	2082.24
332.654	660.032
336.731	68.006
340.806	641.357
344.879	621.317
348.949	543.047
353.018	213.296
357.084	114.932
361.148	5.809
365.21	140.657
369.27	603.658
373.328	1469.49
377.384	1429.17
381.437	1206.38
385.488	1170.98
389.538	1397.87
393.585	1872.91
397.63	2436.02
401.672	3220.31
405.713	3790.88
409.752	3488.52
413.788	2242.08
417.822	1183.58
421.854	615.565
425.884	403.041
429.912	425.015
433.938	963.492
437.962	1973.41
441.983	3148.4
446.003	2943.58
450.02	2034.16
454.035	2634.31
458.048	4200.02
462.059	5029.29
466.068	4981.12
470.075	3902.41
474.08	3602.09
478.082	5089.15
482.083	7762.57
486.081	10666.3
490.077	14100.4
494.072	17914.9
498.064	22728.3
502.054	28313.7
506.041	32547.4
510.027	34398.3
514.011	35188
517.993	31780.4
521.972	27062.6
525.95	25103.4
529.925	25657.3
533.898	25577.6
537.869	23225.9
541.839	18980.6
545.806	15517.7
549.771	14226.5
553.734	16767
557.694	25331.6
561.653	32816.7
565.61	29483.1
569.565	25130.9
573.517	20721.9
577.468	15652.5
581.416	12984.4
585.362	12117.4
589.307	12361.6
593.249	14946.8
597.189	23042.9
601.127	39239.9
605.064	45997.9
608.998	30986.7
612.93	21966.2
616.86	20896.3
620.787	18407.2
624.713	12948.8
628.637	9821.06
632.559	9524
636.479	10177.6
640.396	9021.89
644.312	6256.82
648.226	4492.4
652.137	4358.63
656.047	4815.5
659.954	5253.78
663.86	4884.38
667.763	3661.31
671.665	2428.98
675.564	1611.92
679.462	912.922
683.357	249.962
687.25	122.197
691.142	171.991
695.031	202.626
698.918	215.358
702.804	317.661
706.687	158.242
710.568	6.136
714.447	193.058
718.325	70.703
722.2	112.61
726.073	33.866
729.944	95.214
733.814	232.16
737.681	418.38
741.546	536.874
745.409	579.721
749.27	900.218
753.13	1303.71
756.987	1729.4
760.842	2115.17
764.695	2380.95
768.547	2750.76
772.396	2627.59
776.243	2408.41
780.089	1967.22
783.932	1571.01
787.773	1596.76
791.613	2020.45
795.45	2634.09
799.285	3240.65
803.119	3661.12
806.95	3893.51
810.78	3649.78
814.607	3339.95
818.433	2768.96
822.256	2500.8
826.078	1913.43
829.898	1623.85
833.715	1355.02
837.531	1141.93
841.345	976.648
845.157	566.299
848.966	331.896
852.774	153.125
856.58	81.337
860.384	14.432
864.186	50.565
867.986	232.536
871.784	158.795
875.581	209.46
879.375	124.551
883.167	95.202
886.957	111.343
890.746	117.777
894.532	84.295
898.317	8.732
902.099	92.144
905.88	215.477
909.659	217.438
913.435	268.112
917.21	433.522
920.983	614.671
924.754	882.561
928.523	1135.19
932.29	1463.58
936.056	1803.71
939.819	2367.61
943.58	3068.29
947.34	3967.81
951.097	4428.16
954.853	4699.43
958.606	4962.6
962.358	5501.77
966.108	6648.88
969.856	8749.97
973.602	11961
977.346	16282
981.088	22652.9
984.828	33083.8
988.567	45804.6
992.303	45605.4
996.038	33386.3
999.77	25157.4
1003.5	21808.3
1007.23	21498.1
1010.96	25365.7
1014.68	34058.1
1018.4	44310.7
1022.13	43701.1
1025.85	34835.2
1029.56	26894.8
1033.28	22953.1
1036.99	21591.9
1040.7	22151.4
1044.41	22068.5
1048.12	20546.1
1051.83	18968.7
1055.53	17606.4
1059.24	16998.1
1062.94	16040.8
1066.63	15353.7
1070.33	14406.8
1074.03	13500.1
1077.72	12373.5
1081.41	10657.1
1085.1	8540.87
1088.79	6336.41
1092.47	4672.52
1096.16	3433.78
1099.84	2813.22
1103.52	2414.63
1107.2	2302.95
1110.87	2945.08
1114.55	4546.87
1118.22	6095.85
1121.89	6120.81
1125.56	6134.58
1129.23	5809.34
1132.89	4980
1136.56	4733.86
1140.22	4622.77
1143.88	5076.67
1147.53	6052.54
1151.19	5100.68
1154.84	3565.09
1158.5	2492.26
1162.15	1994
1165.8	1552.54
1169.44	1346.4
1173.09	1122.3
1176.73	930.49
1180.37	794.096
1184.01	660.777
1187.65	491.943
1191.28	356.358
1194.92	282.145
1198.55	237.455
1202.18	216.121
1205.81	216.92
1209.43	202.677
1213.06	158.638
1216.68	140.151
1220.3	127.056
1223.92	57.76
1227.54	20.178
1231.15	36.09
1234.77	38.204
1238.38	8.273
1241.99	6.016
1245.6	25.373
1249.21	2.393
1252.81	132.05
1256.41	72.062
1260.01	150.564
1263.61	102.606
1267.21	23.212
1270.81	39.77
1274.4	9.386
1277.99	10.257
1281.58	52.338
1285.17	57.794
1288.76	81.411
1292.34	12.43
1295.93	27.447
1299.51	10.921
1303.09	97.15
1306.66	162.809
1310.24	165.218
1313.82	129.38
1317.39	108.63
1320.96	43.182
1324.53	80.364
1328.09	42.182
1331.66	141.804
1335.22	172.968
1338.79	180.858
1342.35	176.383
1345.9	187.749
1349.46	165.663
1353.01	128.253
1356.57	153.337
1360.12	166.156
1363.67	147.053
1367.21	196.2
1370.76	235.901
1374.3	248.366
1377.85	238.148
1381.39	285.504
1384.93	152.953
1388.46	183.957
1392	154.109
1395.53	152.575
1399.06	154.498
1402.59	111.576
1406.12	157.844
1409.65	212.147
1413.17	209.95
1416.69	160.266
1420.22	91.634
1423.74	102.273
1427.25	53.067
1430.77	73.713
1434.28	54.985
1437.8	52.783
1441.31	67.915
1444.82	132.661
1448.32	107.41
1451.83	131.968
1455.33	84.398
1458.83	119.054
1462.34	79.219
1465.83	51.541
1469.33	21.741
1472.83	56.753
1476.32	74.228
1479.81	63.069
1483.3	81.763
1486.79	137.592
1490.28	146.011
1493.76	152.482
1497.24	155.108
1500.72	58.89
1504.2	82.33
1507.68	70.913
1511.16	61.953
1514.63	0.011
