Measurement: Raman, 514 nm, ccw, Raman Data Processed
Mineral: Brazilianite
Rruff sample: R050126
Ideal chemistry: NaAl_3_(PO_4_)_2_(OH)_4_
Locality: Linopolis, Minas Gerais, Brazil
Source: Carlos and Paulo Vasconcelos
Description: Pair of greenish yellow elongated crystals
Measured chemistry: Na_1.00_Al_3.00_(P_1.00_O_4_)_2_((OH)_3.80_F_0.20_)_Î£=4_
Pin_id: L00391
Orientation: Laser parallel to c* (0 0 1). Fiducial mark perpendicular to laser is parallel to a [1 0 0]
Raman shift (cm-1)	intensity
132.987	0
137.17	68.084
141.351	78.192
145.53	311.661
149.707	615.672
153.881	240.787
158.054	371.939
162.224	1061.71
166.391	3090.89
170.557	11456.7
174.72	28657.4
178.881	15951.1
183.04	3935.77
187.197	1328.14
191.351	760.645
195.504	534.984
199.654	1364.06
203.801	2535.82
207.947	4071.63
212.09	4893.29
216.232	3933.57
220.37	3629.55
224.507	3520.34
228.642	3445.94
232.774	5382.21
236.904	3670.92
241.032	1342.83
245.158	1494.8
249.282	1618.69
253.403	1554.01
257.522	1047.63
261.639	586.34
265.754	879.783
269.866	388.608
273.977	388.261
278.085	2074.89
282.191	3112.01
286.295	1607.26
290.397	596.161
294.496	467.265
298.594	600.592
302.689	727.556
306.782	573.473
310.873	1072.52
314.961	2935.15
319.048	4489.95
323.132	4914.58
327.214	4696.97
331.294	3541.05
335.372	2333.08
339.448	1419.1
343.521	1105.36
347.593	1580.06
351.662	2694.32
355.729	5697.24
359.794	10569.9
363.857	10120.1
367.917	4739.29
371.976	1671.62
376.032	803.565
380.086	1037.13
384.138	1542.37
388.188	1389.34
392.236	1153
396.282	1483.32
400.325	2516.32
404.366	4012.96
408.406	6023.25
412.443	8166.19
416.478	8820.76
420.511	7196.85
424.541	6147.91
428.57	5789.51
432.596	4093.72
436.621	2250.8
440.643	1309.75
444.663	947.734
448.681	939.8
452.697	1354.95
456.711	1209.14
460.723	767.356
464.732	668.55
468.74	1157.72
472.745	1590.81
476.748	1760.79
480.749	1979.64
484.749	2335.34
488.745	2710.88
492.74	3562.24
496.733	5300.42
500.724	7986.42
504.712	9513.22
508.699	10090.8
512.683	10759.2
516.666	11668.4
520.646	12148.3
524.624	12683.1
528.6	14550.8
532.574	17787.7
536.546	19359.4
540.516	17401.1
544.484	14339.4
548.449	13418.5
552.413	14453.5
556.374	17526.6
560.334	22960
564.291	25558
568.247	25804.6
572.2	21671.4
576.151	14587.7
580.1	10150.8
584.047	9157.07
587.992	10536.2
591.935	14091.3
595.876	21686.1
599.815	34821.1
603.752	39816.1
607.686	26741.3
611.619	16226.6
615.55	10572
619.478	7167.39
623.405	5351.82
627.329	4368.27
631.252	4101.69
635.172	4478.06
639.091	4660.37
643.007	3502.6
646.921	2296.72
650.834	1373.7
654.744	924.54
658.652	743.206
662.558	633.68
666.462	495.942
670.365	183.972
674.265	74.75
678.163	18.292
682.059	4.547
685.953	22.909
689.845	96.564
693.735	153.235
697.623	140.288
701.509	87.412
705.393	80.84
709.275	147.833
713.155	173.977
717.032	141.969
720.908	81.145
724.782	64.404
728.654	114.038
732.524	39.507
736.392	10.474
740.258	89.958
744.122	221.523
747.984	289.692
751.844	328.42
755.701	468.533
759.557	642.03
763.411	863.907
767.263	1003.16
771.113	1019.79
774.961	960.799
778.807	973.178
782.651	997.931
786.493	911.057
790.333	980.558
794.171	981.415
798.007	984.693
801.841	972.651
805.673	899.363
809.504	756.785
813.332	707.606
817.158	500.832
820.982	544.468
824.804	460.521
828.625	422.001
832.443	343.866
836.259	312.863
840.074	281.094
843.886	309.508
847.697	295.502
851.505	220.079
855.312	175.934
859.117	71.337
862.919	63.407
866.72	73.989
870.519	71.234
874.315	17.585
878.11	90.079
881.903	161.296
885.694	85.318
889.483	48.795
893.27	18.5
897.056	1.915
900.839	32.302
904.62	143.151
908.399	231.021
912.177	421.814
915.952	541.548
919.726	604.234
923.497	865.89
927.267	1121.54
931.035	1541.19
934.801	2224.86
938.565	3056.57
942.327	4275.37
946.087	5874.28
949.845	8158.37
953.601	9800.65
957.355	9203.15
961.108	8625.9
964.858	9178.88
968.607	10592.1
972.353	14035.6
976.098	16819.4
979.841	17393.5
983.582	19007.8
987.321	23602.4
991.058	25507.5
994.793	19862.7
998.526	14628.6
1002.26	13125.6
1005.99	14611.5
1009.72	19160.4
1013.44	28219.2
1017.16	41574.4
1020.89	49081.5
1024.61	44417.1
1028.33	35003.8
1032.04	27405.3
1035.76	21923
1039.47	17943.2
1043.18	15136.2
1046.89	12290.4
1050.59	9895.89
1054.3	8662.49
1058	8129.45
1061.7	8186.86
1065.4	7824.77
1069.1	6662.91
1072.8	6003.1
1076.49	5784.48
1080.18	5648.37
1083.87	5479.89
1087.56	4989.21
1091.24	4424.69
1094.93	3767.26
1098.61	3158.58
1102.29	2814.56
1105.97	2641.13
1109.65	2408.56
1113.32	2281.62
1117	2179.18
1120.67	1886.92
1124.34	1697.62
1128	1631
1131.67	1492.26
1135.33	1469.84
1139	1383.62
1142.66	1362.8
1146.32	1114.68
1149.97	961.903
1153.63	1021.08
1157.28	1147.34
1160.93	1163.12
1164.58	1247.58
1168.23	1039.36
1171.87	788.825
1175.52	504.121
1179.16	403.755
1182.8	313.768
1186.43	224.043
1190.07	203.396
1193.71	213.913
1197.34	97.831
1200.97	84.152
1204.6	6.541
1208.22	14.868
1211.85	5.92
1215.47	12.581
1219.1	44.113
1222.71	34.202
1226.33	2.622
1229.95	37.924
1233.56	47.252
1237.18	58.458
1240.79	67.472
1244.4	65.413
1248	33.121
1251.61	16.079
1255.21	27.563
1258.81	45.344
1262.41	77.259
1266.01	15.156
1269.61	87.005
1273.2	2.539
1276.8	14.276
1280.39	95.252
1283.98	89.501
1287.56	79.698
1291.15	44.745
1294.73	39.502
1298.31	6.051
1301.89	18.034
1305.47	1.364
1309.05	70.942
1312.62	119.224
1316.2	189.904
1319.77	233.295
1323.34	180.405
1326.91	95.237
1330.47	101.763
1334.04	99.948
1337.6	108.816
1341.16	138.38
1344.72	151.644
1348.27	188.52
1351.83	203.978
1355.38	184.273
1358.93	248.487
1362.48	166.759
1366.03	157.747
1369.58	157.403
1373.12	90.104
1376.67	167.714
1380.21	187.023
1383.75	192.651
1387.28	205.136
1390.82	210.254
1394.35	136.397
1397.89	117.313
1401.42	47.348
1404.94	116.426
1408.47	60.502
1412	90.589
1415.52	97.369
1419.04	122.557
1422.56	133.201
1426.08	124.114
1429.6	120.95
1433.11	155.055
1436.63	86.048
1440.14	157.004
1443.65	108.492
1447.15	90.345
1450.66	14.875
1454.16	137.535
1457.67	144.507
1461.17	145.092
1464.67	190.526
1468.16	164.968
1471.66	138.033
1475.15	67.154
1478.65	71.302
1482.14	56.284
1485.63	48.35
1489.11	23.786
1492.6	133.159
1496.08	51.061
1499.56	35.775
1503.04	122.295
1506.52	101.185
1510	100.561
1513.47	131.274
