Measurement: Raman, 514 nm, ccw, Raman Data Processed
Mineral: Brazilianite
Rruff sample: R050504
Ideal chemistry: NaAl_3_(PO_4_)_2_(OH)_4_
Locality: CÃ³rrego Frio, Minas Gerais, Brazil
Source: Marcus Origlieri
Description: Yellowish green fragment
Measured chemistry: Na_1.00_Al_3.00_(P_1.00_O_4_)_2_(OH)_4_
Pin_id: L00856
Orientation: Laser parallel to -a* (-1 0 0). Fiducial mark perpendicular to laser is parallel to b [0 1 0]
Raman shift (cm-1)	intensity
84.837	0
89.777	107.646
94.714	302.841
99.649	434.036
104.582	795.448
109.512	1002.28
114.44	953.649
119.365	343.261
124.288	298.269
129.209	257.898
134.127	19.7852
139.043	543.805
143.956	1202.64
148.867	1077.99
153.775	417.212
158.681	581.744
163.585	3272.17
168.486	7095.24
173.385	7843.57
178.282	2731.19
183.176	917.409
188.067	471.422
192.956	342.292
197.843	354.279
202.727	189.247
207.609	240.179
212.489	1006.94
217.366	2019.61
222.24	1048.51
227.112	264.227
231.982	404.492
236.849	1306.15
241.714	3316.34
246.577	6146.67
251.437	10093.8
256.294	4438.47
261.149	1340.53
266.002	1373.72
270.852	2337.86
275.7	2459.77
280.545	1048.34
285.388	302.478
290.229	201.123
295.067	289.22
299.902	193.713
304.735	813.562
309.566	2059.64
314.394	2014.86
319.22	737.193
324.043	79.667
328.864	114.251
333.682	103.95
338.498	32.7734
343.311	368.756
348.122	975.947
352.931	1754.33
357.737	2120.8
362.54	511.466
367.341	155.587
372.14	189.919
376.936	141.143
381.73	249.788
386.521	159.922
391.31	147.198
396.096	47.8525
400.88	686.24
405.661	1668.15
410.44	2569.68
415.216	2399.26
419.99	1872.23
424.761	2513.55
429.53	5332.69
434.297	10769.4
439.061	13637.7
443.822	8935.53
448.581	7000.96
453.337	8635.97
458.091	12326.6
462.843	15248.8
467.592	13592.6
472.338	7139.79
477.082	3063.88
481.824	1776.58
486.563	1787.25
491.3	2233.37
496.034	3316.18
500.765	4418.68
505.494	4781.88
510.221	5235.5
514.945	5949.45
519.666	6463.68
524.385	7687.57
529.102	9712.49
533.816	10764.9
538.527	9672.03
543.236	9289.4
547.943	10301.9
552.647	14469.6
557.348	20834.3
562.047	23326.4
566.744	20203
571.438	12799.7
576.129	7335.22
580.818	4866.48
585.504	3702.44
590.188	3694.08
594.87	4325.47
599.549	5349.54
604.225	5512.33
608.899	6400.83
613.57	6926.21
618.239	5563.35
622.905	4331.14
627.569	4690.5
632.23	5601.37
636.889	4618.74
641.545	2886.57
646.198	1807.46
650.849	1480.1
655.498	1533.5
660.144	1335.3
664.787	982.683
669.428	661.508
674.067	506.226
678.703	406.42
683.336	315.065
687.967	22.0615
692.595	175.241
697.221	238.457
701.844	151.804
706.465	70.1807
711.083	672.015
715.698	1269.11
720.311	1666.56
724.922	1445.77
729.53	1067.22
734.135	1014.18
738.738	813.856
743.338	578.692
747.936	521.674
752.531	352.557
757.124	251.219
761.714	259.711
766.302	328.757
770.887	296.34
775.469	248.924
780.049	241.537
784.626	13.6348
789.201	13.8604
793.773	35.7783
798.343	72.4873
802.91	53.3926
807.475	69.0195
812.037	169.516
816.596	22.1318
821.153	41.4756
825.707	145.859
830.259	96.8018
834.808	53.8408
839.355	6.15723
843.899	0.486328
848.441	24.3945
852.98	228.735
857.516	55.6328
862.05	148.145
866.581	42.7383
871.11	24.1201
875.636	27.0537
880.159	170.738
884.68	125.84
889.199	108.723
893.714	131.21
898.228	136.083
902.738	37.2852
907.246	33.4932
911.752	212.495
916.255	178.323
920.755	93.1152
925.253	386.506
929.748	445.54
934.241	558.351
938.731	917.678
943.218	1268.2
947.703	1797.85
952.186	2623.35
956.665	3993.3
961.142	6924.6
965.617	11987.1
970.089	18288.3
974.558	19197
979.025	15252.3
983.489	14038.4
987.951	13352.7
992.41	10383
996.866	8918.88
1001.32	9433.47
1005.77	12203.8
1010.22	19766.3
1014.67	32279.4
1019.11	39657.6
1023.55	35178.1
1027.99	28049.8
1032.42	24111.9
1036.86	22070.7
1041.29	19549.1
1045.72	15334.7
1050.14	10974.4
1054.56	8104.92
1058.98	6279.49
1063.4	5656.57
1067.82	4882.2
1072.23	4163.16
1076.64	3728.94
1081.05	3086.72
1085.45	2272.55
1089.85	1805.71
1094.25	1576.39
1098.65	1634.73
1103.04	1979.23
1107.43	3482.31
1111.82	6548.65
1116.21	8951.17
1120.59	6326.54
1124.97	4065.97
1129.35	2379.52
1133.73	1672.81
1138.1	1529.2
1142.47	2309.21
1146.84	3264.49
1151.21	2337.39
1155.57	1192.89
1159.93	529.813
1164.29	620.102
1168.64	594.725
1172.99	335.06
1177.34	102.394
1181.69	4.98633
1186.04	17.2773
1190.38	4.26074
1194.72	54.1611
1199.05	28.3525
1203.39	44.6338
1207.72	128.016
1212.05	60.1768
1216.37	2.32422
1220.7	94.9512
1225.02	60.8652
1229.34	156.685
1233.65	25.6406
1237.97	138.671
1242.28	17.9873
1246.59	24.0137
1250.89	26.8369
1255.19	40.8662
1259.49	88.1533
1263.79	67.8506
1268.09	68.4668
1272.38	257.014
1276.67	186.819
1280.95	217.815
1285.24	265.734
1289.52	130.929
1293.8	223.682
1298.08	365.944
1302.35	369.624
1306.62	316.117
1310.89	341.272
1315.15	496.178
1319.42	378.198
1323.68	404.3
1327.94	381.722
1332.19	202.537
1336.44	275.155
1340.69	145.714
1344.94	244.062
1349.19	115.983
1353.43	242.151
1357.67	232.38
1361.9	49.6562
1366.14	50.1416
1370.37	237.141
1374.6	242.433
1378.83	210.705
1383.05	156.371
1387.27	182.517
1391.49	32.498
1395.7	160.828
1399.92	169.207
1404.13	39.2344
1408.34	122.945
1412.54	117.791
1416.74	102.801
1420.94	144.5
1425.14	228.551
1429.34	169.988
1433.53	204.953
1437.72	436.547
1441.9	457.281
1446.09	636.824
1450.27	645.537
1454.45	639.926
1458.63	400.775
1462.8	476.074
1466.97	307.076
1471.14	380.338
1475.31	136.434
1479.47	194.303
1483.63	311.947
1487.79	140.984
1491.94	91.6816
1496.09	139.211
1500.24	34.9453
1504.39	131.207
1508.54	152.387
1512.68	91.457
1516.82	58.0879
1520.95	76.5762
1525.09	145.844
1529.22	197.494
1533.35	26.207
1537.47	221.762
1541.6	194.455
1545.72	225.867
1549.83	25.2031
1553.95	203.865
1558.06	236.336
1562.17	25.2949
1566.28	66.2617
1570.38	0
