Measurement: Raman, 514 nm, ccw, Raman Data Processed
Mineral: Brazilianite
Rruff sample: R050504
Ideal chemistry: NaAl_3_(PO_4_)_2_(OH)_4_
Locality: CÃ³rrego Frio, Minas Gerais, Brazil
Source: Marcus Origlieri
Description: Yellowish green fragment
Measured chemistry: Na_1.00_Al_3.00_(P_1.00_O_4_)_2_(OH)_4_
Pin_id: L00677
Orientation: Laser parallel to -c* (0 0 -1). Fiducial mark perpendicular to laser is parallel to a [1 0 0]
Raman shift (cm-1)	intensity
72.477	0
77.423	950.988
82.367	6547.33
87.308	16439.1
92.246	10779
97.182	3833.29
102.116	13082
107.047	14339.2
111.976	6821.77
116.903	5069.1
121.827	600.988
126.749	314.777
131.668	319.507
136.585	398.8
141.5	2703.04
146.412	6500.9
151.321	4160.24
156.229	3284.17
161.134	8711.86
166.036	15929.3
170.936	7346.9
175.834	3266.4
180.729	2274.47
185.622	2578.9
190.512	3319.39
195.4	4516.92
200.286	3357.47
205.169	1455.3
210.049	2581.54
214.928	4844.62
219.803	6424.55
224.677	4327.65
229.548	4703.63
234.416	5357.8
239.282	6353.19
244.146	6040.35
249.007	2619.6
253.866	1843.16
258.722	1404.86
263.576	1427.15
268.427	1402.65
273.276	945.679
278.123	1298.6
282.967	931.871
287.809	1111.36
292.648	1338.73
297.485	1771.81
302.319	2236.66
307.151	2462.31
311.98	2825.81
316.807	3801.2
321.631	3801.5
326.454	1903.77
331.273	195.022
336.09	497.311
340.905	554.169
345.717	321.978
350.527	148.537
355.334	46.6748
360.139	147.349
364.941	510.373
369.741	1786.27
374.538	1448.67
379.333	1337.43
384.126	1444.51
388.916	1857.91
393.703	2866.67
398.488	4098.88
403.271	4335.52
408.051	3058.94
412.828	1333.8
417.603	231.439
422.376	165.854
427.146	188.52
431.914	1157.11
436.679	2684.26
441.442	3091.02
446.202	2078.63
450.96	2882.18
455.715	4259.54
460.467	4704.65
465.218	3992.85
469.965	3065.29
474.711	5163.42
479.454	8832.91
484.194	12755.5
488.932	17104
493.667	24072.1
498.4	32421.6
503.13	36872.8
507.858	38155.6
512.583	36939.2
517.306	30440.5
522.026	25973.7
526.744	27156.6
531.459	28567.3
536.172	23592.7
540.882	16556
545.59	14109.7
550.295	18825.5
554.998	31952.2
559.698	35384.1
564.396	30403.7
569.091	24406.9
573.784	16520.1
578.474	12369
583.162	11859.4
587.847	15291.6
592.529	24532.1
597.209	44778.4
601.887	49306.4
606.562	30529.2
611.235	22926.5
615.905	21276.2
620.572	15398.5
625.237	11200.6
629.9	10932.2
634.56	11099
639.217	8067.5
643.872	5303.28
648.524	4635.12
653.174	5028.19
657.821	5661.35
662.466	4746.56
667.108	3044.76
671.748	1594.9
676.385	771.928
681.02	273.784
685.652	124.605
690.281	391.106
694.908	355.188
699.533	211.81
704.155	103.141
708.774	34.8384
713.391	79.3125
718.005	24.0581
722.617	13.1426
727.226	13.2866
731.833	90.2153
736.437	279.976
741.039	578.664
745.638	1016.76
750.234	1485.09
754.828	2181.82
759.419	2911.66
764.008	3384.52
768.595	3572.54
773.178	2953.72
777.759	2543.17
782.338	2233.88
786.914	2621.73
791.488	3315.68
796.059	4505.69
800.627	5409.74
805.193	5514.8
809.756	5006.84
814.317	4098.84
818.875	3310.78
823.431	2623.25
827.984	2067.23
832.534	1641.35
837.082	1212.78
841.627	849.055
846.17	595.307
850.71	393.159
855.248	306.022
859.783	192.362
864.316	7.92285
868.846	93.0654
873.373	247.826
877.898	128.931
882.42	132.313
886.94	144.705
891.457	131.015
895.971	72.9849
900.483	44.1289
904.993	97.0156
909.5	132.892
914.004	241.91
918.505	460.188
923.004	579.767
927.501	935.676
931.995	1397.95
936.486	2103.62
940.975	2970.73
945.461	3816.31
949.945	4367.4
954.426	4719.06
958.904	5278.45
963.38	6466.23
967.853	8614.91
972.324	12244.5
976.792	18662.9
981.258	30418.6
985.72	50492.5
990.181	54006.6
994.639	33601.9
999.094	22837.5
1003.55	20584.7
1008	23654.2
1012.44	34782.2
1016.89	47759.6
1021.33	44525.5
1025.77	32681.8
1030.21	24962.8
1034.64	22663.1
1039.07	22896
1043.5	23041.3
1047.93	21147.8
1052.35	20123.4
1056.78	20208.6
1061.19	19728.8
1065.61	17902
1070.02	15423.1
1074.43	13742.5
1078.84	12034.4
1083.25	9531.78
1087.65	6353.28
1092.05	3782.1
1096.45	2255.17
1100.85	1676.62
1105.24	1631.33
1109.63	2365.03
1114.02	4571.92
1118.4	5927.47
1122.78	5555.46
1127.16	4897.91
1131.54	4170.66
1135.92	4037.42
1140.29	3651.67
1144.66	3190.16
1149.02	2850.8
1153.39	1946.18
1157.75	1493.3
1162.11	1210.04
1166.46	954.622
1170.82	718.962
1175.17	539.243
1179.52	435.22
1183.86	237.621
1188.21	124.256
1192.55	11.8896
1196.89	149.135
1201.22	110.422
1205.55	76.9385
1209.88	87.3496
1214.21	57.21
1218.54	72.2515
1222.86	44.4639
1227.18	34.415
1231.5	14.9751
1235.81	103.989
1240.12	117.086
1244.43	67.4023
1248.74	45.4228
1253.04	65.1748
1257.34	115.984
1261.64	32.1929
1265.94	43.1943
1270.23	30.8418
1274.52	20.3916
1278.81	39.6323
1283.1	163.49
1287.38	67.1226
1291.66	101.701
1295.94	163.901
1300.21	152.464
1304.48	200.942
1308.75	247.39
1313.02	383.218
1317.29	311.512
1321.55	308.122
1325.81	321.319
1330.06	189.96
1334.32	245.386
1338.57	227.328
1342.82	232.07
1347.06	202.622
1351.31	267.793
1355.55	208.615
1359.79	260.113
1364.02	240.423
1368.26	248.147
1372.49	118.715
1376.71	198.761
1380.94	136.068
1385.16	191.94
1389.38	160.657
1393.6	164.868
1397.81	96.3813
1402.02	27.1108
1406.23	14.7847
1410.44	94.6392
1414.64	104.521
1418.85	92.8589
1423.04	76.2368
1427.24	79.6807
1431.43	107.427
1435.62	144.787
1439.81	236.897
1444	176.658
1448.18	252.205
1452.36	291.812
1456.54	170.24
1460.71	242.335
1464.89	126.914
1469.06	118.483
1473.22	119.582
1477.39	192.079
1481.55	216.3
1485.71	152.821
1489.86	95.145
1494.02	54.6138
1498.17	79.8106
1502.32	18.9155
1506.46	96.2788
1510.61	179.431
1514.75	67.3984
1518.88	47.0317
1523.02	139.986
1527.15	116.69
1531.28	174.94
1535.41	37.9815
1539.53	86.5205
1543.66	119.709
1547.78	104.159
1551.89	97.417
1556.01	129.242
1560.12	69.6504
1564.23	82.7529
1568.33	86.7593
