Measurement: Raman, 514 nm, ccw, Raman Data Processed
Mineral: Brazilianite
Rruff sample: R050126
Ideal chemistry: NaAl_3_(PO_4_)_2_(OH)_4_
Locality: Linopolis, Minas Gerais, Brazil
Source: Carlos and Paulo Vasconcelos
Description: Pair of greenish yellow elongated crystals
Measured chemistry: Na_1.00_Al_3.00_(P_1.00_O_4_)_2_((OH)_3.80_F_0.20_)_Î£=4_
Pin_id: L00537
Orientation: Laser parallel to b* (0 1 0). Fiducial mark perpendicular to laser is parallel to c [0 0 1]
Raman shift (cm-1)	intensity
134.381	0
138.564	9.87
142.745	201.379
146.923	553.219
151.099	600.022
155.272	175.234
159.444	143.707
163.613	471.589
167.78	2151.66
171.945	9864.48
176.108	16464.2
180.268	3968.57
184.426	1123.77
188.582	463.989
192.736	197.299
196.887	91.39
201.036	149.831
205.184	34.436
209.328	129.631
213.471	471.963
217.611	1085.65
221.75	1954.45
225.886	1064.91
230.019	974.367
234.151	1183.02
238.281	493.815
242.408	585.697
246.533	1819.6
250.656	3143.5
254.776	6712.02
258.895	3364.81
263.011	737.262
267.125	254.528
271.237	276.225
275.346	725.519
279.454	1325.77
283.559	862.943
287.662	289.992
291.763	19.043
295.862	81.173
299.959	162.188
304.053	130.313
308.146	37.053
312.236	587.688
316.324	1185.49
320.409	763.317
324.493	530.064
328.574	298.649
332.654	309.046
336.731	437.21
340.806	493.137
344.879	530.657
348.949	569.767
353.018	819.541
357.084	1469.04
361.148	1981.3
365.21	1066.3
369.27	270.735
373.328	106.888
377.384	62.896
381.437	118.251
385.488	69.607
389.538	73.422
393.585	50.375
397.63	7.522
401.672	182.399
405.713	548.313
409.752	1214.27
413.788	2114.27
417.822	2581.31
421.854	2251.06
425.884	2113.2
429.912	2144.62
433.938	2777.73
437.962	4760.52
441.983	7867.43
446.003	6672.48
450.02	4062.64
454.035	3625.36
458.048	4519.55
462.059	5822.15
466.068	7571.78
470.075	8439.67
474.08	6207.02
478.082	2912.21
482.083	1558.69
486.081	1198.42
490.077	1481.39
494.072	1879.66
498.064	2533.24
502.054	3468.16
506.041	4211.41
510.027	4550.92
514.011	4701.62
517.993	5087.47
521.972	5332.4
525.95	5944.44
529.925	6778.57
533.898	7548.31
537.869	7937.47
541.839	7743.92
545.806	7363.56
549.771	7170.98
553.734	8081.91
557.694	11223.6
561.653	16082.7
565.61	18262.1
569.565	17211.8
573.517	12911.6
577.468	8201.57
581.416	5485.71
585.362	4042.03
589.307	3165.53
593.249	3113.22
597.189	3888.08
601.127	5979.12
605.064	6922.34
608.998	5800.73
612.93	6553.65
616.86	8092.63
620.787	7210.32
624.713	4557.98
628.637	3665.72
632.559	4255.31
636.479	5489.14
640.396	5143.77
644.312	3419.21
648.226	2095.18
652.137	1446.24
656.047	1178.86
659.954	954.968
663.86	803.855
667.763	670.781
671.665	627.186
675.564	562.011
679.462	480.853
683.357	272.707
687.25	136.571
691.142	154.445
695.031	49.391
698.918	27.012
702.804	60.698
706.687	74.34
710.568	49.122
714.447	227.72
718.325	636.32
722.2	914.04
726.073	899.585
729.944	747.097
733.814	620.572
737.681	566.006
741.546	405.395
745.409	265.735
749.27	242.022
753.13	229.254
756.987	138.425
760.842	81.533
764.695	1.573
768.547	35.523
772.396	28.385
776.243	55.101
780.089	36.622
783.932	58.083
787.773	71.141
791.613	66.66
795.45	68.721
799.285	33.272
803.119	83.322
806.95	90.982
810.78	77.277
814.607	64.193
818.433	11.709
822.256	12.374
826.078	74.162
829.898	66.79
833.715	166.313
837.531	191.734
841.345	83.054
845.157	43.275
848.966	10.153
852.774	28.657
856.58	52.455
860.384	82.708
864.186	80.025
867.986	59.652
871.784	0.812
875.581	49.623
879.375	98.972
883.167	79.237
886.957	85.42
890.746	62.525
894.532	41.554
898.317	91.511
902.099	123.401
905.88	179.224
909.659	204.988
913.435	186.701
917.21	238.039
920.983	297.666
924.754	447.299
928.523	540.797
932.29	722.95
936.056	766.833
939.819	912.807
943.58	1275.77
947.34	1751.66
951.097	2217.3
954.853	2673.24
958.606	3078.97
962.358	3960.71
966.108	5868.14
969.856	9232.5
973.602	12525.2
977.346	11856.7
981.088	9374.29
984.828	8082.06
988.567	8319.99
992.303	7968.06
996.038	6878.28
999.77	6588.25
1003.5	7201.79
1007.23	8941.53
1010.96	13120.5
1014.68	21809.7
1018.4	33419
1022.13	37768.3
1025.85	32077.9
1029.56	25037.6
1033.28	20477.5
1036.99	18207.5
1040.7	17387.7
1044.41	16248.1
1048.12	12498.6
1051.83	9259.33
1055.53	6695.16
1059.24	5322
1062.94	4918.71
1066.63	5159.05
1070.33	5515.68
1074.03	4673.28
1077.72	3405.14
1081.41	2494.14
1085.1	1865.24
1088.79	1474.36
1092.47	1235.66
1096.16	1018.74
1099.84	1022.5
1103.52	922.994
1107.2	1026.98
1110.87	1463.21
1114.55	2380.08
1118.22	2786.41
1121.89	1979.07
1125.56	1429.89
1129.23	898.637
1132.89	553.062
1136.56	331.092
1140.22	281.96
1143.88	290.999
1147.53	365.736
1151.19	383.5
1154.84	360.238
1158.5	335.742
1162.15	270.447
1165.8	171.132
1169.44	187.024
1173.09	142.527
1176.73	179.768
1180.37	136.16
1184.01	132.577
1187.65	83.04
1191.28	6.742
1194.92	7.987
1198.55	3.358
1202.18	20.597
1205.81	6.164
1209.43	12.461
1213.06	75.239
1216.68	67.994
1220.3	3.256
1223.92	6.512
1227.54	40.632
1231.15	12.433
1234.77	10.062
1238.38	25.39
1241.99	1.637
1245.6	47.562
1249.21	28.801
1252.81	61.112
1256.41	43.666
1260.01	62.127
1263.61	1.768
1267.21	35.792
1270.81	43.752
1274.4	39.318
1277.99	46.088
1281.58	12.256
1285.17	0.298
1288.76	10.524
1292.34	65.248
1295.93	51.985
1299.51	60.454
1303.09	54.761
1306.66	117.904
1310.24	62.848
1313.82	58.62
1317.39	64.223
1320.96	49.686
1324.53	55.009
1328.09	57.216
1331.66	59.237
1335.22	99.056
1338.79	132.584
1342.35	133.125
1345.9	115.137
1349.46	81.877
1353.01	56.443
1356.57	64.019
1360.12	29.661
1363.67	78.408
1367.21	103.097
1370.76	74.838
1374.3	119.24
1377.85	152.348
1381.39	116.664
1384.93	121.424
1388.46	27.034
1392	57.901
1395.53	66.366
1399.06	53.015
1402.59	76.358
1406.12	60.856
1409.65	84.123
1413.17	124.325
1416.69	38.383
1420.22	87.465
1423.74	93.44
1427.25	24.124
1430.77	58.012
1434.28	36.823
1437.8	88.858
1441.31	89.314
1444.82	185.143
1448.32	124.022
1451.83	158.402
1455.33	151.571
1458.83	108.941
1462.34	146.886
1465.83	72.33
1469.33	46.573
1472.83	38.983
1476.32	72.086
1479.81	65.563
1483.3	83.461
1486.79	98.886
1490.28	135.687
1493.76	120.487
1497.24	132.603
1500.72	50.427
1504.2	106.651
1507.68	36.353
1511.16	47.925
1514.63	45.814
1518.1	0.225
