Measurement: Raman, 514 nm, ccw, Raman Data Processed
Mineral: Brazilianite
Rruff sample: R050319
Ideal chemistry: NaAl_3_(PO_4_)_2_(OH)_4_
Locality: Minas Gerais, Brazil
Source: American Museum of Natural History
Description: Pale green fragment
Measured chemistry: Na_1.00_Al_3.00_(PO_4_)_2_(OH)_4_
Pin_id: M00315
Orientation: Laser parallel to c* (0 0 1). Fiducial mark perpendicular to laser is parallel to a [1 0 0]
Raman shift (cm-1)	intensity
82.367	0
87.308	1730.15
92.246	1078.55
97.182	2064.81
102.116	4618.72
107.047	4389.86
111.976	2586.18
116.903	1897.21
121.827	26.1484
126.749	179.2
131.668	137.155
136.585	290.099
141.5	1573.14
146.412	2542.53
151.321	1648.78
156.229	1946.95
161.134	3265.03
166.036	4868.1
170.936	4680.87
175.834	2798.49
180.729	1324.63
185.622	975.977
190.512	1247.42
195.4	1225.06
200.286	1174.93
205.169	940.082
210.049	1387.64
214.928	2610.52
219.803	3172.07
224.677	2048.3
229.548	2031.2
234.416	2309.74
239.282	3090.16
244.146	3392.39
249.007	3829.52
253.866	5373.93
258.722	1486.97
263.576	1246.54
268.427	1646
273.276	2098.41
278.123	1832.09
282.967	1000.94
287.809	1569.48
292.648	2396.79
297.485	2180.6
302.319	1252.76
307.151	1965.31
311.98	3672.23
316.807	2835.51
321.631	1228.88
326.454	385.32
331.273	136.178
336.09	363.894
340.905	431.428
345.717	201.151
350.527	418.644
355.334	1553.97
360.139	1573.73
364.941	458.74
369.741	475.651
374.538	392.481
379.333	90.1953
384.126	233.89
388.916	153.965
393.703	252.861
398.488	1043.55
403.271	2066.21
408.051	2503.51
412.828	2375.66
417.603	1306.39
422.376	792.573
427.146	1172.89
431.914	3503.63
436.679	7021.4
441.442	7133.17
446.202	4338.95
450.96	4155.77
455.715	5464.65
460.467	6887.6
465.218	8012.65
469.965	6225.81
474.711	4525.49
479.454	5184.89
484.194	6631.61
488.932	7143.6
493.667	8396.27
498.4	10995.9
503.13	12395
507.858	12916.5
512.583	12209.3
517.306	11205.9
522.026	11280.8
526.744	13204
531.459	14818.9
536.172	13785.1
540.882	11044.8
545.59	10133
550.295	12841
554.998	17594.5
559.698	20244.2
564.396	19319.6
569.091	15483
573.784	10410.6
578.474	8611.76
583.162	7758.18
587.847	8422.98
592.529	12014.1
597.209	16692.7
601.887	15599.8
606.562	10089.1
611.235	8639.64
615.905	7362.88
620.572	5638.37
625.237	4834.43
629.9	5102.27
634.56	5111.65
639.217	3326.6
643.872	2369.08
648.524	2311.04
653.174	2867.43
657.821	3131.19
662.466	2778.29
667.108	1660.16
671.748	915.131
676.385	426.537
681.02	65.082
685.652	285.523
690.281	188.803
694.908	292.838
699.533	263.523
704.155	227.059
708.774	0.179688
713.391	154.611
718.005	503.662
722.617	401.643
727.226	499.894
731.833	437.623
736.437	390.06
741.039	555.83
745.638	422.777
750.234	781.797
754.828	837.701
759.419	1143.42
764.008	1397.02
768.595	1347.13
773.178	1283.23
777.759	1356.32
782.338	1237.4
786.914	1284.45
791.488	1794.44
796.059	1956.36
800.627	2022.21
805.193	1976.96
809.756	1728.6
814.317	1464.1
818.875	1059.47
823.431	890.695
827.984	656.504
832.534	564.156
837.082	263.09
841.627	92.9531
846.17	28.0312
850.71	55.9141
855.248	34.5566
859.783	17.5449
864.316	33.6895
868.846	85.3789
873.373	81.7754
877.898	27.5
882.42	84.9434
886.94	17.0312
891.457	74.0449
895.971	43.4277
900.483	193.449
904.993	126.189
909.5	193.422
914.004	195.062
918.505	305.25
923.004	322.025
927.501	345.416
931.995	788.482
936.486	1179.26
940.975	1826.77
945.461	2341.06
949.945	2920.27
954.426	3632.4
958.904	4956.84
963.38	7747.32
967.853	12036
972.324	16103.1
976.792	17724
981.258	20591.6
985.72	26430.1
990.181	24559.1
994.639	16128.7
999.094	12483
1003.55	12123.7
1008	15367.3
1012.44	22825.5
1016.89	32120.7
1021.33	32299.7
1025.77	26394.9
1030.21	22043.3
1034.64	19884.5
1039.07	18681.8
1043.5	16331.4
1047.93	13374.7
1052.35	11124.8
1056.78	9438.66
1061.19	8558.34
1065.61	8089.01
1070.02	7983.51
1074.43	7402.67
1078.84	7348.1
1083.25	6243.12
1087.65	4829.03
1092.05	3620.1
1096.45	2816.11
1100.85	2921.7
1105.24	3514.19
1109.63	5994.71
1114.02	10734.3
1118.4	11657.5
1122.78	8834.11
1127.16	7060.59
1131.54	5635.47
1135.92	4782.74
1140.29	5582.93
1144.66	8676.97
1149.02	9580.23
1153.39	4997.47
1157.75	2430.59
1162.11	1876.77
1166.46	1425.2
1170.82	1251.95
1175.17	670.234
1179.52	496.832
1183.86	188.818
1188.21	160.166
1192.55	62.502
1196.89	5.87695
1201.22	36.4668
1205.55	22.9004
1209.88	176.045
1214.21	210.734
1218.54	28.3789
1222.86	103.721
1227.18	148.322
1231.5	167.477
1235.81	59.0254
1240.12	27.6211
1244.43	36.668
1248.74	145.609
1253.04	195.932
1257.34	8.13867
1261.64	172.346
1265.94	92.7031
1270.23	0.320313
1274.52	16.7383
1278.81	41.9316
1283.1	238.856
1287.38	121.408
1291.66	85.5391
1295.94	176.445
1300.21	32.002
1304.48	322.144
1308.75	200.982
1313.02	397.572
1317.29	138.769
1321.55	338.434
1325.81	480.68
1330.06	210.465
1334.32	265.836
1338.57	231.916
1342.82	362.766
1347.06	329.65
1351.31	61.4883
1355.55	480.434
1359.79	270.926
1364.02	383.529
1368.26	498.822
1372.49	341.232
1376.71	209.42
1380.94	290.697
1385.16	246.443
1389.38	9.99609
1393.6	128.332
1397.81	180.514
1402.02	194.193
1406.23	359.717
1410.44	127.348
1414.64	172.24
1418.85	65.5352
1423.04	342.477
1427.24	151.764
1431.43	203.807
1435.62	85.5606
1439.81	246.594
1444	55.3262
1448.18	351.678
1452.36	386.428
1456.54	115.439
1460.71	96.0273
1464.89	332.594
1469.06	180.873
1473.22	375.598
1477.39	163.279
1481.55	174.527
1485.71	142.594
1489.86	167.422
1494.02	185.863
1498.17	388.432
1502.32	221.264
1506.46	193.08
1510.61	257.293
1514.75	215.867
1518.88	279.312
1523.02	132.295
1527.15	98.0664
1531.28	184.156
1535.41	89.582
1539.53	193.402
1543.66	203.932
1547.78	169.953
1551.89	90.0156
1556.01	148.727
1560.12	148.039
1564.23	17.4902
1568.33	226.31
