Measurement: Raman, 514 nm, ccw, Raman Data Processed
Mineral: Brazilianite
Rruff sample: R050126
Ideal chemistry: NaAl_3_(PO_4_)_2_(OH)_4_
Locality: Linopolis, Minas Gerais, Brazil
Source: Carlos and Paulo Vasconcelos
Description: Pair of greenish yellow elongated crystals
Measured chemistry: Na_1.00_Al_3.00_(P_1.00_O_4_)_2_((OH)_3.80_F_0.20_)_Î£=4_
Pin_id: L00364
Orientation: Laser parallel to (1 0 1). Fiducial mark perpendicular to laser is parallel to b [0 1 0]
Raman shift (cm-1)	intensity
134.381	0
138.564	19.726
142.745	138.738
146.923	702.775
151.099	782.676
155.272	362.207
159.444	489.556
163.613	1807.19
167.78	5302.75
171.945	13269.7
176.108	20713.5
180.268	7335.06
184.426	1771.17
188.582	623.823
192.736	438.083
196.887	518.593
201.036	1063.32
205.184	1733.13
209.328	2798.43
213.471	2645.07
217.611	2232.18
221.75	2476.46
225.886	1961.26
230.019	2506.87
234.151	3108.97
238.281	2039.73
242.408	1210
246.533	1444.04
250.656	1365.31
254.776	1601.62
258.895	569.909
263.011	319.79
267.125	81.026
271.237	345.219
275.346	1242.44
279.454	4071.64
283.559	4099.74
287.662	1224.68
291.763	527.752
295.862	1199.94
299.959	1702.49
304.053	1029.53
308.146	577.032
312.236	848.918
316.324	2259.55
320.409	2418.52
324.493	1546.54
328.574	1045.46
332.654	339.129
336.731	265.787
340.806	430.664
344.879	259.716
348.949	11.214
353.018	819.472
357.084	2209.07
361.148	3952.05
365.21	2818
369.27	1070.26
373.328	613.124
377.384	850.594
381.437	1083.81
385.488	563.02
389.538	39.259
393.585	116.534
397.63	418.825
401.672	948.312
405.713	1827.02
409.752	3172.38
413.788	3871.59
417.822	3782.61
421.854	2926.49
425.884	2570.02
429.912	2269.49
433.938	1675.5
437.962	1327.17
441.983	1475.45
446.003	1282.36
450.02	1101.9
454.035	1195.05
458.048	1340.8
462.059	1218.15
466.068	1141.16
470.075	720.803
474.08	756.027
478.082	1579.81
482.083	2778.13
486.081	3510.97
490.077	4318.31
494.072	5670.15
498.064	7476.66
502.054	9329.65
506.041	10561.7
510.027	11087
514.011	11741.3
517.993	11386.2
521.972	10521.5
525.95	10937.2
529.925	12473.5
533.898	13770.3
537.869	13912.4
541.839	12096.1
545.806	10773.6
549.771	10520.1
553.734	11701.3
557.694	15982.7
561.653	20748
565.61	21534.3
569.565	20098.3
573.517	15647.9
577.468	10574.9
581.416	7997.04
585.362	7357.52
589.307	7504.43
593.249	9159.61
597.189	14304.9
601.127	23220.4
605.064	25116.1
608.998	16611.9
612.93	12007.9
616.86	10454
620.787	8390.12
624.713	5816.38
628.637	4719.71
632.559	4719.1
636.479	5595.53
640.396	5402
644.312	3908.49
648.226	2492.97
652.137	1904.45
656.047	1782.02
659.954	1889.1
663.86	1767.73
667.763	1129.73
671.665	682.7
675.564	444.582
679.462	463.366
683.357	358.042
687.25	32.857
691.142	0.637
695.031	119.457
698.918	62.145
702.804	56.41
706.687	235.276
710.568	267.833
714.447	123.56
718.325	65.562
722.2	95.242
726.073	25.113
729.944	68.957
733.814	66.865
737.681	309.469
741.546	303.494
745.409	261.698
749.27	325.848
753.13	454.672
756.987	916.461
760.842	1132.87
764.695	1267.9
768.547	1178.55
772.396	1114.81
776.243	1182.67
780.089	1246.16
783.932	1163.25
787.773	1004.95
791.613	1115.26
795.45	1334.18
799.285	1642.71
803.119	1719.86
806.95	1553.62
810.78	1189.99
814.607	1037.98
818.433	850.58
822.256	951.784
826.078	768.594
829.898	529.015
833.715	304.051
837.531	371.706
841.345	486.981
845.157	434.356
848.966	305.604
852.774	3.137
856.58	40.828
860.384	150.671
864.186	116.036
867.986	178.409
871.784	28.742
875.581	191.649
879.375	166.736
883.167	15.156
886.957	182.968
890.746	142.257
894.532	97.92
898.317	120.868
902.099	53.832
905.88	173.135
909.659	258.057
913.435	354.935
917.21	299.749
920.983	280.531
924.754	504.278
928.523	925.01
932.29	1406.78
936.056	1645.6
939.819	1915.5
943.58	2829.45
947.34	3949.42
951.097	5138.45
954.853	5937.62
958.606	5646.99
962.358	5686.57
966.108	6496.32
969.856	8716.27
973.602	11616.4
977.346	13256.7
981.088	13877.2
984.828	16048
988.567	20088.8
992.303	20449.7
996.038	16130.6
999.77	13540.5
1003.5	13791.4
1007.23	14915.6
1010.96	19813.2
1014.68	29185.2
1018.4	41976.1
1022.13	45039.4
1025.85	37902.7
1029.56	29192.3
1033.28	23541.2
1036.99	19856
1040.7	18135.4
1044.41	16638.4
1048.12	14700.5
1051.83	13258.3
1055.53	12346.4
1059.24	12824.3
1062.94	12684.5
1066.63	11706.7
1070.33	9738.07
1074.03	8158.88
1077.72	6685.53
1081.41	5372.06
1085.1	4093.51
1088.79	3077.59
1092.47	2320.98
1096.16	1838.1
1099.84	1756.39
1103.52	1579.39
1107.2	1373.46
1110.87	1257.23
1114.55	1225.19
1118.22	1430.1
1121.89	1410.68
1125.56	1645.91
1129.23	1811.78
1132.89	1651.71
1136.56	1526.79
1140.22	1482.79
1143.88	1612.98
1147.53	2276.78
1151.19	2217.63
1154.84	1936.2
1158.5	1878.35
1162.15	1918.06
1165.8	1680.36
1169.44	1409.68
1173.09	1051.9
1176.73	789.337
1180.37	743.543
1184.01	713.706
1187.65	677.465
1191.28	479.888
1194.92	175.886
1198.55	76.339
1202.18	187.791
1205.81	7.167
1209.43	149.845
1213.06	350.945
1216.68	452.002
1220.3	324.27
1223.92	143.84
1227.54	44.605
1231.15	160.368
1234.77	23.067
1238.38	103.5
1241.99	270.202
1245.6	362.066
1249.21	308.445
1252.81	148.819
1256.41	45.243
1260.01	137.719
1263.61	139.839
1267.21	29.984
1270.81	198.45
1274.4	343.755
1277.99	385.895
1281.58	372.944
1285.17	174.592
1288.76	57.552
1292.34	60.757
1295.93	30.991
1299.51	51.354
1303.09	219.105
1306.66	419.501
1310.24	581.518
1313.82	467.161
1317.39	382.515
1320.96	177.559
1324.53	28.421
1328.09	43.083
1331.66	41.875
1335.22	144.486
1338.79	373.757
1342.35	560.25
1345.9	563.48
1349.46	435.202
1353.01	254.104
1356.57	108.931
1360.12	39.704
1363.67	138.315
1367.21	192.417
1370.76	329.654
1374.3	358.722
1377.85	609.042
1381.39	675.334
1384.93	593.403
1388.46	369.37
1392	151.914
1395.53	62.359
1399.06	53.802
1402.59	30.988
1406.12	193.926
1409.65	382.993
1413.17	671.364
1416.69	623.581
1420.22	517.676
1423.74	463.711
1427.25	219.636
1430.77	110.245
1434.28	9.86
1437.8	31.035
1441.31	142.607
1444.82	427.782
1448.32	517.301
1451.83	821.497
1455.33	806.781
1458.83	736.697
1462.34	623.385
1465.83	363.659
1469.33	206.936
1472.83	80.362
1476.32	125.914
1479.81	166.708
1483.3	146.027
1486.79	335.348
1490.28	552.722
1493.76	710.542
1497.24	740.397
1500.72	660.761
1504.2	553.288
1507.68	376.023
1511.16	249.634
1514.63	0.349
