Measurement: Raman, 514 nm, ccw, Raman Data Processed
Mineral: Brazilianite
Rruff sample: R050504
Ideal chemistry: NaAl_3_(PO_4_)_2_(OH)_4_
Locality: CÃ³rrego Frio, Minas Gerais, Brazil
Source: Marcus Origlieri
Description: Yellowish green fragment
Measured chemistry: Na_1.00_Al_3.00_(P_1.00_O_4_)_2_(OH)_4_
Pin_id: L00583
Orientation: Laser parallel to b* (0 1 0). Fiducial mark perpendicular to laser is parallel to c [0 0 1]
Raman shift (cm-1)	intensity
77.423	0
82.367	906.794
87.308	1624.4
92.246	813.949
97.182	86.9863
102.116	478.815
107.047	751.977
111.976	766.51
116.903	622.818
121.827	13.9656
126.749	77.0798
131.668	27.0889
136.585	26.5088
141.5	502.16
146.412	1105.06
151.321	794.806
156.229	860.227
161.134	2688
166.036	8401.88
170.936	21009.7
175.834	11973.5
180.729	3003.03
185.622	1416.54
190.512	1155.32
195.4	1266.21
200.286	1443.48
205.169	1622.04
210.049	2259.69
214.928	2603.28
219.803	2707.9
224.677	2136.89
229.548	2264.16
234.416	1430.2
239.282	1580.44
244.146	3894.57
249.007	6546.53
253.866	7005.13
258.722	2024.01
263.576	472.275
268.427	772.958
273.276	1764.09
278.123	1657.32
282.967	761.382
287.809	52.2056
292.648	313.529
297.485	296.697
302.319	53.3472
307.151	573.357
311.98	1561.08
316.807	1229.86
321.631	685.732
326.454	527.745
331.273	572.249
336.09	617.5
340.905	592.935
345.717	812.852
350.527	1642.27
355.334	2626.2
360.139	2105.68
364.941	738.71
369.741	141.33
374.538	82.5991
379.333	129.799
384.126	109.233
388.916	221.891
393.703	67.0566
398.488	571.382
403.271	1496.35
408.051	2573.22
412.828	3661.41
417.603	3202.39
422.376	2808.95
427.146	3345.75
431.914	5450.13
436.679	9093.37
441.442	9163.94
446.202	5690.97
450.96	5150.88
455.715	6928.81
460.467	9300.73
465.218	11124.6
469.965	7831.55
474.711	3136.49
479.454	1150.5
484.194	1012.26
488.932	1494.89
493.667	2879.27
498.4	4424.77
503.13	5348.39
507.858	5498.12
512.583	6189.97
517.306	6826.74
522.026	7229.69
526.744	9088.92
531.459	10762
536.172	10761.9
540.882	9813.81
545.59	9877.52
550.295	12653.3
554.998	19113.3
559.698	24668.9
564.396	25348.7
569.091	19279.8
573.784	11142
578.474	6680.47
583.162	4915.73
587.847	4616.49
592.529	6188.69
597.209	9418.71
601.887	10384.6
606.562	9138.15
611.235	10204.4
615.905	9566.17
620.572	6126.56
625.237	5082.46
629.9	5835.87
634.56	6602.49
639.217	5063
643.872	2938.66
648.524	1839.65
653.174	1163.95
657.821	1042.65
662.466	838.017
667.108	556.954
671.748	311.365
676.385	86.5825
681.02	56.4575
685.652	94.6934
690.281	203.57
694.908	275.61
699.533	225.041
704.155	65.3354
708.774	337.327
713.391	828.558
718.005	1550.31
722.617	1742.34
727.226	1540.67
731.833	1613
736.437	1181.05
741.039	1079.25
745.638	1041.59
750.234	1003.17
754.828	827.967
759.419	853.962
764.008	747.137
768.595	744.475
773.178	740.961
777.759	585.58
782.338	573.32
786.914	586.17
791.488	425.12
796.059	374.603
800.627	279.274
805.193	286.435
809.756	209.578
814.317	180.602
818.875	206.583
823.431	46.4966
827.984	120.582
832.534	5.80811
837.082	172.383
841.627	164.926
846.17	103.136
850.71	40.5518
855.248	105.656
859.783	31.3208
864.316	4.875
868.846	55.0586
873.373	53.4556
877.898	65.2192
882.42	114.344
886.94	191.995
891.457	218.2
895.971	298.988
900.483	379.39
904.993	517.433
909.5	464.151
914.004	634.574
918.505	799.733
923.004	964.662
927.501	1122.4
931.995	1346.98
936.486	1803.34
940.975	2308.76
945.461	3125.32
949.945	3910.08
954.426	4472.65
958.904	5874.05
963.38	8870.3
967.853	14160
972.324	18458.7
976.792	16687.3
981.258	13572.7
985.72	13447.9
990.181	12637.5
994.639	9735.79
999.094	8985
1003.55	11083.1
1008	17365.4
1012.44	30910.9
1016.89	47305.4
1021.33	49778.6
1025.77	39348.4
1030.21	30574
1034.64	26243.3
1039.07	23190.3
1043.5	19443.1
1047.93	14226.6
1052.35	10023.9
1056.78	7450.03
1061.19	6741.44
1065.61	7049.96
1070.02	7331.7
1074.43	5720.75
1078.84	4152.12
1083.25	3217.09
1087.65	2298.01
1092.05	1941.9
1096.45	1661.75
1100.85	1536.6
1105.24	1905.74
1109.63	3089.87
1114.02	5374.35
1118.4	5375.22
1122.78	3370.33
1127.16	2077.68
1131.54	1417.75
1135.92	1055.96
1140.29	794.72
1144.66	716.12
1149.02	974.028
1153.39	823.393
1157.75	666.216
1162.11	639.536
1166.46	583.236
1170.82	550.359
1175.17	375.783
1179.52	236.569
1183.86	213.605
1188.21	6.83984
1192.55	10.2275
1196.89	106.732
1201.22	65.7402
1205.55	16.2456
1209.88	71.8872
1214.21	74.9453
1218.54	89.46
1222.86	130.501
1227.18	53.1841
1231.5	45.8003
1235.81	45.3765
1240.12	108.713
1244.43	137.816
1248.74	140.846
1253.04	13.0029
1257.34	51.8784
1261.64	143.917
1265.94	288.453
1270.23	232.346
1274.52	312.527
1278.81	507.947
1283.1	468.602
1287.38	556.818
1291.66	553.248
1295.94	657.743
1300.21	780.514
1304.48	724.777
1308.75	779.627
1313.02	811.907
1317.29	730.455
1321.55	790.276
1325.81	766.679
1330.06	674.212
1334.32	748.801
1338.57	598.849
1342.82	619.906
1347.06	505.654
1351.31	506.302
1355.55	368.028
1359.79	320.004
1364.02	382.839
1368.26	268.336
1372.49	273.976
1376.71	85.1387
1380.94	171.914
1385.16	54.5459
1389.38	129.284
1393.6	54.5903
1397.81	54.4438
1402.02	64.7529
1406.23	76.5454
1410.44	89.834
1414.64	42.6475
1418.85	10.0083
1423.04	52.977
1427.24	145.575
1431.43	41.9853
1435.62	136.147
1439.81	185.69
1444	176.593
1448.18	303.72
1452.36	339.711
1456.54	363.174
1460.71	501.755
1464.89	400.759
1469.06	387.058
1473.22	441.625
1477.39	354.373
1481.55	502.339
1485.71	571.38
1489.86	483.684
1494.02	428.51
1498.17	495.093
1502.32	446.203
1506.46	346.874
1510.61	495.66
1514.75	270.82
1518.88	392.652
1523.02	354.114
1527.15	389.119
1531.28	261.978
1535.41	297.265
1539.53	340.068
1543.66	252.369
1547.78	195.358
1551.89	140.437
1556.01	24.3857
1560.12	132.825
1564.23	44.2529
1568.33	3.64453
