Measurement: Raman, 514 nm, ccw, Raman Data Processed
Mineral: Brazilianite
Rruff sample: R050126
Ideal chemistry: NaAl_3_(PO_4_)_2_(OH)_4_
Locality: Linopolis, Minas Gerais, Brazil
Source: Carlos and Paulo Vasconcelos
Description: Pair of greenish yellow elongated crystals
Measured chemistry: Na_1.00_Al_3.00_(P_1.00_O_4_)_2_((OH)_3.80_F_0.20_)_Î£=4_
Pin_id: L00391
Orientation: Laser parallel to c* (0 0 1). Fiducial mark perpendicular to laser is parallel to a [1 0 0]
Raman shift (cm-1)	intensity
134.381	0
138.564	28.156
142.745	506.545
146.923	1724.35
151.099	2023.61
155.272	910.601
159.444	794.456
163.613	2654.35
167.78	6108.27
171.945	5516.9
176.108	4735.39
180.268	1648.06
184.426	451.083
188.582	369.203
192.736	422.967
196.887	910.202
201.036	1223.15
205.184	920.133
209.328	992.366
213.471	1076.38
217.611	1237.62
221.75	2150.33
225.886	1585.16
230.019	1382.59
234.151	1976.84
238.281	1600.22
242.408	1987.81
246.533	2017.5
250.656	971.566
254.776	369.233
258.895	160.703
263.011	63.953
267.125	305.982
271.237	599.719
275.346	1425.89
279.454	3862.45
283.559	3692.36
287.662	1356.69
291.763	520.486
295.862	681.765
299.959	928.648
304.053	928.121
308.146	988.435
312.236	1410.06
316.324	2611.32
320.409	2981.78
324.493	2064.17
328.574	1210.28
332.654	228.921
336.731	300.085
340.806	329.321
344.879	486.166
348.949	505.891
353.018	179.492
357.084	281.378
361.148	835.122
365.21	489.702
369.27	325.282
373.328	618.913
377.384	637.673
381.437	665.729
385.488	400.27
389.538	403.322
393.585	562.833
397.63	907.791
401.672	1574.09
405.713	2314.53
409.752	2663.33
413.788	2201.53
417.822	1459.19
421.854	920.29
425.884	638.725
429.912	350.701
433.938	423.789
437.962	699.957
441.983	1230.23
446.003	1072.94
450.02	762.083
454.035	1118.65
458.048	1863.65
462.059	2337.06
466.068	2275.92
470.075	1888.21
474.08	1710.87
478.082	2476.88
482.083	3792.22
486.081	5257.89
490.077	6979.87
494.072	8920.16
498.064	11516.6
502.054	14536.9
506.041	16615.7
510.027	17945.9
514.011	18591.1
517.993	17023.5
521.972	14716.3
525.95	14089.6
529.925	15103.2
533.898	15667.5
537.869	15051.9
541.839	12987.1
545.806	10667.7
549.771	9846.06
553.734	11152.4
557.694	15517.8
561.653	19287.7
565.61	17877.5
569.565	15407.2
573.517	12309.4
577.468	9119.93
581.416	7541.14
585.362	7203.01
589.307	7855.5
593.249	9758.48
597.189	15151.9
601.127	24835.7
605.064	28139.8
608.998	18644.2
612.93	12669
616.86	11344.1
620.787	9709.44
624.713	6885.12
628.637	5260.08
632.559	4977.32
636.479	5506.83
640.396	5013.59
644.312	3510.61
648.226	2596.87
652.137	2451.37
656.047	2714.24
659.954	2894.03
663.86	2743.02
667.763	2042.41
671.665	1429.84
675.564	888.623
679.462	518.583
683.357	194.706
687.25	15.981
691.142	71.61
695.031	69.251
698.918	154.216
702.804	171.447
706.687	132.531
710.568	103.834
714.447	52.304
718.325	42.637
722.2	85.748
726.073	19.257
729.944	100.766
733.814	213.847
737.681	325.168
741.546	388.623
745.409	476.599
749.27	695.724
753.13	928.982
756.987	1317.13
760.842	1540.05
764.695	1782.82
768.547	1942.42
772.396	1934.85
776.243	1767.1
780.089	1567.17
783.932	1379.05
787.773	1453.74
791.613	1800.22
795.45	2163.5
799.285	2553.57
803.119	2686.43
806.95	2741.07
810.78	2498.49
814.607	2266.67
818.433	1923.62
822.256	1621.3
826.078	1262.7
829.898	1016.81
833.715	842.64
837.531	710.177
841.345	607.422
845.157	409.668
848.966	269.351
852.774	124.911
856.58	111.599
860.384	29.469
864.186	42.731
867.986	68.433
871.784	143.321
875.581	156.389
879.375	63.171
883.167	26.514
886.957	31.865
890.746	67.998
894.532	48.892
898.317	43.364
902.099	89.719
905.88	125.518
909.659	183.097
913.435	236.479
917.21	327.669
920.983	451.673
924.754	705.495
928.523	838.143
932.29	1098.62
936.056	1284.95
939.819	1706.13
943.58	2284.18
947.34	3010.12
951.097	3618
954.853	3916.87
958.606	4077.73
962.358	4454.57
966.108	5292.4
969.856	6693.22
973.602	8869.06
977.346	11441.9
981.088	14724.7
984.828	20047.5
988.567	27220.4
992.303	27543.3
996.038	20406.1
999.77	15379.1
1003.5	13521.5
1007.23	13443.9
1010.96	16067.9
1014.68	22101.3
1018.4	30123.8
1022.13	30788.3
1025.85	25043.8
1029.56	19224.2
1033.28	16082
1036.99	14670
1040.7	14778
1044.41	14673.3
1048.12	13940.3
1051.83	13452.4
1055.53	13266.8
1059.24	13932.1
1062.94	14097.6
1066.63	13043.2
1070.33	11319
1074.03	9825.03
1077.72	8661.13
1081.41	7317.69
1085.1	5883.22
1088.79	4539.6
1092.47	3402
1096.16	2616.37
1099.84	2166.14
1103.52	1819.79
1107.2	1714.78
1110.87	1901.43
1114.55	2699.9
1118.22	3426.17
1121.89	3387.36
1125.56	3387.42
1129.23	3160.34
1132.89	2676.14
1136.56	2435.7
1140.22	2188.05
1143.88	2101.24
1147.53	2165.1
1151.19	1892.83
1154.84	1559.71
1158.5	1400.53
1162.15	1234.07
1165.8	1150.59
1169.44	1068.89
1173.09	828.008
1176.73	669.09
1180.37	582.698
1184.01	475.923
1187.65	380.282
1191.28	228.01
1194.92	183.91
1198.55	162.531
1202.18	122.414
1205.81	129.111
1209.43	140.745
1213.06	75.627
1216.68	86.482
1220.3	59.274
1223.92	25.56
1227.54	31.686
1231.15	18.562
1234.77	30.099
1238.38	14.645
1241.99	28.268
1245.6	17.381
1249.21	31.856
1252.81	40.648
1256.41	49.745
1260.01	83.224
1263.61	91.787
1267.21	20.554
1270.81	41.129
1274.4	4.646
1277.99	27.923
1281.58	11.379
1285.17	63.41
1288.76	23.654
1292.34	1.864
1295.93	41.481
1299.51	26.574
1303.09	85.394
1306.66	118.007
1310.24	116.389
1313.82	95.563
1317.39	64.549
1320.96	50.352
1324.53	55.973
1328.09	62.395
1331.66	86.596
1335.22	89.573
1338.79	163.329
1342.35	113.023
1345.9	204.429
1349.46	146.581
1353.01	100.536
1356.57	105.354
1360.12	44.053
1363.67	90.524
1367.21	149.406
1370.76	165.277
1374.3	151.004
1377.85	163.941
1381.39	153.377
1384.93	143.867
1388.46	105.601
1392	77.994
1395.53	80.257
1399.06	94.107
1402.59	29.454
1406.12	94.362
1409.65	110.597
1413.17	147.306
1416.69	101.128
1420.22	105.371
1423.74	70.614
1427.25	24.301
1430.77	9.616
1434.28	32.225
1437.8	47.581
1441.31	152.401
1444.82	143.601
1448.32	119.156
1451.83	137.314
1455.33	140.443
1458.83	140.674
1462.34	94.687
1465.83	62.41
1469.33	50.82
1472.83	40.125
1476.32	60.453
1479.81	58.284
1483.3	24.654
1486.79	66.438
1490.28	66.321
1493.76	99.407
1497.24	113.209
1500.72	77.171
1504.2	96.69
1507.68	89.384
1511.16	33.36
1514.63	0.055
