Measurement: Raman, 514 nm, ccw, Raman Data Processed
Mineral: Brazilianite
Rruff sample: R050319
Ideal chemistry: NaAl_3_(PO_4_)_2_(OH)_4_
Locality: Minas Gerais, Brazil
Source: American Museum of Natural History
Description: Pale green fragment
Measured chemistry: Na_1.00_Al_3.00_(PO_4_)_2_(OH)_4_
Pin_id: M00315
Orientation: Laser parallel to c* (0 0 1). Fiducial mark perpendicular to laser is parallel to a [1 0 0]
Raman shift (cm-1)	intensity
79.895	0
84.837	3341.84
89.777	5411.73
94.714	2605.83
99.649	4055.95
104.582	10307.5
109.512	5920.8
114.44	4165.24
119.365	994.348
124.288	169.407
129.209	451.12
134.127	139.212
139.043	1439.06
143.956	2940.71
148.867	3364.29
153.775	2557.07
158.681	4842.22
163.585	8301.29
168.486	6606.24
173.385	3237.99
178.282	1944.72
183.176	1544.51
188.067	2004.78
192.956	2442.65
197.843	2378.04
202.727	1557.93
207.609	1324.57
212.489	2844.53
217.366	3876.52
222.24	3666.35
227.112	3099.71
231.982	3757.54
236.849	4060.65
241.714	4267.64
246.577	2756.33
251.437	1653.32
256.294	1142.28
261.149	1177.22
266.002	942.974
270.852	811.795
275.7	775.264
280.545	597.251
285.388	923.143
290.229	1323.02
295.067	1923.36
299.902	1680.73
304.735	1479.15
309.566	2002.64
314.394	2840.18
319.22	2749.82
324.043	1566.6
328.864	388.644
333.682	214.157
338.498	434.949
343.311	521.499
348.122	376.016
352.931	160.215
357.737	15.6143
362.54	258.522
367.341	732.716
372.14	809.606
376.936	841.025
381.73	684.658
386.521	792.985
391.31	1239.59
396.096	1967.06
400.88	2676.15
405.661	2528.18
410.44	1690.73
415.216	930.695
419.99	101.254
424.761	70.7666
429.53	576.073
434.297	1643.67
439.061	2614
443.822	2183.11
448.581	1888.03
453.337	2518.72
458.091	3249.25
462.843	3116.55
467.592	2921.66
472.338	3369.61
477.082	5353.81
481.824	8053
486.563	10940.6
491.3	14010.9
496.034	18729.5
500.765	22677.2
505.494	24241.8
510.221	23995.9
514.945	21589.4
519.666	18375.3
524.385	18149.7
529.102	19398.5
533.816	18131.8
538.527	14245.4
543.236	11300.8
547.943	12801.3
552.647	18573.9
557.348	23784
562.047	21679.7
566.744	18621.1
571.438	13675.7
576.129	10281.7
580.818	9407.07
585.504	10412.9
590.188	15044.5
594.87	24907.2
599.549	32063.3
604.225	24729.1
608.899	16244.9
613.57	14148.5
618.239	11303.8
622.905	8242.2
627.569	7283.06
632.23	7153.1
636.889	5865.72
641.545	4023.8
646.198	3175.7
650.849	3074.29
655.498	3582.54
660.144	3526.38
664.787	2545.79
669.428	1514.72
674.067	713.111
678.703	155.927
683.336	257.905
687.967	270.389
692.595	164.156
697.221	160.106
701.844	95.2441
706.465	90.7432
711.083	108.037
715.698	162.265
720.311	147.131
724.922	61.585
729.53	85.2568
734.135	192.717
738.738	323.58
743.338	512.821
747.936	839.227
752.531	1157.48
757.124	1583.07
761.714	2072.14
766.302	2226.42
770.887	2103.3
775.469	1981.31
780.049	1748.85
784.626	1776.11
789.201	2121.48
793.773	2794.95
798.343	3488.49
802.91	3602.09
807.475	3461.73
812.037	2765.4
816.596	2251.09
821.153	1890.87
825.707	1357.36
830.259	1069.82
834.808	918.56
839.355	539.407
843.899	361.598
848.441	183.712
852.98	169.156
857.516	101.379
862.05	125.34
866.581	26.9043
871.11	1.56836
875.636	35.6816
880.159	151.135
884.68	85.1309
889.199	59.5391
893.714	112.397
898.228	22.8223
902.738	5.12109
907.246	102.963
911.752	57.1953
916.255	232.82
920.755	327.904
925.253	542.481
929.748	679.582
934.241	1068.24
938.731	1738.49
943.218	2398.41
947.703	3001.05
952.186	3492.41
956.665	3823.63
961.142	4526.54
965.617	6332.91
970.089	8995.22
974.558	12636.4
979.025	18633.9
983.489	29546.9
987.951	37124.6
992.41	28245
996.866	17974.7
1001.32	14347.9
1005.77	15278.8
1010.22	20365.7
1014.67	29744.3
1019.11	34105.2
1023.55	28485.7
1027.99	21526
1032.42	18128
1036.86	17059.6
1041.29	16964.2
1045.72	15585.1
1050.14	13593.9
1054.56	12501.4
1058.98	12078.5
1063.4	11141.5
1067.82	10449.9
1072.23	9545.97
1076.64	9195.42
1081.05	7633.81
1085.45	5851.94
1089.85	3780.03
1094.25	2497.85
1098.65	1861.18
1103.04	1933.6
1107.43	2433.54
1111.82	4071.43
1116.21	6117.83
1120.59	6316.15
1124.97	5893.06
1129.35	5248.59
1133.73	4652.21
1138.1	4747.74
1142.47	5748.88
1146.84	7456.96
1151.21	5838.38
1155.57	3084.91
1159.93	1984.87
1164.29	1444.96
1168.64	1148.58
1172.99	929.221
1177.34	540.883
1181.69	285.92
1186.04	117.301
1190.38	91.0019
1194.72	83.9981
1199.05	112.272
1203.39	86.8731
1207.72	126.475
1212.05	65.7832
1216.37	0.035156
1220.7	192.039
1225.02	15.2168
1229.34	181.619
1233.65	98.8438
1237.97	10.2539
1242.28	74.3496
1246.59	125.297
1250.89	49.291
1255.19	38.1211
1259.49	59.4062
1263.79	58.4004
1268.09	36.7734
1272.38	45.8242
1276.67	117.564
1280.95	59.2344
1285.24	137.791
1289.52	191.953
1293.8	174.148
1298.08	88.9707
1302.35	185.51
1306.62	193.723
1310.89	327.711
1315.15	391.303
1319.42	315.842
1323.68	538.43
1327.94	264.008
1332.19	280.174
1336.44	232.307
1340.69	352.81
1344.94	423.531
1349.19	152.084
1353.43	287.469
1357.67	26.0684
1361.9	216.32
1366.14	106.6
1370.37	167.424
1374.6	324.301
1378.83	294.356
1383.05	163.545
1387.27	362.315
1391.49	180.215
1395.7	71.0859
1399.92	267.529
1404.13	338.268
1408.34	325.764
1412.54	107.893
1416.74	111.547
1420.94	165.633
1425.14	108.953
1429.34	180.383
1433.53	238.484
1437.72	151.799
1441.9	253.426
1446.09	388.082
1450.27	249.762
1454.45	263.641
1458.63	326.084
1462.8	195.914
1466.97	394.418
1471.14	262.873
1475.31	255.514
1479.47	120.779
1483.63	218.389
1487.79	253.949
1491.94	266.406
1496.09	75.1387
1500.24	207.174
1504.39	309.043
1508.54	34.666
1512.68	36.1797
1516.82	142.977
1520.95	319.172
1525.09	201.291
1529.22	47.9863
1533.35	269.93
1537.47	285.654
1541.6	96.4531
1545.72	256.41
1549.83	90.3887
1553.95	288.785
1558.06	91.4121
1562.17	46.748
1566.28	87.3887
1570.38	0
