Measurement: Raman, 514 nm, ccw, Raman Data Processed
Mineral: Brazilianite
Rruff sample: R050126
Ideal chemistry: NaAl_3_(PO_4_)_2_(OH)_4_
Locality: Linopolis, Minas Gerais, Brazil
Source: Carlos and Paulo Vasconcelos
Description: Pair of greenish yellow elongated crystals
Measured chemistry: Na_1.00_Al_3.00_(P_1.00_O_4_)_2_((OH)_3.80_F_0.20_)_Î£=4_
Pin_id: L00537
Orientation: Laser parallel to b* (0 1 0). Fiducial mark perpendicular to laser is parallel to c [0 0 1]
Raman shift (cm-1)	intensity
134.381	0
138.564	4.676
142.745	223.19
146.923	390.635
151.099	497.476
155.272	161.107
159.444	67.328
163.613	352.916
167.78	1641.73
171.945	7452.27
176.108	12185.5
180.268	2804.97
184.426	660.662
188.582	279.079
192.736	15.689
196.887	23.734
201.036	101.813
205.184	101.262
209.328	355.635
213.471	700.072
217.611	918.266
221.75	1390.97
225.886	668.329
230.019	789.994
234.151	1213.02
238.281	385.059
242.408	332.405
246.533	1165.47
250.656	1888.19
254.776	4404.44
258.895	2156.38
263.011	276.649
267.125	113.879
271.237	164.742
275.346	694.55
279.454	1067.41
283.559	780.008
287.662	356.488
291.763	64.925
295.862	85.666
299.959	106.349
304.053	145.74
308.146	12.711
312.236	477.848
316.324	995.597
320.409	701.864
324.493	475.703
328.574	421.058
332.654	214.482
336.731	238.458
340.806	283.181
344.879	230.528
348.949	301.497
353.018	538.147
357.084	1269.34
361.148	1688.1
365.21	1011.78
369.27	290.288
373.328	125.538
377.384	14.236
381.437	93.076
385.488	28.633
389.538	3.439
393.585	44.147
397.63	47.154
401.672	243.48
405.713	654.38
409.752	1330.79
413.788	1805.25
417.822	2034.76
421.854	1764.05
425.884	1663.93
429.912	1703.16
433.938	1962.85
437.962	3424.77
441.983	5699.81
446.003	4992.94
450.02	3203.18
454.035	3003.59
458.048	3680.24
462.059	4385.17
466.068	5559.69
470.075	6311.77
474.08	4821.95
478.082	2335.81
482.083	1188.83
486.081	852.985
490.077	982.287
494.072	1338.72
498.064	1720.39
502.054	2440.31
506.041	3097.36
510.027	3366.79
514.011	3341.4
517.993	3606.13
521.972	3878.01
525.95	4430.02
529.925	5013.13
533.898	5608.81
537.869	5840.19
541.839	5648.86
545.806	5326
549.771	5159.27
553.734	5621.76
557.694	7961.55
561.653	11394.5
565.61	12927.6
569.565	12110.8
573.517	9094.11
577.468	5890.53
581.416	4002.07
585.362	3015.71
589.307	2698.49
593.249	2950.42
597.189	4113.46
601.127	6319.6
605.064	6560.83
608.998	4757.3
612.93	4824.72
616.86	5622
620.787	4847.37
624.713	3079.66
628.637	2476.93
632.559	2847.02
636.479	3738.05
640.396	3575.07
644.312	2443.31
648.226	1589.59
652.137	1312.12
656.047	1288.65
659.954	1250.28
663.86	1161.52
667.763	993.316
671.665	708.899
675.564	625.403
679.462	454.743
683.357	234.044
687.25	107.302
691.142	28.519
695.031	0.739
698.918	48.947
702.804	70.774
706.687	90.92
710.568	68.295
714.447	177.786
718.325	375.902
722.2	564.221
726.073	554.865
729.944	504.055
733.814	440.005
737.681	388.451
741.546	297.373
745.409	175.246
749.27	173.157
753.13	148.673
756.987	138.193
760.842	54.605
764.695	64.905
768.547	21.091
772.396	71.149
776.243	84.07
780.089	18.159
783.932	39.687
787.773	17.565
791.613	20.792
795.45	48.561
799.285	12.569
803.119	31.807
806.95	33.945
810.78	58.883
814.607	35.705
818.433	21.072
822.256	5.118
826.078	33.006
829.898	127.726
833.715	211.314
837.531	268.771
841.345	183.1
845.157	94.303
848.966	47.302
852.774	58.458
856.58	52.094
860.384	109.362
864.186	87.212
867.986	5.294
871.784	22.934
875.581	1.297
879.375	43.422
883.167	64.434
886.957	61.345
890.746	31.156
894.532	1.114
898.317	4.46
902.099	40.12
905.88	131.652
909.659	151.13
913.435	144.527
917.21	158.787
920.983	269.944
924.754	332.778
928.523	459.8
932.29	572.98
936.056	655.583
939.819	827.243
943.58	1195.42
947.34	1703.62
951.097	2234.23
954.853	2799.87
958.606	2734.97
962.358	3326.72
966.108	4608.5
969.856	7175.24
973.602	9729.25
977.346	9442.98
981.088	7779.9
984.828	7254.94
988.567	7914.11
992.303	7591.4
996.038	6411.82
999.77	5742.39
1003.5	5901.18
1007.23	7004.23
1010.96	10020.6
1014.68	16079.3
1018.4	24666.4
1022.13	27713.8
1025.85	23582.9
1029.56	18130.7
1033.28	14920.1
1036.99	13258.7
1040.7	12557.9
1044.41	11327.6
1048.12	9047.37
1051.83	6748.73
1055.53	5043.36
1059.24	4105.71
1062.94	3918.41
1066.63	4410.26
1070.33	4888.04
1074.03	4510.93
1077.72	3491.37
1081.41	2721.7
1085.1	2213.01
1088.79	1844.66
1092.47	1601.29
1096.16	1438.8
1099.84	1315.29
1103.52	1276.95
1107.2	1367.51
1110.87	1944.42
1114.55	3210.91
1118.22	3767.61
1121.89	2765.6
1125.56	1920.53
1129.23	1197.73
1132.89	748.43
1136.56	518.389
1140.22	399.666
1143.88	329.828
1147.53	418.761
1151.19	430.105
1154.84	394.216
1158.5	306.782
1162.15	284.388
1165.8	225.172
1169.44	99.176
1173.09	113.401
1176.73	147.569
1180.37	139.157
1184.01	162.917
1187.65	88.206
1191.28	13.583
1194.92	9.823
1198.55	50.056
1202.18	3.726
1205.81	55.574
1209.43	47.519
1213.06	48.651
1216.68	69.102
1220.3	57.021
1223.92	6.002
1227.54	17.76
1231.15	25.473
1234.77	26.205
1238.38	51.763
1241.99	6.267
1245.6	26.692
1249.21	37.917
1252.81	16.688
1256.41	42.958
1260.01	50.956
1263.61	30.274
1267.21	14.777
1270.81	29.51
1274.4	16.804
1277.99	20.882
1281.58	7.24
1285.17	10.557
1288.76	51.763
1292.34	11.224
1295.93	3.017
1299.51	70.03
1303.09	57.876
1306.66	58.53
1310.24	89.033
1313.82	45.399
1317.39	31.61
1320.96	11.66
1324.53	59.562
1328.09	28.327
1331.66	71.948
1335.22	56.42
1338.79	102.74
1342.35	111.122
1345.9	74.104
1349.46	24.992
1353.01	41.539
1356.57	29.334
1360.12	26.779
1363.67	70.745
1367.21	108.852
1370.76	96.382
1374.3	114.143
1377.85	100.844
1381.39	114.405
1384.93	116.086
1388.46	57.925
1392	50.86
1395.53	15.314
1399.06	57.656
1402.59	78.85
1406.12	89.137
1409.65	112.68
1413.17	124.872
1416.69	98.099
1420.22	62.26
1423.74	43.475
1427.25	33.903
1430.77	23.162
1434.28	38.543
1437.8	64.719
1441.31	121.697
1444.82	165.998
1448.32	133.022
1451.83	186.987
1455.33	127.199
1458.83	111.144
1462.34	57.758
1465.83	75.758
1469.33	53.195
1472.83	85.421
1476.32	91.345
1479.81	89.097
1483.3	73.062
1486.79	84.196
1490.28	91.619
1493.76	147.223
1497.24	85.157
1500.72	38.335
1504.2	46.258
1507.68	44.054
1511.16	0.078
1514.63	0.197
