Measurement: Raman, 514 nm, ccw, Raman Data Processed
Mineral: Brazilianite
Rruff sample: R050504
Ideal chemistry: NaAl_3_(PO_4_)_2_(OH)_4_
Locality: CÃ³rrego Frio, Minas Gerais, Brazil
Source: Marcus Origlieri
Description: Yellowish green fragment
Measured chemistry: Na_1.00_Al_3.00_(P_1.00_O_4_)_2_(OH)_4_
Pin_id: L00583
Orientation: Laser parallel to b* (0 1 0). Fiducial mark perpendicular to laser is parallel to c [0 0 1]
Raman shift (cm-1)	intensity
72.477	0
77.423	1967.55
82.367	8866.61
87.308	13456
92.246	9874.86
97.182	9537.99
102.116	19672.8
107.047	14147.3
111.976	3100.08
116.903	1614.76
121.827	31.2129
126.749	326.149
131.668	417.888
136.585	6.96631
141.5	809.065
146.412	1672.17
151.321	1316.9
156.229	802.798
161.134	2238.38
166.036	6255.09
170.936	16027.3
175.834	8909.79
180.729	1534.36
185.622	301.918
190.512	483.701
195.4	1048.07
200.286	1950.53
205.169	2170.06
210.049	2235.75
214.928	2282.37
219.803	2642.32
224.677	1861.72
229.548	2549.05
234.416	1635.94
239.282	1722.1
244.146	2815.58
249.007	3130.18
253.866	3613.29
258.722	376.792
263.576	12.6113
268.427	1106.53
273.276	1694.64
278.123	2221.34
282.967	3572.98
287.809	2249.91
292.648	358.092
297.485	46.6025
302.319	499.549
307.151	2692.59
311.98	6305.4
316.807	6580.21
321.631	6692.73
326.454	5090.18
331.273	3730.47
336.09	2629.37
340.905	2699.2
345.717	4291.84
350.527	9156.31
355.334	17224.6
360.139	16790.6
364.941	7642.45
369.741	2348.32
374.538	173.056
379.333	167.125
384.126	246.107
388.916	541.208
393.703	31.1348
398.488	1711.6
403.271	3821.47
408.051	6708.03
412.828	8061.38
417.603	6418.44
422.376	5605.23
427.146	4693.3
431.914	3624.32
436.679	4632.67
441.442	3721.8
446.202	1106.71
450.96	583.804
455.715	586.695
460.467	791.342
465.218	1579.72
469.965	1424.8
474.711	198.537
479.454	51.1318
484.194	508.661
488.932	1967.01
493.667	4472.88
498.4	7801.24
503.13	10076
507.858	10603.3
512.583	11751.9
517.306	13413
522.026	15916.8
526.744	20880.9
531.459	24248.8
536.172	22864.1
540.882	17732.2
545.59	15037.5
550.295	17023.8
554.998	24779.2
559.698	30962.4
564.396	30723.2
569.091	24421.7
573.784	15844.9
578.474	12155.8
583.162	13043.1
587.847	18466.2
592.529	29578.2
597.209	41566
601.887	33726.6
606.562	17683.3
611.235	10224.1
615.905	7229.84
620.572	5711.55
625.237	5200.95
629.9	5495.26
634.56	5507.31
639.217	4796.05
643.872	4286.41
648.524	4690.03
653.174	5805.73
657.821	7061.4
662.466	6298.66
667.108	4129.97
671.748	1945.83
676.385	916.858
681.02	368.393
685.652	58.1528
690.281	203.398
694.908	195.753
699.533	230.319
704.155	97.562
708.774	17.7578
713.391	38.9688
718.005	239.023
722.617	296.742
727.226	406.435
731.833	383.481
736.437	560.093
741.039	446.914
745.638	476.043
750.234	568.782
754.828	938.844
759.419	689.268
764.008	753.056
768.595	818.156
773.178	785.57
777.759	576.299
782.338	501.905
786.914	441.714
791.488	226.342
796.059	227.126
800.627	220.944
805.193	13.7134
809.756	162.115
814.317	78.208
818.875	2.87891
823.431	13.8481
827.984	120.56
832.534	8.37354
837.082	116.29
841.627	66.7212
846.17	180.689
850.71	177.49
855.248	2.67188
859.783	32.3047
864.316	113.977
868.846	98.0102
873.373	26.9507
877.898	18.4258
882.42	142.239
886.94	46.5596
891.457	160.425
895.971	246.894
900.483	346.025
904.993	343.875
909.5	536.502
914.004	495.968
918.505	867.332
923.004	1063.94
927.501	1360.78
931.995	1870.44
936.486	3012.11
940.975	4693.35
945.461	6982.81
949.945	8692.52
954.426	9229.84
958.904	9856.85
963.38	12929.1
967.853	20038.6
972.324	27785.2
976.792	29207.6
981.258	32103.5
985.72	41530.5
990.181	40892.3
994.639	25659.4
999.094	17746.1
1003.55	16681.2
1008	21132.2
1012.44	32704.6
1016.89	47121.7
1021.33	48750.8
1025.77	38208.2
1030.21	28935.9
1034.64	23346
1039.07	20077.5
1043.5	16212.4
1047.93	12051.7
1052.35	9298.35
1056.78	8043.26
1061.19	9034.31
1065.61	12334.7
1070.02	16696.1
1074.43	18461.4
1078.84	18225.7
1083.25	17075.6
1087.65	14836.1
1092.05	12421.9
1096.45	10256.3
1100.85	9024.35
1105.24	9418.12
1109.63	12969.3
1114.02	20647
1118.4	20804
1122.78	11919
1127.16	6875.82
1131.54	4242.83
1135.92	2893.75
1140.29	2292.54
1144.66	1846.14
1149.02	1690.47
1153.39	1294.61
1157.75	1067.37
1162.11	860.68
1166.46	656.49
1170.82	463.76
1175.17	173.26
1179.52	288.462
1183.86	74.7915
1188.21	61.6397
1192.55	211.981
1196.89	94.7598
1201.22	44.8394
1205.55	14.4058
1209.88	76.6406
1214.21	75.3311
1218.54	174.372
1222.86	68.2007
1227.18	116.713
1231.5	2.77685
1235.81	58.0576
1240.12	27.6519
1244.43	8.58789
1248.74	50.6626
1253.04	136.726
1257.34	148.032
1261.64	244.306
1265.94	229.477
1270.23	363.153
1274.52	407.022
1278.81	352.801
1283.1	423.082
1287.38	396.953
1291.66	521.161
1295.94	570.753
1300.21	751.677
1304.48	620.49
1308.75	639.254
1313.02	654.261
1317.29	638.088
1321.55	624.194
1325.81	660.335
1330.06	528.44
1334.32	540.663
1338.57	496.349
1342.82	361.261
1347.06	338.683
1351.31	353.481
1355.55	173.938
1359.79	343.873
1364.02	141.342
1368.26	150.276
1372.49	101.779
1376.71	101.656
1380.94	145.435
1385.16	79.8872
1389.38	80.4033
1393.6	40.3101
1397.81	10.5635
1402.02	92.1553
1406.23	0.080078
1410.44	21.3301
1414.64	94.0693
1418.85	89.3379
1423.04	63.1768
1427.24	97.02
1431.43	195.149
1435.62	211.698
1439.81	288.83
1444	379.721
1448.18	466.346
1452.36	428.423
1456.54	436.563
1460.71	425.138
1464.89	458.279
1469.06	485.306
1473.22	465.817
1477.39	332.346
1481.55	458.329
1485.71	399.459
1489.86	277.191
1494.02	365.377
1498.17	304.576
1502.32	218.378
1506.46	287.585
1510.61	172.414
1514.75	209.836
1518.88	221.613
1523.02	111.656
1527.15	113.529
1531.28	72.9209
1535.41	213.701
1539.53	63.25
1543.66	147.347
1547.78	111.659
1551.89	152.22
1556.01	180.195
1560.12	69.6841
1564.23	19.2847
1568.33	81.6821
