Measurement: Raman, 514 nm, ccw, Raman Data Processed
Mineral: Brazilianite
Rruff sample: R050319
Ideal chemistry: NaAl_3_(PO_4_)_2_(OH)_4_
Locality: Minas Gerais, Brazil
Source: American Museum of Natural History
Description: Pale green fragment
Measured chemistry: Na_1.00_Al_3.00_(PO_4_)_2_(OH)_4_
Pin_id: M00246
Orientation: Laser parallel to (1 0 1). Fiducial mark perpendicular to laser is parallel to b [0 1 0]
Raman shift (cm-1)	intensity
86.072	0
91.012	178.497
95.948	492.56
100.883	1747.99
105.815	2595.99
110.744	1564.78
115.671	1630.34
120.596	567.474
125.519	590.96
130.439	418.829
135.356	807.246
140.271	1274.18
145.184	1796.36
150.094	1557.6
155.002	1910.39
159.908	3069.61
164.811	6678.8
169.711	11405.5
174.61	7284.02
179.505	2546.58
184.399	1434.48
189.29	1534.91
194.178	1870
199.064	2405.43
203.948	2568.25
208.829	2750.9
213.708	2284.6
218.585	2377.77
223.459	2231.34
228.33	2862.65
233.199	2355.5
238.066	1627.6
242.93	1568.6
247.792	956.816
252.651	1150.77
257.508	599.133
262.363	537.377
267.215	1229.12
272.064	2598.07
276.912	4647
281.756	2194.76
286.598	1018.22
291.438	1443.29
296.276	1637.88
301.111	1087.78
305.943	832.941
310.773	1600.36
315.601	2139.97
320.426	1143.77
325.248	441.764
330.068	104.066
334.886	210.059
339.701	236.805
344.514	64.1856
349.324	613.908
354.132	1702.72
358.938	1533.54
363.741	599.316
368.541	488.228
373.339	611.311
378.135	251.58
382.928	162.588
387.718	518.281
392.506	74.1289
397.292	529.473
402.075	1038.2
406.856	1480.36
411.634	1590.09
416.41	1481.81
421.183	726.588
425.954	730.283
430.722	669.525
435.488	570.365
440.251	673.701
445.012	509.463
449.77	599.559
454.526	711.025
459.28	446.744
464.03	634.613
468.779	492.592
473.525	1153.05
478.268	2430.93
483.009	3331.01
487.747	4269.52
492.483	5925.16
497.217	7954.64
501.948	9565.2
506.676	9822.87
511.402	9655.61
516.125	9144.41
520.846	8336.25
525.565	9636.27
530.281	10307.1
534.994	9833.51
539.705	7732.39
544.413	6664.73
549.119	8494.26
553.822	12346.2
558.523	14684.3
563.222	13937.4
567.917	11338.1
572.611	7212.32
577.302	5338.19
581.99	4784.3
586.676	6307.89
591.359	9893.33
596.04	15924.1
600.718	16983
605.394	11173.1
610.067	8018.27
614.737	6586.81
619.406	4725.35
624.071	3912.47
628.734	4000.79
633.395	4264.79
638.053	2940.7
642.708	1980.99
647.361	1630.33
652.012	1486.94
656.66	1724.54
661.305	1221.08
665.948	1017.57
670.588	588.828
675.226	254.912
679.861	94.9297
684.494	90.6387
689.124	133.137
693.752	152.988
698.377	255.695
702.999	200.35
707.619	64.1777
712.237	193.035
716.852	144.414
721.464	67.9356
726.074	93.3418
730.681	88.0566
735.286	70.9531
739.888	34.8125
744.488	328.424
749.085	562.381
753.68	612.279
758.272	717.447
762.861	1033.34
767.448	1350.13
772.033	1144.97
776.614	1098.24
781.194	721.326
785.77	1026.29
790.345	1371.47
794.916	1629.86
799.485	1642.45
804.052	1447.26
808.616	1324.26
813.177	1366.44
817.736	863.811
822.292	1013.86
826.846	702.857
831.397	622.117
835.945	336.023
840.491	206.121
845.035	320.594
849.576	96.1016
854.114	166.953
858.65	421.445
863.183	308.422
867.713	161.008
872.241	232.844
876.767	246.668
881.29	54.4805
885.81	128.383
890.328	99.3672
894.843	161.641
899.356	152.227
903.866	217.141
908.373	85.3984
912.878	109.316
917.38	21.8125
921.88	146.102
926.377	273.281
930.872	805.34
935.364	936.836
939.853	1449.18
944.34	2174.06
948.824	2809.07
953.306	2752.09
957.785	3186.22
962.261	3555
966.735	5199.82
971.207	6944.85
975.675	8319.73
980.141	10440.3
984.605	15029.4
989.066	16367.2
993.524	11195.8
997.98	8203.91
1002.43	8321.38
1006.88	10487.2
1011.33	17086.7
1015.78	25256.5
1020.22	26721
1024.66	21410.7
1029.1	16195.2
1033.53	13229.2
1037.97	11868.9
1042.4	10834.8
1046.82	9677.42
1051.25	8796.23
1055.67	8958.86
1060.09	9517.77
1064.51	8493.04
1068.92	6820.19
1073.33	5098.85
1077.74	3786.8
1082.15	3212.05
1086.55	2240.47
1090.95	1333.69
1095.35	838.582
1099.75	668.445
1104.14	215.766
1108.53	840.836
1112.92	1053.27
1117.31	1192.83
1121.69	1335.46
1126.07	936.738
1130.45	1143.18
1134.82	1153.19
1139.19	898.484
1143.57	1302.18
1147.93	1613.38
1152.3	1171.14
1156.66	1014.31
1161.02	906.445
1165.38	1085.14
1169.73	1064.48
1174.08	567.332
1178.43	252.555
1182.78	154.914
1187.12	100.453
1191.46	122.137
1195.8	97.8516
1200.14	94.6758
1204.47	140.613
1208.8	106.582
1213.13	59.0078
1217.46	147.641
1221.78	138.008
1226.1	34.4375
1230.42	59.1602
1234.73	133.309
1239.04	380.859
1243.35	245.34
1247.66	247.856
1251.97	216.109
1256.27	195.141
1260.57	273.004
1264.86	170.613
1269.16	308.133
1273.45	419.477
1277.74	227.438
1282.03	466.5
1286.31	309.871
1290.59	498.844
1294.87	390.617
1299.14	741.992
1303.42	509.195
1307.69	232.207
1311.95	613.094
1316.22	596.043
1320.48	747.859
1324.74	503.234
1329	636.336
1333.26	371.211
1337.51	360.469
1341.76	183.863
1346	249.769
1350.25	370.578
1354.49	156.078
1358.73	253.438
1362.96	294.602
1367.2	213.07
1371.43	429.242
1375.66	373.543
1379.88	226.305
1384.11	266.379
1388.33	145.496
1392.54	234.231
1396.76	33.9805
1400.97	360.613
1405.18	8.15625
1409.39	310.598
1413.59	368.824
1417.8	81.8516
1421.99	281.981
1426.19	241.25
1430.38	271.492
1434.58	349.672
1438.77	758.402
1442.95	682.848
1447.13	860.254
1451.32	875.824
1455.49	1011.17
1459.67	887.047
1463.84	737.965
1468.01	745.234
1472.18	254.195
1476.35	569.863
1480.51	519.805
1484.67	436.016
1488.83	197.113
1492.98	159.012
1497.13	82.3164
1501.28	223.574
1505.43	221.668
1509.57	193.59
1513.71	140.562
1517.85	188.922
1521.99	406.656
1526.12	394.969
1530.25	554.281
1534.38	220.883
1538.5	332.25
1542.62	274.836
1546.74	39.8203
1550.86	206.426
1554.98	463.84
1559.09	227.406
1563.2	417.832
1567.31	3.57812
