Measurement: Raman, 514 nm, ccw, Raman Data Processed
Mineral: Brazilianite
Rruff sample: R050504
Ideal chemistry: NaAl_3_(PO_4_)_2_(OH)_4_
Locality: CÃ³rrego Frio, Minas Gerais, Brazil
Source: Marcus Origlieri
Description: Yellowish green fragment
Measured chemistry: Na_1.00_Al_3.00_(P_1.00_O_4_)_2_(OH)_4_
Pin_id: L00567
Orientation: Laser parallel to (1 0 1). Fiducial mark perpendicular to laser is parallel to b [0 1 0]
Raman shift (cm-1)	intensity
78.659	0
83.602	1948.77
88.542	4067.02
93.48	2969.27
98.416	5411.76
103.349	10369.5
108.28	7098.67
113.208	3412.35
118.134	1505.9
123.058	80.8828
127.979	363.354
132.898	166.954
137.814	876.953
142.728	2284.91
147.639	2864.49
152.549	1982.4
157.455	3611.02
162.359	7708.94
167.261	9476.75
172.161	8749
177.058	4329.63
181.952	1206.86
186.845	1178.51
191.734	1557.95
196.622	2154.1
201.507	2575.91
206.389	2960.9
211.269	3441.62
216.147	3623.33
221.022	3670.81
225.895	3326.7
230.765	3680.48
235.633	2620.25
240.498	1812.98
245.361	1192
250.222	536.181
255.08	420.607
259.936	568.68
264.789	1467.31
269.64	4090.27
274.488	7178.49
279.334	6834.22
284.178	2566.45
289.019	1337.48
293.857	1367.76
298.693	1319.89
303.527	1604.92
308.358	2968.85
313.187	4519.56
318.013	3123.06
322.837	1324.36
327.659	342.486
332.478	148.728
337.294	397.277
342.108	658.116
346.92	25.7119
351.729	880.188
356.535	1720.52
361.34	1632.85
366.141	1176.04
370.94	925.37
375.737	538.368
380.531	47.7353
385.323	316.628
390.113	40.2012
394.9	670.516
399.684	1987.9
404.466	2768.41
409.245	2933.04
414.022	2176.09
418.797	1283.39
423.569	679.382
428.338	861.524
433.105	1230.4
437.87	1720.65
442.632	1185.34
447.391	1138.38
452.149	1564.73
456.903	2072.36
461.655	1932.18
466.405	1663.04
471.152	2825.95
475.897	5038.81
480.639	7564.65
485.378	9916.84
490.116	13250.2
494.85	18087
499.582	22549.2
504.312	24080.8
509.039	24651.9
513.764	23316.4
518.486	20815.4
523.206	21195.9
527.923	23876.6
532.638	24667.7
537.35	20502.6
542.059	15559.7
546.766	15617.3
551.471	21046.1
556.173	27824.7
560.873	27496.9
565.57	23695.1
570.264	17398.4
574.957	12160.5
579.646	9961.27
584.333	11547.8
589.018	17353
593.7	29416.1
598.379	39286
603.056	30749.2
607.73	18380.7
612.402	14564.6
617.072	12386.3
621.739	8960.9
626.403	7747.93
631.065	8116.16
635.724	7356.67
640.381	5176.76
645.035	3928.3
649.687	3974.23
654.336	4344.52
658.983	4336.35
663.627	3355.97
668.268	1935.78
672.907	1078.25
677.544	512.311
682.178	297.426
686.809	21.4609
691.438	103.512
696.065	198.699
700.688	223.602
705.31	152.066
709.929	210.258
714.545	76.1055
719.158	15.2988
723.77	105.393
728.378	36.1504
732.984	89.4981
737.588	248.455
742.189	579.574
746.787	713.133
751.383	1195.99
755.976	1605.51
760.567	2267.94
765.155	2461.84
769.741	2475.24
774.324	2358.94
778.904	2116.74
783.482	2247.02
788.058	2941.19
792.631	3652.23
797.201	4361.15
801.769	4542.91
806.334	4046.52
810.897	3607.95
815.457	2670.15
820.014	2143.15
824.569	1638.13
829.122	1514.89
833.671	1067.9
838.219	773.705
842.763	630.42
847.306	318.525
851.845	336.598
856.382	14.7363
860.917	159.357
865.448	84.0215
869.978	26.832
874.505	128.773
879.029	53.7773
883.55	166.486
888.069	74.4023
892.586	316.24
897.1	2.38086
901.611	81.8496
906.12	153.66
910.626	319.398
915.129	383.559
919.63	534.26
924.129	396.547
928.625	865.459
933.118	1419.05
937.609	2418.38
942.097	3343.48
946.582	4487.43
951.065	5414.22
955.546	5458.99
960.023	6177.91
964.499	7935.1
968.971	10922
973.441	14580
977.909	19759.3
982.374	30229.5
986.836	40718.5
991.295	33855.3
995.753	21279.3
1000.21	16679.1
1004.66	17786.7
1009.11	24095.7
1013.55	36546.6
1018	45492.3
1022.44	40723.5
1026.88	29537
1031.32	23713.4
1035.75	21190.5
1040.18	20428.1
1044.61	18568.2
1049.04	17154.9
1053.46	17081.7
1057.88	18301.3
1062.3	18201.2
1066.71	15593.3
1071.13	12647.3
1075.54	10313.5
1079.94	8505.52
1084.35	6517.03
1088.75	4176.06
1093.15	2811.91
1097.55	1824.47
1101.94	1225.46
1106.34	1344.62
1110.73	1606.82
1115.11	2338.81
1119.5	3066.68
1123.88	3188.62
1128.26	3074.07
1132.63	3037.05
1137.01	2986.35
1141.38	3371.14
1145.75	3966.91
1150.12	3301.98
1154.48	2224.49
1158.84	1775.55
1163.2	1676.55
1167.55	1364.9
1171.91	1261.61
1176.26	914.035
1180.61	364.797
1184.95	239.934
1189.29	216.223
1193.63	105.941
1197.97	162.582
1202.31	20.4922
1206.64	18.5098
1210.97	31.9414
1215.29	6.11914
1219.62	176.658
1223.94	65.5273
1228.26	101.647
1232.57	82.4805
1236.89	179.955
1241.2	64.6094
1245.51	133.928
1249.81	115.92
1254.12	33.0547
1258.42	69.4277
1262.72	6.64648
1267.01	10.5801
1271.3	6.60547
1275.59	25.2031
1279.88	229.285
1284.17	157.178
1288.45	122.725
1292.73	285.586
1297.01	121.277
1301.28	286.92
1305.55	317.594
1309.82	426.199
1314.09	307.303
1318.35	355.865
1322.61	262.428
1326.87	394.043
1331.13	226.027
1335.38	382.533
1339.63	237.547
1343.88	481.557
1348.12	242.606
1352.37	268.1
1356.61	196.551
1360.85	364.807
1365.08	315.279
1369.31	143.562
1373.54	331.508
1377.77	200.688
1381.99	177.894
1386.22	312.873
1390.43	152.131
1394.65	189.572
1398.87	173.027
1403.08	58.8066
1407.29	214.797
1411.49	49.666
1415.69	180.865
1419.89	36.1309
1424.09	282.447
1428.29	175.902
1432.48	200.607
1436.67	416.041
1440.86	220.31
1445.04	403.412
1449.23	153.703
1453.4	433.633
1457.58	395.592
1461.76	398.969
1465.93	300.422
1470.1	328.91
1474.26	131.852
1478.43	357.565
1482.59	109.59
1486.75	40.5293
1490.9	104.482
1495.06	156.254
1499.21	68.8223
1503.35	94.9082
1507.5	0.611328
1511.64	201.578
1515.78	135.602
1519.92	133.066
1524.05	256.777
1528.18	266.791
1532.31	2.46875
1536.44	207.846
1540.56	330.356
1544.69	171.242
1548.8	239.609
1552.92	342.852
1557.03	203.51
1561.14	189.963
1565.25	320.973
1569.36	262.244
