Measurement: Raman, 514 nm, ccw, Raman Data Processed
Mineral: Brazilianite
Rruff sample: R050319
Ideal chemistry: NaAl_3_(PO_4_)_2_(OH)_4_
Locality: Minas Gerais, Brazil
Source: American Museum of Natural History
Description: Pale green fragment
Measured chemistry: Na_1.00_Al_3.00_(PO_4_)_2_(OH)_4_
Pin_id: M00183
Orientation: Laser parallel to a* (1 0 0). Fiducial mark perpendicular to laser is parallel to -b [0 -1 0]
Raman shift (cm-1)	intensity
86.072	0
91.012	230.942
95.948	162.184
100.883	913.615
105.815	1486.98
110.744	1212.05
115.671	979.736
120.596	197.551
125.519	140.374
130.439	285.684
135.356	402.696
140.271	1144.51
145.184	1835.8
150.094	1184.9
155.002	836.73
159.908	1881.05
164.811	4975.48
169.711	7741.51
174.61	6858.05
179.505	2123.25
184.399	750.252
189.29	786.446
194.178	1052.96
199.064	1006.92
203.948	736.141
208.829	657.927
213.708	1267.68
218.585	1887.28
223.459	1487.24
228.33	1246.7
233.199	1264.8
238.066	1798.23
242.93	2796.75
247.792	4004.52
252.651	4731.94
257.508	2359.66
262.363	551.123
267.215	894.046
272.064	1555.11
276.912	1922.29
281.756	1382.1
286.598	1771.99
291.438	2685.63
296.276	2597.91
301.111	1293.67
305.943	957.86
310.773	1368.49
315.601	1360.5
320.426	632.828
325.248	29.4785
330.068	108.587
334.886	130.712
339.701	221.244
344.514	46.8184
349.324	443.018
354.132	1360.49
358.938	1431.13
363.741	769.04
368.541	725.384
373.339	767.222
378.135	371.409
382.928	144.283
387.718	274.591
392.506	5.38477
397.292	125.101
402.075	245.772
406.856	1113.23
411.634	1322.47
416.41	1252.11
421.183	808.402
425.954	1405.98
430.722	3101.62
435.488	5727.27
440.251	6602.49
445.012	4657.29
449.77	3713.67
454.526	4865.62
459.28	6996.16
464.03	8727.29
468.779	7366.18
473.525	5174.49
478.268	4540.56
483.009	4724.18
487.747	4610.49
492.483	5165.49
497.217	6400.2
501.948	7412.63
506.676	7609.81
511.402	7602.75
516.125	7523.43
520.846	7405.84
525.565	8289.98
530.281	9310.26
534.994	9148.89
539.705	8200.59
544.413	7809.79
549.119	9652.19
553.822	13717.7
558.523	17533.1
563.222	18356.3
567.917	15514.9
572.611	11080.5
577.302	8077.62
581.99	6343.65
586.676	5784.59
591.359	6725.94
596.04	8766.76
600.718	9370.07
605.394	8340.01
610.067	8403.8
614.737	8235.56
619.406	6209.58
624.071	5086.02
628.734	5170.61
633.395	5015.67
638.053	4027.01
642.708	2081.61
647.361	1387.25
652.012	1094.36
656.66	945.42
661.305	772.566
665.948	347.842
670.588	168.43
675.226	308.06
679.861	114.947
684.494	55.4688
689.124	72.2773
693.752	297.938
698.377	261.043
702.999	220.732
707.619	10.5742
712.237	318.424
716.852	914.057
721.464	1063.73
726.074	823.348
730.681	700.414
735.286	630.049
739.888	454.486
744.488	512.203
749.085	387.135
753.68	567.18
758.272	459.049
762.861	774.199
767.448	745.131
772.033	619.231
776.614	678.941
781.194	338.856
785.77	319.387
790.345	495.119
794.916	595.064
799.485	777.213
804.052	743.562
808.616	583.098
813.177	457.797
817.736	430.65
822.292	263.154
826.846	275.754
831.397	270.914
835.945	217.447
840.491	30.6953
845.035	14.7344
849.576	107.629
854.114	35.3379
858.65	229.559
863.183	141.518
867.713	60.9199
872.241	103.762
876.767	46.1113
881.29	197.965
885.81	73.4023
890.328	156.117
894.843	44.1191
899.356	53.9707
903.866	75.5371
908.373	14.6348
912.878	23.1484
917.38	137.91
921.88	149.75
926.377	386.326
930.872	631.283
935.364	658.922
939.853	857.025
944.34	1274.99
948.824	1813.9
953.306	2549.89
957.785	3678.69
962.261	5792.76
966.735	9281.58
971.207	12699.8
975.675	13157.5
980.141	12334.8
984.605	13632
989.066	13512.7
993.524	10112.2
997.98	8214.47
1002.43	9123.94
1006.88	12408.7
1011.33	20108.4
1015.78	30797.2
1020.22	34177.2
1024.66	29358.2
1029.1	23588.6
1033.53	20434.8
1037.97	18630.4
1042.4	16500.4
1046.82	13036.8
1051.25	10578.5
1055.67	8745.9
1060.09	7923.95
1064.51	6989.23
1068.92	6007.7
1073.33	4764.78
1077.74	3694.53
1082.15	3075.16
1086.55	2403.84
1090.95	1526.67
1095.35	1093.21
1099.75	1141.31
1104.14	1169.85
1108.53	2221.74
1112.92	4017.83
1117.31	4809.12
1121.69	4134.43
1126.07	3380.3
1130.45	2674.34
1134.82	2521.26
1139.19	3184
1143.57	5350.11
1147.93	6495.01
1152.3	4147.74
1156.66	2190.53
1161.02	1652.14
1165.38	1502.43
1169.73	1289.3
1174.08	763.729
1178.43	561.678
1182.78	292.019
1187.12	316.725
1191.46	137.773
1195.8	17.9023
1200.14	91.5547
1204.47	276.451
1208.8	114.562
1213.13	123.465
1217.46	36.4316
1221.78	93.0019
1226.1	0.361328
1230.42	97.1406
1234.73	24.9863
1239.04	71.1582
1243.35	75.1231
1247.66	13.3086
1251.97	278.293
1256.27	69.1172
1260.57	2.0957
1264.86	223.828
1269.16	191.022
1273.45	105.644
1277.74	36.75
1282.03	113.393
1286.31	148.297
1290.59	379.076
1294.87	375.264
1299.14	183.83
1303.42	270.1
1307.69	418.394
1311.95	467.541
1316.22	435.525
1320.48	189.346
1324.74	413.121
1329	110.736
1333.26	175.965
1337.51	240.465
1341.76	472.644
1346	305.672
1350.25	402.047
1354.49	294.109
1358.73	258.279
1362.96	99.1758
1367.2	281.318
1371.43	343.672
1375.66	231.842
1379.88	234.182
1384.11	263.328
1388.33	250.693
1392.54	97.7539
1396.76	94.2344
1400.97	156.09
1405.18	333.361
1409.39	43.7734
1413.59	210.947
1417.8	364.438
1421.99	275.815
1426.19	49.2871
1430.38	176.34
1434.58	218.277
1438.77	181.768
1442.95	324.662
1447.13	276.514
1451.32	358.022
1455.49	604.34
1459.67	516.623
1463.84	460.736
1468.01	363.863
1472.18	118.553
1476.35	534.26
1480.51	190.31
1484.67	152.004
1488.83	207.158
1492.98	52.0137
1497.13	118.152
1501.28	122.459
1505.43	234.141
1509.57	259.217
1513.71	87.5059
1517.85	447.272
1521.99	310.367
1526.12	200.672
1530.25	205.287
1534.38	1.63477
1538.5	134.619
1542.62	181.377
1546.74	189.457
1550.86	181.928
1554.98	258.096
1559.09	170.318
1563.2	2.83984
1567.31	0.193359
