Measurement: Raman, 514 nm, ccw, Raman Data Processed
Mineral: Brazilianite
Rruff sample: R050504
Ideal chemistry: NaAl_3_(PO_4_)_2_(OH)_4_
Locality: CÃ³rrego Frio, Minas Gerais, Brazil
Source: Marcus Origlieri
Description: Yellowish green fragment
Measured chemistry: Na_1.00_Al_3.00_(P_1.00_O_4_)_2_(OH)_4_
Pin_id: L00567
Orientation: Laser parallel to (1 0 1). Fiducial mark perpendicular to laser is parallel to b [0 1 0]
Raman shift (cm-1)	intensity
83.602	0
88.542	193.898
93.48	170.574
98.416	153.998
103.349	527.47
108.28	927.691
113.208	350.147
118.134	368.291
123.058	155.933
127.979	161.055
132.898	301.89
137.814	439.328
142.728	1243.04
147.639	976.225
152.549	908.544
157.455	1395.86
162.359	5321.37
167.261	10968.1
172.161	12289.4
177.058	6700.93
181.952	1863.96
186.845	1073.74
191.734	1062.37
196.622	1283.93
201.507	1857.45
206.389	1763.27
211.269	1935.12
216.147	2218.16
221.022	2234.46
225.895	2192.78
230.765	1998.69
235.633	1505.07
240.498	973.841
245.361	1793.56
250.222	1842.53
255.08	1064.96
259.936	240.596
264.789	172.122
269.64	811.285
274.488	1515.91
279.334	1607.86
284.178	1015.02
289.019	1026.32
293.857	1550.67
298.693	990.922
303.527	567.031
308.358	760.998
313.187	845.766
318.013	830.241
322.837	293.426
327.659	35.6709
332.478	75.3203
337.294	173.825
342.108	19.9434
346.92	603.291
351.729	1597.34
356.535	2001.23
361.34	1345.16
366.141	556.825
370.94	577.263
375.737	527.503
380.531	114.89
385.323	393.077
390.113	332.596
394.9	114.227
399.684	481.287
404.466	1212.36
409.245	1775.54
414.022	2119.5
418.797	1880.35
423.569	1757.61
428.338	1607.24
433.105	2234.09
437.87	2684.8
442.632	2134.36
447.391	1697.75
452.149	1777.98
456.903	2044.09
461.655	2231.06
466.405	2029.88
471.152	1640.75
475.897	1951.24
480.639	2807.93
485.378	3561.89
490.116	4365.95
494.85	5931.89
499.582	7621.68
504.312	7908.34
509.039	8161.86
513.764	8083.24
518.486	8145.46
523.206	8381.49
527.923	9511.74
532.638	10138.3
537.35	8905.39
542.059	7824.29
546.766	8606.69
551.471	12025.2
556.173	16496.4
560.873	18943.7
565.57	16788
570.264	12278.5
574.957	7944.34
579.646	5614.63
584.333	5150.23
589.018	6368.37
593.7	10266.6
598.379	13362.2
603.056	11983.4
607.73	8809.85
612.402	7389.83
617.072	5648.52
621.739	4071.23
626.403	4385.77
631.065	5163.88
635.724	4685.28
640.381	3327.92
645.035	2116.76
649.687	1348.76
654.336	1290.9
658.983	757.146
663.627	516.475
668.268	245.324
672.907	293.627
677.544	160.068
682.178	104.508
686.809	149.133
691.438	353.627
696.065	237.951
700.688	54.0547
705.31	80.8711
709.929	71.6152
714.545	76.3086
719.158	244.705
723.77	348.685
728.378	290.42
732.984	57.8281
737.588	303.643
742.189	228.863
746.787	377.258
751.383	395.502
755.976	592.414
760.567	583.547
765.155	547.769
769.741	765.865
774.324	602.184
778.904	485.607
783.482	450.332
788.058	621.426
792.631	708.877
797.201	717.684
801.769	643.848
806.334	776.356
810.897	562.186
815.457	473.32
820.014	384.633
824.569	436.07
829.122	202.85
833.671	169.951
838.219	38.9707
842.763	123.414
847.306	99.6699
851.845	172.789
856.382	108.684
860.917	49.5801
865.448	1.95703
869.978	17.9238
874.505	84.3144
879.029	14.6914
883.55	53.5879
888.069	28.1328
892.586	20.25
897.1	74.1445
901.611	150.166
906.12	130.147
910.626	0.775391
915.129	315.078
919.63	426.744
924.129	352.248
928.625	525.615
933.118	884.865
937.609	1295.02
942.097	1955.13
946.582	2690.2
951.065	3250.57
955.546	3347.45
960.023	3898.41
964.499	5813.71
968.971	8930.26
973.441	10027.6
977.909	9645.72
982.374	10580.7
986.836	12431.4
991.295	10888.9
995.753	8295.51
1000.21	8088.8
1004.66	10631.6
1009.11	17051
1013.55	28592.6
1018	37285
1022.44	33509.7
1026.88	25809.7
1031.32	20162.4
1035.75	17335.5
1040.18	15123.6
1044.61	12832.9
1049.04	10108
1053.46	8896.63
1057.88	8366.81
1062.3	7845.53
1066.71	7079.8
1071.13	5358.61
1075.54	4181.98
1079.94	2841.61
1084.35	1966.45
1088.75	1223.39
1093.15	826.068
1097.55	356.227
1101.94	227.932
1106.34	417.43
1110.73	335.26
1115.11	678.826
1119.5	650.449
1123.88	604.705
1128.26	607.451
1132.63	790.106
1137.01	921.873
1141.38	1659.87
1145.75	2777.9
1150.12	2439.3
1154.48	1507.32
1158.84	981.926
1163.2	1200.96
1167.55	891.498
1171.91	1009.49
1176.26	491.906
1180.61	331.441
1184.95	258.201
1189.29	218.17
1193.63	180.322
1197.97	107.83
1202.31	34.6855
1206.64	184.41
1210.97	160.74
1215.29	188.551
1219.62	109.801
1223.94	72.3516
1228.26	115.834
1232.57	26.4062
1236.89	37.2988
1241.2	84.9824
1245.51	136.285
1249.81	25.7812
1254.12	42.9609
1258.42	170.391
1262.72	123.426
1267.01	83.4375
1271.3	114.449
1275.59	264.309
1279.88	91.3809
1284.17	240.334
1288.45	1.14844
1292.73	253.857
1297.01	233.568
1301.28	259.43
1305.55	153.721
1309.82	429.795
1314.09	318.143
1318.35	472.144
1322.61	311.779
1326.87	560.133
1331.13	142.193
1335.38	242.951
1339.63	157.975
1343.88	148.918
1348.12	306.385
1352.37	185.227
1356.61	168.518
1360.85	240.412
1365.08	145.039
1369.31	212.852
1373.54	179.94
1377.77	117.51
1381.99	43.3223
1386.22	99.0859
1390.43	85.1777
1394.65	254.576
1398.87	143.42
1403.08	183.303
1407.29	24.0273
1411.49	70.0918
1415.69	33.4316
1419.89	102.514
1424.09	18.4199
1428.29	65.1797
1432.48	121.318
1436.67	170.748
1440.86	371.629
1445.04	185.387
1449.23	462.713
1453.4	450.857
1457.58	294.592
1461.76	369.404
1465.93	452.412
1470.1	278.523
1474.26	26.8613
1478.43	416.898
1482.59	106.541
1486.75	11.709
1490.9	154.25
1495.06	114.314
1499.21	318.76
1503.35	140.619
1507.5	237.158
1511.64	197.15
1515.78	317.953
1519.92	340.029
1524.05	10.3984
1528.18	337.832
1532.31	126.121
1536.44	274.32
1540.56	66.2481
1544.69	118.559
1548.8	230.58
1552.92	224.9
1557.03	325.992
1561.14	35.123
1565.25	124.154
1569.36	0.259766
