Measurement: Raman, 514 nm, ccw, Raman Data Processed
Mineral: Brazilianite
Rruff sample: R050319
Ideal chemistry: NaAl_3_(PO_4_)_2_(OH)_4_
Locality: Minas Gerais, Brazil
Source: American Museum of Natural History
Description: Pale green fragment
Measured chemistry: Na_1.00_Al_3.00_(PO_4_)_2_(OH)_4_
Pin_id: M00246
Orientation: Laser parallel to (1 0 1). Fiducial mark perpendicular to laser is parallel to b [0 1 0]
Raman shift (cm-1)	intensity
86.072	0
91.012	910.801
95.948	384.607
100.883	2828.37
105.815	5215.69
110.744	2634.18
115.671	2342.44
120.596	571.807
125.519	142.402
130.439	8.11719
135.356	246.469
140.271	1125.48
145.184	2428.69
150.094	2271.92
155.002	1883.42
159.908	3819.4
164.811	6997.91
169.711	4652.46
174.61	2569.48
179.505	1400.74
184.399	1242.65
189.29	1896.31
194.178	2128.98
199.064	2203.73
203.948	1593.59
208.829	1652.62
213.708	2084.83
218.585	2968.61
223.459	2369.36
228.33	2353.79
233.199	2785.34
238.066	2887.74
242.93	2767.87
247.792	1584.03
252.651	1085.37
257.508	956.18
262.363	1030.81
267.215	1156.36
272.064	1625.54
276.912	2688.76
281.756	1350.48
286.598	894.545
291.438	1240.26
296.276	1326.65
301.111	1370.98
305.943	1244.73
310.773	1865.75
315.601	2054.06
320.426	1580.68
325.248	963.635
330.068	282.957
334.886	238.488
339.701	281.535
344.514	121.43
349.324	43.416
354.132	53.4941
358.938	216.674
363.741	339.184
368.541	651.785
373.339	863.943
378.135	755.711
382.928	485.947
387.718	730.609
392.506	1078.74
397.292	1556.39
402.075	1795.63
406.856	1346.54
411.634	731.32
416.41	225.494
421.183	199.926
425.954	68.8496
430.722	393.764
435.488	789.106
440.251	1081.16
445.012	912.152
449.77	834.232
454.526	1586.1
459.28	1677.67
464.03	1491.93
468.779	1210.91
473.525	1769.61
478.268	3712.46
483.009	5044.73
487.747	7054.89
492.483	9304.56
497.217	12938.5
501.948	15376.9
506.676	16026.6
511.402	15760.2
516.125	13764.9
520.846	11996.5
525.565	11922.1
530.281	12340.6
534.994	11053.1
539.705	8602.53
544.413	6801.9
549.119	8573.01
553.822	12828.9
558.523	15678.5
563.222	13596.4
567.917	11367
572.611	8085.4
577.302	5995.6
581.99	5729.84
586.676	7026.66
591.359	10804.7
596.04	17723.8
600.718	21981.5
605.394	15407.1
610.067	10874.7
614.737	9731.58
619.406	7326.97
624.071	5651.75
628.734	4999.32
633.395	4806.17
638.053	3648.23
642.708	2857.93
647.361	2609.05
652.012	2597.56
656.66	2776.44
661.305	2377.66
665.948	1395.18
670.588	883.973
675.226	587.014
679.861	359.269
684.494	3.29297
689.124	54.752
693.752	223.768
698.377	105.92
702.999	22.957
707.619	37.0957
712.237	41.4609
716.852	159.769
721.464	75.1328
726.074	164.568
730.681	82.0254
735.286	52.4766
739.888	168.492
744.488	546.887
749.085	654.799
753.68	932.684
758.272	1105.03
762.861	1760.17
767.448	1655.87
772.033	1716.13
776.614	1326.09
781.194	1065.44
785.77	1076.13
790.345	1546.76
794.916	2093.33
799.485	2394.32
804.052	2230.73
808.616	2379.62
813.177	1804.78
817.736	1779.42
822.292	1533.24
826.846	1055.54
831.397	946.644
835.945	700.869
840.491	523.049
845.035	366.736
849.576	473.279
854.114	224.545
858.65	335.469
863.183	308.008
867.713	206.387
872.241	52.7422
876.767	15.4609
881.29	84.5469
885.81	192.957
890.328	50.6797
894.843	16.7852
899.356	54.9219
903.866	140.902
908.373	40.9844
912.878	151.629
917.38	214.231
921.88	280.848
926.377	80.1484
930.872	691.953
935.364	864.32
939.853	1076.65
944.34	1485.78
948.824	1673.96
953.306	2121.03
957.785	2300.96
962.261	2953.87
966.735	3778.51
971.207	5258.09
975.675	8083.98
980.141	12804.3
984.605	20582.7
989.066	23408.5
993.524	16088.5
997.98	11169.9
1002.43	9831.9
1006.88	10577.9
1011.33	14797.2
1015.78	20755
1020.22	21787.8
1024.66	17009.2
1029.1	12727.3
1033.53	11139.1
1037.97	11131.9
1042.4	11060.8
1046.82	10582.9
1051.25	9855.89
1055.67	9923.35
1060.09	10416.7
1064.51	9609.28
1068.92	7734.4
1073.33	6712.32
1077.74	6126.01
1082.15	4714.61
1086.55	3202.59
1090.95	2204.83
1095.35	1206.82
1099.75	774.281
1104.14	634.629
1108.53	694.297
1112.92	1811.23
1117.31	2751.28
1121.69	2352.47
1126.07	2378.54
1130.45	1835.44
1134.82	1722.04
1139.19	1390.68
1143.57	1617.72
1147.93	1711.31
1152.3	1055.59
1156.66	788.902
1161.02	669.137
1165.38	667.309
1169.73	924.207
1174.08	331.371
1178.43	220.762
1182.78	330.328
1187.12	70.5391
1191.46	88.9023
1195.8	19.3281
1200.14	53.8203
1204.47	234.5
1208.8	240.949
1213.13	254.883
1217.46	192.832
1221.78	63.7695
1226.1	194.398
1230.42	52.5078
1234.73	177.062
1239.04	131.496
1243.35	33.0586
1247.66	34.0586
1251.97	391.84
1256.27	233.32
1260.57	273.84
1264.86	271.637
1269.16	434.887
1273.45	467.621
1277.74	188.238
1282.03	131.922
1286.31	279.106
1290.59	482.441
1294.87	506.469
1299.14	493.711
1303.42	376.606
1307.69	582.309
1311.95	385.832
1316.22	555.203
1320.48	352.406
1324.74	353.484
1329	330.168
1333.26	90.8203
1337.51	343.879
1341.76	280.223
1346	378.414
1350.25	245.422
1354.49	158.766
1358.73	54.0898
1362.96	179.457
1367.2	124.652
1371.43	68.3242
1375.66	210.516
1379.88	90.3828
1384.11	255.508
1388.33	76.9688
1392.54	352.379
1396.76	49.3477
1400.97	320.5
1405.18	94.5664
1409.39	120.551
1413.59	72.9766
1417.8	28.793
1421.99	283.269
1426.19	162.215
1430.38	336.074
1434.58	248.91
1438.77	569.402
1442.95	423.481
1447.13	761.293
1451.32	915.352
1455.49	987.394
1459.67	920.801
1463.84	626.754
1468.01	486.644
1472.18	416.676
1476.35	448.57
1480.51	318.871
1484.67	275.613
1488.83	553.941
1492.98	14.8867
1497.13	234.203
1501.28	333.352
1505.43	250.828
1509.57	103.234
1513.71	170.734
1517.85	541.246
1521.99	143.703
1526.12	249.555
1530.25	286.918
1534.38	503.258
1538.5	367.348
1542.62	391.277
1546.74	177.781
1550.86	92.9766
1554.98	375.602
1559.09	288.242
1563.2	18.3008
1567.31	0.035156
