Measurement: Raman, 514 nm, ccw, Raman Data Processed
Mineral: Brazilianite
Rruff sample: R050504
Ideal chemistry: NaAl_3_(PO_4_)_2_(OH)_4_
Locality: CÃ³rrego Frio, Minas Gerais, Brazil
Source: Marcus Origlieri
Description: Yellowish green fragment
Measured chemistry: Na_1.00_Al_3.00_(P_1.00_O_4_)_2_(OH)_4_
Pin_id: L00677
Orientation: Laser parallel to -c* (0 0 -1). Fiducial mark perpendicular to laser is parallel to a [1 0 0]
Raman shift (cm-1)	intensity
72.477	0
77.423	1936.58
82.367	9090.03
87.308	11143.5
92.246	7094.09
97.182	9016.17
102.116	17581
107.047	7859.68
111.976	1265.67
116.903	261.825
121.827	155.596
126.749	241.057
131.668	195.532
136.585	221.657
141.5	751.734
146.412	1464.69
151.321	865.639
156.229	1083.68
161.134	3518.23
166.036	9854.96
170.936	23465.5
175.834	9359.86
180.729	2106.36
185.622	931.915
190.512	997.999
195.4	1928.28
200.286	3083.41
205.169	3565.23
210.049	3297.7
214.928	2629.82
219.803	2875.41
224.677	2933.42
229.548	3945.13
234.416	1879.61
239.282	1945.63
244.146	2496.43
249.007	1872.01
253.866	1093.21
258.722	470.619
263.576	418.307
268.427	766.804
273.276	1580.79
278.123	3363.29
282.967	3166.64
287.809	1539.13
292.648	804.642
297.485	724.154
302.319	1172.67
307.151	3368.91
311.98	7062.49
316.807	8525.99
321.631	9222.51
326.454	7110.56
331.273	4968.68
336.09	3419.79
340.905	3414.18
345.717	5615.59
350.527	11810.1
355.334	20203.3
360.139	16248.2
364.941	6407.79
369.741	1834.2
374.538	513.239
379.333	1195.81
384.126	1201.92
388.916	889.589
393.703	1841.91
398.488	3934.98
403.271	7029.28
408.051	9645.23
412.828	10376.1
417.603	8458.9
422.376	7402.89
427.146	5246.76
431.914	2892.18
436.679	1584.13
441.442	415.681
446.202	137.438
450.96	345.35
455.715	434.522
460.467	291.982
465.218	445.163
469.965	1017.68
474.711	1145.63
479.454	1689.99
484.194	2566.71
488.932	4433.76
493.667	7662.11
498.4	10950.7
503.13	12750.5
507.858	13200.5
512.583	14198.6
517.306	15615.8
522.026	18786
526.744	24106.2
531.459	26822.4
536.172	24058.5
540.882	18791.9
545.59	16503.3
550.295	20007.2
554.998	28814.7
559.698	33272.3
564.396	32246.8
569.091	24015.8
573.784	15809.2
578.474	13394.6
583.162	15790.4
587.847	24185.3
592.529	40291.5
597.209	53056.8
601.887	38475.2
606.562	19535.9
611.235	11167.6
615.905	7457.57
620.572	6326.65
625.237	5983.56
629.9	6385.15
634.56	6138.35
639.217	4489.09
643.872	3416.32
648.524	3167.01
653.174	3230.09
657.821	3310.53
662.466	2717.28
667.108	1598.29
671.748	782.538
676.385	381.085
681.02	116.311
685.652	84.3242
690.281	26.7998
694.908	38.6299
699.533	58.2349
704.155	129.739
708.774	69.292
713.391	71.7598
718.005	87.4976
722.617	85.5317
727.226	16.8696
731.833	216.75
736.437	232.618
741.039	348.522
745.638	452.734
750.234	706.833
754.828	772.586
759.419	1015.58
764.008	1082.88
768.595	1119.22
773.178	1134.99
777.759	1003.42
782.338	867.513
786.914	1055.28
791.488	924.736
796.059	1013.9
800.627	851.785
805.193	658.416
809.756	464.815
814.317	375.003
818.875	314.412
823.431	348.97
827.984	286.584
832.534	241.064
837.082	148.62
841.627	131.607
846.17	147.928
850.71	112.46
855.248	47.7803
859.783	87.3491
864.316	36.3765
868.846	76.1689
873.373	167.512
877.898	80.3809
882.42	121.246
886.94	167.026
891.457	44.9556
895.971	47.2944
900.483	6.74072
904.993	82.0703
909.5	221.852
914.004	405.655
918.505	501.525
923.004	790.511
927.501	1214.69
931.995	1927.12
936.486	3334.93
940.975	5559.13
945.461	8481.83
949.945	10036.7
954.426	9967.52
958.904	9672.08
963.38	12182
967.853	17937.5
972.324	23365.5
976.792	24262
981.258	28129.4
985.72	38600
990.181	36097.8
994.639	20738.8
999.094	14600.5
1003.55	15298.7
1008	21468.2
1012.44	35176.1
1016.89	49147
1021.33	47662.3
1025.77	35539.7
1030.21	26355.1
1034.64	20723.3
1039.07	16892.6
1043.5	13359
1047.93	9951.47
1052.35	7976.03
1056.78	7706.98
1061.19	8794.68
1065.61	9704.67
1070.02	11274
1074.43	12391.9
1078.84	12849.2
1083.25	12517.3
1087.65	11387.7
1092.05	9372.35
1096.45	7776.2
1100.85	6533.75
1105.24	6303.36
1109.63	7496.42
1114.02	9875.28
1118.4	8819.91
1122.78	5239.11
1127.16	3552.1
1131.54	2771.58
1135.92	2155.24
1140.29	1962.17
1144.66	1770.4
1149.02	1666.43
1153.39	1435.33
1157.75	988.332
1162.11	833.761
1166.46	645.5
1170.82	425.048
1175.17	289.436
1179.52	156.152
1183.86	109.024
1188.21	30.9253
1192.55	4.19238
1196.89	81.6826
1201.22	113.711
1205.55	30.9292
1209.88	68.4048
1214.21	41.1597
1218.54	25.3057
1222.86	2.04004
1227.18	37.6099
1231.5	29.8086
1235.81	48.0337
1240.12	13.7129
1244.43	25.3711
1248.74	80.8154
1253.04	3.05713
1257.34	48.8389
1261.64	62.9683
1265.94	44.4482
1270.23	118.673
1274.52	88.6196
1278.81	91.397
1283.1	117.626
1287.38	120.602
1291.66	179.096
1295.94	223.501
1300.21	246.209
1304.48	197.249
1308.75	339.416
1313.02	351.962
1317.29	309.084
1321.55	318.063
1325.81	340.019
1330.06	285.888
1334.32	238.362
1338.57	287.904
1342.82	255.718
1347.06	235.918
1351.31	297.958
1355.55	260.694
1359.79	217.644
1364.02	174.2
1368.26	184.764
1372.49	268.581
1376.71	175.52
1380.94	166.631
1385.16	111.791
1389.38	127.254
1393.6	107.794
1397.81	126.161
1402.02	36.5039
1406.23	40.9751
1410.44	105.466
1414.64	109.011
1418.85	78.7104
1423.04	40.4639
1427.24	101.378
1431.43	118.291
1435.62	166.098
1439.81	157.241
1444	271.221
1448.18	331.788
1452.36	307.197
1456.54	268.152
1460.71	234.732
1464.89	330.843
1469.06	166.96
1473.22	181.983
1477.39	161.55
1481.55	75.6885
1485.71	136.445
1489.86	161.834
1494.02	44.8057
1498.17	91.2891
1502.32	16.5244
1506.46	133.553
1510.61	31.689
1514.75	45.917
1518.88	171.34
1523.02	51.0444
1527.15	135.717
1531.28	107.749
1535.41	69.3648
1539.53	55.4209
1543.66	152.334
1547.78	60.8599
1551.89	132.954
1556.01	125.184
1560.12	8.2876
1564.23	60.2349
1568.33	94.9648
