Measurement: Raman, 514 nm, ccw, Raman Data Processed
Mineral: Brazilianite
Rruff sample: R050504
Ideal chemistry: NaAl_3_(PO_4_)_2_(OH)_4_
Locality: CÃ³rrego Frio, Minas Gerais, Brazil
Source: Marcus Origlieri
Description: Yellowish green fragment
Measured chemistry: Na_1.00_Al_3.00_(P_1.00_O_4_)_2_(OH)_4_
Pin_id: L00583
Orientation: Laser parallel to b* (0 1 0). Fiducial mark perpendicular to laser is parallel to c [0 0 1]
Raman shift (cm-1)	intensity
77.423	0
82.367	779.147
87.308	1504.14
92.246	931.891
97.182	81.8333
102.116	215.071
107.047	401.793
111.976	605.698
116.903	562.81
121.827	59.0552
126.749	72.3721
131.668	76.3716
136.585	144.163
141.5	794.332
146.412	1321.52
151.321	1028.5
156.229	1043.2
161.134	2938.97
166.036	8755.52
170.936	23051.3
175.834	13831.4
180.729	3386.86
185.622	1540.94
190.512	1518.35
195.4	1552.35
200.286	1465.88
205.169	1681.85
210.049	2163.99
214.928	2775.12
219.803	2925.31
224.677	2068.92
229.548	2142.85
234.416	1318.57
239.282	1526.25
244.146	3979.51
249.007	7259.23
253.866	7845.37
258.722	2071.13
263.576	525.482
268.427	727.509
273.276	1601.56
278.123	1509.04
282.967	715.517
287.809	1.78906
292.648	287.552
297.485	347.497
302.319	181.163
307.151	496.241
311.98	1601.61
316.807	1267.02
321.631	714.49
326.454	618.059
331.273	737.03
336.09	761.249
340.905	808.223
345.717	1109.67
350.527	1835.6
355.334	2690.02
360.139	2363.98
364.941	804.473
369.741	224.549
374.538	73.4126
379.333	71.0762
384.126	116.685
388.916	121.625
393.703	9.80371
398.488	440.399
403.271	1360.66
408.051	2746
412.828	3899.55
417.603	3120.62
422.376	2790.04
427.146	3459.31
431.914	5523.15
436.679	9794.96
441.442	9885.5
446.202	6022.45
450.96	5246.17
455.715	7030.58
460.467	10062
465.218	12123.5
469.965	8491.94
474.711	3309.47
479.454	1250.12
484.194	1070.94
488.932	1702.94
493.667	2982.11
498.4	4768.47
503.13	5861.01
507.858	6036.73
512.583	6785.63
517.306	7467.23
522.026	8193.1
526.744	9766.3
531.459	11589.2
536.172	11871.8
540.882	10824.1
545.59	10887.9
550.295	13662.1
554.998	20749
559.698	26971.9
564.396	28012.1
569.091	21422
573.784	12358.5
578.474	7104.19
583.162	4903.71
587.847	4706.01
592.529	6179.88
597.209	9257.62
601.887	10546.2
606.562	9715.51
611.235	11062.6
615.905	10341.4
620.572	6667.92
625.237	5399.07
629.9	6338.82
634.56	7317.14
639.217	5437.99
643.872	2974.34
648.524	1626.13
653.174	1036.34
657.821	794.142
662.466	668.727
667.108	444.302
671.748	230.142
676.385	102.646
681.02	55.1504
685.652	127.976
690.281	189.031
694.908	184.672
699.533	132.604
704.155	188.601
708.774	543.569
713.391	1054.78
718.005	1743.68
722.617	1944.68
727.226	1898.14
731.833	1481.57
736.437	1355.25
741.039	1156.21
745.638	1155.44
750.234	1094.9
754.828	990.586
759.419	859.464
764.008	810.516
768.595	643.723
773.178	651.069
777.759	595.538
782.338	441.114
786.914	303.785
791.488	327.537
796.059	268.358
800.627	185.225
805.193	197.049
809.756	164.557
814.317	32.5005
818.875	97.7759
823.431	4.48584
827.984	112.927
832.534	140.618
837.082	158.191
841.627	124.837
846.17	66.9922
850.71	9.98584
855.248	24.395
859.783	45.7993
864.316	51.7978
868.846	62.7388
873.373	107.085
877.898	214.871
882.42	287.123
886.94	369.87
891.457	410.142
895.971	449.969
900.483	548.859
904.993	535.414
909.5	636.095
914.004	834.459
918.505	1036.54
923.004	1074.37
927.501	1216.01
931.995	1367.33
936.486	1925.79
940.975	2388.16
945.461	3094.51
949.945	3970.92
954.426	4651.27
958.904	6136.46
963.38	9125.5
967.853	14897.1
972.324	20042.2
976.792	17731.8
981.258	14163.9
985.72	13927
990.181	12907
994.639	9951.52
999.094	9396.16
1003.55	11710.1
1008	18179.9
1012.44	32601.3
1016.89	50582.4
1021.33	53721.3
1025.77	43100.9
1030.21	33332.3
1034.64	28339.5
1039.07	25476.5
1043.5	21436.3
1047.93	15541
1052.35	10899.5
1056.78	8153.83
1061.19	7216.63
1065.61	7481.75
1070.02	7958.86
1074.43	6075.97
1078.84	4347.41
1083.25	3413.21
1087.65	2461.8
1092.05	2034.85
1096.45	1859.6
1100.85	1535.11
1105.24	2107.42
1109.63	3093.36
1114.02	5071.06
1118.4	5515.57
1122.78	3443.98
1127.16	2277.07
1131.54	1388.01
1135.92	902.586
1140.29	881.769
1144.66	718.613
1149.02	686.033
1153.39	720.048
1157.75	706.677
1162.11	591.688
1166.46	507.063
1170.82	246.765
1175.17	335.755
1179.52	251.006
1183.86	117.492
1188.21	33.6616
1192.55	2.021
1196.89	93.229
1201.22	95.7261
1205.55	140.7
1209.88	62.3765
1214.21	53.1113
1218.54	120.488
1222.86	36.4116
1227.18	94.1055
1231.5	12.2461
1235.81	62.7461
1240.12	41.873
1244.43	112.8
1248.74	169.961
1253.04	156.672
1257.34	282.368
1261.64	317.875
1265.94	390.414
1270.23	472.983
1274.52	538.418
1278.81	658.964
1283.1	603.835
1287.38	730.502
1291.66	765.751
1295.94	769.002
1300.21	759.071
1304.48	805.286
1308.75	889.987
1313.02	865.173
1317.29	883.863
1321.55	800.343
1325.81	871.247
1330.06	750.653
1334.32	687.85
1338.57	624.731
1342.82	473.909
1347.06	531.484
1351.31	467.803
1355.55	409.142
1359.79	322.538
1364.02	266.612
1368.26	224.31
1372.49	105.618
1376.71	135.44
1380.94	158.836
1385.16	113.773
1389.38	55.8726
1393.6	21.0884
1397.81	8.88477
1402.02	28.312
1406.23	13.6699
1410.44	28.0972
1414.64	68.0781
1418.85	203.779
1423.04	182.233
1427.24	171.523
1431.43	189.754
1435.62	262.04
1439.81	313.562
1444	340.812
1448.18	373.458
1452.36	451.811
1456.54	467.657
1460.71	491.158
1464.89	603.955
1469.06	593.995
1473.22	582.585
1477.39	666.156
1481.55	655.177
1485.71	537.824
1489.86	594.021
1494.02	471.955
1498.17	549.695
1502.32	671.296
1506.46	488.678
1510.61	526.519
1514.75	589.946
1518.88	411.985
1523.02	498.629
1527.15	390.677
1531.28	253.179
1535.41	264.706
1539.53	306.059
1543.66	226.519
1547.78	245.279
1551.89	115.347
1556.01	138.076
1560.12	120.982
1564.23	14.21
1568.33	103.077
