Measurement: Raman, 514 nm, ccw, Raman Data Processed
Mineral: Brazilianite
Rruff sample: R050319
Ideal chemistry: NaAl_3_(PO_4_)_2_(OH)_4_
Locality: Minas Gerais, Brazil
Source: American Museum of Natural History
Description: Pale green fragment
Measured chemistry: Na_1.00_Al_3.00_(PO_4_)_2_(OH)_4_
Pin_id: M00275
Orientation: Laser parallel to b* (0 1 0). Fiducial mark perpendicular to laser is parallel to c [0 0 1]
Raman shift (cm-1)	intensity
81.131	0
86.072	817.34
91.012	1073.52
95.948	158.121
100.883	573.992
105.815	1443.85
110.744	1281.89
115.671	3454.01
120.596	2264.69
125.519	110.328
130.439	30.2539
135.356	104.184
140.271	243.943
145.184	953.094
150.094	868.912
155.002	455.975
159.908	1569.91
164.811	6029.14
169.711	12673.1
174.61	15612.7
179.505	3992.04
184.399	1042.3
189.29	601.789
194.178	716.253
199.064	874.007
203.948	1201.24
208.829	1689.98
213.708	1845.21
218.585	2464.96
223.459	1679.25
228.33	1788.46
233.199	1498.54
238.066	1090.66
242.93	2486.39
247.792	4134.6
252.651	6868.07
257.508	2885.06
262.363	655.645
267.215	870.648
272.064	1408.73
276.912	2233.53
281.756	1331.58
286.598	728.68
291.438	249.561
296.276	76.1797
301.111	7.57227
305.943	299.151
310.773	1345.37
315.601	1817.97
320.426	1156.95
325.248	917.335
330.068	507.141
334.886	390.381
339.701	502.825
344.514	626.702
349.324	1230.05
354.132	2159.88
358.938	2680.19
363.741	1075.99
368.541	208.292
373.339	197.3
378.135	249.956
382.928	321.068
387.718	309.846
392.506	265.434
397.292	266.95
402.075	1091.86
406.856	2202.6
411.634	3270.29
416.41	3330.5
421.183	2783.58
425.954	2891.13
430.722	4290.85
435.488	6913.33
440.251	9077.54
445.012	6571.74
449.77	5061.44
454.526	6276.9
459.28	8177.11
464.03	10008.1
468.779	9044.84
473.525	4828.36
478.268	2457.66
483.009	1584.74
487.747	1913.6
492.483	2816.25
497.217	4108.69
501.948	5280.89
506.676	5572.94
511.402	6127.84
516.125	6603.81
520.846	6948.99
525.565	8138.83
530.281	9841.15
534.994	10207.2
539.705	9488.4
544.413	8456.9
549.119	10015.9
553.822	14448.3
558.523	20212.6
563.222	22177.3
567.917	18749
572.611	11971
577.302	6855.36
581.99	4852.81
586.676	4600.16
591.359	6123.22
596.04	9296.85
600.718	11256.1
605.394	9153
610.067	8655.58
614.737	8477.67
619.406	6202.28
624.071	4343.47
628.734	4792.93
633.395	5849.14
638.053	5068.09
642.708	3184.03
647.361	2164.08
652.012	1678.55
656.66	1670.75
661.305	1597.48
665.948	1222.79
670.588	658.867
675.226	534.547
679.861	290.486
684.494	91.9336
689.124	45.0176
693.752	289.641
698.377	284.31
702.999	62.1504
707.619	85.6133
712.237	282.664
716.852	785.041
721.464	1305.02
726.074	1221.62
730.681	784.799
735.286	724.686
739.888	483.68
744.488	453.168
749.085	270.15
753.68	417.859
758.272	183.033
762.861	199.443
767.448	335.078
772.033	245.92
776.614	311.953
781.194	173.166
785.77	363.365
790.345	334.615
794.916	255.883
799.485	126.115
804.052	177.072
808.616	148.502
813.177	132.332
817.736	181.723
822.292	28.9531
826.846	150.674
831.397	148.428
835.945	75.6777
840.491	75.8027
845.035	125.811
849.576	22.8008
854.114	249.1
858.65	57.6035
863.183	71.0449
867.713	101.189
872.241	52.5488
876.767	113.893
881.29	54.2031
885.81	13.8086
890.328	79.9707
894.843	118.449
899.356	100.643
903.866	107.582
908.373	277.535
912.878	228.703
917.38	371.043
921.88	430.809
926.377	662.375
930.872	907.543
935.364	1240.48
939.853	1798.99
944.34	2514.49
948.824	3412.84
953.306	4236.83
957.785	4974.54
962.261	6904.9
966.735	10894.6
971.207	15985.6
975.675	16407.6
980.141	13678
984.605	13689.6
989.066	14148.9
993.524	11295.6
997.98	9072.96
1002.43	9765.02
1006.88	13514.3
1011.33	22585.7
1015.78	37214.9
1020.22	44371.4
1024.66	38420.1
1029.1	29665.3
1033.53	24430.2
1037.97	21960.7
1042.4	18821.8
1046.82	14385.6
1051.25	10377.9
1055.67	7566.02
1060.09	6572.81
1064.51	6753.64
1068.92	7381.15
1073.33	6650.6
1077.74	4959.59
1082.15	4041.55
1086.55	3177.14
1090.95	2181.35
1095.35	2039.37
1099.75	1701.28
1104.14	1895.64
1108.53	2793.36
1112.92	4906.23
1117.31	6440.47
1121.69	4141.3
1126.07	2631.95
1130.45	1576.54
1134.82	929.824
1139.19	633.889
1143.57	614.492
1147.93	657.211
1152.3	570.441
1156.66	398.752
1161.02	438.33
1165.38	168.647
1169.73	378.787
1174.08	29.8867
1178.43	200.353
1182.78	232.068
1187.12	164.904
1191.46	45.1055
1195.8	130.033
1200.14	74.9746
1204.47	63.8281
1208.8	172.144
1213.13	110.486
1217.46	51.4102
1221.78	237.264
1226.1	47.4102
1230.42	7.93945
1234.73	9.01953
1239.04	91.5606
1243.35	181.574
1247.66	12.332
1251.97	72.2324
1256.27	233.611
1260.57	87.7227
1264.86	116.572
1269.16	64.166
1273.45	107.943
1277.74	186.894
1282.03	112.272
1286.31	2.64648
1290.59	504.607
1294.87	85.2871
1299.14	168.103
1303.42	357.932
1307.69	264.723
1311.95	290.418
1316.22	296.705
1320.48	224.678
1324.74	339.264
1329	210.82
1333.26	299.301
1337.51	353.815
1341.76	147.764
1346	134.555
1350.25	382.861
1354.49	256.158
1358.73	225.432
1362.96	402.709
1367.2	198.549
1371.43	317.051
1375.66	702.184
1379.88	176.594
1384.11	229.275
1388.33	370.57
1392.54	254.769
1396.76	229.769
1400.97	142.268
1405.18	53.3594
1409.39	213.227
1413.59	331.816
1417.8	169.461
1421.99	160.44
1426.19	383.523
1430.38	384.5
1434.58	396.373
1438.77	157.783
1442.95	282.012
1447.13	244.412
1451.32	503.553
1455.49	558.457
1459.67	405
1463.84	512.229
1468.01	325.754
1472.18	160.775
1476.35	355.016
1480.51	502.647
1484.67	299.799
1488.83	395.039
1492.98	313.867
1497.13	158.164
1501.28	278.475
1505.43	285.893
1509.57	421.022
1513.71	313.211
1517.85	441.394
1521.99	268.764
1526.12	253.223
1530.25	251.098
1534.38	320.635
1538.5	128.377
1542.62	122.242
1546.74	144.338
1550.86	66.9863
1554.98	213.533
1559.09	13.0977
1563.2	139.736
1567.31	35.7207
