Measurement: Raman, 514 nm, ccw, Raman Data Processed
Mineral: Brazilianite
Rruff sample: R050504
Ideal chemistry: NaAl_3_(PO_4_)_2_(OH)_4_
Locality: CÃ³rrego Frio, Minas Gerais, Brazil
Source: Marcus Origlieri
Description: Yellowish green fragment
Measured chemistry: Na_1.00_Al_3.00_(P_1.00_O_4_)_2_(OH)_4_
Pin_id: L00856
Orientation: Laser parallel to -a* (-1 0 0). Fiducial mark perpendicular to laser is parallel to b [0 1 0]
Raman shift (cm-1)	intensity
79.895	0
84.837	3618.53
89.777	5301.64
94.714	2530.07
99.649	4028.78
104.582	9362.57
109.512	6549.58
114.44	4088.39
119.365	1462.5
124.288	184.745
129.209	372.149
134.127	139.81
139.043	1401.5
143.956	3575.53
148.867	3515.95
153.775	2617.88
158.681	4659.72
163.585	10089
168.486	7812.31
173.385	3318.83
178.282	1891.15
183.176	1845.33
188.067	2169.13
192.956	2808.68
197.843	2685.89
202.727	1631.7
207.609	1264.32
212.489	2860.58
217.366	4469.68
222.24	3949.34
227.112	3173.16
231.982	3638.27
236.849	4405.96
241.714	4610.14
246.577	2873.98
251.437	1467.4
256.294	1071.62
261.149	939.106
266.002	1039.66
270.852	692.602
275.7	411.56
280.545	642.319
285.388	963.773
290.229	1109.04
295.067	1506.79
299.902	1596.59
304.735	1863.42
309.566	1949.32
314.394	2510.28
319.22	2740.34
324.043	1978.53
328.864	681.936
333.682	204.467
338.498	623.87
343.311	432.576
348.122	184.179
352.931	150.076
357.737	25.6514
362.54	330.318
367.341	946.898
372.14	1252.01
376.936	845.796
381.73	852.912
386.521	1093.29
391.31	1490.98
396.096	2550.04
400.88	2981.65
405.661	2792.01
410.44	1544.69
415.216	372.818
419.99	21.8135
424.761	35.0488
429.53	527.723
434.297	1476.02
439.061	2265.99
443.822	2047.72
448.581	1694.17
453.337	2659.51
458.091	3443.64
462.843	3133.5
467.592	2393.11
472.338	3147.51
477.082	5719.27
481.824	8545.88
486.563	11535.5
491.3	15357.9
496.034	21068.3
500.765	25787.1
505.494	27536.5
510.221	27172.9
514.945	24465.7
519.666	20409.9
524.385	19205.6
529.102	20416.8
533.816	19038.4
538.527	14454.5
543.236	10917.3
547.943	12447.5
552.647	19374
557.348	25582.8
562.047	24071.6
566.744	19800.7
571.438	14639.8
576.129	10512.5
580.818	9181.49
585.504	10285.9
590.188	15019.8
594.87	26340.4
599.549	36297.8
604.225	28173.8
608.899	18598.8
613.57	16290.6
618.239	13461.4
622.905	9317.92
627.569	8090.58
632.23	8045.69
636.889	6787.34
641.545	4572.87
646.198	3364.67
650.849	3393.38
655.498	4079.92
660.144	3850.25
664.787	2736.33
669.428	1491.12
674.067	794.941
678.703	361.619
683.336	24.7539
687.967	128.213
692.595	262.676
697.221	155.334
701.844	103.465
706.465	71.4356
711.083	53.5469
715.698	72.7363
720.311	80.6387
724.922	174.602
729.53	21.9707
734.135	169.562
738.738	168.514
743.338	591.1
747.936	782.746
752.531	1109.31
757.124	1738.4
761.714	2275
766.302	2495.74
770.887	2492.94
775.469	1830.68
780.049	1731.18
784.626	1660.96
789.201	2232.99
793.773	2607.25
798.343	3550.7
802.91	3953.34
807.475	3678.14
812.037	3138.08
816.596	2746.15
821.153	2026.53
825.707	1691.64
830.259	1273.59
834.808	983.684
839.355	569.447
843.899	611.445
848.441	347.508
852.98	147.244
857.516	7.56055
862.05	87.7109
866.581	62.957
871.11	34.8457
875.636	63.127
880.159	131.094
884.68	87.2988
889.199	18.498
893.714	161.066
898.228	86.0215
902.738	159.414
907.246	32.5918
911.752	242.549
916.255	334.834
920.755	366.584
925.253	711.824
929.748	759.582
934.241	1236.89
938.731	1918.78
943.218	2674.28
947.703	3309.45
952.186	3261.3
956.665	3586.87
961.142	4315.75
965.617	5394.28
970.089	7821.57
974.558	11585.2
979.025	18043.2
983.489	30677.7
987.951	40541.7
992.41	31140.7
996.866	19219.6
1001.32	15341.7
1005.77	15860.5
1010.22	21142
1014.67	31361.8
1019.11	35219
1023.55	28700.1
1027.99	21054.7
1032.42	17865.4
1036.86	16914.2
1041.29	17218
1045.72	15973.8
1050.14	14584.7
1054.56	13980.1
1058.98	12884.2
1063.4	12245
1067.82	10970.4
1072.23	10161.5
1076.64	9170.34
1081.05	7905.42
1085.45	5791.65
1089.85	3504.15
1094.25	2330.21
1098.65	1495.06
1103.04	1019.46
1107.43	1407.03
1111.82	2606.52
1116.21	4334.22
1120.59	4724.8
1124.97	4460.17
1129.35	4135.01
1133.73	3649.27
1138.1	3959.47
1142.47	4664
1146.84	5639.95
1151.21	4238.26
1155.57	2607.04
1159.93	1556.08
1164.29	1244.69
1168.64	1129.76
1172.99	578.07
1177.34	537.324
1181.69	548.814
1186.04	221.647
1190.38	167.832
1194.72	101.109
1199.05	93.0762
1203.39	52.1895
1207.72	16.5078
1212.05	137.988
1216.37	131.039
1220.7	18.1523
1225.02	122.35
1229.34	0.601563
1233.65	126.572
1237.97	41.2715
1242.28	146.693
1246.59	66.2109
1250.89	118.254
1255.19	7.78516
1259.49	24.1211
1263.79	44.627
1268.09	34.0977
1272.38	76.5801
1276.67	120.846
1280.95	227.389
1285.24	234.867
1289.52	210.295
1293.8	23.9746
1298.08	174.592
1302.35	127.129
1306.62	169.719
1310.89	262.535
1315.15	298.342
1319.42	211.713
1323.68	327.234
1327.94	220.088
1332.19	309.084
1336.44	282.857
1340.69	184.205
1344.94	272.594
1349.19	306.459
1353.43	356.949
1357.67	353.557
1361.9	238.85
1366.14	335.852
1370.37	379.961
1374.6	315.76
1378.83	243.805
1383.05	168.721
1387.27	148.623
1391.49	76.8047
1395.7	274.184
1399.92	188.885
1404.13	55.7988
1408.34	24.5527
1412.54	87.4727
1416.74	290.772
1420.94	188.518
1425.14	114.633
1429.34	263.283
1433.53	203.584
1437.72	3.24219
1441.9	39.1328
1446.09	105.727
1450.27	261.736
1454.45	107.281
1458.63	259.506
1462.8	358.178
1466.97	158.367
1471.14	262.236
1475.31	255.525
1479.47	364.869
1483.63	111.353
1487.79	315.008
1491.94	287.551
1496.09	141.977
1500.24	462.336
1504.39	18.252
1508.54	263.445
1512.68	349.846
1516.82	284.873
1520.95	209.449
1525.09	260.137
1529.22	142.266
1533.35	48.2461
1537.47	46.9492
1541.6	287.875
1545.72	197.088
1549.83	286.148
1553.95	365.193
1558.06	161.221
1562.17	150.125
1566.28	155.537
1570.38	0
