Measurement: Raman, 514 nm, ccw, Raman Data Processed
Mineral: Brazilianite
Rruff sample: R050504
Ideal chemistry: NaAl_3_(PO_4_)_2_(OH)_4_
Locality: CÃ³rrego Frio, Minas Gerais, Brazil
Source: Marcus Origlieri
Description: Yellowish green fragment
Measured chemistry: Na_1.00_Al_3.00_(P_1.00_O_4_)_2_(OH)_4_
Pin_id: L00567
Orientation: Laser parallel to (1 0 1). Fiducial mark perpendicular to laser is parallel to b [0 1 0]
Raman shift (cm-1)	intensity
83.602	0
88.542	709.209
93.48	82.8818
98.416	101.953
103.349	594.081
108.28	829.864
113.208	462.988
118.134	233.876
123.058	157.077
127.979	114.244
132.898	52.0117
137.814	355.347
142.728	735.48
147.639	890.525
152.549	782.73
157.455	1248.72
162.359	5511.17
167.261	11484.4
172.161	14462.4
177.058	5323.46
181.952	1435.02
186.845	891.815
191.734	898.953
196.622	1320.52
201.507	1709.56
206.389	1920.05
211.269	2152.86
216.147	2158.61
221.022	2301.58
225.895	2176.19
230.765	2281.85
235.633	1060.34
240.498	1064.7
245.361	1626.41
250.222	2117.64
255.08	903.374
259.936	247.408
264.789	125.56
269.64	649.692
274.488	1430.47
279.334	1497.37
284.178	600.049
289.019	824.485
293.857	1285.64
298.693	889.416
303.527	289.804
308.358	438.803
313.187	909.365
318.013	546.432
322.837	389.924
327.659	1.05273
332.478	152.657
337.294	140.778
342.108	40.5322
346.92	771.776
351.729	1959.59
356.535	2259.32
361.34	1273.15
366.141	516.626
370.94	422.743
375.737	414.517
380.531	45.082
385.323	362.066
390.113	115.696
394.9	112.652
399.684	536.501
404.466	1579.19
409.245	2182.2
414.022	2441.2
418.797	1837.49
423.569	1859.13
428.338	1582.01
433.105	2031.96
437.87	2370.77
442.632	2152.34
447.391	1521.66
452.149	1545.72
456.903	1577.53
461.655	1853.13
466.405	1457.6
471.152	1174.22
475.897	1664.49
480.639	2365.31
485.378	3052.93
490.116	4119.24
494.85	5563.33
499.582	7063.19
504.312	7340.83
509.039	7495.23
513.764	7620.4
518.486	7556.32
523.206	8263.98
527.923	9358.86
532.638	9713.82
537.35	8627.05
542.059	7248.06
546.766	8231
551.471	11775.1
556.173	16665.6
560.873	18653.3
565.57	16530.1
570.264	11345.8
574.957	6980.24
579.646	4863.07
584.333	4700.74
589.018	6258.34
593.7	10462.9
598.379	13859.6
603.056	10998.7
607.73	7956.17
612.402	6869.09
617.072	5236.71
621.739	3752.2
626.403	4101.39
631.065	4905.91
635.724	4708.73
640.381	3204.73
645.035	1692.87
649.687	1355.13
654.336	882.492
658.983	528.918
663.627	394.383
668.268	356.377
672.907	258.547
677.544	42.2773
682.178	79.0371
686.809	32.7129
691.438	124.617
696.065	77.8438
700.688	55.1621
705.31	74.0566
709.929	36.5312
714.545	1.43555
719.158	265.434
723.77	255.272
728.378	362.684
732.984	145.027
737.588	68.6562
742.189	21.3164
746.787	340.705
751.383	398.318
755.976	480.695
760.567	608.572
765.155	692.494
769.741	459.906
774.324	635.035
778.904	373.611
783.482	431.568
788.058	432.92
792.631	671.66
797.201	564.787
801.769	651.297
806.334	589.189
810.897	631.445
815.457	403.115
820.014	216.225
824.569	242.543
829.122	171.695
833.671	134.713
838.219	59.2969
842.763	208.191
847.306	68.125
851.845	0.257813
856.382	100.137
860.917	246.975
865.448	100.215
869.978	54.6699
874.505	46.6387
879.029	63.3789
883.55	70.7715
888.069	147.684
892.586	51.1074
897.1	81.0644
901.611	102.164
906.12	125.008
910.626	206.514
915.129	225.836
919.63	336.002
924.129	407.023
928.625	587.928
933.118	977.793
937.609	1288.64
942.097	2034.45
946.582	2850.25
951.065	3039.16
955.546	3329.84
960.023	4018.78
964.499	5733.97
968.971	8428.24
973.441	9824.39
977.909	9096.95
982.374	9917.79
986.836	12206.2
991.295	10354.9
995.753	7658.53
1000.21	7554.67
1004.66	10053
1009.11	17000.7
1013.55	28917.4
1018	37354.3
1022.44	33260.8
1026.88	24989.4
1031.32	19538.9
1035.75	16690.4
1040.18	14527.8
1044.61	11931.4
1049.04	9414.38
1053.46	7865.91
1057.88	7621.94
1062.3	7299.48
1066.71	6459.08
1071.13	5219.81
1075.54	3438.9
1079.94	2771.34
1084.35	1914.27
1088.75	1198.24
1093.15	741.352
1097.55	543.029
1101.94	224.305
1106.34	48.3184
1110.73	316.115
1115.11	564.375
1119.5	445.914
1123.88	389.176
1128.26	601.133
1132.63	516.182
1137.01	869.082
1141.38	1213.43
1145.75	2122.93
1150.12	1936.53
1154.48	1320.64
1158.84	908.178
1163.2	907.312
1167.55	990.924
1171.91	690.076
1176.26	471.264
1180.61	340.65
1184.95	296.119
1189.29	179.982
1193.63	23.9863
1197.97	16.002
1202.31	71.9434
1206.64	38.0098
1210.97	34.4883
1215.29	97.5332
1219.62	164.764
1223.94	25.9902
1228.26	40.5684
1232.57	78.4023
1236.89	13.8516
1241.2	35.7207
1245.51	85.4004
1249.81	17.0898
1254.12	16.3184
1258.42	80.7988
1262.72	125.213
1267.01	111.172
1271.3	53.7617
1275.59	128.357
1279.88	303.777
1284.17	157.428
1288.45	229.453
1292.73	389.762
1297.01	108.846
1301.28	272.506
1305.55	226.803
1309.82	350.9
1314.09	374.643
1318.35	384.051
1322.61	131.158
1326.87	358.445
1331.13	255.867
1335.38	115.957
1339.63	357.178
1343.88	320.602
1348.12	81.6445
1352.37	199.795
1356.61	263.469
1360.85	167.131
1365.08	313.881
1369.31	46.1035
1373.54	70.7617
1377.77	262.701
1381.99	240.309
1386.22	131.172
1390.43	56.8359
1394.65	196.412
1398.87	4.32422
1403.08	183.16
1407.29	427.701
1411.49	37.8242
1415.69	65.3769
1419.89	101.631
1424.09	191.469
1428.29	233.143
1432.48	169.529
1436.67	141.397
1440.86	337.473
1445.04	247.357
1449.23	250.508
1453.4	309.941
1457.58	377.469
1461.76	483.152
1465.93	94.8223
1470.1	510.225
1474.26	102.898
1478.43	257.377
1482.59	264.969
1486.75	460.016
1490.9	225.803
1495.06	55.916
1499.21	40.9043
1503.35	286.502
1507.5	167.168
1511.64	128.812
1515.78	208.027
1519.92	101.988
1524.05	100.846
1528.18	74.0156
1532.31	117.436
1536.44	195.988
1540.56	321.877
1544.69	308.791
1548.8	324.779
1552.92	233.244
1557.03	221.033
1561.14	182.102
1565.25	286.766
1569.36	1.46289
