Measurement: Raman, 514 nm, ccw, Raman Data Processed
Mineral: Brazilianite
Rruff sample: R050319
Ideal chemistry: NaAl_3_(PO_4_)_2_(OH)_4_
Locality: Minas Gerais, Brazil
Source: American Museum of Natural History
Description: Pale green fragment
Measured chemistry: Na_1.00_Al_3.00_(PO_4_)_2_(OH)_4_
Pin_id: M00275
Orientation: Laser parallel to b* (0 1 0). Fiducial mark perpendicular to laser is parallel to c [0 0 1]
Raman shift (cm-1)	intensity
78.659	0
83.602	339.633
88.542	943.151
93.48	385.908
98.416	30.9077
103.349	142.436
108.28	611.051
113.208	663.045
118.134	1173.62
123.058	282.673
127.979	266.001
132.898	373.022
137.814	396.528
142.728	876.696
147.639	1267.54
152.549	925.401
157.455	830.425
162.359	3339.19
167.261	8220.89
172.161	20183.6
177.058	9188.28
181.952	2259.12
186.845	1213.27
191.734	913.195
196.622	801.902
201.507	753.046
206.389	821.621
211.269	1298.62
216.147	1967.03
221.022	2123.86
225.895	1267.08
230.765	1334.59
235.633	1001.8
240.498	1463.04
245.361	5870.21
250.222	6885.42
255.08	6198.66
259.936	1560.28
264.789	505.296
269.64	788.519
274.488	1479.76
279.334	1309.9
284.178	536.805
289.019	86.4043
293.857	22.6333
298.693	115.42
303.527	57.6992
308.358	681.366
313.187	1568.33
318.013	995.536
322.837	491.001
327.659	428.732
332.478	654.737
337.294	625.927
342.108	714.348
346.92	951.062
351.729	1445.08
356.535	2255.39
361.34	1454.02
366.141	341.961
370.94	54.7529
375.737	239.256
380.531	251.089
385.323	331.829
390.113	222.706
394.9	177.209
399.684	260.516
404.466	984.609
409.245	2282.25
414.022	3179.68
418.797	2697.51
423.569	2427.39
428.338	3243.09
433.105	5616.38
437.87	9010.19
442.632	8213.91
447.391	5220.24
452.149	4936.67
456.903	6959.65
461.655	9428.19
466.405	10524.3
471.152	6779.98
475.897	2970.24
480.639	1766.1
485.378	1762.55
490.116	2323.61
494.85	3673.28
499.582	5096.64
504.312	5715.68
509.039	5948.35
513.764	6929.87
518.486	7084.83
523.206	7607.46
527.923	9131.81
532.638	10325.9
537.35	10219
542.059	9317.91
546.766	9765.95
551.471	12800.6
556.173	19134.7
560.873	23862.7
565.57	23332.5
570.264	16951.3
574.957	9752.77
579.646	5687.9
584.333	4214.72
589.018	4029.25
593.7	5185.44
598.379	7976.27
603.056	8688.79
607.73	8374.9
612.402	9814.57
617.072	8648.38
621.739	5653.16
626.403	4920.65
631.065	5946.41
635.724	6280.49
640.381	4581.68
645.035	2484.44
649.687	1480.59
654.336	899.252
658.983	723.946
663.627	654.445
668.268	351.877
672.907	350.046
677.544	318.702
682.178	118.711
686.809	29.1738
691.438	119.589
696.065	307.213
700.688	75.4482
705.31	43.79
709.929	170.262
714.545	671.265
719.158	1294.37
723.77	1193.37
728.378	992.335
732.984	739.338
737.588	520.274
742.189	505.57
746.787	452.103
751.383	323.862
755.976	283.715
760.567	184.611
765.155	188.09
769.741	87.4199
774.324	113.277
778.904	43.1797
783.482	101.478
788.058	94.2402
792.631	71.0772
797.201	11.0254
801.769	12.1045
806.334	47.1768
810.897	20.5127
815.457	28.8457
820.014	68.2314
824.569	18.6172
829.122	190.142
833.671	151.476
838.219	6.55566
842.763	98
847.306	51.499
851.845	22.9961
856.382	35.043
860.917	113.644
865.448	207.766
869.978	53.5283
874.505	34.3545
879.029	3.27148
883.55	2.51465
888.069	58.6133
892.586	39.3008
897.1	24.4521
901.611	33.1065
906.12	1.60938
910.626	125.132
915.129	262.345
919.63	318.58
924.129	412.49
928.625	425.24
933.118	669.787
937.609	806.463
942.097	1599.94
946.582	2136.14
951.065	2771.32
955.546	3490.44
960.023	4992
964.499	7869.16
968.971	13182.3
973.441	16325
977.909	13665.1
982.374	11192.6
986.836	11324.2
991.295	10138.8
995.753	8070.68
1000.21	8054.71
1004.66	10681.9
1009.11	17059.5
1013.55	30481.9
1018	45084.2
1022.44	44958
1026.88	35365
1031.32	28045.5
1035.75	24338.5
1040.18	21593.7
1044.61	17755.5
1049.04	12630.2
1053.46	9089.49
1057.88	6695.14
1062.3	6301.96
1066.71	6341.67
1071.13	5916.12
1075.54	4215.67
1079.94	2941.8
1084.35	2040.32
1088.75	1516.46
1093.15	1013.21
1097.55	743.445
1101.94	820.621
1106.34	1036.13
1110.73	2012.21
1115.11	3326.45
1119.5	3140.5
1123.88	1752.39
1128.26	934.574
1132.63	584.105
1137.01	362.565
1141.38	271.486
1145.75	426.828
1150.12	338.39
1154.48	484.116
1158.84	319.47
1163.2	300.259
1167.55	334.754
1171.91	168.356
1176.26	194.223
1180.61	51.3408
1184.95	80.3184
1189.29	232.137
1193.63	144.263
1197.97	24.8115
1202.31	25.7119
1206.64	18.6162
1210.97	8.07812
1215.29	25.1787
1219.62	83.5596
1223.94	68.5068
1228.26	55.4014
1232.57	26.7578
1236.89	130.77
1241.2	34.8613
1245.51	13.0273
1249.81	50.9414
1254.12	30.1299
1258.42	96.667
1262.72	2.18164
1267.01	135.772
1271.3	71.4297
1275.59	197.526
1279.88	59.0938
1284.17	144.656
1288.45	119.804
1292.73	148.808
1297.01	282.236
1301.28	128.788
1305.55	180.608
1309.82	294.81
1314.09	204.141
1318.35	304.721
1322.61	253.539
1326.87	214.536
1331.13	122.377
1335.38	283.381
1339.63	252.714
1343.88	243.491
1348.12	183.732
1352.37	192.758
1356.61	277.341
1360.85	112.332
1365.08	59.7852
1369.31	147.098
1373.54	394.543
1377.77	141.048
1381.99	173.435
1386.22	198.989
1390.43	68.0566
1394.65	155.317
1398.87	70.6611
1403.08	111.602
1407.29	134.259
1411.49	221.515
1415.69	179.851
1419.89	145.148
1424.09	217.183
1428.29	79.3799
1432.48	196.198
1436.67	201.051
1440.86	213.528
1445.04	217.942
1449.23	333.818
1453.4	395.146
1457.58	243.102
1461.76	244.688
1465.93	250.861
1470.1	255.068
1474.26	121.877
1478.43	188.794
1482.59	285.773
1486.75	190.669
1490.9	134.201
1495.06	41.29
1499.21	178.037
1503.35	224.926
1507.5	252.717
1511.64	8.45312
1515.78	67.8984
1519.92	259.113
1524.05	91.8809
1528.18	308.594
1532.31	213.049
1536.44	115.346
1540.56	163.86
1544.69	52.9815
1548.8	129.781
1552.92	6.80566
1557.03	122.219
1561.14	96.832
1565.25	81.75
1569.36	47.1953
