Measurement: Raman, 514 nm, ccw, Raman Data Processed
Mineral: Brazilianite
Rruff sample: R050319
Ideal chemistry: NaAl_3_(PO_4_)_2_(OH)_4_
Locality: Minas Gerais, Brazil
Source: American Museum of Natural History
Description: Pale green fragment
Measured chemistry: Na_1.00_Al_3.00_(PO_4_)_2_(OH)_4_
Pin_id: M00315
Orientation: Laser parallel to c* (0 0 1). Fiducial mark perpendicular to laser is parallel to a [1 0 0]
Raman shift (cm-1)	intensity
86.072	0
91.012	227.221
95.948	710.847
100.883	2209.54
105.815	3678.69
110.744	1840.36
115.671	2704.99
120.596	156.826
125.519	53.4395
130.439	25.8955
135.356	65.1738
140.271	664.645
145.184	2081.8
150.094	1970.17
155.002	888.704
159.908	913.213
164.811	2504.92
169.711	5409.68
174.61	5745.85
179.505	1635.23
184.399	761.039
189.29	672.339
194.178	593.816
199.064	586.572
203.948	490.665
208.829	787.494
213.708	1854.72
218.585	3533.32
223.459	1784.34
228.33	1073.89
233.199	1387.18
238.066	2434.43
242.93	4504.23
247.792	6520.14
252.651	12848.1
257.508	4791.32
262.363	1867.78
267.215	2558.01
272.064	3752.73
276.912	3731.36
281.756	1495.58
286.598	1403.95
291.438	1294.99
296.276	1352.85
301.111	837.365
305.943	1715.49
310.773	3975.19
315.601	3997.32
320.426	1305.85
325.248	271.808
330.068	56.877
334.886	74.6914
339.701	37.7685
344.514	109.141
349.324	1174.48
354.132	3247.26
358.938	3857.14
363.741	1618.84
368.541	511.231
373.339	72.3535
378.135	188.905
382.928	354.678
387.718	382.646
392.506	130.964
397.292	223.065
402.075	1332.84
406.856	2867.53
411.634	3876.46
416.41	3234.37
421.183	2345.89
425.954	2995.99
430.722	5983.86
435.488	12524.8
440.251	17046.6
445.012	10556.5
449.77	7847.32
454.526	9543
459.28	12592
464.03	16132.9
468.779	14636.9
473.525	7433.76
478.268	3844.47
483.009	3067.51
487.747	2926.77
492.483	3101.38
497.217	4428.19
501.948	5951.09
506.676	6439.47
511.402	7140.97
516.125	7773.6
520.846	8009.99
525.565	10421.9
530.281	13333.7
534.994	14300.7
539.705	12930.2
544.413	11169
549.119	12070.4
553.822	16190.8
558.523	22421.7
563.222	24836.9
567.917	21796.7
572.611	13654.1
577.302	8494.65
581.99	6181.58
586.676	5022.98
591.359	5517.52
596.04	7305.16
600.718	8180.05
605.394	6552.16
610.067	6009.49
614.737	5925.17
619.406	4779.61
624.071	3977.66
628.734	4756.07
633.395	5238.27
638.053	4346.1
642.708	3238.51
647.361	2437.47
652.012	3005.93
656.66	3914.85
661.305	4205.38
665.948	2930.32
670.588	1946.3
675.226	1130.48
679.861	629.356
684.494	156.769
689.124	175.258
693.752	131.969
698.377	402.883
702.999	314.869
707.619	1.21094
712.237	312.102
716.852	966.652
721.464	1295.75
726.074	1095.61
730.681	951.227
735.286	826.924
739.888	864.74
744.488	701.904
749.085	552.979
753.68	467.982
758.272	547.324
762.861	480.551
767.448	569.85
772.033	625.271
776.614	522.127
781.194	707.424
785.77	632.223
790.345	777.15
794.916	802.195
799.485	849.34
804.052	534.561
808.616	491.82
813.177	519.08
817.736	460.305
822.292	437.449
826.846	264.391
831.397	333.672
835.945	26.0488
840.491	72.4922
845.035	39.7422
849.576	34.8887
854.114	91.8769
858.65	65.459
863.183	39.4922
867.713	22.5059
872.241	35.5371
876.767	16.8867
881.29	15.4062
885.81	31.4473
890.328	61.3359
894.843	49.7148
899.356	60.5234
903.866	263.826
908.373	336.695
912.878	181.184
917.38	358.93
921.88	563.168
926.377	399.736
930.872	695.086
935.364	1192.25
939.853	1434.49
944.34	2118.76
948.824	2872.56
953.306	3938.45
957.785	5858.12
962.261	9419.85
966.735	15561.6
971.207	23589
975.675	24821.2
980.141	21655.1
984.605	22453.6
989.066	22992.2
993.524	16966.5
997.98	13132.6
1002.43	12531
1006.88	14620.9
1011.33	21778.9
1015.78	33328.4
1020.22	40104.1
1024.66	35272.7
1029.1	28927.7
1033.53	25248.1
1037.97	23587.4
1042.4	20906.8
1046.82	16575.2
1051.25	12158.4
1055.67	9136.38
1060.09	7929.2
1064.51	7510.95
1068.92	7231.37
1073.33	7520.51
1077.74	7266.12
1082.15	6857.5
1086.55	5682.22
1090.95	4651.73
1095.35	3749.67
1099.75	3752.47
1104.14	4550.12
1108.53	7392.18
1112.92	14102.4
1117.31	19255.4
1121.69	13341.7
1126.07	8830.8
1130.45	5704.5
1134.82	4136.2
1139.19	3816.6
1143.57	5353.02
1147.93	6907.99
1152.3	4574.02
1156.66	2210.18
1161.02	1425.97
1165.38	968.055
1169.73	705.594
1174.08	486.191
1178.43	215.787
1182.78	17.6895
1187.12	40.9766
1191.46	14.6016
1195.8	21.5352
1200.14	67.2695
1204.47	113.768
1208.8	33.1406
1213.13	50.7285
1217.46	3.41992
1221.78	40.4668
1226.1	65.5195
1230.42	53.1348
1234.73	123.512
1239.04	31.9512
1243.35	28.0879
1247.66	127.611
1251.97	87.0059
1256.27	4.36328
1260.57	125.144
1264.86	36.002
1269.16	72.3086
1273.45	295.033
1277.74	99.5762
1282.03	131.148
1286.31	72.7363
1290.59	196.406
1294.87	432.066
1299.14	101.15
1303.42	257.266
1307.69	417.055
1311.95	287.236
1316.22	348.324
1320.48	595.863
1324.74	623.584
1329	344.236
1333.26	307.859
1337.51	374.07
1341.76	316.42
1346	549.756
1350.25	335.281
1354.49	342.453
1358.73	186.572
1362.96	385.928
1367.2	103.125
1371.43	270.033
1375.66	162.928
1379.88	144.685
1384.11	218.373
1388.33	134.981
1392.54	171.668
1396.76	111.617
1400.97	40.5117
1405.18	159.356
1409.39	171.773
1413.59	107.926
1417.8	115.533
1421.99	5.27344
1426.19	330.863
1430.38	323.652
1434.58	263.998
1438.77	201.549
1442.95	191.553
1447.13	412.691
1451.32	311.699
1455.49	167.279
1459.67	85.3789
1463.84	209.275
1468.01	218.424
1472.18	305.244
1476.35	271.053
1480.51	68.6406
1484.67	337.324
1488.83	96.8066
1492.98	125.447
1497.13	227.502
1501.28	225.435
1505.43	30.627
1509.57	366.904
1513.71	296.961
1517.85	393.09
1521.99	81.2266
1526.12	145.887
1530.25	188.887
1534.38	223.379
1538.5	109.447
1542.62	439.103
1546.74	59.9863
1550.86	62.8418
1554.98	218.769
1559.09	247.648
1563.2	33.0078
1567.31	92.7285
