Measurement: Raman, 514 nm, ccw, Raman Data Processed
Mineral: Brazilianite
Rruff sample: R050319
Ideal chemistry: NaAl_3_(PO_4_)_2_(OH)_4_
Locality: Minas Gerais, Brazil
Source: American Museum of Natural History
Description: Pale green fragment
Measured chemistry: Na_1.00_Al_3.00_(PO_4_)_2_(OH)_4_
Pin_id: M00183
Orientation: Laser parallel to a* (1 0 0). Fiducial mark perpendicular to laser is parallel to -b [0 -1 0]
Raman shift (cm-1)	intensity
81.131	0
86.072	2129.96
91.012	1626.13
95.948	3792.24
100.883	5856.76
105.815	5831.61
110.744	3388.38
115.671	1473.15
120.596	144.569
125.519	324.054
130.439	107.579
135.356	934.641
140.271	2761.92
145.184	3392.07
150.094	2201
155.002	3471.27
159.908	5707.83
164.811	5926.38
169.711	3812.75
174.61	1963.75
179.505	1421.28
184.399	1502.78
189.29	1964.16
194.178	1887.17
199.064	1498.77
203.948	1340.93
208.829	1622.33
213.708	2704.97
218.585	2864.01
223.459	2612.07
228.33	2601.09
233.199	2951.05
238.066	3116.25
242.93	2356.56
247.792	1267.94
252.651	997.212
257.508	772.5
262.363	729.83
267.215	798.773
272.064	947.453
276.912	1131.23
281.756	735.193
286.598	925.297
291.438	1066.03
296.276	1136.19
301.111	1171.48
305.943	1326.95
310.773	1819.62
315.601	2045.49
320.426	1353.57
325.248	564.916
330.068	108.551
334.886	145.873
339.701	301.461
344.514	310.465
349.324	255.654
354.132	261.996
358.938	0.476563
363.741	507.639
368.541	689.816
373.339	767.551
378.135	573.904
382.928	574.666
387.718	697.801
392.506	1284.31
397.292	1876.27
402.075	1904.76
406.856	1406.85
411.634	841.195
416.41	173.252
421.183	112.572
425.954	31.1172
430.722	885.781
435.488	1431.34
440.251	1501.65
445.012	1231.78
449.77	1414.66
454.526	1970.17
459.28	2130.24
464.03	1824.86
468.779	1738.03
473.525	3106.58
478.268	5362.03
483.009	7256.33
487.747	9401.1
492.483	12824.2
497.217	16441.1
501.948	18295
506.676	19093.2
511.402	18306.4
516.125	15632.6
520.846	14482.8
525.565	14980.4
530.281	14876.1
534.994	12074.2
539.705	9324.26
544.413	8972.29
549.119	12642.5
553.822	16925.1
558.523	17470.2
563.222	15079
567.917	11913.6
572.611	8768.34
577.302	7043.01
581.99	7190.61
586.676	9441
591.359	15812.3
596.04	23473.8
600.718	22363.6
605.394	15294.1
610.067	11687.7
614.737	9913.31
619.406	7566.69
624.071	5992.14
628.734	5861.23
633.395	4903.42
638.053	3954.06
642.708	2865.37
647.361	2580.18
652.012	2929.4
656.66	3215
661.305	2420.94
665.948	1359.2
670.588	963.746
675.226	584.539
679.861	38.5527
684.494	70.7519
689.124	16.1914
693.752	95.8965
698.377	94.6777
702.999	296.912
707.619	7.49609
712.237	34.7461
716.852	7.82422
721.464	121.721
726.074	93.1133
730.681	17.7285
735.286	41.2129
739.888	115.527
744.488	762.684
749.085	490.174
753.68	1288.07
758.272	1374.27
762.861	1798.18
767.448	1663.14
772.033	1347.63
776.614	1365.48
781.194	1073.8
785.77	1482.45
790.345	1637.42
794.916	2440.7
799.485	2780.28
804.052	2378.16
808.616	2342.32
813.177	1787.77
817.736	1507.48
822.292	1300.48
826.846	1114
831.397	809.033
835.945	617.359
840.491	424.824
845.035	467.996
849.576	392.647
854.114	188.182
858.65	179.432
863.183	51.5391
867.713	233.59
872.241	29.4805
876.767	73.6641
881.29	183.705
885.81	0.064453
890.328	10.2246
894.843	182.158
899.356	145.17
903.866	36.2812
908.373	72.8477
912.878	120.383
917.38	159.498
921.88	243.279
926.377	570.75
930.872	898.324
935.364	1083
939.853	1615.02
944.34	2017.89
948.824	2298.7
953.306	2588.47
957.785	2792.18
962.261	3475.09
966.735	4761.74
971.207	7363.25
975.675	10858.2
980.141	17712.6
984.605	26540.1
989.066	25146.6
993.524	16514.8
997.98	11806.7
1002.43	10887.9
1006.88	12954.5
1011.33	18723.2
1015.78	24252.2
1020.22	22863.7
1024.66	17427.5
1029.1	13727.2
1033.53	12565.6
1037.97	12452.8
1042.4	11465.9
1046.82	10614.8
1051.25	9860.94
1055.67	9602.59
1060.09	9252.72
1064.51	8455.37
1068.92	7721.95
1073.33	6774.5
1077.74	6046.66
1082.15	4676.07
1086.55	3264.96
1090.95	2155.83
1095.35	1133.41
1099.75	857.012
1104.14	863.078
1108.53	1488.03
1112.92	2497.16
1117.31	3189.98
1121.69	3530.3
1126.07	3091
1130.45	2825.2
1134.82	2581.65
1139.19	3072.07
1143.57	3631.66
1147.93	3519.56
1152.3	2359.19
1156.66	1414.97
1161.02	947.596
1165.38	683.338
1169.73	747.719
1174.08	577.594
1178.43	403.973
1182.78	441.623
1187.12	14.5293
1191.46	191.674
1195.8	164.951
1200.14	192.205
1204.47	196.287
1208.8	156.381
1213.13	59.5801
1217.46	1.20898
1221.78	11.6934
1226.1	30.8691
1230.42	75.3379
1234.73	35.6934
1239.04	77.666
1243.35	140.978
1247.66	238.305
1251.97	77.2969
1256.27	179.301
1260.57	93.082
1264.86	194.305
1269.16	59.5312
1273.45	146.641
1277.74	70.7812
1282.03	395.551
1286.31	98.4062
1290.59	282.227
1294.87	222.816
1299.14	316.477
1303.42	225.231
1307.69	358.418
1311.95	374.461
1316.22	513.332
1320.48	575.137
1324.74	324.18
1329	324.746
1333.26	256.129
1337.51	457.25
1341.76	132.539
1346	450.082
1350.25	99.3281
1354.49	259.242
1358.73	71.8633
1362.96	200.242
1367.2	234.32
1371.43	531.758
1375.66	25.1953
1379.88	108.914
1384.11	318.754
1388.33	161.293
1392.54	137.891
1396.76	139.477
1400.97	149.504
1405.18	17.0312
1409.39	87.4102
1413.59	191.418
1417.8	291.695
1421.99	210.731
1426.19	201.812
1430.38	340.117
1434.58	239.793
1438.77	372.531
1442.95	400.109
1447.13	502.906
1451.32	452.43
1455.49	573.16
1459.67	251.977
1463.84	471.504
1468.01	352.856
1472.18	271.656
1476.35	278.965
1480.51	126.965
1484.67	249.809
1488.83	318.004
1492.98	233.918
1497.13	32.8516
1501.28	205.953
1505.43	190.844
1509.57	96.5703
1513.71	9.41797
1517.85	123.445
1521.99	138.559
1526.12	242.438
1530.25	97.3359
1534.38	341.734
1538.5	89.457
1542.62	25.8828
1546.74	48.5703
1550.86	258.93
1554.98	92.6484
1559.09	249.449
1563.2	279.762
1567.31	281.773
