Measurement: Raman, 514 nm, ccw, Raman Data Processed
Mineral: Brazilianite
Rruff sample: R050319
Ideal chemistry: NaAl_3_(PO_4_)_2_(OH)_4_
Locality: Minas Gerais, Brazil
Source: American Museum of Natural History
Description: Pale green fragment
Measured chemistry: Na_1.00_Al_3.00_(PO_4_)_2_(OH)_4_
Pin_id: M00246
Orientation: Laser parallel to (1 0 1). Fiducial mark perpendicular to laser is parallel to b [0 1 0]
Raman shift (cm-1)	intensity
78.659	0
83.602	2271.07
88.542	1713.35
93.48	727.923
98.416	843.674
103.349	1476.46
108.28	1654.21
113.208	995.667
118.134	462.101
123.058	52.9004
127.979	99.4956
132.898	126.897
137.814	51.6977
142.728	249.862
147.639	465.349
152.549	366.906
157.455	1157.32
162.359	4775.2
167.261	11220.8
172.161	24828.1
177.058	8461.73
181.952	1854.43
186.845	697.421
191.734	585.543
196.622	986.754
201.507	2083.95
206.389	2764.96
211.269	3058.77
216.147	2281
221.022	2329.19
225.895	2603.08
230.765	3690.25
235.633	1447.41
240.498	917.036
245.361	1588.01
250.222	1794.34
255.08	920.352
259.936	30.8047
264.789	272.674
269.64	641.207
274.488	1441.7
279.334	1445.28
284.178	408.409
289.019	256.538
293.857	545.234
298.693	584.473
303.527	188.277
308.358	538.65
313.187	1461.57
318.013	1378.95
322.837	1348.11
327.659	563.037
332.478	51.7559
337.294	241.951
342.108	47.5371
346.92	685.4
351.729	2220.12
356.535	4012.77
361.34	2780.83
366.141	675.717
370.94	87.4297
375.737	123.945
380.531	59.1328
385.323	108.061
390.113	100.178
394.9	501.036
399.684	1479.02
404.466	2656.58
409.245	3799.72
414.022	4322.34
418.797	3439.3
423.569	3018.36
428.338	2322.57
433.105	1558.18
437.87	1535.87
442.632	1239.44
447.391	1198.88
452.149	1103.34
456.903	747.915
461.655	227.69
466.405	150.489
471.152	458.167
475.897	946.662
480.639	1602.8
485.378	2600.37
490.116	3702.3
494.85	5550.02
499.582	7383.53
504.312	8063.82
509.039	8095.89
513.764	8592.68
518.486	8733.21
523.206	9598.43
527.923	11167.1
532.638	11969
537.35	10828.4
542.059	9179.17
546.766	9366.77
551.471	12278.2
556.173	17632.1
560.873	20084.4
565.57	18640.5
570.264	13237.7
574.957	8002.86
579.646	5504.74
584.333	5676.25
589.018	8065.93
593.7	14220.9
598.379	21326.5
603.056	17690.8
607.73	11452.3
612.402	9028.9
617.072	6504.34
621.739	4561.91
626.403	4663.09
631.065	5023.34
635.724	4995.39
640.381	3535.21
645.035	2381.74
649.687	1846.95
654.336	1479.81
658.983	1055.28
663.627	754.342
668.268	444.012
672.907	180.562
677.544	95.7061
682.178	16.2295
686.809	93.1514
691.438	75.9102
696.065	156.33
700.688	90.6768
705.31	29.3145
709.929	18.1992
714.545	25.333
719.158	214.763
723.77	74.4062
728.378	66.1289
732.984	38.3125
737.588	150.441
742.189	23.9033
746.787	179.919
751.383	397.935
755.976	561.35
760.567	666.349
765.155	649.639
769.741	855.643
774.324	756.263
778.904	597.362
783.482	581.293
788.058	702.404
792.631	961.7
797.201	861.194
801.769	909.898
806.334	786.827
810.897	718.992
815.457	376.804
820.014	356.469
824.569	390.442
829.122	318.167
833.671	190.037
838.219	320.674
842.763	267.132
847.306	200.232
851.845	201.183
856.382	397.718
860.917	332.042
865.448	311.312
869.978	113.004
874.505	32.0312
879.029	55.5684
883.55	84.6836
888.069	0.939453
892.586	130.07
897.1	160.334
901.611	56.9873
906.12	99.1543
910.626	124.251
915.129	145.346
919.63	190.516
924.129	363.788
928.625	580.189
933.118	872.883
937.609	1679.95
942.097	2572.37
946.582	4055.24
951.065	4708.69
955.546	4624.71
960.023	4697.44
964.499	6150.1
968.971	8759.99
973.441	10283
977.909	10122.4
982.374	11235.9
986.836	14371.3
991.295	13221.2
995.753	9224.66
1000.21	8616.81
1004.66	10706.7
1009.11	16625.8
1013.55	28768.9
1018	40631.5
1022.44	38580.6
1026.88	28618.7
1031.32	21634.2
1035.75	17418.5
1040.18	14942.8
1044.61	12243.2
1049.04	9453.6
1053.46	7659.64
1057.88	7331.3
1062.3	7362.58
1066.71	6518.42
1071.13	5051.98
1075.54	3737.01
1079.94	2762.4
1084.35	2091.55
1088.75	1629.5
1093.15	1018.81
1097.55	696.33
1101.94	578.301
1106.34	483.184
1110.73	473.486
1115.11	657.283
1119.5	741.869
1123.88	632.971
1128.26	623.207
1132.63	653.596
1137.01	696.167
1141.38	834.047
1145.75	1010.32
1150.12	1019.14
1154.48	926.465
1158.84	869.347
1163.2	902.625
1167.55	1001.28
1171.91	849.209
1176.26	531.351
1180.61	229.659
1184.95	172.102
1189.29	91.6602
1193.63	81.6787
1197.97	13.6367
1202.31	38.2451
1206.64	55.1865
1210.97	77.8018
1215.29	61.002
1219.62	104.465
1223.94	71.5391
1228.26	69.3477
1232.57	48.2637
1236.89	361.245
1241.2	95.625
1245.51	217.425
1249.81	124.921
1254.12	130.345
1258.42	85.2998
1262.72	162.183
1267.01	295.93
1271.3	230.45
1275.59	463.037
1279.88	221.33
1284.17	223.529
1288.45	316.129
1292.73	498.838
1297.01	255.856
1301.28	332.894
1305.55	464.128
1309.82	518.884
1314.09	487.385
1318.35	726.622
1322.61	361.536
1326.87	343.368
1331.13	153.757
1335.38	195.828
1339.63	145.503
1343.88	143.193
1348.12	131.506
1352.37	177.753
1356.61	88.7412
1360.85	117.658
1365.08	5.72949
1369.31	182.852
1373.54	147.236
1377.77	58.4541
1381.99	13.0615
1386.22	167.702
1390.43	84.4072
1394.65	160.531
1398.87	79.6943
1403.08	132.467
1407.29	232.27
1411.49	33.8096
1415.69	118.821
1419.89	132.358
1424.09	233.653
1428.29	113.764
1432.48	191.825
1436.67	303.431
1440.86	648.058
1445.04	839.789
1449.23	1084.64
1453.4	949.264
1457.58	988.311
1461.76	742.45
1465.93	709.714
1470.1	531.689
1474.26	494.204
1478.43	436.191
1482.59	434.405
1486.75	268.642
1490.9	187.192
1495.06	114.786
1499.21	173.933
1503.35	40.5605
1507.5	1.78223
1511.64	13.8672
1515.78	105.575
1519.92	106.595
1524.05	33.002
1528.18	150.59
1532.31	163.673
1536.44	146.427
1540.56	162.417
1544.69	169.661
1548.8	85.6758
1552.92	126.659
1557.03	31.2725
1561.14	21.4902
1565.25	20.8486
1569.36	256.677
