Measurement: Raman, 514 nm, ccw, Raman Data Processed
Mineral: Brazilianite
Rruff sample: R050126
Ideal chemistry: NaAl_3_(PO_4_)_2_(OH)_4_
Locality: Linopolis, Minas Gerais, Brazil
Source: Carlos and Paulo Vasconcelos
Description: Pair of greenish yellow elongated crystals
Measured chemistry: Na_1.00_Al_3.00_(P_1.00_O_4_)_2_((OH)_3.80_F_0.20_)_Î£=4_
Pin_id: L00438
Orientation: Laser parallel to -a* (-1 0 0). Fiducial mark perpendicular to laser is parallel to b [0 1 0]
Raman shift (cm-1)	intensity
134.381	0
138.564	0.751
142.745	365.945
146.923	1282.16
151.099	1535.29
155.272	819.575
159.444	370.204
163.613	372.029
167.78	1431.56
171.945	6237.56
176.108	10887.1
180.268	3953.47
184.426	1395.31
188.582	738.361
192.736	400.828
196.887	274.275
201.036	87.885
205.184	12.433
209.328	13.958
213.471	172.714
217.611	1356.05
221.75	2608.93
225.886	1303.69
230.019	413.224
234.151	250.066
238.281	475.99
242.408	1598.79
246.533	3514.74
250.656	5757.53
254.776	11905.7
258.895	7752.12
263.011	2422.38
267.125	1311.71
271.237	1549.04
275.346	2567.67
279.454	3321.62
283.559	1556.8
287.662	378.172
291.763	161.778
295.862	212.649
299.959	77.859
304.053	7.627
308.146	342.444
312.236	1589.78
316.324	3082.19
320.409	2021.49
324.493	668.583
328.574	216.583
332.654	36.554
336.731	8.713
340.806	2.07
344.879	62.519
348.949	158.099
353.018	718.851
357.084	1837.78
361.148	2830.87
365.21	1539.04
369.27	280.445
373.328	164.602
377.384	243.346
381.437	206.724
385.488	169.223
389.538	160.955
393.585	52.773
397.63	71.485
401.672	343.899
405.713	869.356
409.752	1897.08
413.788	3087.07
417.822	3095.27
421.854	2620.68
425.884	2570.39
429.912	3167.89
433.938	5255.77
437.962	10093.1
441.983	15911.8
446.003	13620.9
450.02	8750.45
454.035	8090.41
458.048	10280.8
462.059	13261.6
466.068	17228
470.075	19169.2
474.08	14171
478.082	7083.17
482.083	3395.72
486.081	2194.75
490.077	1916.33
494.072	2150.25
498.064	2761.92
502.054	3833.07
506.041	4777
510.027	5220.58
514.011	5734.77
517.993	6317.69
521.972	6817.34
525.95	7827.62
529.925	9398.56
533.898	10996.5
537.869	11878.1
541.839	11636.7
545.806	10956.4
549.771	10687.5
553.734	11805.7
557.694	15598.7
561.653	22004
565.61	25099.6
569.565	23805.7
573.517	18412.2
577.468	12179.1
581.416	8136.44
585.362	5883.18
589.307	4404.34
593.249	3801.92
597.189	3944.91
601.127	4925.3
605.064	5850.09
608.998	5661.27
612.93	6393.82
616.86	7820.74
620.787	7022.02
624.713	4870.7
628.637	4113.76
632.559	4602.16
636.479	5786.24
640.396	5298.92
644.312	3545.13
648.226	2294.47
652.137	1895.57
656.047	1968.23
659.954	1978.98
663.86	2066.29
667.763	1640.58
671.665	1427.12
675.564	1086.28
679.462	835.048
683.357	607.15
687.25	401.861
691.142	233.539
695.031	114.944
698.918	26.411
702.804	70.183
706.687	17.803
710.568	117.382
714.447	467.623
718.325	970.804
722.2	1593.92
726.073	1650.95
729.944	1528.89
733.814	1326.74
737.681	1219.48
741.546	914.106
745.409	804.608
749.27	691.977
753.13	567.204
756.987	516.281
760.842	358.201
764.695	290.955
768.547	270.535
772.396	213.934
776.243	236.144
780.089	153.158
783.932	109.969
787.773	44.569
791.613	21.915
795.45	1.869
799.285	59.695
803.119	112.969
806.95	144.166
810.78	179.389
814.607	108.686
818.433	123.032
822.256	66.493
826.078	146.907
829.898	142.269
833.715	99.488
837.531	8.447
841.345	16.945
845.157	24.309
848.966	31.816
852.774	9.72
856.58	87.197
860.384	10.262
864.186	92.559
867.986	89.146
871.784	76.506
875.581	159.643
879.375	216.561
883.167	258.266
886.957	273.762
890.746	270.054
894.532	313.148
898.317	360.048
902.099	451.762
905.88	435.293
909.659	453.649
913.435	448.834
917.21	550.857
920.983	630.724
924.754	772.439
928.523	961.016
932.29	1220.46
936.056	1350.79
939.819	1572.01
943.58	2005.62
947.34	2435.85
951.097	3039.08
954.853	3924.09
958.606	5056.1
962.358	7105.7
966.108	10674.3
969.856	16600.4
973.602	22960.5
977.346	23130
981.088	19322.6
984.828	16944.4
988.567	16598.1
992.303	15395.4
996.038	13158
999.77	12281.2
1003.5	12696.1
1007.23	14525.6
1010.96	19383.6
1014.68	28644
1018.4	41114.7
1022.13	45465.6
1025.85	40296.8
1029.56	32968.2
1033.28	28639.8
1036.99	26081.7
1040.7	24773.8
1044.41	22146.2
1048.12	17828.8
1051.83	13941.6
1055.53	10444.8
1059.24	8488.15
1062.94	7441.79
1066.63	6868.71
1070.33	6342.89
1074.03	5680.35
1077.72	5022.4
1081.41	4329.81
1085.1	3809.69
1088.79	3437.3
1092.47	3006.67
1096.16	2692.56
1099.84	2923.28
1103.52	3097.78
1107.2	3961.08
1110.87	6111.21
1114.55	9970.25
1118.22	11289.8
1121.89	8111.81
1125.56	5816.02
1129.23	4132.29
1132.89	2852.15
1136.56	2150.65
1140.22	2025.92
1143.88	2530.4
1147.53	3482.75
1151.19	2951.17
1154.84	1770.79
1158.5	1216.69
1162.15	907.694
1165.8	746.21
1169.44	549.634
1173.09	452.824
1176.73	374.341
1180.37	273.61
1184.01	234.031
1187.65	170.616
1191.28	125.278
1194.92	83.968
1198.55	75.726
1202.18	39.583
1205.81	56.486
1209.43	112.488
1213.06	95.622
1216.68	31.653
1220.3	19.249
1223.92	7.875
1227.54	21.888
1231.15	40.96
1234.77	31.523
1238.38	11.46
1241.99	41.682
1245.6	45.266
1249.21	49.772
1252.81	86.58
1256.41	67.999
1260.01	76.176
1263.61	82.619
1267.21	37.116
1270.81	14.153
1274.4	22.173
1277.99	11.842
1281.58	12.859
1285.17	15.926
1288.76	9.133
1292.34	31.37
1295.93	81.642
1299.51	75.607
1303.09	92.21
1306.66	92.614
1310.24	107.615
1313.82	145.417
1317.39	74.928
1320.96	147.176
1324.53	133.195
1328.09	148.87
1331.66	149.437
1335.22	202.715
1338.79	189.695
1342.35	157.421
1345.9	149.504
1349.46	144.139
1353.01	128.169
1356.57	161.928
1360.12	157.469
1363.67	178.668
1367.21	159.711
1370.76	132.687
1374.3	132.406
1377.85	174.382
1381.39	169.443
1384.93	148.32
1388.46	86.033
1392	57.604
1395.53	52.737
1399.06	70.423
1402.59	69.702
1406.12	86.027
1409.65	88.787
1413.17	93.65
1416.69	61.498
1420.22	66.277
1423.74	74.923
1427.25	37.732
1430.77	49.066
1434.28	50.708
1437.8	43.54
1441.31	76.82
1444.82	69.996
1448.32	66.222
1451.83	111.444
1455.33	69.291
1458.83	92.755
1462.34	64.144
1465.83	73.368
1469.33	37.456
1472.83	48.301
1476.32	49.883
1479.81	45.522
1483.3	41.266
1486.79	38.613
1490.28	54.973
1493.76	60.363
1497.24	97.425
1500.72	3.729
1504.2	31.911
1507.68	7.734
1511.16	0.053
1514.63	0.077
