Measurement: Raman, 514 nm, ccw, Raman Data Processed
Mineral: Brazilianite
Rruff sample: R050126
Ideal chemistry: NaAl_3_(PO_4_)_2_(OH)_4_
Locality: Linopolis, Minas Gerais, Brazil
Source: Carlos and Paulo Vasconcelos
Description: Pair of greenish yellow elongated crystals
Measured chemistry: Na_1.00_Al_3.00_(P_1.00_O_4_)_2_((OH)_3.80_F_0.20_)_Î£=4_
Pin_id: L00438
Orientation: Laser parallel to -a* (-1 0 0). Fiducial mark perpendicular to laser is parallel to b [0 1 0]
Raman shift (cm-1)	intensity
134.381	0
138.564	12.254
142.745	305.7
146.923	1180.87
151.099	1395.8
155.272	613.827
159.444	328.133
163.613	1031.3
167.78	2801.43
171.945	4608.31
176.108	5888.31
180.268	2117.2
184.426	653.747
188.582	404.552
192.736	227.437
196.887	319.479
201.036	378.878
205.184	142.352
209.328	167.602
213.471	202.867
217.611	1077.08
221.75	2028.68
225.886	1199.82
230.019	672.698
234.151	696.736
238.281	1125.22
242.408	2056.33
246.533	2983.57
250.656	3634.08
254.776	6288.07
258.895	3871.22
263.011	1128.29
267.125	648.12
271.237	768.081
275.346	1202.44
279.454	1450.18
283.559	706.325
287.662	361.907
291.763	908.944
295.862	1899.46
299.959	2217.18
304.053	1199.1
308.146	821.559
312.236	1368.1
316.324	2083.35
320.409	1776.06
324.493	1063.07
328.574	469.338
332.654	69.181
336.731	192.041
340.806	261.735
344.879	364.9
348.949	311.775
353.018	40.791
357.084	910.159
361.148	1571.49
365.21	951.838
369.27	311.253
373.328	442.714
377.384	526.668
381.437	540.864
385.488	98.686
389.538	26.182
393.585	63.24
397.63	170.693
401.672	436.374
405.713	998.832
409.752	1713.45
413.788	1981.53
417.822	1904.07
421.854	1489.09
425.884	1164.56
429.912	1339.45
433.938	2613.81
437.962	5366.64
441.983	8626.92
446.003	7248.67
450.02	4638.87
454.035	4342.54
458.048	5826.66
462.059	7480.23
466.068	9664.21
470.075	10548.6
474.08	8073.33
478.082	5199.44
482.083	4441.9
486.081	4970.73
490.077	5769.91
494.072	5816.45
498.064	6314.27
502.054	7575.62
506.041	8644.53
510.027	9224.35
514.011	9374.24
517.993	9063.24
521.972	8422.7
525.95	8722.62
529.925	9803.02
533.898	10739.5
537.869	10952.9
541.839	9940.89
545.806	9129.63
549.771	8859.18
553.734	9734.07
557.694	13050.2
561.653	17706.1
565.61	18842.7
569.565	17400.2
573.517	14068.3
577.468	10217
581.416	8396.22
585.362	7435.83
589.307	6275.83
593.249	6186.2
597.189	7686.94
601.127	11078
605.064	12159.5
608.998	9221.25
612.93	7763.35
616.86	8375.76
620.787	7648.48
624.713	5554.5
628.637	4473.81
632.559	4535.4
636.479	5114.26
640.396	4642.38
644.312	3053.76
648.226	1987.39
652.137	1610.28
656.047	1678.7
659.954	1780.87
663.86	1759.07
667.763	1266.43
671.665	909.465
675.564	633.718
679.462	342.141
683.357	160.879
687.25	58.552
691.142	65.724
695.031	94.626
698.918	194.618
702.804	164.264
706.687	179.04
710.568	10.879
714.447	256.321
718.325	534.253
722.2	818.759
726.073	893.027
729.944	800.929
733.814	806.006
737.681	762.322
741.546	566.802
745.409	508.83
749.27	546.782
753.13	599.518
756.987	652.098
760.842	616.516
764.695	601.766
768.547	760.839
772.396	764.731
776.243	719.435
780.089	625.945
783.932	476.254
787.773	475.358
791.613	574.252
795.45	681.93
799.285	732.39
803.119	759.628
806.95	793.641
810.78	693.425
814.607	607.97
818.433	483.267
822.256	415.302
826.078	271.062
829.898	204.545
833.715	217.75
837.531	140.66
841.345	142.465
845.157	95.759
848.966	32.345
852.774	65.03
856.58	25.359
860.384	54.169
864.186	83.917
867.986	113.327
871.784	113.728
875.581	138.064
879.375	78.304
883.167	15.733
886.957	3.69
890.746	16.582
894.532	42.648
898.317	59.541
902.099	133.266
905.88	147.83
909.659	135.24
913.435	192.501
917.21	331.62
920.983	336.604
924.754	557.457
928.523	705.186
932.29	914.798
936.056	1033.3
939.819	1270.7
943.58	1704.02
947.34	2180.29
951.097	2661.58
954.853	3179.93
958.606	3957.32
962.358	5395.8
966.108	7657.36
969.856	11457
973.602	15646.8
977.346	16796.5
981.088	15916.4
984.828	16636.3
988.567	19204.4
992.303	18412.7
996.038	14647.7
999.77	12477.5
1003.5	11991.8
1007.23	12896
1010.96	16532.6
1014.68	23636.4
1018.4	32927.8
1022.13	35523.4
1025.85	30847
1029.56	25230.2
1033.28	22001.9
1036.99	20099.9
1040.7	19332.4
1044.41	17846.2
1048.12	15050.2
1051.83	12244.3
1055.53	10188.8
1059.24	8903.44
1062.94	8198.31
1066.63	7523.4
1070.33	6998.7
1074.03	6490.23
1077.72	5817.98
1081.41	5231.99
1085.1	4587.3
1088.79	3721.92
1092.47	3182.16
1096.16	2854.52
1099.84	2810.3
1103.52	3067.2
1107.2	3431.91
1110.87	4955.97
1114.55	7756.66
1118.22	9044.85
1121.89	7499.29
1125.56	6392.5
1129.23	5506.09
1132.89	4441.72
1136.56	4090.15
1140.22	4435.12
1143.88	6120.09
1147.53	8778.29
1151.19	7343.48
1154.84	4524.8
1158.5	2942.21
1162.15	2188.3
1165.8	1817.3
1169.44	1458.14
1173.09	1195.54
1176.73	912.012
1180.37	724.89
1184.01	611.075
1187.65	368.397
1191.28	361.808
1194.92	247.065
1198.55	195.535
1202.18	150.28
1205.81	135.695
1209.43	156.169
1213.06	121.567
1216.68	97.072
1220.3	41.727
1223.92	18.259
1227.54	13.842
1231.15	5.459
1234.77	25.336
1238.38	44.004
1241.99	60.171
1245.6	17.816
1249.21	32.183
1252.81	110.423
1256.41	58.539
1260.01	86.04
1263.61	49.013
1267.21	30.087
1270.81	4.042
1274.4	34.384
1277.99	5.541
1281.58	3.378
1285.17	26.683
1288.76	52.156
1292.34	0.66
1295.93	23.18
1299.51	40.155
1303.09	78.704
1306.66	75.144
1310.24	102.411
1313.82	54.342
1317.39	107.081
1320.96	36.569
1324.53	74.844
1328.09	76.901
1331.66	88.789
1335.22	112.429
1338.79	206.828
1342.35	150.977
1345.9	182.84
1349.46	131.422
1353.01	154.963
1356.57	124.903
1360.12	103.781
1363.67	151.426
1367.21	191.862
1370.76	172.084
1374.3	197.954
1377.85	180.206
1381.39	223.785
1384.93	135.005
1388.46	93.353
1392	47.883
1395.53	102.449
1399.06	97.234
1402.59	110.853
1406.12	77.315
1409.65	104.475
1413.17	60.522
1416.69	81.69
1420.22	83.576
1423.74	52.642
1427.25	49.366
1430.77	19.591
1434.28	5.942
1437.8	36.368
1441.31	26.78
1444.82	105.843
1448.32	126.433
1451.83	92.991
1455.33	96.427
1458.83	127.931
1462.34	85.172
1465.83	38.066
1469.33	44.726
1472.83	55.119
1476.32	64.016
1479.81	90.64
1483.3	22.128
1486.79	98.522
1490.28	114.137
1493.76	103.758
1497.24	78.752
1500.72	37.724
1504.2	9.022
1507.68	33.1
1511.16	37.064
1514.63	52.603
1518.1	0.428
