Measurement: Raman, 514 nm, ccw, Raman Data Processed
Mineral: Brazilianite
Rruff sample: R050126
Ideal chemistry: NaAl_3_(PO_4_)_2_(OH)_4_
Locality: Linopolis, Minas Gerais, Brazil
Source: Carlos and Paulo Vasconcelos
Description: Pair of greenish yellow elongated crystals
Measured chemistry: Na_1.00_Al_3.00_(P_1.00_O_4_)_2_((OH)_3.80_F_0.20_)_Î£=4_
Pin_id: L00537
Orientation: Laser parallel to b* (0 1 0). Fiducial mark perpendicular to laser is parallel to c [0 0 1]
Raman shift (cm-1)	intensity
134.381	0
138.564	43.693
142.745	296.27
146.923	585.354
151.099	814.688
155.272	450.362
159.444	238.63
163.613	476.815
167.78	1185.1
171.945	4450.87
176.108	6932.72
180.268	1527.08
184.426	232.082
188.582	37.492
192.736	76.927
196.887	69.123
201.036	525.534
205.184	672.392
209.328	692.876
213.471	602.608
217.611	647.724
221.75	1175.56
225.886	627.956
230.019	734.259
234.151	896.149
238.281	284.364
242.408	664.839
246.533	1190.03
250.656	638.489
254.776	1688.04
258.895	636.296
263.011	217.844
267.125	51.167
271.237	263.829
275.346	419.096
279.454	809.663
283.559	1511.38
287.662	1635.41
291.763	948.862
295.862	312.736
299.959	112.429
304.053	111.898
308.146	514.781
312.236	1747.76
316.324	2969.68
320.409	2922.51
324.493	3184.56
328.574	2651.7
332.654	1909.1
336.731	1548.21
340.806	1394.16
344.879	1356.02
348.949	1592.27
353.018	2861.19
357.084	5935.16
361.148	9613.39
365.21	6377.41
369.27	2963.95
373.328	1458.71
377.384	227.701
381.437	3.02
385.488	99.515
389.538	5.575
393.585	17.334
397.63	110.232
401.672	481.741
405.713	1374.77
409.752	2549.3
413.788	3426.13
417.822	3636.29
421.854	3022.81
425.884	2834.9
429.912	2349.92
433.938	1563.03
437.962	1540.49
441.983	1865.14
446.003	1197.97
450.02	257.979
454.035	85.168
458.048	81.527
462.059	60.039
466.068	8.853
470.075	176.409
474.08	364.805
478.082	169.219
482.083	206.664
486.081	425.146
490.077	815.446
494.072	1527.29
498.064	2438.98
502.054	3832.82
506.041	4918.6
510.027	5409.53
514.011	5605.6
517.993	5775.96
521.972	6212.59
525.95	7674.35
529.925	9626.19
533.898	10998.6
537.869	11036.4
541.839	9634.44
545.806	8117.93
549.771	6934.37
553.734	7028.09
557.694	9407.04
561.653	12921.3
565.61	13941.6
569.565	13004.5
573.517	10169
577.468	7159.19
581.416	5859.9
585.362	5788.13
589.307	6312.95
593.249	8743.56
597.189	13888.6
601.127	19682.8
605.064	16626.4
608.998	8769.73
612.93	5529.79
616.86	3968
620.787	3257.14
624.713	2713.16
628.637	2449.79
632.559	2485.28
636.479	2882.01
640.396	2636.33
644.312	2119.32
648.226	1932.06
652.137	2225.9
656.047	2702.4
659.954	3114.87
663.86	3155.93
667.763	2562.81
671.665	1813.51
675.564	1121.01
679.462	651.315
683.357	363.416
687.25	149.309
691.142	60.984
695.031	31.369
698.918	39.332
702.804	81.191
706.687	95.363
710.568	72.106
714.447	11.51
718.325	23.55
722.2	11.919
726.073	45.084
729.944	39.788
733.814	33.509
737.681	58.504
741.546	9.662
745.409	35.423
749.27	68.9
753.13	137.773
756.987	191.084
760.842	213.929
764.695	183.502
768.547	150.809
772.396	219.85
776.243	275.646
780.089	222.23
783.932	147.561
787.773	90.638
791.613	192.458
795.45	242.032
799.285	224.363
803.119	136.461
806.95	166.326
810.78	111.967
814.607	173.384
818.433	249.587
822.256	392.583
826.078	528.379
829.898	802.978
833.715	1047.39
837.531	1021.61
841.345	723.567
845.157	450.54
848.966	301.214
852.774	304.679
856.58	286.138
860.384	309.554
864.186	261.43
867.986	108.896
871.784	6.356
875.581	27.147
879.375	16.125
883.167	2.724
886.957	22.803
890.746	89.377
894.532	121.366
898.317	70.948
902.099	5.452
905.88	8.709
909.659	50.25
913.435	28.585
917.21	74.985
920.983	196.52
924.754	321.143
928.523	485.819
932.29	691.656
936.056	839.447
939.819	1247.26
943.58	2035.36
947.34	2984.52
951.097	3798.07
954.853	4007.8
958.606	3881.6
962.358	4198.58
966.108	5553.88
969.856	8229.45
973.602	11305.2
977.346	12051.2
981.088	11987.4
984.828	14313.8
988.567	18120.4
992.303	17207.3
996.038	11894.5
999.77	8741.93
1003.5	7569.68
1007.23	7537.83
1010.96	9366.41
1014.68	13515.4
1018.4	19404.8
1022.13	21304.5
1025.85	17813.8
1029.56	13582.5
1033.28	10740.4
1036.99	9154.45
1040.7	8416.38
1044.41	7440.8
1048.12	5886.55
1051.83	4642.92
1055.53	3838.32
1059.24	3631.76
1062.94	4169.69
1066.63	5282.3
1070.33	7023.15
1074.03	8017.35
1077.72	7963.33
1081.41	7400.59
1085.1	6799.44
1088.79	6320.85
1092.47	5657.17
1096.16	4988.65
1099.84	4534.27
1103.52	4147.29
1107.2	4046.6
1110.87	4983.07
1114.55	7376.47
1118.22	8517.42
1121.89	6060.35
1125.56	3895.26
1129.23	2567.49
1132.89	1693.99
1136.56	1239.87
1140.22	1038.83
1143.88	924.307
1147.53	996.49
1151.19	904.149
1154.84	742.017
1158.5	605.884
1162.15	423.472
1165.8	363.03
1169.44	262.152
1173.09	180.704
1176.73	170.421
1180.37	118.064
1184.01	158.323
1187.65	78.64
1191.28	65.472
1194.92	51.926
1198.55	44.134
1202.18	20.226
1205.81	68.873
1209.43	47.055
1213.06	81.031
1216.68	64.925
1220.3	12.277
1223.92	56.542
1227.54	3
1231.15	40.594
1234.77	2.637
1238.38	16.178
1241.99	10.255
1245.6	7.643
1249.21	12.551
1252.81	81.594
1256.41	16.92
1260.01	31.249
1263.61	20.051
1267.21	43.298
1270.81	49.927
1274.4	37.256
1277.99	10.721
1281.58	16.106
1285.17	11.011
1288.76	37.651
1292.34	15.028
1295.93	21.289
1299.51	41.261
1303.09	45.035
1306.66	118.596
1310.24	124.961
1313.82	65.134
1317.39	54.119
1320.96	76.929
1324.53	49.56
1328.09	75.016
1331.66	67.296
1335.22	155.384
1338.79	130.608
1342.35	123.44
1345.9	107
1349.46	120.083
1353.01	46.765
1356.57	50.833
1360.12	92.744
1363.67	111.461
1367.21	140.761
1370.76	151.387
1374.3	127.242
1377.85	153.763
1381.39	184.952
1384.93	107.896
1388.46	74.551
1392	92.84
1395.53	89.428
1399.06	91.064
1402.59	86.634
1406.12	30.235
1409.65	89.887
1413.17	115.381
1416.69	62.795
1420.22	51.202
1423.74	22.097
1427.25	22.022
1430.77	52.133
1434.28	57.939
1437.8	66.426
1441.31	135.277
1444.82	121.284
1448.32	147.825
1451.83	129.505
1455.33	177.568
1458.83	135.722
1462.34	103.468
1465.83	89.7
1469.33	85.196
1472.83	78.965
1476.32	71.999
1479.81	63.47
1483.3	100.314
1486.79	101.43
1490.28	137.859
1493.76	116.674
1497.24	90.873
1500.72	116.719
1504.2	57.38
1507.68	0.603
1511.16	4.239
1514.63	43.9
1518.1	0.054
