Measurement: Raman, 514 nm, ccw, Raman Data Processed
Mineral: Brookite
Rruff sample: R050363
Ideal chemistry: TiO_2_
Locality: Magnet Cove, Arkansas, USA
Source: University of Arizona Mineral Museum
Description: Black fragment of a prismatic crystal associated with quartz
Measured chemistry: (Ti_0.94_Nb^5+^_0.03_Fe^3+^_0.03_)_Î£=1_O_2_
Pin_id: L01899
Orientation: Laser parallel to b* (0 1 0). Fiducial mark perpendicular to laser is parallel to c [0 0 1]
Raman shift (cm-1)	intensity
51.431	0
56.387	248.146
61.341	0.592163
66.292	16.2383
71.241	1020.71
76.187	2044.21
81.131	3402.7
86.072	4299.15
91.012	5737.44
95.948	6836.23
100.883	7555.71
105.815	9351.72
110.744	11065.5
115.671	12419.2
120.596	15779.7
125.519	16904.2
130.439	18639.9
135.356	22482.8
140.271	33036.7
145.184	48495.6
150.094	55127.6
155.002	45118.7
159.908	31016.1
164.811	17856.9
169.711	9502.99
174.61	4225.6
179.505	1885.4
184.399	981.457
189.29	1056.77
194.178	536.99
199.064	457.972
203.948	1349.32
208.829	1939.09
213.708	743.694
218.585	337.293
223.459	502.262
228.33	277.682
233.199	2294.55
238.066	6954.89
242.93	10766.3
247.792	4813.23
252.651	2628.59
257.508	843.192
262.363	704.875
267.215	1411.33
272.064	3176.82
276.912	4625.84
281.756	4663.83
286.598	3610.66
291.438	2999.25
296.276	3417.4
301.111	4360.04
305.943	6694.1
310.773	9667.47
315.601	12525.9
320.426	14010.4
325.248	11623.7
330.068	6722.89
334.886	3327.9
339.701	1678.68
344.514	1910.25
349.324	4688.48
354.132	12227.7
358.938	23410.9
363.741	22673.4
368.541	11648.7
373.339	5833.23
378.135	4243.58
382.928	4226.29
387.718	4046.38
392.506	3270.8
397.292	1789.77
402.075	840.432
406.856	227.863
411.634	339.129
416.41	606.525
421.183	685.098
425.954	243.833
430.722	487.508
435.488	2073.71
440.251	4066.89
445.012	6938.94
449.77	9768.72
454.526	12380.1
459.28	11753.1
464.03	9866.62
468.779	8131.6
473.525	6519.01
478.268	5625.81
483.009	4812.96
487.747	3985.42
492.483	3125.14
497.217	2980.05
501.948	3066.09
506.676	3726.23
511.402	4540.08
516.125	6038.35
520.846	8515.5
525.565	11718.8
530.281	15407.5
534.994	19075.7
539.705	21964.1
544.413	21707.9
549.119	20682.5
553.822	17277.8
558.523	15055.6
563.222	13598
567.917	12736.7
572.611	13372.1
577.302	13577
581.99	12572.4
586.676	10188.2
591.359	7672.12
596.04	5513.07
600.718	3969.82
605.394	3180.44
610.067	2281.59
614.737	2044.45
619.406	1716.02
624.071	1480.33
628.734	1389.27
633.395	1262.84
638.053	1201.78
642.708	1054.05
647.361	816.519
652.012	626.033
656.66	430.469
661.305	283.746
665.948	0.71582
670.588	115.087
675.226	48.1816
679.861	93.8789
684.494	115.345
689.124	136.866
693.752	32.5918
698.377	69.4795
702.999	16.0156
707.619	45.25
712.237	168.486
716.852	126.702
721.464	314.306
726.074	178.469
730.681	398.486
735.286	402.781
739.888	355.322
744.488	570.268
749.085	573.287
753.68	541.097
758.272	748.907
762.861	907.449
767.448	1003.43
772.033	1138.69
776.614	1079.4
781.194	1081.43
785.77	1108.55
790.345	1274.06
794.916	1138.94
799.485	1246.39
804.052	1221.31
808.616	1376.95
813.177	1318.77
817.736	1446.33
822.292	1261.86
826.846	1245.92
831.397	1162.4
835.945	1124.31
840.491	998.37
845.035	878.725
849.576	775.835
854.114	710.837
858.65	625.725
863.183	449.813
867.713	411.04
872.241	186.557
876.767	149.898
881.29	145.075
885.81	67.9414
890.328	37.293
894.843	3.19043
899.356	25.2241
903.866	84.2754
908.373	91.4898
912.878	52.3179
917.38	21.2373
921.88	83.5684
926.377	145.3
930.872	106.981
935.364	147.843
939.853	143.668
944.34	110.728
948.824	149.592
953.306	114.6
957.785	165.281
962.261	190.898
966.735	218.533
971.207	151.669
975.675	202.454
980.141	248.381
984.605	311.566
989.066	286.525
993.524	325.059
997.98	279.422
1002.43	280.885
1006.88	281.186
1011.33	304.999
1015.78	363.19
1020.22	302.521
1024.66	257.753
1029.1	254.627
1033.53	307.546
1037.97	253.165
1042.4	276.36
1046.82	176.746
1051.25	261.106
1055.67	268.418
1060.09	243.42
1064.51	169.798
1068.92	232.476
1073.33	193.825
1077.74	235.047
1082.15	178.341
1086.55	177.217
1090.95	109.507
1095.35	163.627
1099.75	185.854
1104.14	118.145
1108.53	13.1306
1112.92	71.5654
1117.31	173.874
1121.69	273.948
1126.07	165.449
1130.45	30.0437
1134.82	72.0671
1139.19	63.4402
1143.57	34.8115
1147.93	57.1311
1152.3	28.8501
1156.66	7.71924
1161.02	38.9612
1165.38	8.14233
1169.73	10.9348
1174.08	11.105
1178.43	46.3923
1182.78	11.1999
1187.12	48
1191.46	3.75513
1195.8	20.3428
1200.14	16.6653
1204.47	59.1736
1208.8	51.2444
1213.13	34.5715
1217.46	90.7114
1221.78	10.6877
1226.1	32.8145
1230.42	90.532
1234.73	13.9172
1239.04	17.7002
1243.35	70.0391
1247.66	21.6865
1251.97	40.0928
1256.27	6.03247
1260.57	31.208
1264.86	95.7073
1269.16	33.416
1273.45	33.1973
1277.74	18.7656
1282.03	122.462
1286.31	40.6741
1290.59	41.1775
1294.87	72.7339
1299.14	39.4482
1303.42	45.8687
1307.69	96.5706
1311.95	56.729
1316.22	131.916
1320.48	55.6099
1324.74	49.6406
1329	93.9753
1333.26	73.5156
1337.51	42.5569
1341.76	66.7334
1346	45.0215
1350.25	36.9136
1354.49	36.9124
1358.73	44.8821
1362.96	53.0911
1367.2	50.595
1371.43	21.6326
1375.66	7.5332
1379.88	12.0066
1384.11	9.62915
1388.33	62.2261
1392.54	51.95
1396.76	24.9355
1400.97	28.6526
1405.18	7.65161
1409.39	23.1665
1413.59	48.1443
1417.8	15.2315
1421.99	36.0757
1426.19	1.52686
1430.38	31.0291
1434.58	20.2058
1438.77	45.2805
1442.95	47.6826
1447.13	14.4751
1451.32	14.5547
1455.49	31.3689
1459.67	14.9146
1463.84	19.3872
1468.01	100.302
1472.18	67.4312
1476.35	61.1062
1480.51	83.2756
1484.67	86.7781
1488.83	54.7673
1492.98	75.3945
1497.13	8.85693
1501.28	63.9319
1505.43	128.838
1509.57	60.0217
1513.71	34.2761
1517.85	54.5483
1521.99	74.9206
1526.12	40.5593
1530.25	89.6038
1534.38	65.134
1538.5	81.9197
1542.62	34.6377
1546.74	93.9898
1550.86	150.459
1554.98	293.837
1559.09	43.6514
1563.2	53.9514
1567.31	20.4673
