Measurement: Raman, 514 nm, ccw, Raman Data Processed
Mineral: Brookite
Rruff sample: R050363
Ideal chemistry: TiO_2_
Locality: Magnet Cove, Arkansas, USA
Source: University of Arizona Mineral Museum
Description: Black fragment of a prismatic crystal associated with quartz
Measured chemistry: (Ti_0.94_Nb^5+^_0.03_Fe^3+^_0.03_)_Î£=1_O_2_
Pin_id: L01899
Orientation: Laser parallel to b* (0 1 0). Fiducial mark perpendicular to laser is parallel to c [0 0 1]
Raman shift (cm-1)	intensity
51.431	0
56.387	175.196
61.341	46.5374
66.292	50.596
71.241	488.576
76.187	889.222
81.131	1530.01
86.072	2111.97
91.012	3142.8
95.948	3638.97
100.883	4479.18
105.815	5893.75
110.744	7479.34
115.671	9662.39
120.596	13593.1
125.519	16011.5
130.439	18752
135.356	22420.7
140.271	34380.8
145.184	51308.7
150.094	55791.4
155.002	37618.7
159.908	22044.6
164.811	14489.9
169.711	9416.62
174.61	4200.41
179.505	2316.16
184.399	1748.83
189.29	1710.36
194.178	1590.89
199.064	2141.83
203.948	4381.39
208.829	6236.8
213.708	3253.84
218.585	497.293
223.459	447.298
228.33	538.335
233.199	175.295
238.066	2253.58
242.93	4673.34
247.792	3115.78
252.651	1976.73
257.508	2191.14
262.363	3388.91
267.215	5524.97
272.064	8960.22
276.912	11406.6
281.756	10642.2
286.598	7547.73
291.438	4903.32
296.276	4529.14
301.111	5603.15
305.943	8303.29
310.773	11487.5
315.601	13838.7
320.426	13672.9
325.248	10833.9
330.068	5925.7
334.886	2726.42
339.701	1109.21
344.514	398.269
349.324	467.507
354.132	1788.12
358.938	3617.16
363.741	3488.43
368.541	1674.93
373.339	647.931
378.135	631.288
382.928	902.312
387.718	1169.88
392.506	1539.01
397.292	1982.67
402.075	2619.82
406.856	2520.43
411.634	1830.43
416.41	1091.81
421.183	375.509
425.954	146.495
430.722	706.744
435.488	1344.26
440.251	2256.03
445.012	3001.15
449.77	2845.62
454.526	2504.23
459.28	1650.27
464.03	945.342
468.779	344.528
473.525	26.2446
478.268	34.6235
483.009	425.199
487.747	1049.62
492.483	1460.84
497.217	1526.79
501.948	728.402
506.676	105.639
511.402	299.914
516.125	418.793
520.846	229.255
525.565	96.396
530.281	715.046
534.994	1402.01
539.705	1692.14
544.413	1787.72
549.119	1611.37
553.822	1347.17
558.523	1139.08
563.222	1204.04
567.917	1555.37
572.611	2038.81
577.302	2527.16
581.99	2745.4
586.676	2852.86
591.359	3193.85
596.04	3517.43
600.718	4194.82
605.394	5084.16
610.067	6182.91
614.737	7373
619.406	8556.89
624.071	9874.65
628.734	10706.6
633.395	10994.9
638.053	10917.7
642.708	9684.92
647.361	8146.22
652.012	6559.55
656.66	5017.61
661.305	3595.83
665.948	2694.83
670.588	2046.42
675.226	1440.34
679.861	1059.55
684.494	858.006
689.124	609.657
693.752	348.474
698.377	285.403
702.999	205.415
707.619	98.4648
712.237	91.4912
716.852	106.573
721.464	24.2578
726.074	11.3535
730.681	26.0278
735.286	54.0581
739.888	48.4102
744.488	28.5366
749.085	43.3901
753.68	49.8603
758.272	39.9692
762.861	37.2935
767.448	111.691
772.033	201.751
776.614	122.082
781.194	145.81
785.77	127.39
790.345	280.113
794.916	273.665
799.485	267.816
804.052	384.06
808.616	348.731
813.177	450.975
817.736	396.522
822.292	433.655
826.846	403.941
831.397	439.571
835.945	407.021
840.491	454.36
845.035	473.063
849.576	321.293
854.114	285.808
858.65	210.193
863.183	183.719
867.713	166.441
872.241	81.5117
876.767	83.5491
881.29	70.6167
885.81	16.4082
890.328	28.3543
894.843	20.5386
899.356	78.9541
903.866	26.2263
908.373	4.73047
912.878	72.2844
917.38	26.3384
921.88	61.1462
926.377	105.548
930.872	81.8623
935.364	126.031
939.853	80.0151
944.34	86.8796
948.824	152.922
953.306	142.691
957.785	231.651
962.261	184.503
966.735	205.534
971.207	157.288
975.675	276.488
980.141	237.541
984.605	265.202
989.066	355.756
993.524	391.925
997.98	372.691
1002.43	370.427
1006.88	316.787
1011.33	314.172
1015.78	304.939
1020.22	268.122
1024.66	301.818
1029.1	267.309
1033.53	268.722
1037.97	248.723
1042.4	306.194
1046.82	227.351
1051.25	207.935
1055.67	205.867
1060.09	222.685
1064.51	192.799
1068.92	265.458
1073.33	205.822
1077.74	130.517
1082.15	231.623
1086.55	146.844
1090.95	139.548
1095.35	121.928
1099.75	134.326
1104.14	85.1055
1108.53	112.011
1112.92	124.742
1117.31	266.716
1121.69	468.707
1126.07	385.716
1130.45	217.446
1134.82	34.3389
1139.19	34.8428
1143.57	70.9814
1147.93	35.4585
1152.3	0.269531
1156.66	46.3946
1161.02	62.669
1165.38	41.9354
1169.73	38.8474
1174.08	4.37366
1178.43	49.7886
1182.78	43.991
1187.12	13.6235
1191.46	57.6616
1195.8	2.19324
1200.14	15.9432
1204.47	31.8716
1208.8	23.9842
1213.13	19.9221
1217.46	36.7499
1221.78	4.40112
1226.1	85.9105
1230.42	73.333
1234.73	51.8633
1239.04	19.0797
1243.35	67.1533
1247.66	72.0193
1251.97	81.772
1256.27	41.6265
1260.57	70.303
1264.86	13.0947
1269.16	14.152
1273.45	68.277
1277.74	54.2178
1282.03	85.9165
1286.31	117.352
1290.59	15.0188
1294.87	124.135
1299.14	86.2227
1303.42	73.0212
1307.69	84.488
1311.95	80.8215
1316.22	43.5652
1320.48	65.448
1324.74	78.2772
1329	72.7653
1333.26	79.8772
1337.51	54.8069
1341.76	25.7661
1346	80.4382
1350.25	65.4488
1354.49	39.1621
1358.73	35.9778
1362.96	65.7459
1367.2	32.4227
1371.43	51.3201
1375.66	39.0667
1379.88	23.7488
1384.11	76.4814
1388.33	43.9952
1392.54	13.84
1396.76	41.0835
1400.97	67.9334
1405.18	35.9271
1409.39	52.6528
1413.59	57.197
1417.8	7.46912
1421.99	19.7958
1426.19	9.89502
1430.38	32.8042
1434.58	41.6121
1438.77	48.248
1442.95	30.8286
1447.13	3.65124
1451.32	42.4819
1455.49	45.1705
1459.67	23.7671
1463.84	44.0483
1468.01	110.288
1472.18	42.6113
1476.35	60.6926
1480.51	35.2393
1484.67	79.6462
1488.83	27.5981
1492.98	23.9943
1497.13	96.0331
1501.28	88.5559
1505.43	89.5023
1509.57	31.3655
1513.71	18.5034
1517.85	7.91748
1521.99	67.4227
1526.12	50.9481
1530.25	4.00964
1534.38	72.7738
1538.5	29.1429
1542.62	41.6831
1546.74	6.62866
1550.86	177.827
1554.98	283.007
1559.09	45.8696
1563.2	42.5718
1567.31	19.5569
