Measurement: Raman, 514 nm, ccw, Raman Data Processed
Mineral: Brookite
Rruff sample: R050591
Ideal chemistry: TiO_2_
Locality: Taftan, near Dalbandi, Baluchistan, Pakistan
Source: Wayne Thompson
Description: Yellowish-brown to reddish-brown thin tabular crystal
Measured chemistry: Ti_1.00_O_2_
Pin_id: M00065
Orientation: Laser parallel to c* (0 0 1). Fiducial mark perpendicular to laser is parallel to a [1 0 0]
Raman shift (cm-1)	intensity
51.431	0
56.387	44.5467
61.341	68.9668
66.292	15.4658
71.241	2.42682
76.187	47.8137
81.131	112.707
86.072	206.171
91.012	368.04
95.948	542.72
100.883	721.573
105.815	1085.44
110.744	1525.47
115.671	2244.36
120.596	4123.31
125.519	8035.03
130.439	16595
135.356	8251.24
140.271	9579.11
145.184	16651.9
150.094	31505.3
155.002	52137.3
159.908	43369.7
164.811	25162.5
169.711	11475.1
174.61	5413.85
179.505	2475.24
184.399	1326.65
189.29	996.175
194.178	1721.88
199.064	2110.82
203.948	228.226
208.829	14.3325
213.708	554.484
218.585	720.986
223.459	280.307
228.33	368.7
233.199	157.376
238.066	2004.99
242.93	6129.41
247.792	17228.3
252.651	11983.6
257.508	4085.53
262.363	1526.13
267.215	700.469
272.064	481.607
276.912	669.454
281.756	1381.9
286.598	2226.78
291.438	2127.5
296.276	1187.67
301.111	945.582
305.943	1425.69
310.773	2263.01
315.601	3995.55
320.426	6383.3
325.248	8243.26
330.068	8893.44
334.886	6229.85
339.701	2853.51
344.514	838.412
349.324	478.542
354.132	1422.23
358.938	4523.52
363.741	10794.6
368.541	17459
373.339	10698.1
378.135	3982.12
382.928	1983.68
387.718	2075.68
392.506	3107.14
397.292	3299.07
402.075	2369.51
406.856	2333.44
411.634	3172.9
416.41	2974.89
421.183	1505.41
425.954	376.504
430.722	159.815
435.488	189.028
440.251	94.688
445.012	836.178
449.77	2173.58
454.526	4345.79
459.28	7213.9
464.03	8914
468.779	7152.92
473.525	4227.68
478.268	2273.18
483.009	978.368
487.747	469.207
492.483	364.685
497.217	242.876
501.948	277.762
506.676	159.217
511.402	82.5806
516.125	21.4736
520.846	312.375
525.565	946.933
530.281	2177.06
534.994	3813.69
539.705	5631.82
544.413	7054.43
549.119	7290.8
553.822	6060.01
558.523	4536.94
563.222	3542.72
567.917	3111.32
572.611	3288.68
577.302	4398.53
581.99	5790.28
586.676	6203.09
591.359	4630.19
596.04	2761.26
600.718	1809.24
605.394	1351.91
610.067	1221.15
614.737	1462.61
619.406	1947.28
624.071	2573.41
628.734	3518.04
633.395	4438.4
638.053	5447.43
642.708	5304.57
647.361	4677.95
652.012	3705.4
656.66	2753.61
661.305	1916.89
665.948	1417.2
670.588	1036.96
675.226	637.006
679.861	502.421
684.494	359.829
689.124	221.566
693.752	146.163
698.377	64.5452
702.999	18.0249
707.619	21.1072
712.237	16.4814
716.852	5.51269
721.464	53.467
726.074	43.8188
730.681	9.19458
735.286	67.459
739.888	66.3999
744.488	18.4614
749.085	2.85327
753.68	6.43543
758.272	59.6243
762.861	50.4695
767.448	55.7957
772.033	121.023
776.614	76.9418
781.194	85.2756
785.77	94.8529
790.345	20.3326
794.916	43.7304
799.485	71.3132
804.052	49.243
808.616	118.847
813.177	31.8325
817.736	94.7575
822.292	94.0203
826.846	55.2699
831.397	73.3727
835.945	121.792
840.491	140.684
845.035	135.814
849.576	139.951
854.114	137.628
858.65	98.2107
863.183	132.675
867.713	55.4369
872.241	67.5419
876.767	60.0145
881.29	80.6503
885.81	53.2812
890.328	30.8251
894.843	80.8259
899.356	69.5022
903.866	96.9105
908.373	94.8661
912.878	132.472
917.38	114.22
921.88	154.538
926.377	131.818
930.872	165.376
935.364	140.587
939.853	166.644
944.34	201.602
948.824	157.735
953.306	145.893
957.785	106.695
962.261	157.833
966.735	135.831
971.207	121.69
975.675	108.171
980.141	143.46
984.605	127.341
989.066	114.398
993.524	158.168
997.98	149.365
1002.43	129.483
1006.88	141.558
1011.33	105.299
1015.78	112.102
1020.22	101.466
1024.66	121.98
1029.1	89.7312
1033.53	93.7477
1037.97	89.3865
1042.4	92.3419
1046.82	95.086
1051.25	77.4565
1055.67	104.903
1060.09	52.3361
1064.51	63.4927
1068.92	53.1758
1073.33	58.9905
1077.74	55.3451
1082.15	46.2208
1086.55	64.2643
1090.95	49.8217
1095.35	20.8508
1099.75	33.7098
1104.14	44.2527
1108.53	33.9156
1112.92	50.5944
1117.31	113.285
1121.69	220.877
1126.07	123.718
1130.45	40.5284
1134.82	5.32282
1139.19	4.92725
1143.57	7.72278
1147.93	11.7681
1152.3	6.04077
1156.66	15.3953
1161.02	0.142334
1165.38	2.66815
1169.73	25.8412
1174.08	12.3834
1178.43	7.99457
1182.78	17.7419
1187.12	12.5742
1191.46	2.34399
1195.8	2.24274
1200.14	7.18341
1204.47	19.7855
1208.8	30.8266
1213.13	17.7127
1217.46	19.6647
1221.78	12.6365
1226.1	51.2106
1230.42	16.7576
1234.73	53.3357
1239.04	38.911
1243.35	32.5283
1247.66	44.5819
1251.97	25.3928
1256.27	32.261
1260.57	17.1705
1264.86	33.3901
1269.16	20.0462
1273.45	27.4022
1277.74	6.75098
1282.03	50.5983
1286.31	39.83
1290.59	41.8029
1294.87	16.868
1299.14	24.9258
1303.42	21.0643
1307.69	29.8447
1311.95	28.1787
1316.22	31.8796
1320.48	38.1484
1324.74	32.5522
1329	30.9969
1333.26	37.956
1337.51	24.1653
1341.76	35.6646
1346	16.5615
1350.25	35.7753
1354.49	49.9186
1358.73	26.6548
1362.96	29.6611
1367.2	27.2617
1371.43	28.1985
1375.66	36.9548
1379.88	34.6959
1384.11	8.6294
1388.33	34.8558
1392.54	35.1321
1396.76	10.3054
1400.97	25.5846
1405.18	20.644
1409.39	1.63348
1413.59	26.3165
1417.8	42.2349
1421.99	6.94373
1426.19	9.53217
1430.38	25.0511
1434.58	3.47406
1438.77	16.8932
1442.95	17.2407
1447.13	9.20789
1451.32	7.87665
1455.49	1.50397
1459.67	6.95868
1463.84	3.45856
1468.01	28.8332
1472.18	4.1319
1476.35	33.0521
1480.51	27.9122
1484.67	4.98978
1488.83	38.0717
1492.98	21.5156
1497.13	7.97375
1501.28	15.4604
1505.43	6.70435
1509.57	7.05737
1513.71	29.2526
1517.85	21.4885
1521.99	12.6165
1526.12	11.8832
1530.25	35.1153
1534.38	23.8732
1538.5	13.2406
1542.62	7.29443
1546.74	19.9717
1550.86	24.9702
1554.98	89.6083
1559.09	8.36377
1563.2	9.96997
1567.31	31.3086
