Measurement: Raman, 514 nm, ccw, Raman Data Processed
Mineral: Brookite
Rruff sample: R050591
Ideal chemistry: TiO_2_
Locality: Taftan, near Dalbandi, Baluchistan, Pakistan
Source: Wayne Thompson
Description: Yellowish-brown to reddish-brown thin tabular crystal
Measured chemistry: Ti_1.00_O_2_
Pin_id: L01445
Orientation: Laser parallel to a* (1 0 0). Fiducial mark perpendicular to laser is parallel to b [0 1 0]
Raman shift (cm-1)	intensity
51.431	0
56.387	66.8171
61.341	15.418
66.292	28.1442
71.241	159.462
76.187	346.935
81.131	457.019
86.072	613.619
91.012	801.367
95.948	918.537
100.883	1042.18
105.815	1381.57
110.744	1787.58
115.671	2981.08
120.596	4240.21
125.519	6067.27
130.439	7771.75
135.356	9196.79
140.271	18229.9
145.184	34448.2
150.094	48263.5
155.002	56761.4
159.908	33922.8
164.811	13385.6
169.711	6317.83
174.61	3514.4
179.505	2184.72
184.399	1585.62
189.29	1248.62
194.178	1057.08
199.064	878.645
203.948	684.1
208.829	568.652
213.708	476.101
218.585	226.029
223.459	84.2776
228.33	145.171
233.199	0.921143
238.066	647.483
242.93	1343.98
247.792	2462.45
252.651	1709.8
257.508	872.998
262.363	611.987
267.215	542.724
272.064	534.159
276.912	469.252
281.756	545.995
286.598	584.165
291.438	633.128
296.276	785.67
301.111	1127.79
305.943	1724.89
310.773	2691.4
315.601	3580.84
320.426	4037.66
325.248	3349.64
330.068	2249.46
334.886	1395.96
339.701	941.338
344.514	659.185
349.324	532.377
354.132	488.983
358.938	481.016
363.741	459.408
368.541	521.377
373.339	546.176
378.135	691.324
382.928	821.794
387.718	1060.49
392.506	1556.39
397.292	2467.48
402.075	3882.76
406.856	5302.2
411.634	5874.8
416.41	4555.54
421.183	2443.66
425.954	1157.63
430.722	496.576
435.488	162.836
440.251	31.2114
445.012	25.4709
449.77	27.5554
454.526	6.20825
459.28	78.4792
464.03	116.519
468.779	144.898
473.525	134.432
478.268	40.012
483.009	183.02
487.747	531.162
492.483	1002.44
497.217	1206.85
501.948	1398.41
506.676	1028.12
511.402	597
516.125	297.187
520.846	187.727
525.565	138.455
530.281	214.348
534.994	243.415
539.705	404.658
544.413	342.086
549.119	377.702
553.822	456.516
558.523	443.535
563.222	507.765
567.917	575.216
572.611	758.904
577.302	1034.83
581.99	1279.41
586.676	1603.52
591.359	1991.19
596.04	2457.67
600.718	3117.89
605.394	3943.55
610.067	5049.53
614.737	6691.88
619.406	8583.34
624.071	11221
628.734	14179.1
633.395	16499.8
638.053	17478.2
642.708	16600.2
647.361	13901.7
652.012	11099.7
656.66	8508.24
661.305	6456.29
665.948	4948.85
670.588	4020.92
675.226	3123.49
679.861	2523.58
684.494	2077.16
689.124	1761.26
693.752	1543.98
698.377	1337.19
702.999	1230.8
707.619	1063.39
712.237	843.54
716.852	868.116
721.464	713.31
726.074	685.928
730.681	691.667
735.286	618.843
739.888	530.23
744.488	440.097
749.085	442.872
753.68	349.204
758.272	358.511
762.861	404.865
767.448	314.162
772.033	276.285
776.614	317.17
781.194	206.955
785.77	244.974
790.345	148.17
794.916	188.132
799.485	119.673
804.052	161.054
808.616	154.117
813.177	122.773
817.736	76.5676
822.292	61.301
826.846	33.4264
831.397	29.9603
835.945	32.4176
840.491	1.46033
845.035	23.0406
849.576	9.19251
854.114	25.9775
858.65	42.0892
863.183	11.069
867.713	53.1887
872.241	17.3552
876.767	28.6586
881.29	19.5536
885.81	43.7308
890.328	13.2261
894.843	26.2859
899.356	16.6982
903.866	28.8303
908.373	9.23377
912.878	44.0219
917.38	101.789
921.88	48.6793
926.377	88.4081
930.872	81.6946
935.364	73.6724
939.853	78.2771
944.34	145.731
948.824	83.8376
953.306	67.6704
957.785	121.123
962.261	101.128
966.735	88.5979
971.207	104.764
975.675	106.795
980.141	110.963
984.605	143.032
989.066	117.387
993.524	105.893
997.98	115.062
1002.43	139.987
1006.88	113.645
1011.33	126.816
1015.78	125.736
1020.22	98.6799
1024.66	124.774
1029.1	69.6039
1033.53	67.8439
1037.97	118.796
1042.4	115.96
1046.82	49.2274
1051.25	93.7216
1055.67	117.924
1060.09	74.5507
1064.51	77.6582
1068.92	109.261
1073.33	64.7836
1077.74	73.3798
1082.15	47.3864
1086.55	69.8388
1090.95	70.259
1095.35	70.8889
1099.75	101.585
1104.14	53.5802
1108.53	39.1731
1112.92	113.274
1117.31	85.4658
1121.69	114.587
1126.07	98.4542
1130.45	60.9858
1134.82	39.8191
1139.19	17.5693
1143.57	0.460449
1147.93	11.4099
1152.3	42.3894
1156.66	29.2985
1161.02	20.9627
1165.38	45.8264
1169.73	48.9984
1174.08	20.227
1178.43	69.0326
1182.78	5.0448
1187.12	13.0674
1191.46	33.9155
1195.8	6.07483
1200.14	19.8522
1204.47	37.8608
1208.8	51.5769
1213.13	23.0649
1217.46	32.6752
1221.78	46.1599
1226.1	41.6953
1230.42	14.2533
1234.73	97.6743
1239.04	14.9622
1243.35	36.9635
1247.66	48.317
1251.97	63.8584
1256.27	14.8348
1260.57	24.3866
1264.86	16.5651
1269.16	74.7974
1273.45	63.2125
1277.74	44.252
1282.03	67.3357
1286.31	51.1465
1290.59	63.2147
1294.87	51.9843
1299.14	66.1274
1303.42	47.1409
1307.69	59.498
1311.95	37.3434
1316.22	60.8368
1320.48	20.9136
1324.74	69.3951
1329	61.498
1333.26	20.7568
1337.51	55.9537
1341.76	82.6371
1346	65.0315
1350.25	32.073
1354.49	61.2296
1358.73	47.8745
1362.96	24.6095
1367.2	16.8525
1371.43	45.9537
1375.66	85.0038
1379.88	8.09375
1384.11	38.971
1388.33	60.8993
1392.54	27.8053
1396.76	3.09302
1400.97	92.8009
1405.18	40.5171
1409.39	29.186
1413.59	20.7814
1417.8	21.35
1421.99	39.7256
1426.19	62.0673
1430.38	13.3727
1434.58	11.63
1438.77	47.8489
1442.95	30.1332
1447.13	42.7936
1451.32	14.8799
1455.49	11.7338
1459.67	14.9744
1463.84	66.8597
1468.01	3.13769
1472.18	23.7438
1476.35	25.6527
1480.51	19.0456
1484.67	13.5564
1488.83	0.549561
1492.98	15.3508
1497.13	32.1118
1501.28	1.78088
1505.43	51.8785
1509.57	14.3372
1513.71	73.6736
1517.85	51.304
1521.99	88.2483
1526.12	42.3273
1530.25	46.8986
1534.38	45.4257
1538.5	38.9916
1542.62	47.4969
1546.74	32.6218
1550.86	14.8582
1554.98	74.3956
1559.09	16.1318
1563.2	59.0059
1567.31	54.8457
