Measurement: Raman, 514 nm, ccw, Raman Data Processed
Mineral: Brookite
Rruff sample: R050591
Ideal chemistry: TiO_2_
Locality: Taftan, near Dalbandi, Baluchistan, Pakistan
Source: Wayne Thompson
Description: Yellowish-brown to reddish-brown thin tabular crystal
Measured chemistry: Ti_1.00_O_2_
Pin_id: M00274
Orientation: Laser parallel to b* (0 1 0). Fiducial mark perpendicular to laser is parallel to c [0 0 1]
Raman shift (cm-1)	intensity
51.431	0
56.387	59.4482
61.341	1.53824
66.292	4.5144
71.241	189.879
76.187	518.91
81.131	969.973
86.072	1373.23
91.012	1794.97
95.948	2104.33
100.883	2465.87
105.815	3312.86
110.744	4379.77
115.671	8587.68
120.596	14693.2
125.519	12126.6
130.439	11885.7
135.356	18504.2
140.271	36943.7
145.184	59176.1
150.094	51093.1
155.002	23830.5
159.908	9685.33
164.811	4031.62
169.711	1916.17
174.61	863.898
179.505	469.256
184.399	350.447
189.29	336.459
194.178	72.2629
199.064	26.8877
203.948	283.009
208.829	421.998
213.708	511.823
218.585	750.062
223.459	1402.34
228.33	2841.14
233.199	7739.16
238.066	18869.2
242.93	16391.6
247.792	5242.97
252.651	1585.35
257.508	514.707
262.363	349.981
267.215	416.1
272.064	697.005
276.912	1120.87
281.756	1437.88
286.598	1249.41
291.438	935.32
296.276	896.102
301.111	722.024
305.943	631.503
310.773	541.519
315.601	612.037
320.426	699.988
325.248	656.332
330.068	344.058
334.886	76.1592
339.701	26.3911
344.514	28.7969
349.324	44.2126
354.132	162.838
358.938	284.167
363.741	246.108
368.541	80.6218
373.339	3.66113
378.135	38.0247
382.928	25.6904
387.718	178.812
392.506	241.411
397.292	472.481
402.075	703.011
406.856	740.995
411.634	410.428
416.41	166.324
421.183	50.3921
425.954	180.415
430.722	185.393
435.488	125.28
440.251	81.3486
445.012	274.248
449.77	414.584
454.526	444.36
459.28	528.581
464.03	579.251
468.779	936.744
473.525	1524.97
478.268	2994.03
483.009	4253.09
487.747	3924.02
492.483	2722.16
497.217	2252.26
501.948	2342.88
506.676	2819.05
511.402	3537.74
516.125	4939.46
520.846	6953.56
525.565	10277.6
530.281	14388.5
534.994	19008.9
539.705	22063.9
544.413	21025.5
549.119	17413.7
553.822	13590.8
558.523	10472.7
563.222	8256.46
567.917	6461.97
572.611	5425.1
577.302	4511.45
581.99	3763.77
586.676	3226
591.359	2864.94
596.04	2578.6
600.718	2454.99
605.394	2315.13
610.067	2211.13
614.737	2019.06
619.406	1990.94
624.071	1905.92
628.734	1845.97
633.395	1566.17
638.053	1158.32
642.708	770.292
647.361	512.998
652.012	231.406
656.66	256.53
661.305	201.46
665.948	100.128
670.588	155.469
675.226	129.458
679.861	102.108
684.494	127.419
689.124	70.363
693.752	43.0676
698.377	3.0647
702.999	22.176
707.619	14.4197
712.237	26.5779
716.852	12.2546
721.464	73.8081
726.074	72.4294
730.681	74.5574
735.286	122.372
739.888	114.022
744.488	152.722
749.085	180.285
753.68	244.049
758.272	230.314
762.861	346.685
767.448	365.569
772.033	275.897
776.614	404.093
781.194	350.377
785.77	342.853
790.345	365.903
794.916	355.286
799.485	331.86
804.052	406.123
808.616	376.882
813.177	423.109
817.736	367.708
822.292	369.432
826.846	355.643
831.397	312.665
835.945	310.743
840.491	299.7
845.035	244.035
849.576	221.972
854.114	127.811
858.65	183.434
863.183	98.2572
867.713	40.2881
872.241	43.5475
876.767	14.9261
881.29	16.4865
885.81	20.7138
890.328	13.6345
894.843	50.365
899.356	67.1355
903.866	35.9871
908.373	11.8452
912.878	42.6484
917.38	65.86
921.88	91.8422
926.377	78.3805
930.872	130.699
935.364	123.762
939.853	143.117
944.34	117.135
948.824	87.854
953.306	112.839
957.785	123.683
962.261	112.575
966.735	130.309
971.207	133.591
975.675	152.866
980.141	99.3547
984.605	129.955
989.066	161.998
993.524	138.47
997.98	156.328
1002.43	175.229
1006.88	148.616
1011.33	179.245
1015.78	185.627
1020.22	156.419
1024.66	159.214
1029.1	127.354
1033.53	127.851
1037.97	117.711
1042.4	84.4424
1046.82	58.3334
1051.25	94.9088
1055.67	92.7788
1060.09	84.2175
1064.51	72.8087
1068.92	97.4137
1073.33	57.0126
1077.74	56.429
1082.15	77.8046
1086.55	44.1433
1090.95	76.0528
1095.35	44.5825
1099.75	56.062
1104.14	30.2606
1108.53	23.3087
1112.92	22.0527
1117.31	27.6919
1121.69	24.9221
1126.07	47.2582
1130.45	29.9886
1134.82	15.0193
1139.19	3.02588
1143.57	19.788
1147.93	5.83179
1152.3	12.4059
1156.66	13.0224
1161.02	46.1134
1165.38	8.20837
1169.73	16.4891
1174.08	6.81
1178.43	32.943
1182.78	22.1163
1187.12	15.0491
1191.46	29.8522
1195.8	0.234985
1200.14	18.4982
1204.47	25.1007
1208.8	19.6661
1213.13	49.0373
1217.46	11.2515
1221.78	22.5439
1226.1	22.4727
1230.42	24.375
1234.73	15.9304
1239.04	27.1379
1243.35	16.6127
1247.66	22.377
1251.97	4.1358
1256.27	27.3522
1260.57	11.0253
1264.86	10.1429
1269.16	20.2653
1273.45	16.4998
1277.74	21.3768
1282.03	9.50537
1286.31	25.7369
1290.59	15.6353
1294.87	20.5265
1299.14	20.2114
1303.42	9.46417
1307.69	5.6438
1311.95	23.4463
1316.22	15.4665
1320.48	19.8968
1324.74	32.7779
1329	27.7439
1333.26	40.5615
1337.51	25.6816
1341.76	24.9971
1346	11.3287
1350.25	33.2366
1354.49	19.6295
1358.73	18.6912
1362.96	21.0635
1367.2	12.8191
1371.43	19.6544
1375.66	16.4321
1379.88	7.05273
1384.11	23.5427
1388.33	1.9967
1392.54	6.60211
1396.76	7.20795
1400.97	21.0179
1405.18	18.236
1409.39	14.3658
1413.59	5.28894
1417.8	6.66852
1421.99	0.204712
1426.19	5.98566
1430.38	6.61597
1434.58	15.1769
1438.77	13.8084
1442.95	18.2327
1447.13	13.9834
1451.32	1.69678
1455.49	8.70618
1459.67	11.3839
1463.84	4.28467
1468.01	16.6662
1472.18	10.7727
1476.35	19.8602
1480.51	10.2103
1484.67	37.9561
1488.83	27.4422
1492.98	20.8776
1497.13	35.9592
1501.28	38.0825
1505.43	31.2152
1509.57	27.386
1513.71	38.2753
1517.85	27.7429
1521.99	36.0979
1526.12	43.7599
1530.25	14.2919
1534.38	17.6379
1538.5	31.8221
1542.62	21.5013
1546.74	35.3837
1550.86	20.3353
1554.98	5.73126
1559.09	18.9608
1563.2	8.49829
1567.31	10.2216
