Measurement: Raman, 514 nm, ccw, Raman Data Processed
Mineral: Brookite
Rruff sample: R050363
Ideal chemistry: TiO_2_
Locality: Magnet Cove, Arkansas, USA
Source: University of Arizona Mineral Museum
Description: Black fragment of a prismatic crystal associated with quartz
Measured chemistry: (Ti_0.94_Nb^5+^_0.03_Fe^3+^_0.03_)_Î£=1_O_2_
Pin_id: L00226
Orientation: Laser parallel to -a* (-1 0 0). Fiducial mark perpendicular to laser is parallel to b [0 1 0]
Raman shift (cm-1)	intensity
51.431	0
56.387	82.0356
61.341	73.2319
66.292	44.7869
71.241	510.215
76.187	948.586
81.131	1226.34
86.072	1952.16
91.012	2573.43
95.948	3370.73
100.883	4065.96
105.815	5791.66
110.744	8349.27
115.671	11088.1
120.596	18375.1
125.519	22747.5
130.439	15872.9
135.356	16950.6
140.271	24886.3
145.184	38546.2
150.094	52295
155.002	45760.3
159.908	26299.2
164.811	14358.9
169.711	8673.29
174.61	5850.39
179.505	4557.15
184.399	4387.54
189.29	6646.55
194.178	6534.07
199.064	3352.5
203.948	2364.32
208.829	1312.71
213.708	956.844
218.585	694.136
223.459	760.51
228.33	1242.92
233.199	2714.34
238.066	6943.39
242.93	18582.1
247.792	21399.7
252.651	11556.1
257.508	6536.13
262.363	4222.61
267.215	2935.44
272.064	2200.52
276.912	1941.78
281.756	1662.16
286.598	1520.55
291.438	1390.84
296.276	1382.96
301.111	1757.91
305.943	2129.67
310.773	2581.21
315.601	3058.17
320.426	2954.2
325.248	2289.94
330.068	1484.42
334.886	872.537
339.701	410.306
344.514	30.751
349.324	103.814
354.132	236.962
358.938	229.522
363.741	194.595
368.541	323.213
373.339	158.958
378.135	87.4766
382.928	306.133
387.718	684.571
392.506	1271.83
397.292	2313.89
402.075	3429.74
406.856	4370.37
411.634	4284.77
416.41	3515.93
421.183	2317.85
425.954	1448.53
430.722	907.971
435.488	404.166
440.251	169.119
445.012	153.836
449.77	133.322
454.526	35.6284
459.28	99.6758
464.03	90.4878
468.779	38.1597
473.525	117.683
478.268	284.045
483.009	242.243
487.747	334.325
492.483	457.152
497.217	451.201
501.948	505.184
506.676	499.058
511.402	576.823
516.125	851.968
520.846	997.079
525.565	1594.7
530.281	2385.7
534.994	2859.82
539.705	3169.08
544.413	3287.48
549.119	2859.01
553.822	2256.68
558.523	1595.49
563.222	1106.45
567.917	565.544
572.611	437.782
577.302	275.16
581.99	226.678
586.676	77.3345
591.359	282.263
596.04	449.393
600.718	904.126
605.394	1512.43
610.067	2153.93
614.737	3093.16
619.406	4105.46
624.071	5354.5
628.734	6313.85
633.395	7099.76
638.053	7691.73
642.708	7253.75
647.361	6677.94
652.012	5696.32
656.66	4805.91
661.305	3839.42
665.948	2887.23
670.588	2225.09
675.226	1743.95
679.861	1431.76
684.494	1102.52
689.124	866.197
693.752	674.768
698.377	487.179
702.999	405.402
707.619	265.418
712.237	208.175
716.852	236.635
721.464	127.172
726.074	6.5376
730.681	67.0947
735.286	4.76904
739.888	11.2153
744.488	49.2544
749.085	36.0059
753.68	55.5078
758.272	4.70166
762.861	49.8462
767.448	40.3828
772.033	35.1948
776.614	20.8892
781.194	32.1152
785.77	26.8704
790.345	99.3257
794.916	155.582
799.485	119.746
804.052	227.413
808.616	233.622
813.177	324.842
817.736	320.944
822.292	362.56
826.846	373.01
831.397	508.3
835.945	460.794
840.491	421.699
845.035	396.912
849.576	470.968
854.114	387.832
858.65	408.367
863.183	317.979
867.713	225.372
872.241	215.167
876.767	101.427
881.29	114.124
885.81	31.4656
890.328	51.7048
894.843	20.1782
899.356	17.3667
903.866	12.96
908.373	90.2852
912.878	21.1655
917.38	33.0864
921.88	84.8994
926.377	38.471
930.872	71.9211
935.364	76.2402
939.853	88.5737
944.34	158.972
948.824	159.469
953.306	137.132
957.785	136.852
962.261	159.825
966.735	220.799
971.207	199.017
975.675	248.535
980.141	238.045
984.605	367.023
989.066	355.84
993.524	312.854
997.98	272.087
1002.43	272.303
1006.88	309.562
1011.33	330.184
1015.78	332.777
1020.22	337.677
1024.66	282.84
1029.1	291.414
1033.53	345.444
1037.97	361.117
1042.4	289.069
1046.82	246.056
1051.25	239.002
1055.67	281.274
1060.09	215.528
1064.51	220.717
1068.92	241.805
1073.33	203.414
1077.74	211.124
1082.15	199.402
1086.55	257.757
1090.95	139.778
1095.35	155.905
1099.75	199.904
1104.14	165.456
1108.53	183.086
1112.92	126.67
1117.31	137.792
1121.69	260.19
1126.07	198.952
1130.45	63.7485
1134.82	108.793
1139.19	80.2346
1143.57	34.0023
1147.93	69.5872
1152.3	93.5432
1156.66	81.2993
1161.02	61.1318
1165.38	77.9451
1169.73	27.087
1174.08	43.4183
1178.43	16.0227
1182.78	31.432
1187.12	67.0126
1191.46	8.68579
1195.8	9.38196
1200.14	27.274
1204.47	8.61304
1208.8	52.3136
1213.13	1.55713
1217.46	3.85877
1221.78	17.4087
1226.1	32.215
1230.42	74.8023
1234.73	2.16614
1239.04	8.33618
1243.35	57.7338
1247.66	52.7867
1251.97	57.2659
1256.27	83.8589
1260.57	6.10706
1264.86	70.6788
1269.16	35.4672
1273.45	58.468
1277.74	20.0048
1282.03	28.6771
1286.31	9.18237
1290.59	57.1492
1294.87	79.1476
1299.14	34.6755
1303.42	14.6549
1307.69	92.4536
1311.95	57.6171
1316.22	59.5304
1320.48	39.6562
1324.74	9.89685
1329	6.26294
1333.26	11.707
1337.51	72.6086
1341.76	35.25
1346	53.1536
1350.25	25.7633
1354.49	33.6234
1358.73	74.9705
1362.96	17.3377
1367.2	48.0278
1371.43	71.8068
1375.66	46.5
1379.88	21.423
1384.11	51.73
1388.33	94.3943
1392.54	58.3837
1396.76	23.072
1400.97	30.9999
1405.18	72.1175
1409.39	27.7714
1413.59	3.82385
1417.8	4.2135
1421.99	17.6542
1426.19	59.022
1430.38	4.37439
1434.58	36.3027
1438.77	48.7954
1442.95	61.83
1447.13	12.9916
1451.32	55.1281
1455.49	35.3927
1459.67	47.63
1463.84	40.7
1468.01	3.72705
1472.18	51.1599
1476.35	16.8866
1480.51	73.8446
1484.67	30.3498
1488.83	20.5591
1492.98	13.5256
1497.13	67.6454
1501.28	48.9342
1505.43	47.1542
1509.57	56.0068
1513.71	35.3214
1517.85	53.4531
1521.99	69.12
1526.12	55.4424
1530.25	78.4119
1534.38	33.6664
1538.5	55.7328
1542.62	93.0543
1546.74	75.4418
1550.86	78.1141
1554.98	285.34
1559.09	14.6792
1563.2	63.0155
1567.31	0.104858
