Measurement: Raman, 514 nm, ccw, Raman Data Processed
Mineral: Brookite
Rruff sample: R050363
Ideal chemistry: TiO_2_
Locality: Magnet Cove, Arkansas, USA
Source: University of Arizona Mineral Museum
Description: Black fragment of a prismatic crystal associated with quartz
Measured chemistry: (Ti_0.94_Nb^5+^_0.03_Fe^3+^_0.03_)_Î£=1_O_2_
Pin_id: L01274
Orientation: Laser parallel to c* (0 0 1). Fiducial mark perpendicular to laser is parallel to a [1 0 0]
Raman shift (cm-1)	intensity
51.431	0
56.387	152.507
61.341	53.2651
66.292	13.5219
71.241	444.945
76.187	1477.4
81.131	1975.05
86.072	2672.79
91.012	3606.84
95.948	4921.25
100.883	4808.31
105.815	6425.12
110.744	8670.61
115.671	9723.85
120.596	13389.9
125.519	17539.9
130.439	15290.7
135.356	19040.6
140.271	28856.3
145.184	44554.6
150.094	60696.9
155.002	50584.2
159.908	26807.6
164.811	14116.8
169.711	9319.75
174.61	4433.34
179.505	2808.03
184.399	2067.62
189.29	2010.07
194.178	1960.27
199.064	2090.8
203.948	2252.46
208.829	1259.02
213.708	1549.59
218.585	1322.49
223.459	1595.99
228.33	2547.35
233.199	4753.04
238.066	10281.6
242.93	21530.7
247.792	15044
252.651	5092.41
257.508	2103.63
262.363	1155.51
267.215	947.468
272.064	1361.88
276.912	2131.26
281.756	2300.52
286.598	1745.68
291.438	1697.02
296.276	1121.92
301.111	938.767
305.943	794.407
310.773	881.762
315.601	1178.69
320.426	1663.06
325.248	1700.81
330.068	791.894
334.886	288.281
339.701	129.078
344.514	276.68
349.324	51.6211
354.132	509.507
358.938	1703.88
363.741	2342.59
368.541	1154.03
373.339	496.134
378.135	343.82
382.928	235.029
387.718	397.705
392.506	243.134
397.292	337.285
402.075	215.205
406.856	242.483
411.634	85.2026
416.41	260.899
421.183	274.371
425.954	231.186
430.722	122.245
435.488	72.3628
440.251	470.378
445.012	999.326
449.77	1379.9
454.526	1831.51
459.28	2092.15
464.03	2396.79
468.779	2454.42
473.525	2756.04
478.268	3491.63
483.009	3723.82
487.747	3207.73
492.483	2775.94
497.217	2653.38
501.948	2955.83
506.676	3277.23
511.402	4071.55
516.125	4965.78
520.846	6447.91
525.565	8501.9
530.281	10887.8
534.994	13654.5
539.705	16112.4
544.413	17429.2
549.119	16800.2
553.822	15021.8
558.523	12676.2
563.222	10677.9
567.917	9041.61
572.611	7923.24
577.302	7125.97
581.99	6248.83
586.676	5308.56
591.359	4693.17
596.04	3856.63
600.718	3411.94
605.394	2853.15
610.067	2511.61
614.737	2277.8
619.406	2014.41
624.071	1915.92
628.734	1686.91
633.395	1566.5
638.053	1410.3
642.708	1105.06
647.361	772.671
652.012	654.124
656.66	363.394
661.305	223.456
665.948	117.272
670.588	96.8374
675.226	20.0781
679.861	0.875977
684.494	71.1304
689.124	68.2061
693.752	53.2852
698.377	23.1416
702.999	1.14551
707.619	28.9717
712.237	76.312
716.852	71.6606
721.464	177.486
726.074	248.71
730.681	363.314
735.286	430.269
739.888	353.548
744.488	494.131
749.085	614.543
753.68	676.412
758.272	716.261
762.861	688.685
767.448	767.352
772.033	851.332
776.614	917.983
781.194	895.572
785.77	927.682
790.345	1036.63
794.916	972.667
799.485	1143.17
804.052	1127.95
808.616	1248.88
813.177	1240.99
817.736	1119.09
822.292	1184.19
826.846	1193.75
831.397	1106.03
835.945	1110.23
840.491	1015.32
845.035	944.566
849.576	852.809
854.114	799.048
858.65	688.267
863.183	698.178
867.713	423.918
872.241	469.893
876.767	307.891
881.29	183.317
885.81	72.9429
890.328	89.5742
894.843	32.6155
899.356	58.22
903.866	6.08911
908.373	91.512
912.878	13.7524
917.38	18.1003
921.88	62.5625
926.377	5.63818
930.872	21.8145
935.364	18.3762
939.853	51.5508
944.34	46.7019
948.824	94.8398
953.306	70.9055
957.785	29.0186
962.261	186.293
966.735	84.1921
971.207	75.6614
975.675	119.606
980.141	228.996
984.605	159.774
989.066	202.672
993.524	246.898
997.98	280.472
1002.43	243.859
1006.88	251.911
1011.33	257.043
1015.78	228.098
1020.22	237.619
1024.66	261.659
1029.1	238.682
1033.53	229.697
1037.97	262.707
1042.4	235.661
1046.82	277.08
1051.25	202.01
1055.67	220.449
1060.09	281.726
1064.51	262.467
1068.92	232.816
1073.33	213.06
1077.74	187.99
1082.15	212.977
1086.55	153.957
1090.95	206.074
1095.35	170.411
1099.75	136.029
1104.14	119.75
1108.53	166.107
1112.92	122.444
1117.31	198.385
1121.69	299.099
1126.07	278.47
1130.45	124.864
1134.82	59.9258
1139.19	21.5515
1143.57	69.876
1147.93	13.8249
1152.3	46.5772
1156.66	64.1079
1161.02	9.91211
1165.38	40.9998
1169.73	11.0366
1174.08	65.479
1178.43	9.323
1182.78	20.2168
1187.12	51.106
1191.46	11.217
1195.8	10.4722
1200.14	31.929
1204.47	6.40674
1208.8	65.1033
1213.13	24.2424
1217.46	13.7927
1221.78	29.4172
1226.1	37.3586
1230.42	55.2517
1234.73	49.154
1239.04	13.0444
1243.35	47.1748
1247.66	11.2605
1251.97	38.8313
1256.27	5.3335
1260.57	71.9529
1264.86	61.5832
1269.16	69.9246
1273.45	93.3472
1277.74	16.2988
1282.03	40.5347
1286.31	74.6157
1290.59	75.1077
1294.87	36.7778
1299.14	49.0217
1303.42	28.3418
1307.69	51.1645
1311.95	49.7422
1316.22	27.2812
1320.48	25.6291
1324.74	66.2229
1329	24.3943
1333.26	58.1794
1337.51	144.62
1341.76	40.2441
1346	23.7009
1350.25	50.0928
1354.49	23.7544
1358.73	102.354
1362.96	31.7571
1367.2	41.7129
1371.43	35.3186
1375.66	21.2825
1379.88	6.40918
1384.11	15.9688
1388.33	56.1006
1392.54	80.8276
1396.76	24.5361
1400.97	24.9136
1405.18	29.0994
1409.39	59.5142
1413.59	25.5488
1417.8	59.7598
1421.99	47.448
1426.19	55.1238
1430.38	54.654
1434.58	67.6084
1438.77	35.4402
1442.95	51.2659
1447.13	45.7085
1451.32	3.3916
1455.49	37.2925
1459.67	76.3076
1463.84	1.50098
1468.01	36.0491
1472.18	9.28809
1476.35	75.3591
1480.51	16.5615
1484.67	74.3127
1488.83	18.8865
1492.98	72.3835
1497.13	47.1172
1501.28	107.535
1505.43	66.6902
1509.57	38.5764
1513.71	94.9477
1517.85	67.2068
1521.99	5.07837
1526.12	146.057
1530.25	51.3545
1534.38	95.5396
1538.5	26.4106
1542.62	39.8269
1546.74	82.0825
1550.86	199.38
1554.98	516.206
1559.09	1.14209
1563.2	72.5776
1567.31	89.0898
