Measurement: Raman, 514 nm, ccw, Raman Data Processed
Mineral: Brookite
Rruff sample: R050363
Ideal chemistry: TiO_2_
Locality: Magnet Cove, Arkansas, USA
Source: University of Arizona Mineral Museum
Description: Black fragment of a prismatic crystal associated with quartz
Measured chemistry: (Ti_0.94_Nb^5+^_0.03_Fe^3+^_0.03_)_Î£=1_O_2_
Pin_id: L00226
Orientation: Laser parallel to -a* (-1 0 0). Fiducial mark perpendicular to laser is parallel to b [0 1 0]
Raman shift (cm-1)	intensity
51.431	0
56.387	169.422
61.341	70.4424
66.292	87.7956
71.241	473.755
76.187	1056.92
81.131	1651.84
86.072	2296.48
91.012	3305.82
95.948	4255.09
100.883	5409.4
105.815	7434.73
110.744	10115.5
115.671	13169.2
120.596	20002.1
125.519	25690.6
130.439	27863.8
135.356	28889.7
140.271	36091.7
145.184	50363.6
150.094	60765.7
155.002	51751.8
159.908	29765
164.811	16444
169.711	9854.26
174.61	6373.05
179.505	4555.09
184.399	3957.74
189.29	4599.69
194.178	4655.84
199.064	3353.04
203.948	3858.39
208.829	4560.89
213.708	2924.16
218.585	921.803
223.459	186.019
228.33	183.438
233.199	1087.78
238.066	3241.24
242.93	10080.1
247.792	11518.9
252.651	6574.34
257.508	4291.16
262.363	3168.18
267.215	2912.18
272.064	2975.98
276.912	3264.46
281.756	3203.6
286.598	3006.42
291.438	3547.32
296.276	5245.71
301.111	8753.28
305.943	13465.5
310.773	18665.4
315.601	20841.1
320.426	17785.7
325.248	12002.8
330.068	7145.32
334.886	4033.26
339.701	2212.56
344.514	1112.22
349.324	500.95
354.132	334.995
358.938	510.394
363.741	478.948
368.541	116.596
373.339	106.747
378.135	118.972
382.928	184.634
387.718	358.308
392.506	674.252
397.292	832.663
402.075	1131.48
406.856	1298.67
411.634	1513.17
416.41	1091.95
421.183	607.974
425.954	68.8242
430.722	354.738
435.488	438.502
440.251	359.101
445.012	114.089
449.77	222.271
454.526	636.467
459.28	587.668
464.03	946.854
468.779	1050.06
473.525	1210.5
478.268	1733.46
483.009	2679.66
487.747	3988.83
492.483	5149.94
497.217	5442.98
501.948	4556.95
506.676	3324.8
511.402	2074.75
516.125	1378.88
520.846	954.077
525.565	786.318
530.281	904.461
534.994	1090.45
539.705	1168.27
544.413	1200.1
549.119	1061.38
553.822	579.631
558.523	449.68
563.222	242.507
567.917	152.097
572.611	220.069
577.302	328.654
581.99	242.619
586.676	566.864
591.359	835.078
596.04	1331.19
600.718	2024.28
605.394	2806.36
610.067	3842.72
614.737	5156.83
619.406	6514.99
624.071	8210.82
628.734	9649.28
633.395	11281
638.053	10961
642.708	10362.3
647.361	9236.9
652.012	7665.66
656.66	6403.75
661.305	4967.35
665.948	3813.12
670.588	2989.86
675.226	2298.51
679.861	1698.06
684.494	1403.47
689.124	1065.73
693.752	805.804
698.377	604.675
702.999	481.606
707.619	383.534
712.237	324.992
716.852	242.761
721.464	104.169
726.074	63.6953
730.681	5.57861
735.286	82.0781
739.888	96.5415
744.488	6.58936
749.085	26.4106
753.68	26.2036
758.272	32.1987
762.861	1.86426
767.448	26.2383
772.033	7.85156
776.614	60.332
781.194	126.248
785.77	167.395
790.345	124.178
794.916	189.185
799.485	167.559
804.052	284.665
808.616	286.955
813.177	290.022
817.736	349.959
822.292	428.62
826.846	440.76
831.397	421.991
835.945	454.589
840.491	438.668
845.035	392.399
849.576	393.606
854.114	346.958
858.65	380.813
863.183	252.993
867.713	258.506
872.241	97.0044
876.767	98.4531
881.29	64.5164
885.81	59.6746
890.328	40.1148
894.843	59.7715
899.356	39.6435
903.866	32.5469
908.373	11.4968
912.878	10.2644
917.38	25.6081
921.88	25.8579
926.377	34.6804
930.872	26.8101
935.364	125.216
939.853	130.989
944.34	146.571
948.824	180.963
953.306	141.222
957.785	194.311
962.261	149.426
966.735	220.351
971.207	229.434
975.675	265.469
980.141	370.359
984.605	447.995
989.066	477.412
993.524	366.835
997.98	352.246
1002.43	343.642
1006.88	342.443
1011.33	332.916
1015.78	384.04
1020.22	353.801
1024.66	409.265
1029.1	393.315
1033.53	367.514
1037.97	265.838
1042.4	378.854
1046.82	256.857
1051.25	261.02
1055.67	273.924
1060.09	244.534
1064.51	238.382
1068.92	293.039
1073.33	245.716
1077.74	272.537
1082.15	353.428
1086.55	566.459
1090.95	288.07
1095.35	233.006
1099.75	215.059
1104.14	121.072
1108.53	171.849
1112.92	131.34
1117.31	215.09
1121.69	285.078
1126.07	333.989
1130.45	228.838
1134.82	155.573
1139.19	92.0588
1143.57	98.2439
1147.93	108.149
1152.3	137.162
1156.66	42.9168
1161.02	44.6025
1165.38	22.7412
1169.73	40.1921
1174.08	34.395
1178.43	44.9485
1182.78	0.064697
1187.12	32.648
1191.46	65.0439
1195.8	25.6196
1200.14	64.5588
1204.47	41.1841
1208.8	98.9258
1213.13	262.453
1217.46	33.8965
1221.78	83.3059
1226.1	42.6455
1230.42	89.9568
1234.73	70.2703
1239.04	66.8491
1243.35	96.7044
1247.66	31.1973
1251.97	63.7078
1256.27	47.9739
1260.57	38.7795
1264.86	67.6516
1269.16	50.6755
1273.45	23.8875
1277.74	36.3008
1282.03	17.8276
1286.31	70.8552
1290.59	91.0908
1294.87	5.90698
1299.14	73.7219
1303.42	8.57593
1307.69	119.891
1311.95	1.11353
1316.22	74.9624
1320.48	83.0559
1324.74	3.10986
1329	77.0772
1333.26	25.8989
1337.51	32.6196
1341.76	55.9409
1346	84.856
1350.25	41.9431
1354.49	19.9827
1358.73	22.446
1362.96	54.5244
1367.2	84.8831
1371.43	39.9695
1375.66	14.7546
1379.88	21.1628
1384.11	22.3142
1388.33	34.4958
1392.54	21.3738
1396.76	54.2825
1400.97	73.9792
1405.18	32.5005
1409.39	47.1492
1413.59	14.6914
1417.8	76.251
1421.99	39.4458
1426.19	60.8586
1430.38	109.681
1434.58	29.0156
1438.77	85.6614
1442.95	61.606
1447.13	19.614
1451.32	72.7026
1455.49	33.8835
1459.67	48.3147
1463.84	59.5061
1468.01	22.8882
1472.18	35.7546
1476.35	76.7131
1480.51	64.6189
1484.67	73.958
1488.83	24.7231
1492.98	47.2507
1497.13	51.2085
1501.28	9.69775
1505.43	16.6794
1509.57	71.9956
1513.71	45.0613
1517.85	59.1167
1521.99	59.1035
1526.12	67.146
1530.25	47.7576
1534.38	51.4224
1538.5	22.4856
1542.62	79.5378
1546.74	100.372
1550.86	133.388
1554.98	186.017
1559.09	64.9563
1563.2	74.5727
1567.31	16.2654
