Measurement: Raman, 514 nm, ccw, Raman Data Processed
Mineral: Brookite
Rruff sample: R050591
Ideal chemistry: TiO_2_
Locality: Taftan, near Dalbandi, Baluchistan, Pakistan
Source: Wayne Thompson
Description: Yellowish-brown to reddish-brown thin tabular crystal
Measured chemistry: Ti_1.00_O_2_
Pin_id: L01445
Orientation: Laser parallel to a* (1 0 0). Fiducial mark perpendicular to laser is parallel to b [0 1 0]
Raman shift (cm-1)	intensity
51.431	0
56.387	67.1785
61.341	86.0856
66.292	21.3905
71.241	58.6236
76.187	200.928
81.131	461.616
86.072	611.055
91.012	816.771
95.948	1027.71
100.883	1217.18
105.815	1744.58
110.744	2547.53
115.671	5215.77
120.596	10004.3
125.519	18108
130.439	24592.8
135.356	19838
140.271	22229.4
145.184	34560.2
150.094	50099.3
155.002	60985.9
159.908	38954
164.811	15491.5
169.711	6846.32
174.61	3628.64
179.505	2025.29
184.399	1760.79
189.29	1867.35
194.178	2932
199.064	2572.43
203.948	1442.15
208.829	1685.99
213.708	2537.72
218.585	1951
223.459	27.5203
228.33	199.035
233.199	840.977
238.066	4743.02
242.93	9817.61
247.792	17680.6
252.651	11410.8
257.508	4205.02
262.363	2428.27
267.215	1813.51
272.064	1567.67
276.912	1571.73
281.756	1625.7
286.598	1734.18
291.438	1941.85
296.276	2574.95
301.111	4246.81
305.943	7736.8
310.773	13333.6
315.601	18919.1
320.426	21641.3
325.248	17291.2
330.068	9546.21
334.886	4591.35
339.701	2191.09
344.514	984.461
349.324	344.665
354.132	48.7978
358.938	232.872
363.741	411.897
368.541	381.382
373.339	56.0061
378.135	188.235
382.928	198.287
387.718	155.99
392.506	668.786
397.292	1450.34
402.075	2849.65
406.856	5018.72
411.634	6798.53
416.41	6389.1
421.183	4151.42
425.954	2029.5
430.722	834.337
435.488	131.95
440.251	165.872
445.012	100.115
449.77	67.4634
454.526	284.645
459.28	328.612
464.03	236.368
468.779	118.915
473.525	141.242
478.268	259.343
483.009	822.25
487.747	1835.97
492.483	3731.49
497.217	5961.42
501.948	7255.57
506.676	5838.52
511.402	3354.28
516.125	1809.66
520.846	1274.56
525.565	1315.3
530.281	1688.41
534.994	2684.3
539.705	3578.21
544.413	3997.05
549.119	3625.88
553.822	2556.83
558.523	1413.8
563.222	807.846
567.917	311.973
572.611	49.1052
577.302	115.172
581.99	139.035
586.676	138.994
591.359	142.902
596.04	411.679
600.718	826.393
605.394	1539.08
610.067	2358.67
614.737	3521.66
619.406	5158.08
624.071	7341.38
628.734	9908.53
633.395	11992.5
638.053	13235.5
642.708	12694.4
647.361	11082.7
652.012	8665.45
656.66	6566.73
661.305	5013.34
665.948	3681.98
670.588	2842.15
675.226	2191.67
679.861	1675.76
684.494	1440.45
689.124	1115.01
693.752	945.818
698.377	727.066
702.999	631.11
707.619	523.42
712.237	466.195
716.852	372.644
721.464	284.738
726.074	195.558
730.681	167.314
735.286	139.7
739.888	149.426
744.488	41.9456
749.085	159.03
753.68	167.341
758.272	69.5078
762.861	14.8101
767.448	87.5107
772.033	11.2344
776.614	27.0078
781.194	17.241
785.77	16.3679
790.345	55.7188
794.916	2.09399
799.485	13.5737
804.052	3.41235
808.616	9.35083
813.177	29.678
817.736	13.3594
822.292	13.2363
826.846	29.8008
831.397	27.7754
835.945	78.9944
840.491	11.7354
845.035	29.873
849.576	24.4629
854.114	13.4756
858.65	67.6521
863.183	32.2847
867.713	61.188
872.241	28.6628
876.767	59.7293
881.29	70.2165
885.81	24.9918
890.328	111.847
894.843	79.0247
899.356	61.3607
903.866	109.882
908.373	76.505
912.878	156.467
917.38	137.425
921.88	191.166
926.377	210.105
930.872	222.117
935.364	224.349
939.853	182.704
944.34	162.975
948.824	187.946
953.306	170.845
957.785	153.176
962.261	176.747
966.735	213.388
971.207	167.553
975.675	127.762
980.141	198.481
984.605	143.392
989.066	122.341
993.524	134.654
997.98	191.015
1002.43	193.4
1006.88	178.049
1011.33	138.206
1015.78	154.984
1020.22	162.678
1024.66	150.274
1029.1	157.28
1033.53	195.868
1037.97	119.241
1042.4	143.691
1046.82	115.242
1051.25	92.5008
1055.67	130.845
1060.09	112.471
1064.51	110.234
1068.92	127.038
1073.33	117.621
1077.74	123.701
1082.15	122.797
1086.55	78.5201
1090.95	71.0929
1095.35	152.571
1099.75	86.5325
1104.14	118.48
1108.53	85.1309
1112.92	50.9603
1117.31	87.6875
1121.69	121.332
1126.07	100.994
1130.45	16.046
1134.82	59.9847
1139.19	24.7963
1143.57	56.6986
1147.93	21.4139
1152.3	51.0179
1156.66	25.8153
1161.02	8.42432
1165.38	0.107422
1169.73	63.7734
1174.08	40.6023
1178.43	27.3856
1182.78	2.91138
1187.12	17.8545
1191.46	45.5938
1195.8	7.30908
1200.14	36.9616
1204.47	22.4058
1208.8	9.80847
1213.13	24.749
1217.46	42.1318
1221.78	21.8617
1226.1	80.7261
1230.42	27.1559
1234.73	6.5592
1239.04	58.1065
1243.35	30.3481
1247.66	72.5089
1251.97	75.0082
1256.27	15.6421
1260.57	43.2279
1264.86	61.3464
1269.16	57.5497
1273.45	47.4868
1277.74	37.8529
1282.03	11.3097
1286.31	32.141
1290.59	44.2651
1294.87	45.9183
1299.14	35.5442
1303.42	34.7068
1307.69	13.4767
1311.95	23.4634
1316.22	15.7617
1320.48	92.2384
1324.74	46.2758
1329	67.3195
1333.26	57.3644
1337.51	69.7476
1341.76	37.251
1346	27.1423
1350.25	7.04675
1354.49	62.0989
1358.73	55.9493
1362.96	13.6558
1367.2	64.1513
1371.43	10.526
1375.66	23.3127
1379.88	57.0168
1384.11	8.28223
1388.33	45.3575
1392.54	33.741
1396.76	37.5116
1400.97	17.4297
1405.18	73.0022
1409.39	33.4552
1413.59	29.906
1417.8	29.5792
1421.99	56.9176
1426.19	61.3788
1430.38	9.54285
1434.58	28.5127
1438.77	0.325806
1442.95	15.0443
1447.13	43.2013
1451.32	37.2415
1455.49	14.2668
1459.67	69.2612
1463.84	46.4143
1468.01	10.1956
1472.18	24.5435
1476.35	15.5508
1480.51	35.6674
1484.67	44.4274
1488.83	29.0933
1492.98	44.4187
1497.13	36.3057
1501.28	68.6323
1505.43	44.7372
1509.57	66.5309
1513.71	55.0785
1517.85	34.328
1521.99	28.6659
1526.12	44.4332
1530.25	42.7183
1534.38	59.3274
1538.5	0.371826
1542.62	28.5697
1546.74	1.54785
1550.86	59.0726
1554.98	117.622
1559.09	13.1729
1563.2	39.4745
1567.31	70.6591
