Measurement: Raman, 514 nm, ccw, Raman Data Processed
Mineral: Brookite
Rruff sample: R050591
Ideal chemistry: TiO_2_
Locality: Taftan, near Dalbandi, Baluchistan, Pakistan
Source: Wayne Thompson
Description: Yellowish-brown to reddish-brown thin tabular crystal
Measured chemistry: Ti_1.00_O_2_
Pin_id: M00274
Orientation: Laser parallel to b* (0 1 0). Fiducial mark perpendicular to laser is parallel to c [0 0 1]
Raman shift (cm-1)	intensity
51.431	0
56.387	58.7939
61.341	30.3385
66.292	19.3733
71.241	34.1756
76.187	182.624
81.131	384.655
86.072	627.576
91.012	874.569
95.948	1143.76
100.883	1546.44
105.815	2010.11
110.744	3071.88
115.671	6119.07
120.596	10749.1
125.519	13132.7
130.439	13525.5
135.356	15977.7
140.271	32270.6
145.184	58797.3
150.094	57910.1
155.002	33281.5
159.908	15931.4
164.811	7734.78
169.711	4307.65
174.61	2429.72
179.505	1590.43
184.399	1427.08
189.29	1516.34
194.178	997.398
199.064	792.945
203.948	1758.39
208.829	2286.29
213.708	866.449
218.585	141.488
223.459	200.632
228.33	112.553
233.199	754.453
238.066	3734.01
242.93	5115.51
247.792	2984.95
252.651	1815.26
257.508	1209.4
262.363	1058.35
267.215	987.037
272.064	1231.43
276.912	1603.5
281.756	1804.23
286.598	1724.97
291.438	2026.33
296.276	2891.96
301.111	4711.6
305.943	8179.3
310.773	12653.5
315.601	13833.7
320.426	10203.6
325.248	6156.41
330.068	3258.24
334.886	1796.56
339.701	1021.92
344.514	641.852
349.324	438.574
354.132	367.137
358.938	397.217
363.741	420.779
368.541	240.002
373.339	240.065
378.135	239.271
382.928	372.385
387.718	572.851
392.506	980.656
397.292	1714.79
402.075	2463.24
406.856	2965.01
411.634	2459.08
416.41	1496.44
421.183	708.096
425.954	111.035
430.722	184.835
435.488	204.779
440.251	107.455
445.012	96.9443
449.77	167.492
454.526	53.3296
459.28	67.6365
464.03	42.7251
468.779	73.1311
473.525	18.1296
478.268	355.51
483.009	1017.21
487.747	2198.26
492.483	3765.66
497.217	4740.41
501.948	3604.52
506.676	2075.99
511.402	937.899
516.125	430.856
520.846	217.855
525.565	225.483
530.281	318.491
534.994	408.883
539.705	561.664
544.413	470.838
549.119	370.41
553.822	232.385
558.523	192.766
563.222	205.57
567.917	286.834
572.611	558.44
577.302	677.018
581.99	972.369
586.676	1223.76
591.359	1688.62
596.04	2234.16
600.718	3087.91
605.394	4189.55
610.067	5501.54
614.737	7189.95
619.406	9444.38
624.071	12207.7
628.734	14477.9
633.395	15789.8
638.053	15082.5
642.708	12967.9
647.361	10404.7
652.012	8039.74
656.66	6113.53
661.305	4772.1
665.948	3696.7
670.588	2813.91
675.226	2313.71
679.861	1906.11
684.494	1590.09
689.124	1331.65
693.752	1112.78
698.377	968.524
702.999	817.825
707.619	684.668
712.237	616.729
716.852	545.737
721.464	417.103
726.074	405.668
730.681	408.368
735.286	329.237
739.888	333.766
744.488	278.133
749.085	229.322
753.68	242.082
758.272	229.382
762.861	202.017
767.448	211.753
772.033	166.387
776.614	134.499
781.194	119.585
785.77	135.107
790.345	82.7205
794.916	56.2894
799.485	118.024
804.052	119.489
808.616	147.716
813.177	93.494
817.736	64.2371
822.292	52.05
826.846	50.1851
831.397	33.9067
835.945	39.4165
840.491	10.9318
845.035	19.7482
849.576	17.3742
854.114	5.44397
858.65	16.0209
863.183	7.35644
867.713	17.3868
872.241	40.0215
876.767	22.829
881.29	20.0938
885.81	5.21509
890.328	53.836
894.843	15.2346
899.356	35.6041
903.866	5.95361
908.373	43.9387
912.878	18.398
917.38	67.2952
921.88	51.5212
926.377	39.3332
930.872	107.59
935.364	85.3852
939.853	68.5195
944.34	131.403
948.824	95.7
953.306	125.468
957.785	114.788
962.261	134.738
966.735	128.041
971.207	145.937
975.675	160.28
980.141	158.825
984.605	147.465
989.066	160.552
993.524	196.432
997.98	162.291
1002.43	162.726
1006.88	142.985
1011.33	172.026
1015.78	162.483
1020.22	137.941
1024.66	109.461
1029.1	125.522
1033.53	112.865
1037.97	101.2
1042.4	106.442
1046.82	90.144
1051.25	86.6369
1055.67	92.0597
1060.09	99.2784
1064.51	96.3811
1068.92	102.541
1073.33	108.121
1077.74	72.3914
1082.15	76.9448
1086.55	54.8361
1090.95	68.9391
1095.35	62.5906
1099.75	55.141
1104.14	42.6638
1108.53	51.6785
1112.92	55.1396
1117.31	55.2733
1121.69	79.3195
1126.07	70.37
1130.45	33.2823
1134.82	19.1456
1139.19	40.6823
1143.57	47.619
1147.93	50.2854
1152.3	12.0635
1156.66	32.681
1161.02	6.46509
1165.38	26.5176
1169.73	13.6805
1174.08	10.977
1178.43	13.0133
1182.78	9.09595
1187.12	5.29761
1191.46	27.3762
1195.8	14.5732
1200.14	9.39801
1204.47	18.4846
1208.8	19.1927
1213.13	16.0679
1217.46	26.8089
1221.78	11.6125
1226.1	44.1862
1230.42	7.83258
1234.73	11.2802
1239.04	8.86267
1243.35	34.6808
1247.66	24.2529
1251.97	15.9008
1256.27	32.1337
1260.57	1.15326
1264.86	22.3392
1269.16	32.1044
1273.45	37.8529
1277.74	15.6915
1282.03	14.4006
1286.31	31.9303
1290.59	4.36334
1294.87	18.2449
1299.14	23.5549
1303.42	36.2092
1307.69	12.1574
1311.95	14.1628
1316.22	34.8887
1320.48	29.49
1324.74	33.9511
1329	37.723
1333.26	31.4123
1337.51	11.68
1341.76	20.4235
1346	30.3257
1350.25	7.14844
1354.49	36.3503
1358.73	21.3236
1362.96	14.239
1367.2	6.15356
1371.43	20.4585
1375.66	25.1846
1379.88	13.4038
1384.11	1.68237
1388.33	9.12469
1392.54	12.8751
1396.76	0.293213
1400.97	22.4004
1405.18	7.19238
1409.39	28.866
1413.59	10.4761
1417.8	0.870758
1421.99	7.6492
1426.19	5.18487
1430.38	18.6173
1434.58	4.05716
1438.77	7.78748
1442.95	5.84726
1447.13	8.79748
1451.32	11.8038
1455.49	7.2059
1459.67	10.7758
1463.84	11.7214
1468.01	14.6659
1472.18	9.51437
1476.35	5.48047
1480.51	12.2809
1484.67	16.0389
1488.83	22.6579
1492.98	25.5463
1497.13	17.0494
1501.28	29.5905
1505.43	29.0926
1509.57	14.328
1513.71	39.7826
1517.85	0.67572
1521.99	31.1893
1526.12	9.00659
1530.25	33.9825
1534.38	48.5933
1538.5	29.9998
1542.62	20.1496
1546.74	30.5801
1550.86	24.4498
1554.98	49.5851
1559.09	2.20059
1563.2	24.1774
1567.31	13.3108
