Measurement: Raman, 514 nm, ccw, Raman Data Processed
Mineral: Brookite
Rruff sample: R050591
Ideal chemistry: TiO_2_
Locality: Taftan, near Dalbandi, Baluchistan, Pakistan
Source: Wayne Thompson
Description: Yellowish-brown to reddish-brown thin tabular crystal
Measured chemistry: Ti_1.00_O_2_
Pin_id: L01445
Orientation: Laser parallel to a* (1 0 0). Fiducial mark perpendicular to laser is parallel to b [0 1 0]
Raman shift (cm-1)	intensity
51.431	0
56.387	45.4649
61.341	61.2559
66.292	8.28461
71.241	25.4142
76.187	119.663
81.131	261.936
86.072	409.102
91.012	560.709
95.948	739.385
100.883	987.476
105.815	1385.62
110.744	2054.3
115.671	4762.15
120.596	8623.94
125.519	11784.5
130.439	20813.5
135.356	10014.1
140.271	16067.7
145.184	30181.8
150.094	43520
155.002	62000.8
159.908	43794.2
164.811	17136.2
169.711	7601.71
174.61	3854.86
179.505	2401.81
184.399	2168.17
189.29	2138.26
194.178	3254.06
199.064	3666.22
203.948	777.51
208.829	313.894
213.708	106.886
218.585	85.6641
223.459	111.026
228.33	196.32
233.199	1757.44
238.066	7164.61
242.93	11166.5
247.792	23516.2
252.651	16661.5
257.508	5690.39
262.363	2863.8
267.215	1807.72
272.064	1214.12
276.912	874.975
281.756	690.251
286.598	557.775
291.438	619.65
296.276	545.898
301.111	686.506
305.943	1149.22
310.773	1783.55
315.601	2561.21
320.426	3101.22
325.248	3053.56
330.068	2296.52
334.886	1250.84
339.701	533.773
344.514	133.862
349.324	73.1269
354.132	138.242
358.938	27.8189
363.741	172.675
368.541	370.946
373.339	43.6873
378.135	98.7087
382.928	73.4917
387.718	119.535
392.506	577.935
397.292	1182.75
402.075	2490.97
406.856	4203.61
411.634	5744.67
416.41	5519.16
421.183	3435.07
425.954	1855.41
430.722	982.194
435.488	444.425
440.251	211.108
445.012	10.7524
449.77	17.2361
454.526	87.6184
459.28	132.944
464.03	176.749
468.779	96.0408
473.525	39.2153
478.268	45.2161
483.009	39.1597
487.747	143.143
492.483	319.086
497.217	477.216
501.948	787.557
506.676	888.423
511.402	737.539
516.125	776.379
520.846	1189.73
525.565	1660.4
530.281	2694.36
534.994	3786.05
539.705	5104.45
544.413	5774.58
549.119	5291.43
553.822	4106.02
558.523	2751.32
563.222	1748.4
567.917	1058.24
572.611	568.751
577.302	478.922
581.99	428.785
586.676	397.53
591.359	426.74
596.04	577.582
600.718	850.128
605.394	1162.36
610.067	1883.31
614.737	2793.03
619.406	4073.89
624.071	5883.68
628.734	7942.39
633.395	10115.8
638.053	11212.3
642.708	10973.8
647.361	9896.11
652.012	7963.12
656.66	6117.47
661.305	4685.34
665.948	3571.18
670.588	2819.81
675.226	2189.39
679.861	1852.95
684.494	1410.72
689.124	1242.61
693.752	1096.55
698.377	892.516
702.999	818.849
707.619	668.447
712.237	539.128
716.852	476.423
721.464	462.991
726.074	371.044
730.681	336.255
735.286	263.41
739.888	244.311
744.488	195.972
749.085	214.705
753.68	186.689
758.272	142.106
762.861	142.929
767.448	160.309
772.033	113.508
776.614	55.7739
781.194	84.5075
785.77	16.9554
790.345	45.7532
794.916	36.5312
799.485	20.4155
804.052	59.4342
808.616	54.6011
813.177	19.2953
817.736	11.905
822.292	0.227051
826.846	13.7011
831.397	57.4739
835.945	31.3682
840.491	4.64221
845.035	16.4281
849.576	18.6244
854.114	0.510254
858.65	39.5692
863.183	24.453
867.713	35.0171
872.241	38.8571
876.767	21.1469
881.29	25.0888
885.81	22.6195
890.328	45.5591
894.843	26.6853
899.356	31.2754
903.866	26.5429
908.373	121.112
912.878	75.3991
917.38	101.072
921.88	112.515
926.377	99.7833
930.872	95.0147
935.364	125.109
939.853	121.507
944.34	107.975
948.824	177.326
953.306	66.261
957.785	102.493
962.261	112.95
966.735	118.679
971.207	96.3079
975.675	115.733
980.141	60.5727
984.605	50.0696
989.066	81.9143
993.524	95.3701
997.98	104.878
1002.43	107.707
1006.88	121.607
1011.33	123.116
1015.78	84.3138
1020.22	90.7518
1024.66	110.285
1029.1	87.8425
1033.53	69.6566
1037.97	84.8154
1042.4	58.1054
1046.82	77.5098
1051.25	48.9633
1055.67	61.0089
1060.09	53.8098
1064.51	34.37
1068.92	90.1242
1073.33	38.5977
1077.74	84.6573
1082.15	57.4614
1086.55	26.171
1090.95	98.72
1095.35	71.2051
1099.75	40.9952
1104.14	46.5844
1108.53	37.3879
1112.92	26.7993
1117.31	45.97
1121.69	74.974
1126.07	97.3101
1130.45	60.6058
1134.82	15.218
1139.19	6.51001
1143.57	26.7789
1147.93	47.9755
1152.3	26.9961
1156.66	23.0476
1161.02	42.5034
1165.38	14.7756
1169.73	48.9945
1174.08	16.8047
1178.43	16.3329
1182.78	45.3687
1187.12	11.3245
1191.46	47.1327
1195.8	36.6494
1200.14	11.4108
1204.47	44.408
1208.8	6.65125
1213.13	7.6792
1217.46	14.8356
1221.78	14.4156
1226.1	26.7527
1230.42	19.6877
1234.73	7.67322
1239.04	37.1394
1243.35	10.3182
1247.66	28.9038
1251.97	44.6285
1256.27	7.20129
1260.57	46.7764
1264.86	47.1028
1269.16	27.3273
1273.45	21.3314
1277.74	60.9469
1282.03	59.2147
1286.31	5.04639
1290.59	54.1858
1294.87	59.322
1299.14	58.1854
1303.42	19.7852
1307.69	47.3817
1311.95	59.8605
1316.22	59.1548
1320.48	31.3572
1324.74	34.4529
1329	34.2328
1333.26	34.313
1337.51	13.5978
1341.76	24.8627
1346	24.8788
1350.25	50.8855
1354.49	26.2117
1358.73	33.971
1362.96	22.92
1367.2	45.9995
1371.43	25.8842
1375.66	0.892944
1379.88	66.8191
1384.11	39.5612
1388.33	47.3132
1392.54	9.98828
1396.76	61.8438
1400.97	24.4605
1405.18	41.1896
1409.39	29.7894
1413.59	45.3574
1417.8	57.7395
1421.99	53.1697
1426.19	4.87976
1430.38	52.2644
1434.58	8.40479
1438.77	26.007
1442.95	36.1653
1447.13	14.4346
1451.32	5.66956
1455.49	28.2105
1459.67	23.959
1463.84	20.1877
1468.01	28.053
1472.18	34.8259
1476.35	26.477
1480.51	23.2655
1484.67	24.9959
1488.83	57.6244
1492.98	81.412
1497.13	31.0455
1501.28	44.7305
1505.43	54.3046
1509.57	27.1145
1513.71	67.4865
1517.85	24.5111
1521.99	46.6611
1526.12	62.78
1530.25	32.1254
1534.38	6.49402
1538.5	64.7723
1542.62	33.0094
1546.74	21.4943
1550.86	28.7123
1554.98	15.658
1559.09	43.8483
1563.2	10.5477
1567.31	23.1516
