Measurement: Raman, 514 nm, ccw, Raman Data Processed
Mineral: Brookite
Rruff sample: R050363
Ideal chemistry: TiO_2_
Locality: Magnet Cove, Arkansas, USA
Source: University of Arizona Mineral Museum
Description: Black fragment of a prismatic crystal associated with quartz
Measured chemistry: (Ti_0.94_Nb^5+^_0.03_Fe^3+^_0.03_)_Î£=1_O_2_
Pin_id: L01899
Orientation: Laser parallel to b* (0 1 0). Fiducial mark perpendicular to laser is parallel to c [0 0 1]
Raman shift (cm-1)	intensity
51.431	0
56.387	94.3631
61.341	50.7056
66.292	32.2076
71.241	192.234
76.187	697.461
81.131	1184.46
86.072	1686.12
91.012	2503.09
95.948	3037.99
100.883	3693.42
105.815	5082.23
110.744	7005.18
115.671	9775.04
120.596	12553.6
125.519	14514.1
130.439	18248.4
135.356	25759.8
140.271	43807.7
145.184	61649.9
150.094	58215.5
155.002	34636.7
159.908	18162.6
164.811	10296
169.711	6498.91
174.61	4028.06
179.505	2863.39
184.399	2334.97
189.29	1988.67
194.178	1538.93
199.064	1639.78
203.948	2324.27
208.829	1806.44
213.708	788.517
218.585	5.59863
223.459	250.129
228.33	190.52
233.199	526.65
238.066	2485.61
242.93	3688.94
247.792	2571.04
252.651	1392.51
257.508	1106.18
262.363	1203.94
267.215	1613.01
272.064	2172.32
276.912	2616.78
281.756	2203.05
286.598	1833.58
291.438	1842.41
296.276	2367.99
301.111	3595.27
305.943	5455.17
310.773	7045.65
315.601	7198.37
320.426	5908.83
325.248	3942.91
330.068	2358.98
334.886	1253.15
339.701	612.544
344.514	288.988
349.324	276.9
354.132	354.408
358.938	406.522
363.741	427.071
368.541	423.931
373.339	545.587
378.135	775.111
382.928	1278.77
387.718	1766.54
392.506	2640.06
397.292	3564.52
402.075	4388.89
406.856	4311.11
411.634	3145.14
416.41	1861.94
421.183	850.496
425.954	348.768
430.722	109.734
435.488	155.378
440.251	183.672
445.012	210.588
449.77	129.101
454.526	9.81982
459.28	132.462
464.03	186.682
468.779	150.941
473.525	50.2978
478.268	189.036
483.009	687.738
487.747	1222.9
492.483	1551.51
497.217	1417.55
501.948	931.996
506.676	375.644
511.402	45.166
516.125	87.25
520.846	208.55
525.565	78.3428
530.281	54.9727
534.994	67.1074
539.705	260.422
544.413	305.037
549.119	388.947
553.822	468.146
558.523	732.628
563.222	837.391
567.917	1072.43
572.611	1488.74
577.302	1946.31
581.99	2402.15
586.676	2948.26
591.359	3518.61
596.04	4406.24
600.718	5361.64
605.394	6722.6
610.067	8064.66
614.737	10017.2
619.406	11840.2
624.071	13925
628.734	15616.3
633.395	16309.2
638.053	15748.8
642.708	14010
647.361	11933.8
652.012	9663.83
656.66	7764.42
661.305	6033.23
665.948	4857.46
670.588	3791.19
675.226	3097.52
679.861	2573.01
684.494	2181.04
689.124	1775.23
693.752	1636.65
698.377	1380.26
702.999	1234.37
707.619	1100.96
712.237	1050.01
716.852	872.517
721.464	851.47
726.074	816.861
730.681	617.686
735.286	636.027
739.888	504.301
744.488	522.178
749.085	496.419
753.68	444.498
758.272	467.65
762.861	398.2
767.448	398.172
772.033	492.418
776.614	387.836
781.194	421.822
785.77	401.416
790.345	371.363
794.916	348.291
799.485	321.231
804.052	295.006
808.616	336.81
813.177	420.761
817.736	348.597
822.292	384.125
826.846	347.207
831.397	312.538
835.945	317.651
840.491	299.146
845.035	238.072
849.576	231.68
854.114	220.807
858.65	201.792
863.183	141.752
867.713	61.6948
872.241	6.90161
876.767	20.2146
881.29	50.4336
885.81	49.5579
890.328	54.5493
894.843	93.4597
899.356	23.5986
903.866	32.4995
908.373	26.781
912.878	32.9271
917.38	50.5453
921.88	51.9844
926.377	36.845
930.872	23.9856
935.364	53.4463
939.853	35.2562
944.34	45.3367
948.824	94.6912
953.306	74.5215
957.785	126.791
962.261	137.248
966.735	97.2294
971.207	139.82
975.675	191.977
980.141	186.843
984.605	229.795
989.066	213.248
993.524	207.08
997.98	230.284
1002.43	237.989
1006.88	233.309
1011.33	248.874
1015.78	233.007
1020.22	240.71
1024.66	232.881
1029.1	218.736
1033.53	223.758
1037.97	194.619
1042.4	188.508
1046.82	186.852
1051.25	172.32
1055.67	200.058
1060.09	194.093
1064.51	193.463
1068.92	171.406
1073.33	181.286
1077.74	162.355
1082.15	160.761
1086.55	140.092
1090.95	114.708
1095.35	106.854
1099.75	92.3916
1104.14	50.2501
1108.53	125.754
1112.92	98.8497
1117.31	255.146
1121.69	380.995
1126.07	335.896
1130.45	128.079
1134.82	63.3516
1139.19	74.0326
1143.57	47.7092
1147.93	19.7471
1152.3	0.67749
1156.66	27.7023
1161.02	26.1104
1165.38	11.879
1169.73	5.54932
1174.08	8.93652
1178.43	1.41687
1182.78	11.2932
1187.12	23.9214
1191.46	29.8561
1195.8	10.0303
1200.14	41.5695
1204.47	30.0193
1208.8	21.4605
1213.13	7.83386
1217.46	15.985
1221.78	69.0512
1226.1	45.9529
1230.42	25.7598
1234.73	50.1305
1239.04	31.6968
1243.35	42.7167
1247.66	26.7255
1251.97	37.6879
1256.27	44.5281
1260.57	35.4828
1264.86	4.37
1269.16	31.8088
1273.45	47.0071
1277.74	2.05627
1282.03	41.5054
1286.31	71.8867
1290.59	0.252075
1294.87	94.522
1299.14	37.2334
1303.42	38.0413
1307.69	51.3821
1311.95	47.5237
1316.22	35.9244
1320.48	46.0781
1324.74	61.3256
1329	81.3429
1333.26	46.9658
1337.51	62.5441
1341.76	43.923
1346	37.7882
1350.25	37.2798
1354.49	35.4805
1358.73	26.2363
1362.96	67.4656
1367.2	46.6213
1371.43	48.3414
1375.66	61.8102
1379.88	20.6396
1384.11	26.9028
1388.33	9.68323
1392.54	44.3185
1396.76	10.679
1400.97	66.9762
1405.18	23.0802
1409.39	32.4038
1413.59	33.596
1417.8	6.42248
1421.99	40.2443
1426.19	8.99097
1430.38	52.6873
1434.58	23.3145
1438.77	63.7854
1442.95	37.3669
1447.13	3.22693
1451.32	19.4541
1455.49	41.2563
1459.67	54
1463.84	44.749
1468.01	75.3831
1472.18	27.8082
1476.35	8.88464
1480.51	16.6288
1484.67	1.87024
1488.83	27.1143
1492.98	22.7178
1497.13	57.3014
1501.28	45.5834
1505.43	38.2114
1509.57	42.9374
1513.71	15.0382
1517.85	39.7192
1521.99	50.9675
1526.12	53.1965
1530.25	89.7357
1534.38	28.318
1538.5	33.6779
1542.62	41.4639
1546.74	66.0606
1550.86	148.894
1554.98	184.77
1559.09	44.8367
1563.2	14.3706
1567.31	0.86438
