Measurement: Raman, 514 nm, ccw, Raman Data Processed
Mineral: Brookite
Rruff sample: R050591
Ideal chemistry: TiO_2_
Locality: Taftan, near Dalbandi, Baluchistan, Pakistan
Source: Wayne Thompson
Description: Yellowish-brown to reddish-brown thin tabular crystal
Measured chemistry: Ti_1.00_O_2_
Pin_id: M00274
Orientation: Laser parallel to b* (0 1 0). Fiducial mark perpendicular to laser is parallel to c [0 0 1]
Raman shift (cm-1)	intensity
51.431	0
56.387	88.0303
61.341	63.0631
66.292	31.2828
71.241	74.0749
76.187	313.228
81.131	619.561
86.072	892.122
91.012	1233.3
95.948	1489.01
100.883	1842.55
105.815	2444.66
110.744	3473.96
115.671	6888.94
120.596	10879.2
125.519	11095
130.439	11298.8
135.356	16117.5
140.271	33183.4
145.184	57116.5
150.094	52518.8
155.002	28912.4
159.908	14220.4
164.811	8961.07
169.711	5028.28
174.61	1738.94
179.505	537.269
184.399	328.283
189.29	238.99
194.178	41.5906
199.064	427.217
203.948	3214.82
208.829	5004.56
213.708	2429.98
218.585	469.038
223.459	26.0095
228.33	330.526
233.199	2700.45
238.066	8927.58
242.93	7801.75
247.792	2989.86
252.651	1111.8
257.508	830.5
262.363	1350.88
267.215	2813.86
272.064	6045.36
276.912	11297
281.756	12756.3
286.598	8619.66
291.438	4782.1
296.276	3115.51
301.111	2855.22
305.943	4018.22
310.773	6013.49
315.601	7599.94
320.426	9463.48
325.248	8253.09
330.068	4115.07
334.886	1569.84
339.701	389.22
344.514	22.0835
349.324	29.7183
354.132	999.781
358.938	2458.33
363.741	2582.33
368.541	1260.29
373.339	491.083
378.135	103.016
382.928	290.205
387.718	378.628
392.506	532.267
397.292	712.101
402.075	1242.12
406.856	1379.29
411.634	845.617
416.41	112.079
421.183	426.796
425.954	345.256
430.722	51.0923
435.488	933.445
440.251	2258.28
445.012	3228.45
449.77	2926.88
454.526	2096.25
459.28	1512.15
464.03	759.993
468.779	167.92
473.525	65.9082
478.268	448.917
483.009	1129.98
487.747	1360.03
492.483	1531.13
497.217	1706.32
501.948	1208.53
506.676	756.578
511.402	594.992
516.125	1010.25
520.846	1728.47
525.565	3201.65
530.281	5057.77
534.994	7011.83
539.705	8166.79
544.413	8089.67
549.119	6623.43
553.822	4992.06
558.523	3862.55
563.222	3036.22
567.917	2661.82
572.611	2571.42
577.302	2701.68
581.99	2667.16
586.676	2395.22
591.359	2374.83
596.04	2725.9
600.718	3263.5
605.394	4088.38
610.067	4819.4
614.737	5754.79
619.406	6785.91
624.071	7997.61
628.734	8881.31
633.395	9181.04
638.053	8499.61
642.708	7104.95
647.361	5498.64
652.012	4008.67
656.66	2917.99
661.305	2152.89
665.948	1535.36
670.588	1048.36
675.226	843.879
679.861	713.883
684.494	467.352
689.124	412.246
693.752	219.543
698.377	150.22
702.999	40.7344
707.619	50.7886
712.237	34.2048
716.852	50.2922
721.464	47.9734
726.074	60.927
730.681	24.9285
735.286	13.8669
739.888	18.8084
744.488	59.7673
749.085	69.8823
753.68	75.5283
758.272	163.928
762.861	57.4763
767.448	224.899
772.033	244.438
776.614	186.336
781.194	190.103
785.77	193.175
790.345	165.977
794.916	201.319
799.485	206.791
804.052	224.283
808.616	280.012
813.177	200.751
817.736	201.512
822.292	189.132
826.846	226.086
831.397	244.481
835.945	194.74
840.491	221.212
845.035	117.862
849.576	200.927
854.114	138.982
858.65	108.226
863.183	31.1731
867.713	15.3903
872.241	26.2566
876.767	29.627
881.29	28.7446
885.81	16.4467
890.328	18.5276
894.843	28.854
899.356	39.0852
903.866	14.0123
908.373	19.0783
912.878	17.0863
917.38	53.2703
921.88	107.683
926.377	46.4222
930.872	118.074
935.364	167.118
939.853	117.128
944.34	141.943
948.824	139.176
953.306	144.836
957.785	171.203
962.261	162.601
966.735	147.713
971.207	163.134
975.675	152.759
980.141	165.903
984.605	200.448
989.066	172.422
993.524	213.562
997.98	191.497
1002.43	177.411
1006.88	223.742
1011.33	227.03
1015.78	184.352
1020.22	184.015
1024.66	176.05
1029.1	141.181
1033.53	143.172
1037.97	121.073
1042.4	105.966
1046.82	109.765
1051.25	108.582
1055.67	84.3876
1060.09	78.4414
1064.51	95.2983
1068.92	77.2215
1073.33	78.4873
1077.74	93.8055
1082.15	71.9827
1086.55	87.4392
1090.95	94.2281
1095.35	41.7856
1099.75	47.1428
1104.14	57.131
1108.53	55.9014
1112.92	63.5319
1117.31	28.3131
1121.69	64.9087
1126.07	63.7994
1130.45	27.6746
1134.82	23.8894
1139.19	25.3934
1143.57	9.7713
1147.93	12.1086
1152.3	5.20404
1156.66	32.6237
1161.02	3.00378
1165.38	9.3045
1169.73	12.9121
1174.08	0.734558
1178.43	8.22925
1182.78	16.615
1187.12	7.13617
1191.46	0.25238
1195.8	25.4108
1200.14	29.5415
1204.47	2.73676
1208.8	12.9443
1213.13	4.16193
1217.46	14.7302
1221.78	15.3738
1226.1	23.4211
1230.42	6.31879
1234.73	32.1333
1239.04	18.9766
1243.35	42.9481
1247.66	3.12537
1251.97	25.7628
1256.27	0.081299
1260.57	13.0219
1264.86	32.9791
1269.16	4.13507
1273.45	6.38702
1277.74	40.2831
1282.03	10.0609
1286.31	18.0665
1290.59	59.8817
1294.87	8.55109
1299.14	18.3816
1303.42	40.9393
1307.69	35.0224
1311.95	19.4819
1316.22	35.8395
1320.48	27.9022
1324.74	24.6479
1329	21.1804
1333.26	20.4575
1337.51	7.65625
1341.76	52.3844
1346	32.1638
1350.25	48.7404
1354.49	38.6337
1358.73	37.5969
1362.96	21.6658
1367.2	48.4351
1371.43	20.1045
1375.66	25.9446
1379.88	34.7205
1384.11	21.0372
1388.33	34.1209
1392.54	11.7039
1396.76	18.7358
1400.97	59.7895
1405.18	25.0129
1409.39	9.09906
1413.59	26.1253
1417.8	14.0623
1421.99	4.37524
1426.19	14.1495
1430.38	7.14716
1434.58	3.55359
1438.77	14.1418
1442.95	0.545715
1447.13	0.429626
1451.32	1.2796
1455.49	23.994
1459.67	1.47235
1463.84	34.0503
1468.01	11.5011
1472.18	26.8811
1476.35	23.4943
1480.51	16.7242
1484.67	15.9507
1488.83	40.2837
1492.98	54.8693
1497.13	34.6479
1501.28	39.1408
1505.43	53.9945
1509.57	44.3995
1513.71	34.2878
1517.85	52.8899
1521.99	15.4091
1526.12	30.8584
1530.25	27.1537
1534.38	28.8928
1538.5	34.3998
1542.62	62.6713
1546.74	42.3409
1550.86	34.3419
1554.98	59.1803
1559.09	7.15118
1563.2	36.858
1567.31	0.585022
