Measurement: Raman, 514 nm, ccw, Raman Data Processed
Mineral: Brookite
Rruff sample: R050363
Ideal chemistry: TiO_2_
Locality: Magnet Cove, Arkansas, USA
Source: University of Arizona Mineral Museum
Description: Black fragment of a prismatic crystal associated with quartz
Measured chemistry: (Ti_0.94_Nb^5+^_0.03_Fe^3+^_0.03_)_Î£=1_O_2_
Pin_id: L01274
Orientation: Laser parallel to c* (0 0 1). Fiducial mark perpendicular to laser is parallel to a [1 0 0]
Raman shift (cm-1)	intensity
51.431	0
56.387	180.645
61.341	73.6532
66.292	18.8505
71.241	385.404
76.187	1432.07
81.131	1894.87
86.072	2737.93
91.012	4057.53
95.948	4655.3
100.883	5332.93
105.815	7139.56
110.744	9631.66
115.671	11074.5
120.596	15853
125.519	20203.6
130.439	18207.4
135.356	20278.1
140.271	28041.7
145.184	42352.4
150.094	59875.3
155.002	56153
159.908	40767.4
164.811	27010.4
169.711	15729.1
174.61	7649.17
179.505	4150.67
184.399	2941.74
189.29	3387.45
194.178	3213.84
199.064	2040.17
203.948	2292.02
208.829	2112.27
213.708	1808.19
218.585	106.655
223.459	785.114
228.33	460.266
233.199	698.658
238.066	4573.22
242.93	14068.9
247.792	12408.1
252.651	6123.72
257.508	2856.74
262.363	1566.21
267.215	1530.11
272.064	2524.4
276.912	3920.93
281.756	4379.2
286.598	3378.57
291.438	2480.27
296.276	2696.12
301.111	4213.86
305.943	6890.33
310.773	10598.5
315.601	14434.3
320.426	15822.6
325.248	13610.5
330.068	8236.73
334.886	4019.45
339.701	1919.58
344.514	1503.13
349.324	2978.52
354.132	8259.97
358.938	19550.6
363.741	24383.3
368.541	13100.2
373.339	6187.86
378.135	3735.54
382.928	3569.51
387.718	3385.28
392.506	2871.83
397.292	2052.14
402.075	1521.19
406.856	1221.1
411.634	891.186
416.41	131.279
421.183	399.492
425.954	484.81
430.722	225.268
435.488	685.779
440.251	2111.01
445.012	4069.51
449.77	6828.92
454.526	9379.17
459.28	10661.2
464.03	9220.46
468.779	7214.86
473.525	4760.28
478.268	3219.98
483.009	2041.9
487.747	1313
492.483	1177.23
497.217	985.521
501.948	623.816
506.676	366.074
511.402	119.397
516.125	257.761
520.846	811.722
525.565	1759.36
530.281	3035.61
534.994	4635.4
539.705	5757.66
544.413	6527.21
549.119	6390.94
553.822	5876.14
558.523	5468.39
563.222	5427.83
567.917	5912.51
572.611	7086.07
577.302	8445.82
581.99	9010.12
586.676	8268.42
591.359	6362.09
596.04	5005.6
600.718	3904
605.394	3038.69
610.067	2941.75
614.737	2802.56
619.406	3144.94
624.071	3492.31
628.734	3921.62
633.395	4356.81
638.053	4807.79
642.708	4646.48
647.361	3997.74
652.012	3245.39
656.66	2513.88
661.305	1645.06
665.948	1246.83
670.588	757.511
675.226	411.189
679.861	244.811
684.494	4.83057
689.124	34.1533
693.752	173.92
698.377	146.812
702.999	161.724
707.619	162.991
712.237	89.6479
716.852	62.0527
721.464	36.5
726.074	98.1309
730.681	43.2398
735.286	108.771
739.888	281.776
744.488	367.946
749.085	429.682
753.68	570.051
758.272	581.25
762.861	577.114
767.448	729.874
772.033	859.725
776.614	962.403
781.194	876.968
785.77	998.764
790.345	1073.53
794.916	1048.01
799.485	1238.03
804.052	1254.65
808.616	1444.3
813.177	1454.23
817.736	1419.15
822.292	1395.08
826.846	1519.56
831.397	1343.55
835.945	1272.35
840.491	1276.88
845.035	1092.38
849.576	991.315
854.114	829.32
858.65	770.563
863.183	585.885
867.713	488.341
872.241	433.119
876.767	291.075
881.29	230.016
885.81	120.84
890.328	125.729
894.843	21.0361
899.356	73.6689
903.866	6.86523
908.373	7.49927
912.878	24.4551
917.38	57.0557
921.88	18.5525
926.377	44.6318
930.872	78.9236
935.364	36.0452
939.853	99.7647
944.34	55.2131
948.824	81.512
953.306	155.708
957.785	122.334
962.261	55.7468
966.735	51.8474
971.207	113.222
975.675	75.3469
980.141	163.498
984.605	177.8
989.066	182.856
993.524	186.734
997.98	223.623
1002.43	146.081
1006.88	207.453
1011.33	232.466
1015.78	191.2
1020.22	283.562
1024.66	214.919
1029.1	211.313
1033.53	223.462
1037.97	159.481
1042.4	177.048
1046.82	161.224
1051.25	216.697
1055.67	215.964
1060.09	253.981
1064.51	162.963
1068.92	110.725
1073.33	183.585
1077.74	133.628
1082.15	141.441
1086.55	214.757
1090.95	157.412
1095.35	147.512
1099.75	76.7336
1104.14	97.6831
1108.53	164.167
1112.92	82.1914
1117.31	143.582
1121.69	81.2788
1126.07	68.9963
1130.45	140.017
1134.82	40.7002
1139.19	37.3774
1143.57	34.5503
1147.93	44.9612
1152.3	59.1538
1156.66	57.062
1161.02	10.0801
1165.38	7.90381
1169.73	37.7356
1174.08	26.9439
1178.43	9.07398
1182.78	28.3926
1187.12	9.3125
1191.46	58.3018
1195.8	5.14673
1200.14	8.87891
1204.47	32.3648
1208.8	8.90332
1213.13	1.80859
1217.46	53.9495
1221.78	22.2146
1226.1	0.137939
1230.42	59.2456
1234.73	10.6599
1239.04	4.02808
1243.35	77.9771
1247.66	32.9861
1251.97	12.3694
1256.27	36.3816
1260.57	20.7471
1264.86	0.818359
1269.16	93.0527
1273.45	90.4739
1277.74	89.6753
1282.03	54.9077
1286.31	70.3
1290.59	79.8994
1294.87	61.0583
1299.14	83.6921
1303.42	53.2532
1307.69	83.1616
1311.95	49.779
1316.22	61.979
1320.48	29.7224
1324.74	98.3325
1329	92.4602
1333.26	55.4656
1337.51	70.2729
1341.76	37.0649
1346	87.2056
1350.25	85.126
1354.49	73.9692
1358.73	77.3574
1362.96	32.2732
1367.2	23.2651
1371.43	80.5674
1375.66	63.5642
1379.88	43.3479
1384.11	10.8765
1388.33	36.3857
1392.54	28.2905
1396.76	68.3037
1400.97	45.2561
1405.18	72.0999
1409.39	1.80005
1413.59	24.2844
1417.8	86.6624
1421.99	45.3684
1426.19	48.4443
1430.38	20.427
1434.58	59.6274
1438.77	30.7808
1442.95	58.3733
1447.13	41.6111
1451.32	16.2678
1455.49	2.57812
1459.67	73.5147
1463.84	30.6914
1468.01	45.8035
1472.18	19.283
1476.35	27.5581
1480.51	24.8655
1484.67	59.6421
1488.83	109.274
1492.98	77.0293
1497.13	401.024
1501.28	115.109
1505.43	56.956
1509.57	43.8057
1513.71	67.2935
1517.85	66.7783
1521.99	79.854
1526.12	74.9043
1530.25	86.0098
1534.38	36.3711
1538.5	32.7871
1542.62	39.4299
1546.74	30.8313
1550.86	218.847
1554.98	520.747
1559.09	23.6248
1563.2	89.1628
1567.31	27.8899
