Measurement: Raman, 514 nm, ccw, Raman Data Processed
Mineral: Brookite
Rruff sample: R050363
Ideal chemistry: TiO_2_
Locality: Magnet Cove, Arkansas, USA
Source: University of Arizona Mineral Museum
Description: Black fragment of a prismatic crystal associated with quartz
Measured chemistry: (Ti_0.94_Nb^5+^_0.03_Fe^3+^_0.03_)_Î£=1_O_2_
Pin_id: L00226
Orientation: Laser parallel to -a* (-1 0 0). Fiducial mark perpendicular to laser is parallel to b [0 1 0]
Raman shift (cm-1)	intensity
51.431	0
56.387	131.506
61.341	45.9196
66.292	37.6802
71.241	612.889
76.187	981.667
81.131	1324.85
86.072	1896.14
91.012	2636.57
95.948	3192.91
100.883	3874.3
105.815	5118.74
110.744	7019.28
115.671	8479.2
120.596	10939
125.519	13150.8
130.439	16132.9
135.356	20431.8
140.271	30093.6
145.184	45579.7
150.094	60345.9
155.002	51624.9
159.908	28942.7
164.811	15879.2
169.711	9869.37
174.61	6232.95
179.505	4419.94
184.399	3312.03
189.29	2885.03
194.178	2691.58
199.064	2134.99
203.948	2292.71
208.829	2075.99
213.708	1284.3
218.585	469.261
223.459	80.7251
228.33	18.9233
233.199	27.8809
238.066	651.89
242.93	2429.03
247.792	3095.25
252.651	1853.83
257.508	1368.46
262.363	1333
267.215	1458.26
272.064	1874.11
276.912	2207.43
281.756	2053.19
286.598	1591.35
291.438	1419.79
296.276	1728.51
301.111	2576.63
305.943	3850.04
310.773	5123.04
315.601	5932.15
320.426	5418.73
325.248	4278.97
330.068	2704.47
334.886	1749.88
339.701	1022.77
344.514	697.995
349.324	522.078
354.132	405.207
358.938	457.411
363.741	464.476
368.541	566.241
373.339	838.018
378.135	1091.15
382.928	1764.28
387.718	2354.61
392.506	3163.19
397.292	4057.27
402.075	5085.28
406.856	5356.26
411.634	4516.19
416.41	3048.04
421.183	1750.75
425.954	899.284
430.722	352.6
435.488	109.654
440.251	73.4072
445.012	12.813
449.77	24.2646
454.526	84.1172
459.28	136.265
464.03	274.163
468.779	222.685
473.525	123.826
478.268	22.8765
483.009	287.984
487.747	713.268
492.483	963.958
497.217	1173.03
501.948	811.465
506.676	378.232
511.402	170.31
516.125	42.4209
520.846	48.7827
525.565	29.3569
530.281	96.0527
534.994	152.406
539.705	230.978
544.413	205.234
549.119	394.752
553.822	394.943
558.523	693.332
563.222	859.913
567.917	1093.68
572.611	1421.63
577.302	2203.77
581.99	2365.08
586.676	2768.21
591.359	3418.81
596.04	3956.34
600.718	4907.98
605.394	5935.53
610.067	7359.82
614.737	8927.6
619.406	10377.7
624.071	12228.1
628.734	13742.3
633.395	14591.3
638.053	14765.2
642.708	13805.8
647.361	12532
652.012	10657.7
656.66	8765.8
661.305	7073.1
665.948	5702.52
670.588	4585.11
675.226	3805.21
679.861	3162.67
684.494	2646.75
689.124	2297.59
693.752	1957.06
698.377	1706.14
702.999	1494.82
707.619	1407.1
712.237	1440.95
716.852	1135.35
721.464	1126.28
726.074	1014.77
730.681	926.862
735.286	850.727
739.888	793.6
744.488	677.724
749.085	725.824
753.68	660.563
758.272	621.863
762.861	541.135
767.448	460.26
772.033	556.26
776.614	547.012
781.194	608.855
785.77	587.645
790.345	518.698
794.916	514.078
799.485	627.409
804.052	476.116
808.616	498.073
813.177	621.543
817.736	564.975
822.292	513.366
826.846	539.194
831.397	469.245
835.945	390.869
840.491	510.352
845.035	523.133
849.576	513.539
854.114	377.697
858.65	307.726
863.183	291.133
867.713	241.362
872.241	67.3025
876.767	85.8716
881.29	33.2771
885.81	38.8838
890.328	20.5979
894.843	99.6216
899.356	57.5017
903.866	124.798
908.373	83.7822
912.878	68.283
917.38	32.0649
921.88	1.08057
926.377	78.2334
930.872	28.6562
935.364	20.4448
939.853	3.78687
944.34	43.2327
948.824	11.6006
953.306	64.6809
957.785	76.061
962.261	85.5371
966.735	114.718
971.207	171.758
975.675	137.787
980.141	214.514
984.605	593.245
989.066	373.218
993.524	289.485
997.98	282.038
1002.43	243.467
1006.88	280.075
1011.33	250.83
1015.78	344.898
1020.22	325.112
1024.66	314.395
1029.1	189.823
1033.53	261.412
1037.97	230.452
1042.4	456.082
1046.82	204.067
1051.25	233.602
1055.67	241.9
1060.09	283.084
1064.51	206.383
1068.92	235.337
1073.33	168.978
1077.74	262.377
1082.15	823.903
1086.55	1621.91
1090.95	223.082
1095.35	111.811
1099.75	139.006
1104.14	164.015
1108.53	123.216
1112.92	159.69
1117.31	257.979
1121.69	345.409
1126.07	354.619
1130.45	119.544
1134.82	47.4937
1139.19	137.191
1143.57	118.148
1147.93	62.6406
1152.3	123.686
1156.66	59.4722
1161.02	11.2752
1165.38	34.0637
1169.73	4.53174
1174.08	4.2937
1178.43	46.3303
1182.78	13.0474
1187.12	28.8052
1191.46	39.6357
1195.8	34.0942
1200.14	32.1807
1204.47	86.2715
1208.8	10.6865
1213.13	12.2969
1217.46	1.18555
1221.78	85.2222
1226.1	63.7151
1230.42	12.8906
1234.73	5.27612
1239.04	100.355
1243.35	9.72412
1247.66	69.0701
1251.97	53.3352
1256.27	47.5635
1260.57	3.58179
1264.86	99.2822
1269.16	58.541
1273.45	34.4187
1277.74	58.3833
1282.03	44.4326
1286.31	58.4546
1290.59	72.6721
1294.87	137.242
1299.14	63.4009
1303.42	133.664
1307.69	133.946
1311.95	70.1409
1316.22	61.082
1320.48	66.2908
1324.74	67.6177
1329	97.7778
1333.26	56.2971
1337.51	91.5046
1341.76	80.7991
1346	78.9544
1350.25	59.249
1354.49	135.413
1358.73	63.1831
1362.96	0.729248
1367.2	166.585
1371.43	47.7263
1375.66	104.627
1379.88	60.2559
1384.11	62.3833
1388.33	73.7541
1392.54	65.9524
1396.76	62.926
1400.97	39.7549
1405.18	19.4282
1409.39	41.5354
1413.59	36.1113
1417.8	54.669
1421.99	64.3023
1426.19	72.7515
1430.38	237.135
1434.58	81.4951
1438.77	69.8347
1442.95	88.4226
1447.13	34.2957
1451.32	72.7263
1455.49	135.379
1459.67	63.9956
1463.84	30.4602
1468.01	26.2351
1472.18	67.3621
1476.35	83.8284
1480.51	54.2517
1484.67	74.779
1488.83	17.729
1492.98	19.405
1497.13	93.4971
1501.28	74.9375
1505.43	9.93481
1509.57	45.6343
1513.71	34.5508
1517.85	94.0273
1521.99	54.1167
1526.12	93.5388
1530.25	86.865
1534.38	37.0732
1538.5	73.7903
1542.62	25.3896
1546.74	51.7249
1550.86	126.209
1554.98	290.385
1559.09	62.366
1563.2	3.71826
1567.31	60.7134
