Measurement: Raman, 514 nm, ccw, Raman Data Processed
Mineral: Brookite
Rruff sample: R050363
Ideal chemistry: TiO_2_
Locality: Magnet Cove, Arkansas, USA
Source: University of Arizona Mineral Museum
Description: Black fragment of a prismatic crystal associated with quartz
Measured chemistry: (Ti_0.94_Nb^5+^_0.03_Fe^3+^_0.03_)_Î£=1_O_2_
Pin_id: L01274
Orientation: Laser parallel to c* (0 0 1). Fiducial mark perpendicular to laser is parallel to a [1 0 0]
Raman shift (cm-1)	intensity
51.431	0
56.387	139.918
61.341	40.4149
66.292	51.7222
71.241	126.102
76.187	590.619
81.131	993.022
86.072	1460.9
91.012	2271.26
95.948	2888.88
100.883	3781.88
105.815	5336.59
110.744	7538.29
115.671	10909.9
120.596	19376.6
125.519	24246.7
130.439	21685.3
135.356	22480.7
140.271	28957
145.184	43841.9
150.094	60591.2
155.002	51180.7
159.908	28860.3
164.811	15688.2
169.711	9017.29
174.61	5610.41
179.505	3941.8
184.399	3624.26
189.29	5416.52
194.178	5162.53
199.064	2699.74
203.948	2644.49
208.829	3428.98
213.708	1840.37
218.585	422.273
223.459	88.9749
228.33	430.125
233.199	1809.9
238.066	6068.97
242.93	17821.6
247.792	17001.4
252.651	8686.85
257.508	5082.24
262.363	3568.41
267.215	2844.21
272.064	2577.54
276.912	2584.33
281.756	2491.57
286.598	2311.24
291.438	2510.61
296.276	3764.19
301.111	5881.55
305.943	9137.11
310.773	13048.3
315.601	14992.5
320.426	13019.6
325.248	8727.55
330.068	4973.34
334.886	2756.92
339.701	1448.29
344.514	682.448
349.324	271.857
354.132	135.672
358.938	286.919
363.741	204.458
368.541	70.8623
373.339	288.082
378.135	307.664
382.928	187.944
387.718	36.895
392.506	397.291
397.292	855.593
402.075	1464.78
406.856	2119.83
411.634	2206.73
416.41	1892.47
421.183	1353.04
425.954	554.416
430.722	167.597
435.488	176.589
440.251	80.1074
445.012	78
449.77	339.54
454.526	415.975
459.28	583.267
464.03	573.45
468.779	821.505
473.525	931.414
478.268	1337.2
483.009	1760.79
487.747	2735.19
492.483	3823.38
497.217	4070.36
501.948	3335.14
506.676	2396.69
511.402	1549.54
516.125	1122.07
520.846	1047.65
525.565	1115.33
530.281	1434.87
534.994	1913.73
539.705	2240.54
544.413	2190.34
549.119	1922.12
553.822	1422.88
558.523	857.624
563.222	514.344
567.917	339.893
572.611	225.704
577.302	294.08
581.99	272.83
586.676	515.026
591.359	614.036
596.04	1030.06
600.718	1510.53
605.394	2056.01
610.067	2902.85
614.737	3932.86
619.406	5112.04
624.071	6269.03
628.734	7491.64
633.395	8633.47
638.053	9186.54
642.708	8938.07
647.361	8177.14
652.012	6885.56
656.66	5544.72
661.305	4371.05
665.948	3214.62
670.588	2593.86
675.226	1909.09
679.861	1416.17
684.494	1158.09
689.124	775.803
693.752	594.481
698.377	309.471
702.999	251.373
707.619	172.952
712.237	114.175
716.852	21.1968
721.464	0.564697
726.074	32.2978
730.681	81.4949
735.286	79.4348
739.888	49.9102
744.488	22.2144
749.085	90.0181
753.68	20.1597
758.272	19.4841
762.861	58.2561
767.448	79.0066
772.033	40.2732
776.614	154.487
781.194	122.291
785.77	193.355
790.345	178.736
794.916	190.636
799.485	206.239
804.052	287.649
808.616	272.144
813.177	386.056
817.736	420.85
822.292	353.06
826.846	360.521
831.397	429.865
835.945	416.142
840.491	449.248
845.035	418.439
849.576	409.864
854.114	350.111
858.65	357.718
863.183	296.612
867.713	156.102
872.241	125.998
876.767	139.694
881.29	27.2334
885.81	20.5051
890.328	12.4858
894.843	26.8882
899.356	40.561
903.866	17.4078
908.373	14.7789
912.878	2.19507
917.38	19.889
921.88	57.644
926.377	50.0723
930.872	224.525
935.364	87.2037
939.853	62.4954
944.34	98.5326
948.824	150.568
953.306	147.478
957.785	151.536
962.261	189.964
966.735	164.205
971.207	175.37
975.675	190.759
980.141	213.355
984.605	183.023
989.066	193.172
993.524	236.066
997.98	235.313
1002.43	242.857
1006.88	283.955
1011.33	261.999
1015.78	263.663
1020.22	271.556
1024.66	262.747
1029.1	230.326
1033.53	247.82
1037.97	193.416
1042.4	216.951
1046.82	205.874
1051.25	187.507
1055.67	228.541
1060.09	213.424
1064.51	203.423
1068.92	166.667
1073.33	193.567
1077.74	200.042
1082.15	159.786
1086.55	177.164
1090.95	120.052
1095.35	125.778
1099.75	146.429
1104.14	137.493
1108.53	133.325
1112.92	118.257
1117.31	106.051
1121.69	128.945
1126.07	113.839
1130.45	79.6106
1134.82	72.6325
1139.19	86.1633
1143.57	45.4102
1147.93	90.7039
1152.3	94.1947
1156.66	67.1774
1161.02	45.3522
1165.38	66.7439
1169.73	15.7513
1174.08	18.4453
1178.43	22.4015
1182.78	28.9148
1187.12	14.4681
1191.46	19.674
1195.8	12.8956
1200.14	4.80225
1204.47	4.03455
1208.8	68.9698
1213.13	56.543
1217.46	28.3117
1221.78	3.11658
1226.1	12.3129
1230.42	40.0099
1234.73	5.82629
1239.04	26.4652
1243.35	6.96777
1247.66	15.8933
1251.97	27.9189
1256.27	22.7784
1260.57	3.60669
1264.86	31.8158
1269.16	44.0553
1273.45	23.8624
1277.74	24.1211
1282.03	8.32886
1286.31	37.8772
1290.59	37.953
1294.87	27.2588
1299.14	26.8258
1303.42	32.132
1307.69	15.6539
1311.95	9.80542
1316.22	34.8859
1320.48	7.04504
1324.74	41.3097
1329	49.7875
1333.26	26.7407
1337.51	32.8502
1341.76	36.8105
1346	2.17029
1350.25	7.96631
1354.49	25.3541
1358.73	40.7105
1362.96	53.9479
1367.2	37.0004
1371.43	32.8536
1375.66	30.5859
1379.88	37.9805
1384.11	0.751343
1388.33	14.8529
1392.54	18.946
1396.76	37.8562
1400.97	25.7163
1405.18	9.38745
1409.39	67.7482
1413.59	34.9605
1417.8	31.1469
1421.99	31.8469
1426.19	22.4922
1430.38	15.9786
1434.58	24.4336
1438.77	14.1683
1442.95	40.3025
1447.13	26.7585
1451.32	9.23938
1455.49	11.2843
1459.67	19.2013
1463.84	2.53064
1468.01	32.0886
1472.18	26.5957
1476.35	49.8832
1480.51	10.5402
1484.67	22.4699
1488.83	72.5045
1492.98	12.0508
1497.13	48.6989
1501.28	59.1195
1505.43	50.4996
1509.57	48.1785
1513.71	39.5883
1517.85	31.7484
1521.99	52.6549
1526.12	24.9814
1530.25	35.5939
1534.38	18.4675
1538.5	66.154
1542.62	9.11999
