Measurement: Raman, 514 nm, ccw, Raman Data Processed
Mineral: Brookite
Rruff sample: R050591
Ideal chemistry: TiO_2_
Locality: Taftan, near Dalbandi, Baluchistan, Pakistan
Source: Wayne Thompson
Description: Yellowish-brown to reddish-brown thin tabular crystal
Measured chemistry: Ti_1.00_O_2_
Pin_id: M00065
Orientation: Laser parallel to c* (0 0 1). Fiducial mark perpendicular to laser is parallel to a [1 0 0]
Raman shift (cm-1)	intensity
51.431	0
56.387	32.9104
61.341	23.8375
66.292	8.2265
71.241	16.7909
76.187	10.4261
81.131	95.491
86.072	121.796
91.012	226.395
95.948	393.113
100.883	564.484
105.815	853.059
110.744	1365.97
115.671	2399.28
120.596	4726.03
125.519	8682.25
130.439	19315.2
135.356	7074.77
140.271	8654.22
145.184	17010.5
150.094	33253.9
155.002	56352.7
159.908	43972
164.811	17765.7
169.711	7732.9
174.61	4007.42
179.505	2304.31
184.399	1555.58
189.29	1640.23
194.178	2777.27
199.064	3835.25
203.948	790.874
208.829	262.425
213.708	124.179
218.585	17.2844
223.459	75.5531
228.33	3.09644
233.199	574.773
238.066	2693.73
242.93	7309.8
247.792	20285.9
252.651	16597.3
257.508	5523
262.363	2719.01
267.215	1662.32
272.064	1100.92
276.912	786.816
281.756	557.984
286.598	448.83
291.438	350.671
296.276	345.824
301.111	330.284
305.943	466.05
310.773	684.122
315.601	1147.5
320.426	1733.18
325.248	2037.17
330.068	1720.47
334.886	1024.08
339.701	508.539
344.514	104.808
349.324	35.5632
354.132	101.807
358.938	45.3955
363.741	464.795
368.541	886.396
373.339	468.419
378.135	16.8718
382.928	12.4226
387.718	113.317
392.506	372.362
397.292	851.78
402.075	1460.58
406.856	2941.76
411.634	4627.33
416.41	4615.3
421.183	3016.67
425.954	1692.45
430.722	833.653
435.488	410.284
440.251	159.354
445.012	43.8669
449.77	57.8272
454.526	125.24
459.28	344.108
464.03	609.438
468.779	460.233
473.525	125.498
478.268	4.23731
483.009	72.6042
487.747	71.3894
492.483	30.9548
497.217	10.9463
501.948	51.0901
506.676	229.584
511.402	246.838
516.125	416.967
520.846	645.613
525.565	1146.12
530.281	1857.08
534.994	2866.47
539.705	3879.98
544.413	4656.92
549.119	4682.56
553.822	3597.88
558.523	2444.26
563.222	1583.27
567.917	1070.31
572.611	795.902
577.302	770.08
581.99	849.826
586.676	824.13
591.359	774.001
596.04	598.438
600.718	725.426
605.394	1019.97
610.067	1435.07
614.737	2071.74
619.406	3028.95
624.071	4444.16
628.734	5954.6
633.395	7529.14
638.053	8911.77
642.708	8958.21
647.361	7970.25
652.012	6532.84
656.66	5202.86
661.305	3935.28
665.948	3029.15
670.588	2361.84
675.226	1876.33
679.861	1549.37
684.494	1178.68
689.124	1078.71
693.752	873.314
698.377	795.111
702.999	667.346
707.619	562.465
712.237	488.683
716.852	391.893
721.464	337.356
726.074	269.141
730.681	270.199
735.286	260.945
739.888	156.168
744.488	166.183
749.085	132.907
753.68	162.256
758.272	115.626
762.861	119.739
767.448	120.972
772.033	119.823
776.614	12.1268
781.194	40.8462
785.77	47.8054
790.345	2.10583
794.916	15.8378
799.485	10.6128
804.052	6.71094
808.616	29.8523
813.177	24.4777
817.736	29.8909
822.292	30.5894
826.846	17.6668
831.397	8.6261
835.945	10.7228
840.491	2.65088
845.035	17.405
849.576	2.76636
854.114	3.71918
858.65	47.2477
863.183	31.5334
867.713	2.3222
872.241	15.7585
876.767	17.7925
881.29	19.6129
885.81	3.83014
890.328	35.6567
894.843	16.8312
899.356	64.0048
903.866	22.3996
908.373	56.1621
912.878	43.9144
917.38	83.1891
921.88	79.6519
926.377	80.3052
930.872	106.776
935.364	105.554
939.853	97.1102
944.34	116.392
948.824	124.664
953.306	101.811
957.785	77.0709
962.261	97.1934
966.735	101.568
971.207	100.415
975.675	63.3422
980.141	109.201
984.605	77.3198
989.066	111.657
993.524	117.084
997.98	98.1162
1002.43	84.0255
1006.88	94.7468
1011.33	82.4563
1015.78	88.3863
1020.22	86.5482
1024.66	87.6458
1029.1	77.5433
1033.53	102.543
1037.97	65.6533
1042.4	78.6222
1046.82	61.4699
1051.25	70.162
1055.67	65.6634
1060.09	64.8389
1064.51	60.8159
1068.92	49.532
1073.33	54.9915
1077.74	45.6318
1082.15	35.1225
1086.55	13.5339
1090.95	41.7258
1095.35	44.3224
1099.75	25.592
1104.14	36.1204
1108.53	26.9818
1112.92	27.0452
1117.31	66.7684
1121.69	109.771
1126.07	72.7294
1130.45	41.4814
1134.82	22.2862
1139.19	16.142
1143.57	37.8963
1147.93	27.5575
1152.3	16.2951
1156.66	24.9754
1161.02	1.46939
1165.38	13.4635
1169.73	5.18326
1174.08	2.87302
1178.43	16.841
1182.78	10.4581
1187.12	15.4646
1191.46	7.1521
1195.8	21.8137
1200.14	6.39941
1204.47	14.8954
1208.8	8.61786
1213.13	11.7057
1217.46	13.8992
1221.78	5.25726
1226.1	22.7144
1230.42	0.166687
1234.73	29.0193
1239.04	6.19132
1243.35	18.9721
1247.66	20.6645
1251.97	5.05337
1256.27	25.4094
1260.57	35.6901
1264.86	23.8729
1269.16	4.96408
1273.45	11.9617
1277.74	35.7374
1282.03	8.62119
1286.31	35.7095
1290.59	5.08173
1294.87	14.9687
1299.14	1.92407
1303.42	17.7662
1307.69	19.6469
1311.95	22.1347
1316.22	24.0925
1320.48	31.0908
1324.74	35.2994
1329	39.0741
1333.26	14.4954
1337.51	35.7624
1341.76	41.7368
1346	17.6953
1350.25	24.6712
1354.49	14.6267
1358.73	16.7075
1362.96	23.6607
1367.2	16.6069
1371.43	1.82169
1375.66	3.16128
1379.88	30.0116
1384.11	10.8383
1388.33	0.361969
1392.54	11.3958
1396.76	8.2937
1400.97	19.1192
1405.18	3.81973
1409.39	21.5646
1413.59	2.28626
1417.8	2.91013
1421.99	3.27799
1426.19	17.7521
1430.38	1.99194
1434.58	3.55191
1438.77	2.02972
1442.95	0.949371
1447.13	7.83026
1451.32	4.72635
1455.49	25.6315
1459.67	1.54709
1463.84	4.40158
1468.01	11.7991
1472.18	14.0913
1476.35	1.21314
1480.51	8.47394
1484.67	2.172
1488.83	5.87207
1492.98	7.01169
1497.13	3.12567
1501.28	20.296
1505.43	20.3229
1509.57	10.5625
1513.71	30.4179
1517.85	5.65524
1521.99	6.79562
1526.12	14.1228
1530.25	16.8718
1534.38	9.30237
1538.5	16.9828
1542.62	26.1368
1546.74	16.0556
1550.86	28.2047
1554.98	36.5169
1559.09	9.12997
1563.2	9.33756
1567.31	21.7466
