Measurement: Raman, 514 nm, ccw, Raman Data Processed
Mineral: Brookite
Rruff sample: R050591
Ideal chemistry: TiO_2_
Locality: Taftan, near Dalbandi, Baluchistan, Pakistan
Source: Wayne Thompson
Description: Yellowish-brown to reddish-brown thin tabular crystal
Measured chemistry: Ti_1.00_O_2_
Pin_id: M00065
Orientation: Laser parallel to c* (0 0 1). Fiducial mark perpendicular to laser is parallel to a [1 0 0]
Raman shift (cm-1)	intensity
51.431	0
56.387	78.9099
61.341	61.0277
66.292	8.34033
71.241	90.27
76.187	214.762
81.131	547.402
86.072	838.297
91.012	1237.57
95.948	1544.33
100.883	1830.38
105.815	2340.68
110.744	2965.27
115.671	4252.82
120.596	6681.79
125.519	11387.6
130.439	16586
135.356	11674
140.271	16782.6
145.184	28642.2
150.094	46153
155.002	57070.1
159.908	33296.3
164.811	12650.8
169.711	5876.04
174.61	4484.56
179.505	1232.25
184.399	109.577
189.29	26.4334
194.178	171.771
199.064	111.882
203.948	146.662
208.829	1103.28
213.708	3047.77
218.585	3334.39
223.459	1176.17
228.33	1319.22
233.199	2966.39
238.066	7443.45
242.93	14579.3
247.792	22921.8
252.651	9480.98
257.508	1804.82
262.363	690.251
267.215	962.22
272.064	2174
276.912	4540.88
281.756	8190.89
286.598	11302.5
291.438	9430.71
296.276	5142.96
301.111	2885.23
305.943	1888.9
310.773	1440.95
315.601	1655.35
320.426	2313
325.248	4218.87
330.068	6025.94
334.886	3720.59
339.701	1240.21
344.514	408.13
349.324	62.8423
354.132	136.431
358.938	736.539
363.741	1621.25
368.541	2507.46
373.339	1484.15
378.135	695.312
382.928	138.925
387.718	180.987
392.506	335.479
397.292	479.393
402.075	805.719
406.856	1256.45
411.634	1648.58
416.41	1080.12
421.183	259.08
425.954	310.672
430.722	403.934
435.488	14.457
440.251	621.669
445.012	1819.31
449.77	2925.37
454.526	2998.81
459.28	2410.62
464.03	1949.8
468.779	1349.34
473.525	997.132
478.268	1363.54
483.009	2472.4
487.747	4004.86
492.483	4045.83
497.217	2558.49
501.948	1817.18
506.676	1997.22
511.402	2503.59
516.125	3710.55
520.846	5265.54
525.565	7764.18
530.281	12044.8
534.994	17604.4
539.705	23514.6
544.413	27816
549.119	27471.5
553.822	23025.2
558.523	17628.4
563.222	13403.3
567.917	10255.8
572.611	8296.06
577.302	7105.89
581.99	6230.66
586.676	5417.56
591.359	4483.1
596.04	3702.86
600.718	3347.87
605.394	3097.24
610.067	2969.99
614.737	2643.12
619.406	2374.69
624.071	2065.75
628.734	1605.58
633.395	1293.79
638.053	901.159
642.708	512.558
647.361	321.884
652.012	120.088
656.66	74.1206
661.305	111.932
665.948	144.498
670.588	59.7783
675.226	59.7627
679.861	218.425
684.494	92.7451
689.124	111.21
693.752	18.9697
698.377	25.3648
702.999	31.3135
707.619	52.4436
712.237	35.8076
716.852	43.9883
721.464	20.0664
726.074	37.0454
730.681	117.07
735.286	59.2283
739.888	157.191
744.488	221.431
749.085	175.014
753.68	190.782
758.272	270.247
762.861	267.649
767.448	253.503
772.033	249.419
776.614	345.358
781.194	309.522
785.77	278.811
790.345	295.854
794.916	246.43
799.485	197.948
804.052	203.519
808.616	253.406
813.177	169.773
817.736	183.45
822.292	95.2361
826.846	214.049
831.397	148.562
835.945	135.941
840.491	117.279
845.035	100.902
849.576	62.5891
854.114	104.462
858.65	84.6609
863.183	32.7571
867.713	14.9519
872.241	54.0255
876.767	69.7434
881.29	21.4739
885.81	37.7426
890.328	9.5033
894.843	0.513428
899.356	41.0481
903.866	39.8112
908.373	75.1089
912.878	72.7056
917.38	123.118
921.88	178.84
926.377	225.489
930.872	230.877
935.364	274.775
939.853	238.56
944.34	316.353
948.824	229.472
953.306	224.726
957.785	216.177
962.261	244.114
966.735	188.112
971.207	235.358
975.675	244.894
980.141	248.458
984.605	260.849
989.066	249.087
993.524	291.869
997.98	261.905
1002.43	274.212
1006.88	296.557
1011.33	229.962
1015.78	239.218
1020.22	222.957
1024.66	169.862
1029.1	210.125
1033.53	161.262
1037.97	180.081
1042.4	139.829
1046.82	136.373
1051.25	126.369
1055.67	160.926
1060.09	136.293
1064.51	111.828
1068.92	115.926
1073.33	99.5881
1077.74	99.6439
1082.15	98.0993
1086.55	71.4117
1090.95	79.6094
1095.35	54.7519
1099.75	59.6517
1104.14	1.93518
1108.53	84.5106
1112.92	30.246
1117.31	119.728
1121.69	183.883
1126.07	122.27
1130.45	56.3332
1134.82	4.85254
1139.19	30.243
1143.57	29.7272
1147.93	2.07941
1152.3	27.646
1156.66	23.3336
1161.02	4.31451
1165.38	0.535828
1169.73	0.857605
1174.08	6.96063
1178.43	0.423706
1182.78	9.69043
1187.12	1.19208
1191.46	11.2031
1195.8	18.289
1200.14	6.32165
1204.47	38.8764
1208.8	0.41394
1213.13	58.1034
1217.46	47.5039
1221.78	38.4374
1226.1	30.3586
1230.42	13.4039
1234.73	38.234
1239.04	9.64416
1243.35	774.502
1247.66	285.943
1251.97	31.7418
1256.27	11.9239
1260.57	26.2132
1264.86	29.376
1269.16	28.373
1273.45	20.1334
1277.74	46.8781
1282.03	16.273
1286.31	19.3718
1290.59	0.376526
1294.87	22.4968
1299.14	24.1036
1303.42	35.202
1307.69	15.5034
1311.95	31.874
1316.22	32.9295
1320.48	36.4918
1324.74	41.8079
1329	31.7323
1333.26	41.4472
1337.51	52.4157
1341.76	12.92
1346	28.9479
1350.25	25.5058
1354.49	30.095
1358.73	19.408
1362.96	45.6844
1367.2	42.8126
1371.43	22.0103
1375.66	23.3152
1379.88	6.22821
1384.11	11.9815
1388.33	42.7152
1392.54	24.1033
1396.76	22.2125
1400.97	10.6393
1405.18	30.7083
1409.39	32.5706
1413.59	30.3035
1417.8	9.7002
1421.99	4.86639
1426.19	37.1708
1430.38	10.9778
1434.58	2.32391
1438.77	9.16931
1442.95	20.6995
1447.13	3.52399
1451.32	15.5804
1455.49	11.3094
1459.67	15.7309
1463.84	8.12903
1468.01	5.47351
1472.18	27.674
1476.35	19.3338
1480.51	34.4709
1484.67	34.6388
1488.83	26.9301
1492.98	36.134
1497.13	34.1367
1501.28	47.3645
1505.43	35.5547
1509.57	20.6366
1513.71	21.881
1517.85	35.2158
1521.99	30.884
1526.12	20.6531
1530.25	24.3792
1534.38	36.5125
1538.5	33.6354
1542.62	23.5811
1546.74	1.42914
1550.86	39.4326
1554.98	35.1473
1559.09	10.0837
1563.2	5.02936
1567.31	6.11444
