Measurement: Raman, 514 nm, ccw, Raman Data Processed
Mineral: Brucite
Rruff sample: R050455
Ideal chemistry: Mg(OH)_2_
Locality: Texas, Lancaster County, Pennsylvania, USA
Source: University of Arizona Mineral Museum
Description: Group of green tabular crystals
Measured chemistry: (Mg_0.99_Mn_0.01_)(OH)_2_
Pin_id: M00147
Orientation: Laser parallel to c* (0 0 1). Fiducial mark perpendicular to laser is parallel to a [1 0 0]
Raman shift (cm-1)	intensity
158.681	0
163.585	117.074
168.486	50.4902
173.385	243.621
178.282	82.7207
183.176	11.1562
188.067	180.129
192.956	79.0801
197.843	147.6
202.727	354.418
207.609	158.51
212.489	113.469
217.366	328.191
222.24	126.715
227.112	142.793
231.982	388.393
236.849	243.234
241.714	250.356
246.577	224.051
251.437	414.297
256.294	454.176
261.149	572.498
266.002	956.932
270.852	2254.39
275.7	3004.48
280.545	2429.06
285.388	1099.87
290.229	631.133
295.067	254.592
299.902	349.309
304.735	65.7695
309.566	351.787
314.394	288.951
319.22	166.914
324.043	28.2305
328.864	212.371
333.682	37.6016
338.498	86.1699
343.311	12.0332
348.122	24.5664
352.931	126.934
357.737	116.367
362.54	204.039
367.341	127.477
372.14	210.949
376.936	72.6113
381.73	17.8047
386.521	22.2188
391.31	103.272
396.096	254.803
400.88	242.766
405.661	300.359
410.44	212.127
415.216	359.045
419.99	297.695
424.761	748.861
429.53	1738.18
434.297	4256.63
439.061	8215.23
443.822	7840.96
448.581	3557.84
453.337	1438.99
458.091	792.537
462.843	507.938
467.592	127.856
472.338	311.611
477.082	151.043
481.824	298.115
486.563	324.342
491.3	37.2539
496.034	88.0391
500.765	78.2715
505.494	24.1016
510.221	328.316
514.945	203.307
519.666	203.182
524.385	186.85
529.102	31.6836
533.816	235.166
538.527	5.62891
543.236	276.65
547.943	65.0566
552.647	54.7012
557.348	72.2539
562.047	225.025
566.744	156.91
571.438	162.92
576.129	16.0488
580.818	75.2969
585.504	23.666
590.188	17.8477
594.87	75.7109
599.549	78.2676
604.225	49.7852
608.899	48.4199
613.57	116.186
618.239	225.102
622.905	49.3555
627.569	118.809
632.23	79.3965
636.889	293.07
641.545	80.9492
646.198	74.0215
650.849	191.699
655.498	121.684
660.144	156.389
664.787	351.449
669.428	113.998
674.067	175.588
678.703	112.609
683.336	317.527
687.967	43.5215
692.595	266.603
697.221	175.766
701.844	453.379
706.465	331.672
711.083	233.027
715.698	704.449
720.311	578.926
724.922	637.465
729.53	586.953
734.135	486.68
738.738	630.481
743.338	571.191
747.936	395.25
752.531	112.359
757.124	428.711
761.714	206.644
766.302	275.484
770.887	372.582
775.469	365.316
780.049	305
784.626	305.797
789.201	289.879
793.773	305.246
798.343	462.766
802.91	430.266
807.475	325.356
812.037	481.305
816.596	306.711
821.153	386.918
825.707	163.266
830.259	181.609
834.808	347.176
839.355	310.797
843.899	216.363
848.441	296.062
852.98	426.754
857.516	295.215
862.05	275.965
866.581	75.9102
871.11	6.15625
875.636	147.602
880.159	60.6602
884.68	21.2188
889.199	129.648
893.714	150.262
898.228	254.098
902.738	225.191
907.246	103.066
911.752	127.648
916.255	19.7617
920.755	49.4414
925.253	38.2305
929.748	26.3125
934.241	85.3008
938.731	159.816
943.218	243.891
947.703	213.519
952.186	78.4922
956.665	205.332
961.142	70.3906
965.617	290.922
970.089	194.91
974.558	497.578
979.025	199.07
983.489	115.152
987.951	158.019
992.41	431.539
996.866	254.344
1001.32	425.359
1005.77	453.68
1010.22	114.902
1014.67	368.742
1019.11	618.047
1023.55	438.438
1027.99	489.898
1032.42	425.711
1036.86	336.227
1041.29	367.129
1045.72	359.859
1050.14	239.254
1054.56	407.098
1058.98	2.17578
1063.4	264.519
1067.82	233.812
1072.23	441.477
1076.64	301.246
1081.05	421.914
1085.45	336.211
1089.85	103.258
1094.25	306.68
1098.65	299.277
1103.04	73.5195
1107.43	229.973
1111.82	473.164
1116.21	303.512
1120.59	248.656
1124.97	587.25
1129.35	195.961
1133.73	229.426
1138.1	474.762
1142.47	292.984
1146.84	1.71484
1151.21	253.07
1155.57	344.809
1159.93	320.238
1164.29	393.606
1168.64	307.773
1172.99	285.398
1177.34	28.9805
1181.69	377.394
1186.04	537.019
1190.38	496.652
1194.72	241.836
1199.05	281.805
1203.39	252.598
1207.72	91.4805
1212.05	76.7227
1216.37	384.227
1220.7	356.254
1225.02	146.598
1229.34	202.266
1233.65	190.844
1237.97	248.965
1242.28	294.574
1246.59	244.449
1250.89	68.8438
1255.19	318.152
1259.49	157.863
1263.79	334.031
1268.09	16.9414
1272.38	281.918
1276.67	249.949
1280.95	335.293
1285.24	130.188
1289.52	280.789
1293.8	177.016
1298.08	212.617
1302.35	264.301
1306.62	231.094
1310.89	369.684
1315.15	391.965
1319.42	106.613
1323.68	439.477
1327.94	395.644
1332.19	162.019
1336.44	397.922
1340.69	22.1914
1344.94	224.113
1349.19	377.562
1353.43	144.027
1357.67	81.6211
1361.9	395.519
1366.14	185.691
1370.37	476.922
1374.6	333.156
1378.83	263.723
1383.05	10.2734
1387.27	559.981
1391.49	269.488
1395.7	241.301
1399.92	248.262
1404.13	356.035
1408.34	176.168
1412.54	280.301
1416.74	287.051
1420.94	205.387
1425.14	134.734
1429.34	515.5
1433.53	526.793
1437.72	253.731
1441.9	141.894
1446.09	455.957
1450.27	424.676
1454.45	269.434
1458.63	665.473
1462.8	138.672
1466.97	430.727
1471.14	235.856
1475.31	164.883
1479.47	406.43
1483.63	341.625
1487.79	539.137
1491.94	442.852
1496.09	373.621
1500.24	60.1914
1504.39	394.883
1508.54	222.926
1512.68	156.797
1516.82	466.621
1520.95	341.867
1525.09	238.656
1529.22	416.859
1533.35	440.066
1537.47	146.34
1541.6	631.441
1545.72	264.641
1549.83	389.219
1553.95	432.953
1558.06	484.68
1562.17	317.664
1566.28	161.82
1570.38	0
