Measurement: Raman, 514 nm, ccw, Raman Data Processed
Mineral: Brucite
Rruff sample: R050455
Ideal chemistry: Mg(OH)_2_
Locality: Texas, Lancaster County, Pennsylvania, USA
Source: University of Arizona Mineral Museum
Description: Group of green tabular crystals
Measured chemistry: (Mg_0.99_Mn_0.01_)(OH)_2_
Pin_id: M00121
Orientation: Laser parallel to a* (1 0 0). Fiducial mark perpendicular to laser is parallel to c [0 0 1]
Raman shift (cm-1)	intensity
107.047	0
111.976	102.4
116.903	354.807
121.827	196.967
126.749	213.783
131.668	279.047
136.585	654.615
141.5	784.769
146.412	492.725
151.321	523.668
156.229	588.469
161.134	584.508
166.036	624.865
170.936	860.465
175.834	591.795
180.729	572.231
185.622	701.111
190.512	725.381
195.4	801.494
200.286	898.617
205.169	545.816
210.049	502.117
214.928	439.547
219.803	360.672
224.677	354.477
229.548	684.787
234.416	699.465
239.282	753.107
244.146	835.394
249.007	1239.7
253.866	1804.16
258.722	2638.47
263.576	4306.37
268.427	7080.18
273.276	9092.94
278.123	7649.23
282.967	4924.77
287.809	1889.36
292.648	1128
297.485	543.584
302.319	227.988
307.151	182.232
311.98	329.566
316.807	229.565
321.631	138.121
326.454	76.1289
331.273	189.541
336.09	89.5957
340.905	15.3477
345.717	120.809
350.527	73.3008
355.334	1.56836
360.139	125.83
364.941	45.3438
369.741	150.932
374.538	265.951
379.333	36.1602
384.126	212.266
388.916	251.643
393.703	288.935
398.488	350.721
403.271	352.824
408.051	533.248
412.828	717.381
417.603	910.283
422.376	1896.34
427.146	3406.74
431.914	7872.71
436.679	14183.8
441.442	15298.9
446.202	8662.77
450.96	3657.81
455.715	1742.36
460.467	1067.31
465.218	656.412
469.965	507.174
474.711	433.535
479.454	351.768
484.194	235.469
488.932	220.268
493.667	98.0449
498.4	115.957
503.13	22.0645
507.858	216.756
512.583	78.1465
517.306	146.412
522.026	5.28711
526.744	173.644
531.459	98.9805
536.172	165.309
540.882	137.266
545.59	53.0352
550.295	215.699
554.998	100.106
559.698	182.356
564.396	95.5273
569.091	217.695
573.784	35.1289
578.474	83.2188
583.162	18.5234
587.847	24.9297
592.529	117.773
597.209	69.5742
601.887	79.8633
606.562	92.4141
611.235	76.582
615.905	55.8828
620.572	179.66
625.237	373.379
629.9	193.742
634.56	369.285
639.217	471.578
643.872	139.078
648.524	411.434
653.174	404.848
657.821	401.269
662.466	323.543
667.108	418.262
671.748	645.781
676.385	888.731
681.02	811.773
685.652	1137.13
690.281	1305.39
694.908	1456.49
699.533	1784.62
704.155	1945.31
708.774	2295.37
713.391	2533.38
718.005	2732.82
722.617	2865.91
727.226	2950.65
731.833	2960.87
736.437	2829.35
741.039	2600.06
745.638	2538.23
750.234	2514.98
754.828	2190.64
759.419	2494.52
764.008	1852.98
768.595	1935.08
773.178	1920.99
777.759	1842.36
782.338	1751.6
786.914	1564.63
791.488	1615.02
796.059	2004.71
800.627	1587.52
805.193	1553.03
809.756	1597.21
814.317	1808.08
818.875	1822.82
823.431	1636.06
827.984	1528.11
832.534	1392.61
837.082	1477.94
841.627	1346.93
846.17	1170.54
850.71	941.512
855.248	1183.06
859.783	1053.34
864.316	935.973
868.846	941.059
873.373	720.633
877.898	467.738
882.42	229.961
886.94	431.551
891.457	536.66
895.971	315.293
900.483	101.496
904.993	10.832
909.5	510.957
914.004	179.492
918.505	36.7227
923.004	39.9648
927.501	91.3125
931.995	7.36328
936.486	64.0859
940.975	27.4219
945.461	32.1094
949.945	169.312
954.426	282.707
958.904	20.8672
963.38	70.7461
967.853	123.523
972.324	70.8672
976.792	114.019
981.258	620.859
985.72	241.769
990.181	152.887
994.639	20.7539
999.094	307.894
1003.55	88.4219
1008	136.098
1012.44	177.223
1016.89	314.188
1021.33	110.277
1025.77	325.519
1030.21	171.062
1034.64	362.133
1039.07	169.672
1043.5	335.453
1047.93	16.3281
1052.35	95.0391
1056.78	120.113
1061.19	22.6562
1065.61	312.785
1070.02	368.648
1074.43	218.457
1078.84	12.7773
1083.25	324.496
1087.65	210.082
1092.05	244.731
1096.45	296.094
1100.85	227.258
1105.24	284.969
1109.63	96.1172
1114.02	322.211
1118.4	327.609
1122.78	363.496
1127.16	282.039
1131.54	214.012
1135.92	47.7031
1140.29	25.8086
1144.66	180.371
1149.02	384.856
1153.39	64.6289
1157.75	45.4805
1162.11	53.6094
1166.46	547.203
1170.82	38.1562
1175.17	332.484
1179.52	61.3398
1183.86	237.664
1188.21	105.137
1192.55	99.5859
1196.89	70.2852
1201.22	127.297
1205.55	101.195
1209.88	367.367
1214.21	173.652
1218.54	98.8594
1222.86	188.828
1227.18	564.598
1231.5	51.6328
1235.81	215.004
1240.12	315.445
1244.43	514.258
1248.74	189.41
1253.04	195.66
1257.34	228.055
1261.64	438.492
1265.94	122.367
1270.23	214.617
1274.52	565.148
1278.81	310.746
1283.1	254.559
1287.38	699.574
1291.66	109.676
1295.94	706.465
1300.21	161.129
1304.48	97.0352
1308.75	224.188
1313.02	255.598
1317.29	557.805
1321.55	362.578
1325.81	301.519
1330.06	272.676
1334.32	278.051
1338.57	280.676
1342.82	210.961
1347.06	291.078
1351.31	236.289
1355.55	357.141
1359.79	241.746
1364.02	351.695
1368.26	8.70312
1372.49	594.961
1376.71	46.4961
1380.94	292.031
1385.16	157.102
1389.38	192.465
1393.6	306.109
1397.81	303.852
1402.02	195.191
1406.23	240.496
1410.44	581.125
1414.64	525.094
1418.85	251.496
1423.04	539.5
1427.24	280.019
1431.43	115.215
1435.62	240.723
1439.81	291.953
1444	205.332
1448.18	246.07
1452.36	604.805
1456.54	444.387
1460.71	353.531
1464.89	259.856
1469.06	555.883
1473.22	37.6094
1477.39	583.84
1481.55	344.586
1485.71	454.629
1489.86	276.43
1494.02	595.996
1498.17	714.805
1502.32	240.777
1506.46	471.09
1510.61	337.941
1514.75	350.551
1518.88	569.656
1523.02	138.602
1527.15	561.867
1531.28	332.555
1535.41	194.316
1539.53	385.258
1543.66	656.609
1547.78	2.75
1551.89	315.961
1556.01	404.981
1560.12	367.984
1564.23	262.844
1568.33	1.73438
