Measurement: Raman, 514 nm, ccw, Raman Data Processed
Mineral: Brucite
Rruff sample: R050455
Ideal chemistry: Mg(OH)_2_
Locality: Texas, Lancaster County, Pennsylvania, USA
Source: University of Arizona Mineral Museum
Description: Group of green tabular crystals
Measured chemistry: (Mg_0.99_Mn_0.01_)(OH)_2_
Pin_id: M00121
Orientation: Laser parallel to a* (1 0 0). Fiducial mark perpendicular to laser is parallel to c [0 0 1]
Raman shift (cm-1)	intensity
107.047	0
111.976	4.11133
116.903	256.196
121.827	120.57
126.749	275.533
131.668	237.449
136.585	278.256
141.5	317.166
146.412	421.759
151.321	454.827
156.229	216.715
161.134	283.31
166.036	522.462
170.936	681.384
175.834	442.057
180.729	599.987
185.622	414.747
190.512	607.428
195.4	637.305
200.286	625.481
205.169	478.016
210.049	323.91
214.928	369.295
219.803	422.875
224.677	431.615
229.548	370.109
234.416	581.818
239.282	425.873
244.146	641.814
249.007	859.24
253.866	1009.66
258.722	1841.36
263.576	3113.57
268.427	5120.31
273.276	6124.95
278.123	5225.3
282.967	2742.21
287.809	1340.58
292.648	815.414
297.485	335.738
302.319	228.496
307.151	244.582
311.98	155.6
316.807	28.1133
321.631	1.22461
326.454	75.4356
331.273	22.8184
336.09	201.986
340.905	137.348
345.717	25.6895
350.527	118.231
355.334	51.0742
360.139	176.682
364.941	221.947
369.741	172.65
374.538	128.307
379.333	96.5664
384.126	146.027
388.916	193.269
393.703	234.332
398.488	389.559
403.271	444.086
408.051	483.965
412.828	840.512
417.603	1331.36
422.376	1994.8
427.146	3827.24
431.914	8417
436.679	14030.5
441.442	14218.2
446.202	7629.92
450.96	3177.17
455.715	1626.58
460.467	900.061
465.218	626.174
469.965	431.125
474.711	445.348
479.454	448.133
484.194	286.254
488.932	198.49
493.667	205.394
498.4	187.918
503.13	60.2891
507.858	20.6992
512.583	32.0059
517.306	138.967
522.026	177.484
526.744	163.957
531.459	60.6367
536.172	179.455
540.882	133.539
545.59	102.543
550.295	51.4551
554.998	100.365
559.698	269.305
564.396	255.252
569.091	73.2617
573.784	29.2148
578.474	34.9277
583.162	64.418
587.847	23.1035
592.529	13.0918
597.209	31.3828
601.887	34.6289
606.562	178.785
611.235	143.119
615.905	58.5625
620.572	279.197
625.237	164.541
629.9	241.672
634.56	196.213
639.217	169.992
643.872	208.742
648.524	219.318
653.174	513.107
657.821	156.744
662.466	319.078
667.108	544.519
671.748	428.912
676.385	678.158
681.02	716.135
685.652	824.434
690.281	1097.88
694.908	933.344
699.533	1510.02
704.155	1702.61
708.774	1973.67
713.391	2022.78
718.005	1942.81
722.617	2310.42
727.226	2041.71
731.833	2333.2
736.437	2227.72
741.039	2277.12
745.638	2016.43
750.234	1894.33
754.828	1723.16
759.419	1606.09
764.008	1606.74
768.595	1244.56
773.178	1351.53
777.759	1376.14
782.338	1533.34
786.914	1349.36
791.488	1642
796.059	1363.5
800.627	1343.82
805.193	1421.85
809.756	1614.12
814.317	1532.91
818.875	1410
823.431	1420.07
827.984	1363.09
832.534	1199.82
837.082	1238.22
841.627	1136.3
846.17	1047.6
850.71	876.609
855.248	839.348
859.783	720.941
864.316	541.258
868.846	657.418
873.373	488.168
877.898	626.699
882.42	556.918
886.94	340.742
891.457	314.273
895.971	265.43
900.483	257.027
904.993	140.102
909.5	153.695
914.004	296.457
918.505	43.1641
923.004	231.309
927.501	46.0703
931.995	191.402
936.486	174.519
940.975	238.973
945.461	8.85156
949.945	226.453
954.426	278.973
958.904	78.3047
963.38	68.5
967.853	30.1211
972.324	254.613
976.792	420.668
981.258	153.91
985.72	67.5625
990.181	270.195
994.639	448.789
999.094	11.7852
1003.55	119.156
1008	303.891
1012.44	68.8555
1016.89	164.293
1021.33	175.32
1025.77	333.465
1030.21	176.902
1034.64	50.9883
1039.07	90.5781
1043.5	314.957
1047.93	509.562
1052.35	223.434
1056.78	174.672
1061.19	329.859
1065.61	374.762
1070.02	229.078
1074.43	235.086
1078.84	206.543
1083.25	234.914
1087.65	357.227
1092.05	100.562
1096.45	299.027
1100.85	253.094
1105.24	204.523
1109.63	121.019
1114.02	51.1445
1118.4	14.3867
1122.78	401.953
1127.16	606.668
1131.54	236.555
1135.92	331.762
1140.29	341.172
1144.66	158.762
1149.02	293.543
1153.39	18.4844
1157.75	480.641
1162.11	234.449
1166.46	286.062
1170.82	162.906
1175.17	144.383
1179.52	148.297
1183.86	95.207
1188.21	214.957
1192.55	103.59
1196.89	71.7773
1201.22	230.629
1205.55	182.332
1209.88	190.133
1214.21	425.328
1218.54	129.488
1222.86	118.312
1227.18	560.668
1231.5	144.664
1235.81	141.246
1240.12	276.809
1244.43	299.75
1248.74	276.324
1253.04	33.6562
1257.34	343.418
1261.64	266.644
1265.94	390.027
1270.23	349.562
1274.52	452.383
1278.81	161.234
1283.1	319.961
1287.38	8.48438
1291.66	519.859
1295.94	242.629
1300.21	249.125
1304.48	157.898
1308.75	225.898
1313.02	315.07
1317.29	383.336
1321.55	362.113
1325.81	197.367
1330.06	298.07
1334.32	835.144
1338.57	285.223
1342.82	145.902
1347.06	344.371
1351.31	582.691
1355.55	223.184
1359.79	75.8516
1364.02	302.547
1368.26	258.516
1372.49	194.574
1376.71	476.398
1380.94	437.543
1385.16	171.769
1389.38	147.16
1393.6	143.793
1397.81	409.648
1402.02	388.254
1406.23	188.582
1410.44	71.9102
1414.64	237.062
1418.85	411.731
1423.04	355.918
1427.24	398.141
1431.43	41.6797
1435.62	566.324
1439.81	109.211
1444	351.125
1448.18	129.875
1452.36	322.793
1456.54	151.047
1460.71	197.93
1464.89	295.894
1469.06	372.188
1473.22	84.7422
1477.39	51.8867
1481.55	163.488
1485.71	263.359
1489.86	348.676
1494.02	359.223
1498.17	170.379
1502.32	346.164
1506.46	100.019
1510.61	308.769
1514.75	188.648
1518.88	539.797
1523.02	418.836
1527.15	219.84
1531.28	200.062
1535.41	335.824
1539.53	190.059
1543.66	263.582
1547.78	170.023
1551.89	180.016
1556.01	5.35156
1560.12	82.2773
1564.23	137.156
1568.33	300.039
