Measurement: Raman, 514 nm, ccw, Raman Data Processed
Mineral: Brucite
Rruff sample: R050455
Ideal chemistry: Mg(OH)_2_
Locality: Texas, Lancaster County, Pennsylvania, USA
Source: University of Arizona Mineral Museum
Description: Group of green tabular crystals
Measured chemistry: (Mg_0.99_Mn_0.01_)(OH)_2_
Pin_id: M00147
Orientation: Laser parallel to c* (0 0 1). Fiducial mark perpendicular to laser is parallel to a [1 0 0]
Raman shift (cm-1)	intensity
158.681	0
163.585	2.41211
168.486	222.078
173.385	239.815
178.282	161.432
183.176	109.939
188.067	257.772
192.956	246.418
197.843	147.272
202.727	2.24219
207.609	239.518
212.489	191.391
217.366	231.816
222.24	64.9609
227.112	264.016
231.982	64.043
236.849	204.275
241.714	101.666
246.577	276.334
251.437	453.371
256.294	350.818
261.149	513.689
266.002	973.549
270.852	1575.32
275.7	2649.91
280.545	1782.59
285.388	1165.03
290.229	489.891
295.067	409.414
299.902	85.2578
304.735	216.51
309.566	131.367
314.394	132.494
319.22	85.2852
324.043	17.6855
328.864	131.182
333.682	1.82617
338.498	256.883
343.311	107.318
348.122	174.131
352.931	91.3066
357.737	219.783
362.54	126.535
367.341	203.065
372.14	274.31
376.936	71.2129
381.73	72.4414
386.521	246.316
391.31	156.318
396.096	91.5117
400.88	24.084
405.661	415.453
410.44	422.227
415.216	252.15
419.99	528.744
424.761	674.014
429.53	1698.26
434.297	4392.67
439.061	8333.24
443.822	7740.19
448.581	3638.33
453.337	1551.71
458.091	1018.99
462.843	568.463
467.592	481.107
472.338	362.375
477.082	286.35
481.824	251.475
486.563	262.16
491.3	218.111
496.034	239.639
500.765	304.291
505.494	170.065
510.221	72.5684
514.945	15.8633
519.666	78.6856
524.385	103.904
529.102	180.832
533.816	217.199
538.527	84.7656
543.236	235.853
547.943	81.5527
552.647	72.3359
557.348	226.209
562.047	51.2793
566.744	355.865
571.438	354.701
576.129	225.617
580.818	394.615
585.504	155.633
590.188	234.529
594.87	315.248
599.549	23.0098
604.225	263.842
608.899	26.2383
613.57	105.629
618.239	161.525
622.905	383.57
627.569	198.662
632.23	208.719
636.889	231.844
641.545	247.098
646.198	199.394
650.849	13.0508
655.498	61.3906
660.144	253.887
664.787	26.5527
669.428	322.027
674.067	15.752
678.703	400.559
683.336	27.3965
687.967	295.316
692.595	352.199
697.221	160.096
701.844	365.188
706.465	243.574
711.083	250.51
715.698	621.481
720.311	367.457
724.922	475.318
729.53	574.043
734.135	290.746
738.738	586.775
743.338	487.826
747.936	359.783
752.531	133.082
757.124	232.522
761.714	227.131
766.302	276.502
770.887	240.606
775.469	199.322
780.049	282.59
784.626	106.938
789.201	349.731
793.773	105.328
798.343	355.512
802.91	340.984
807.475	344.281
812.037	361.488
816.596	330.965
821.153	118.777
825.707	340.566
830.259	71.3125
834.808	154.922
839.355	285.512
843.899	320.094
848.441	241.066
852.98	341.227
857.516	105.918
862.05	287.422
866.581	96.4648
871.11	263.875
875.636	283.828
880.159	179.316
884.68	404.422
889.199	83.1484
893.714	89.4844
898.228	55.6719
902.738	37.293
907.246	13.5938
911.752	100.402
916.255	206.594
920.755	37.3789
925.253	109.242
929.748	139.512
934.241	87.7188
938.731	101.75
943.218	309.242
947.703	177.863
952.186	222.805
956.665	249.629
961.142	137.465
965.617	306.793
970.089	324.027
974.558	303.09
979.025	178.43
983.489	343.262
987.951	454.137
992.41	241.383
996.866	46.7266
1001.32	216.676
1005.77	400.43
1010.22	110.828
1014.67	449.113
1019.11	318.594
1023.55	425.367
1027.99	164.938
1032.42	229.336
1036.86	341.617
1041.29	292.856
1045.72	275.074
1050.14	131.453
1054.56	213.93
1058.98	59.2617
1063.4	60.9336
1067.82	150.566
1072.23	241.738
1076.64	30.2383
1081.05	358.231
1085.45	219.777
1089.85	115.715
1094.25	284.34
1098.65	243.953
1103.04	333.609
1107.43	319.082
1111.82	345.766
1116.21	2.20312
1120.59	191.789
1124.97	325.523
1129.35	67.7773
1133.73	255.609
1138.1	266.734
1142.47	468.668
1146.84	165.191
1151.21	432.57
1155.57	85.9414
1159.93	156.996
1164.29	279.691
1168.64	257.121
1172.99	290.734
1177.34	163.422
1181.69	22.8125
1186.04	596.781
1190.38	430.039
1194.72	397.387
1199.05	9.96094
1203.39	53.1484
1207.72	158.285
1212.05	348.519
1216.37	186.148
1220.7	536.875
1225.02	239.934
1229.34	284.988
1233.65	10.6992
1237.97	369.223
1242.28	162.141
1246.59	231.402
1250.89	265.887
1255.19	217.59
1259.49	176.375
1263.79	411.981
1268.09	409.894
1272.38	366.41
1276.67	104.352
1280.95	144.004
1285.24	358.777
1289.52	295.324
1293.8	200.207
1298.08	145.668
1302.35	267.762
1306.62	113.484
1310.89	201.551
1315.15	285.297
1319.42	188.859
1323.68	19.2617
1327.94	209.254
1332.19	230.918
1336.44	85.7031
1340.69	250.152
1344.94	346.984
1349.19	11.7383
1353.43	100.371
1357.67	140.648
1361.9	284.211
1366.14	143.613
1370.37	426.062
1374.6	0.550781
1378.83	228.133
1383.05	121.789
1387.27	217.512
1391.49	134.09
1395.7	190.793
1399.92	162.828
1404.13	244.055
1408.34	2.17578
1412.54	148.473
1416.74	184.125
1420.94	144.191
1425.14	128.883
1429.34	203.301
1433.53	270.914
1437.72	142.41
1441.9	390.734
1446.09	321.352
1450.27	316.738
1454.45	125.906
1458.63	323.961
1462.8	190.941
1466.97	316.375
1471.14	505.297
1475.31	251.09
1479.47	431.484
1483.63	348.117
1487.79	461.856
1491.94	513.551
1496.09	522.769
1500.24	503.188
1504.39	237.008
1508.54	607.981
1512.68	432.848
1516.82	397.527
1520.95	418.973
1525.09	20.2617
1529.22	475.551
1533.35	106.711
1537.47	531.402
1541.6	456.098
1545.72	325.566
1549.83	448.793
1553.95	502.961
1558.06	154.531
1562.17	306.562
1566.28	761.106
1570.38	0
