Measurement: Raman, 514 nm, ccw, Raman Data Processed
Mineral: Brucite
Rruff sample: R050455
Ideal chemistry: Mg(OH)_2_
Locality: Texas, Lancaster County, Pennsylvania, USA
Source: University of Arizona Mineral Museum
Description: Group of green tabular crystals
Measured chemistry: (Mg_0.99_Mn_0.01_)(OH)_2_
Pin_id: M00121
Orientation: Laser parallel to a* (1 0 0). Fiducial mark perpendicular to laser is parallel to c [0 0 1]
Raman shift (cm-1)	intensity
107.047	0
111.976	212.36
116.903	132.308
121.827	117.484
126.749	202.7
131.668	503.552
136.585	447.167
141.5	484.741
146.412	768.683
151.321	607.213
156.229	594.131
161.134	568.811
166.036	571.857
170.936	677.127
175.834	768.898
180.729	713.742
185.622	744.387
190.512	587.617
195.4	630.941
200.286	728.596
205.169	666.68
210.049	444.24
214.928	535.285
219.803	389.803
224.677	444.768
229.548	652.557
234.416	557.545
239.282	669.033
244.146	698.019
249.007	1011.69
253.866	1413.14
258.722	1842.44
263.576	3214.76
268.427	5317.11
273.276	7292.69
278.123	6153.26
282.967	3345.65
287.809	1538.63
292.648	852.99
297.485	470.547
302.319	503.352
307.151	383.32
311.98	251.367
316.807	241.42
321.631	100.453
326.454	186.371
331.273	328.178
336.09	122.99
340.905	79.6426
345.717	286.096
350.527	47.332
355.334	10.6641
360.139	13.9141
364.941	111.019
369.741	71.8809
374.538	53.4785
379.333	76.9023
384.126	153.185
388.916	273.494
393.703	233.781
398.488	489.912
403.271	580.535
408.051	737.053
412.828	1231.94
417.603	1971.26
422.376	3229.16
427.146	6515.46
431.914	14864.4
436.679	27074.7
441.442	28777.6
446.202	15781.1
450.96	6403.18
455.715	3243.98
460.467	1970.54
465.218	1182.67
469.965	912.688
474.711	742.801
479.454	752.068
484.194	431.143
488.932	414.318
493.667	368.621
498.4	223.637
503.13	192.215
507.858	155.91
512.583	29.2754
517.306	49.3105
522.026	114.998
526.744	181.594
531.459	192.012
536.172	177.023
540.882	135.334
545.59	91.8555
550.295	136.619
554.998	254.279
559.698	90.3066
564.396	52.1562
569.091	82.5625
573.784	118.143
578.474	197.176
583.162	54.3945
587.847	138.059
592.529	87.1953
597.209	28.7285
601.887	56.959
606.562	203.42
611.235	144.225
615.905	184.178
620.572	4.73242
625.237	190.695
629.9	113.516
634.56	375.738
639.217	121.4
643.872	133.486
648.524	322.502
653.174	393.787
657.821	298.373
662.466	601.254
667.108	404.275
671.748	433.393
676.385	430.557
681.02	664.92
685.652	809.152
690.281	1009.87
694.908	894.537
699.533	1119.62
704.155	1571.69
708.774	1582.79
713.391	1897.03
718.005	1809.09
722.617	1940.2
727.226	1993.72
731.833	2055.2
736.437	1793.11
741.039	1844.81
745.638	1539.63
750.234	1417.67
754.828	1320.54
759.419	1355.88
764.008	1186.19
768.595	1117.05
773.178	1346.41
777.759	1277.28
782.338	946.191
786.914	1239.77
791.488	1012.04
796.059	996.004
800.627	1008.4
805.193	1178.5
809.756	1311.42
814.317	1094.05
818.875	960.156
823.431	1019.58
827.984	935.926
832.534	1047.31
837.082	750.098
841.627	815.621
846.17	846.469
850.71	813.676
855.248	679.719
859.783	513.144
864.316	459.797
868.846	522.703
873.373	419.008
877.898	370.164
882.42	191.941
886.94	201.785
891.457	133.57
895.971	356.352
900.483	192.09
904.993	231.699
909.5	148.727
914.004	34.0117
918.505	220.883
923.004	42.375
927.501	126.754
931.995	281.113
936.486	28.9297
940.975	215.734
945.461	74.0156
949.945	299.949
954.426	167.242
958.904	23.8516
963.38	217.984
967.853	77.1523
972.324	140.43
976.792	296.59
981.258	134.062
985.72	280.195
990.181	160.66
994.639	70.1758
999.094	323.609
1003.55	32.0898
1008	458.102
1012.44	60.1953
1016.89	315.285
1021.33	241.262
1025.77	215.383
1030.21	448.363
1034.64	174.383
1039.07	299.269
1043.5	84.3125
1047.93	284.062
1052.35	234.742
1056.78	217.273
1061.19	151.848
1065.61	291.32
1070.02	69.2891
1074.43	145.031
1078.84	225.508
1083.25	240.383
1087.65	250.852
1092.05	11.6055
1096.45	259.215
1100.85	253.406
1105.24	78.5664
1109.63	82.6445
1114.02	141.512
1118.4	206.227
1122.78	297.031
1127.16	488.43
1131.54	261.191
1135.92	90.4258
1140.29	354.676
1144.66	95.7148
1149.02	362.812
1153.39	83.0156
1157.75	206.484
1162.11	259.391
1166.46	421.492
1170.82	233.055
1175.17	291.598
1179.52	249.984
1183.86	277.785
1188.21	91.8477
1192.55	349.898
1196.89	117.828
1201.22	261.543
1205.55	199.258
1209.88	197.211
1214.21	360.961
1218.54	297.961
1222.86	270.191
1227.18	136.797
1231.5	76.0664
1235.81	430.16
1240.12	122.039
1244.43	158.852
1248.74	207.086
1253.04	191.934
1257.34	458.758
1261.64	348.668
1265.94	286.438
1270.23	241.754
1274.52	280.504
1278.81	254.516
1283.1	271.551
1287.38	77.7773
1291.66	329.047
1295.94	323.09
1300.21	164.644
1304.48	338.504
1308.75	307.684
1313.02	345.91
1317.29	68.9531
1321.55	469.238
1325.81	339.414
1330.06	30.6641
1334.32	93.9414
1338.57	8.73828
1342.82	459.672
1347.06	133.137
1351.31	138.766
1355.55	270.57
1359.79	455.34
1364.02	17.1523
1368.26	65.9297
1372.49	206.836
1376.71	18.2695
1380.94	133.969
1385.16	289.019
1389.38	232.164
1393.6	362.414
1397.81	165.609
1402.02	116.098
1406.23	159.574
1410.44	245.504
1414.64	223.422
1418.85	131.508
1423.04	87.5938
1427.24	366.953
1431.43	127.519
1435.62	107.371
1439.81	244.168
1444	376.57
1448.18	373.969
1452.36	358.359
1456.54	326.371
1460.71	178.992
1464.89	206.758
1469.06	236.824
1473.22	309.836
1477.39	349.465
1481.55	254.348
1485.71	308.508
1489.86	196.504
1494.02	347.238
1498.17	117.766
1502.32	392.418
1506.46	232.547
1510.61	267.801
1514.75	279.828
1518.88	388.242
1523.02	244.078
1527.15	297.387
1531.28	366.969
1535.41	183.086
1539.53	274.547
1543.66	206.922
1547.78	212.164
1551.89	151.769
1556.01	341.219
1560.12	168.578
1564.23	39.8867
1568.33	215.5
