Measurement: Raman, 514 nm, ccw, Raman Data Processed
Mineral: Brucite
Rruff sample: R050455
Ideal chemistry: Mg(OH)_2_
Locality: Texas, Lancaster County, Pennsylvania, USA
Source: University of Arizona Mineral Museum
Description: Group of green tabular crystals
Measured chemistry: (Mg_0.99_Mn_0.01_)(OH)_2_
Pin_id: M00147
Orientation: Laser parallel to c* (0 0 1). Fiducial mark perpendicular to laser is parallel to a [1 0 0]
Raman shift (cm-1)	intensity
158.681	0
163.585	87.0078
168.486	8.17383
173.385	152.805
178.282	306.435
183.176	199.871
188.067	269.137
192.956	223.75
197.843	271.182
202.727	322.996
207.609	238.955
212.489	314.959
217.366	211.303
222.24	233.67
227.112	341.545
231.982	267.93
236.849	290.602
241.714	355.394
246.577	358.385
251.437	387.58
256.294	599.08
261.149	937.967
266.002	1327.99
270.852	2543.74
275.7	3951.62
280.545	2880.63
285.388	1528.08
290.229	863.945
295.067	258.119
299.902	384.727
304.735	289.481
309.566	180.363
314.394	158.147
319.22	319.31
324.043	114.848
328.864	174.688
333.682	25.0625
338.498	263.539
343.311	59.8809
348.122	179.289
352.931	395.359
357.737	297.639
362.54	23.0625
367.341	362.732
372.14	40.334
376.936	199.5
381.73	188.035
386.521	47.5273
391.31	182.133
396.096	296.922
400.88	56.5762
405.661	267.728
410.44	202.139
415.216	235.603
419.99	379.047
424.761	755.658
429.53	1634.44
434.297	3558.79
439.061	7361.21
443.822	7053.59
448.581	3352.97
453.337	1473.29
458.091	873.402
462.843	530.318
467.592	479.518
472.338	198.768
477.082	204.598
481.824	225.166
486.563	180.522
491.3	169.918
496.034	42.0762
500.765	127.051
505.494	112.195
510.221	51.2246
514.945	252.576
519.666	312.018
524.385	181.555
529.102	101.736
533.816	46.25
538.527	214.123
543.236	104.096
547.943	39.8457
552.647	105.217
557.348	146.373
562.047	261.633
566.744	182
571.438	56.5273
576.129	1.92773
580.818	91.4688
585.504	228.022
590.188	162.506
594.87	214.051
599.549	123.693
604.225	53.4219
608.899	203.205
613.57	19.1074
618.239	236.193
622.905	35.377
627.569	242.609
632.23	41.6562
636.889	160.246
641.545	170.488
646.198	336.494
650.849	220.553
655.498	114.92
660.144	265.299
664.787	200.477
669.428	182.838
674.067	274.615
678.703	236.525
683.336	305.859
687.967	157.498
692.595	368.986
697.221	435.26
701.844	555.713
706.465	381.231
711.083	614.387
715.698	817.701
720.311	776.41
724.922	801.023
729.53	788.852
734.135	946.314
738.738	1007.87
743.338	715.873
747.936	641.811
752.531	586.301
757.124	609.775
761.714	578.629
766.302	356.978
770.887	303.269
775.469	280.373
780.049	574.354
784.626	487.772
789.201	383.443
793.773	422.123
798.343	457.176
802.91	511.356
807.475	518.227
812.037	688.934
816.596	400.519
821.153	303.621
825.707	181.602
830.259	391.602
834.808	289.465
839.355	323.242
843.899	419.047
848.441	312.91
852.98	247.758
857.516	493.559
862.05	258.367
866.581	608.148
871.11	340.945
875.636	230.527
880.159	299.031
884.68	53.5352
889.199	302.578
893.714	105.125
898.228	230.227
902.738	45.4805
907.246	27.2812
911.752	26.4805
916.255	10.207
920.755	129.769
925.253	204.398
929.748	118.367
934.241	5.9375
938.731	85.0273
943.218	180.008
947.703	184.969
952.186	105.879
956.665	148.461
961.142	101.363
965.617	210.285
970.089	478.742
974.558	210.137
979.025	292.875
983.489	278.863
987.951	429.039
992.41	361.543
996.866	393.652
1001.32	145.906
1005.77	439.773
1010.22	167.336
1014.67	243.797
1019.11	420.152
1023.55	313.402
1027.99	331.684
1032.42	114.731
1036.86	97.7461
1041.29	287.352
1045.72	260.34
1050.14	356.945
1054.56	16.7188
1058.98	119.461
1063.4	199.867
1067.82	168.211
1072.23	144.184
1076.64	54.2227
1081.05	142.117
1085.45	314.676
1089.85	36.6562
1094.25	242.531
1098.65	39.875
1103.04	237.59
1107.43	290.508
1111.82	317.188
1116.21	405.914
1120.59	387.41
1124.97	60.8555
1129.35	354.977
1133.73	171.805
1138.1	362.57
1142.47	71.3242
1146.84	387.09
1151.21	205.297
1155.57	297.441
1159.93	176.519
1164.29	258.012
1168.64	120.996
1172.99	254.637
1177.34	108.117
1181.69	169.215
1186.04	141.769
1190.38	61.0391
1194.72	491.32
1199.05	294.078
1203.39	92.918
1207.72	24.3164
1212.05	105.328
1216.37	170.734
1220.7	102.457
1225.02	64.3359
1229.34	314.168
1233.65	118.688
1237.97	251.102
1242.28	172.793
1246.59	308.238
1250.89	419.816
1255.19	118.832
1259.49	6.87109
1263.79	333.035
1268.09	84.3516
1272.38	363.195
1276.67	427.559
1280.95	148.082
1285.24	376.871
1289.52	430.41
1293.8	248.664
1298.08	370.019
1302.35	191.863
1306.62	310.738
1310.89	270.516
1315.15	266.707
1319.42	175.852
1323.68	404.66
1327.94	175.977
1332.19	365.578
1336.44	61.5273
1340.69	112.121
1344.94	226.438
1349.19	174.641
1353.43	362.207
1357.67	229.652
1361.9	434.758
1366.14	176.746
1370.37	310.234
1374.6	242.375
1378.83	51.7734
1383.05	277.781
1387.27	309.398
1391.49	65.0508
1395.7	125.348
1399.92	295.82
1404.13	152.336
1408.34	184.922
1412.54	105.047
1416.74	93.7773
1420.94	68.3359
1425.14	205.523
1429.34	205.762
1433.53	281.246
1437.72	148.527
1441.9	214.215
1446.09	639.941
1450.27	56.0547
1454.45	407.293
1458.63	199.227
1462.8	228.535
1466.97	317.797
1471.14	195.008
1475.31	302.754
1479.47	22.2266
1483.63	307.93
1487.79	485.848
1491.94	246.992
1496.09	10.1172
1500.24	238.148
1504.39	367.988
1508.54	151.098
1512.68	455.551
1516.82	209.352
1520.95	298.453
1525.09	200.676
1529.22	23.3828
1533.35	229.973
1537.47	212.488
1541.6	218.352
1545.72	176.106
1549.83	190.102
1553.95	356.703
1558.06	330.738
1562.17	303.141
1566.28	155.316
1570.38	0
