Measurement: Raman, 514 nm, ccw, Raman Data Processed
Mineral: Bustamite
Rruff sample: R040014
Ideal chemistry: CaMn^2+^Si_2_O_6_
Locality: Broken Hill, New South Wales, Australia
Source: University of Arizona Mineral Museum
Description: Orange fragment
Measured chemistry: (Ca_0.90_Mn_0.10_)_Σ=1_(Mn^2+^_0.78_Fe^2+^_0.19_Fe^3+^_0.02_Mg_0.01_)_Σ=1_(Si_1.98_Fe^3+^_0.02_)_Σ=2_O_6_
Pin_id: L00281
Orientation: Laser parallel to (0 1 1). Fiducial mark perpendicular to laser is parallel to a [1 0 0]
Raman shift (cm-1)	intensity
49.365	0
53.566	125.31
57.765	266.483
61.962	482.077
66.157	447.194
70.349	347.54
74.54	280.829
78.729	99.491
82.916	21.57
87.101	24.861
91.284	17.579
95.465	98.702
99.644	256.256
103.82	339.917
107.995	454.939
112.168	1425
116.339	632.218
120.508	684.768
124.675	961.146
128.84	961.357
133.003	1372.4
137.164	1878.25
141.323	1604.22
145.48	1041.23
149.635	728.936
153.788	631.698
157.939	514.689
162.088	436.724
166.235	441.201
170.38	570.543
174.523	609.157
178.664	345.779
182.803	146.319
186.94	83.768
191.076	57.13
195.209	46.408
199.34	61.604
203.47	13.703
207.597	26.837
211.722	25.187
215.846	21.129
219.967	6.321
224.087	20.467
228.204	35.114
232.32	72.691
236.434	121.681
240.545	153.86
244.655	224.675
248.763	132.474
252.869	102.894
256.973	82.638
261.075	43.702
265.175	54.396
269.273	45.3
273.369	129.873
277.463	215.146
281.556	371.176
285.646	565.499
289.734	662.679
293.821	597.502
297.905	634.379
301.988	810.784
306.069	1160.85
310.147	1886.11
314.224	2544.28
318.299	2413.41
322.372	1638.48
326.443	1109.51
330.512	925.491
334.579	948.442
338.645	804.355
342.708	579.227
346.769	387.052
350.829	244.365
354.887	180.286
358.942	123.986
362.996	81.665
367.048	79.307
371.098	37.674
375.146	17.074
379.192	45.928
383.236	68.339
387.279	169.006
391.319	303.68
395.358	353.918
399.394	383.777
403.429	517.744
407.462	615.594
411.493	555.566
415.522	348.381
419.549	193.174
423.575	83.534
427.598	49.792
431.619	0.991
435.639	23.39
439.657	0.641
443.673	3.907
447.687	12.234
451.699	22.686
455.709	27.241
459.717	0.898
463.724	23.42
467.728	29.718
471.731	128.036
475.732	298.35
479.731	824.666
483.728	1373.99
487.723	994.315
491.716	478.657
495.708	283.991
499.697	189.311
503.685	311.61
507.671	539.88
511.655	707.129
515.637	606.359
519.617	395.583
523.596	228.643
527.572	111.461
531.547	59.906
535.52	68.408
539.491	41.188
543.46	13.869
547.427	35.754
551.393	64.077
555.356	73.387
559.318	112.676
563.278	172.94
567.236	345.178
571.192	585.391
575.147	914.579
579.099	908.742
583.05	694.883
586.999	518.951
590.946	482.039
594.891	466.979
598.834	536.644
602.776	639.395
606.715	735.632
610.653	892.535
614.589	1096.85
618.523	1384.19
622.456	1864.77
626.386	2696.04
630.315	4280.1
634.242	7656.15
638.167	14364.5
642.09	26482.6
646.012	34612
649.931	23861.3
653.849	13059
657.765	7042.49
661.679	4143.06
665.592	2519.6
669.502	1646.57
673.411	1184.14
677.318	860.446
681.223	678.846
685.126	633.216
689.028	689.561
692.927	688.882
696.825	486.177
700.721	336.289
704.616	249.408
708.508	234.604
712.399	176.768
716.288	172.9
720.175	221
724.06	171.071
727.944	123.112
731.825	114.125
735.705	100.112
739.584	82.074
743.46	39.013
747.334	0.92
751.207	10.759
755.078	25.454
758.947	2.198
762.815	21.174
766.68	9.587
770.544	1.942
774.406	17.549
778.267	16.902
782.125	15.696
785.982	11.586
789.837	4.17
793.69	27.985
797.542	8.912
801.391	34.889
805.239	1.047
809.085	0.958
812.93	24.846
816.772	18.733
820.613	12.372
824.452	35.519
828.29	21.579
832.125	41.309
835.959	43.213
839.791	46.134
843.621	67.075
847.45	54.037
851.277	49.022
855.102	115.032
858.925	158.07
862.746	171.136
866.566	220.23
870.384	308.357
874.2	465.517
878.015	680.723
881.828	1008.01
885.639	1454.35
889.448	1865.79
893.256	1958.29
897.061	1776.86
900.865	1386.57
904.668	1066.45
908.468	851.046
912.267	735.117
916.064	712.853
919.86	710.985
923.653	829.305
927.445	939.19
931.236	1038.8
935.024	1228.27
938.811	1379.61
942.596	1405.53
946.379	1559.96
950.161	1927.11
953.94	2592.4
957.719	3890.71
961.495	6532.63
965.27	12235.8
969.043	25743
972.814	47929.7
976.583	45687.1
980.351	24383.5
984.117	13151
987.882	8279.55
991.644	6371.2
995.405	5728.94
999.165	5416.75
1002.92	4815.65
1006.68	3629.63
1010.43	2615.69
1014.18	2185.83
1017.93	2314.05
1021.68	2842.35
1025.43	3699.31
1029.18	3712.75
1032.92	3147.46
1036.66	3317.63
1040.4	3969.89
1044.14	3032.3
1047.88	1742.97
1051.62	1071.87
1055.35	707.402
1059.08	555.525
1062.81	438.261
1066.54	275.894
1070.27	312.121
1073.99	244.093
1077.72	206.407
1081.44	184.319
1085.16	148.656
1088.88	141.064
1092.59	145.348
1096.31	108.068
1100.02	104.5
1103.73	80.82
1107.44	80.031
1111.15	75.067
1114.86	60.547
1118.57	115.743
1122.27	153.645
1125.97	108.167
1129.67	55.737
1133.37	83.17
1137.07	52.603
1140.76	43.889
1144.45	60.397
1148.15	46.847
1151.84	64.255
1155.53	36.668
1159.21	31.076
1162.9	17.48
1166.58	5.878
1170.26	5.732
1173.94	14.641
1177.62	29.037
1181.3	10.61
1184.97	45.449
1188.65	9.431
1192.32	24.349
1195.99	14.467
1199.66	20.643
1203.33	25.81
1206.99	14.841
1210.65	11.573
1214.32	46.958
1217.98	4.587
1221.64	4.22
1225.29	5.9
1228.95	0.71
1232.6	36.262
1236.26	8.165
1239.91	6.334
1243.56	25.428
1247.2	17.244
1250.85	57.469
1254.49	14.994
1258.13	43.556
1261.78	54.033
1265.41	39.359
1269.05	64.652
1272.69	19.884
1276.32	76.114
1279.95	102.366
1283.59	85.561
1287.21	53.578
1290.84	42.415
1294.47	75.181
1298.09	82.894
1301.72	77.544
1305.34	76.12
1308.96	73.602
1312.58	74.02
1316.19	90.226
1319.81	83.038
1323.42	75.676
1327.03	74.694
1330.64	58.897
1334.25	28.46
1337.86	69.668
1341.46	45.241
1345.07	30.547
1348.67	39.308
1352.27	60.769
1355.87	56.75
1359.46	33.979
1363.06	41.963
1366.65	55.879
1370.25	37.36
1373.84	38.742
1377.43	36.05
1381.02	76.051
1384.6	34.674
1388.18	55.861
1391.77	4.445
1395.35	46.251
1398.93	9.933
1402.51	12.945
1406.08	24.943
1409.66	43.74
1413.23	48.438
1416.8	35.988
1420.37	18.383
1423.94	27.437
1427.51	22.774
1431.08	36.016
1434.64	51.335
1438.2	52.686
1441.76	36.073
1445.32	64.457
1448.88	62.033
1452.43	85.69
1455.99	76.311
1459.54	64.545
1463.09	67.905
1466.64	43.483
1470.19	39.959
1473.74	52.171
1477.28	44.188
1480.83	48.515
1484.37	56.662
1487.91	42.868
1491.45	34.142
1494.98	17.482
1498.52	46.09
1502.05	12.014
1505.59	6.663
1509.12	16.096
1512.65	1.127
1516.17	16.474
1519.7	0.108
