Measurement: Raman, 514 nm, ccw, Raman Data Processed
Mineral: Bustamite
Rruff sample: R040014
Ideal chemistry: CaMn^2+^Si_2_O_6_
Locality: Broken Hill, New South Wales, Australia
Source: University of Arizona Mineral Museum
Description: Orange fragment
Measured chemistry: (Ca_0.90_Mn_0.10_)_Σ=1_(Mn^2+^_0.78_Fe^2+^_0.19_Fe^3+^_0.02_Mg_0.01_)_Σ=1_(Si_1.98_Fe^3+^_0.02_)_Σ=2_O_6_
Pin_id: M00115
Orientation: Laser parallel to (-1 -1 0). Fiducial mark perpendicular to laser is parallel to c [0 0 1]
Raman shift (cm-1)	intensity
123.286	0
127.452	215.64
131.615	942.094
135.777	1441.03
139.937	1400.42
144.094	788.304
148.25	528.823
152.403	604.705
156.555	548.702
160.705	287.722
164.853	162.736
168.998	259.673
173.142	278.781
177.284	307.161
181.424	78.324
185.562	37.952
189.698	127.136
193.831	199.974
197.963	108.315
202.093	3.321
206.221	102.956
210.347	69.449
214.472	26.9
218.594	216.572
222.714	263.398
226.832	692.409
230.948	1042.24
235.063	1328.7
239.175	1636.19
243.286	1747.26
247.394	1451.56
251.501	1041.79
255.605	644.481
259.708	428.017
263.808	385.49
267.907	432.85
272.004	589.071
276.099	863.852
280.192	1020.99
284.283	1042.67
288.372	1108.13
292.459	996.25
296.544	1011.19
300.627	1232.78
304.709	1793.47
308.788	2918.76
312.865	4418.4
316.941	5025.2
321.015	3551.95
325.086	1999.51
329.156	1296.76
333.224	1008.14
337.29	756.377
341.354	514.526
345.416	330.666
349.476	203.2
353.534	126.949
357.591	90.125
361.645	32.155
365.698	31.667
369.748	4.6
373.797	0.312
377.844	49.562
381.889	131.355
385.932	314.702
389.973	585.983
394.012	943.887
398.049	1244.84
402.084	1456.35
406.118	1524.59
410.15	1136.51
414.179	642.077
418.207	288.46
422.233	193.73
426.257	79.882
430.279	94.909
434.299	143.813
438.318	313.636
442.334	377.34
446.349	321.928
450.361	213.418
454.372	155.645
458.381	178.558
462.388	170.178
466.394	67.517
470.397	8.375
474.398	70.414
478.398	12.921
482.396	78.18
486.391	59.185
490.385	29.037
494.377	30.273
498.368	5.774
502.356	53.582
506.342	223.798
510.327	290.188
514.31	388.454
518.291	251.286
522.27	160.1
526.247	33.764
530.222	17.534
534.196	26.618
538.167	37.903
542.137	9.182
546.105	26.563
550.071	20.272
554.035	62.819
557.998	175.22
561.958	304.488
565.917	527.627
569.874	1056.64
573.829	1648.53
577.782	1719.29
581.733	1170.66
585.683	775.175
589.63	505.078
593.576	447.535
597.52	407.624
601.462	506.755
605.402	556.217
609.341	674.167
613.277	799.294
617.212	1019.66
621.145	1336.64
625.076	1938.45
629.006	3161.54
632.933	5552.84
636.859	10316.2
640.783	19996.8
644.705	27738.5
648.625	21382.8
652.543	11760.3
656.46	6292.15
660.375	3645.22
664.288	2266.07
668.199	1534.93
672.108	1133.15
676.016	852.195
679.921	819.515
683.825	1041.05
687.727	1521.91
691.628	1617.52
695.526	1195.76
699.423	758.361
703.318	589.039
707.211	484.437
711.102	595.148
714.992	762.564
718.879	938.938
722.765	587.226
726.649	392.429
730.532	354.55
734.412	240.589
738.291	208.554
742.168	66.454
746.043	31.297
749.916	17.939
753.788	37.654
757.658	25.168
761.526	35.388
765.392	3.103
769.257	26.07
773.119	4.148
776.98	22.868
780.839	67.027
784.697	25.396
788.552	17.143
792.406	2.613
796.258	10.043
800.108	38.584
803.957	24.371
807.804	60.213
811.649	20.834
815.492	25.848
819.333	4.85
823.173	54.24
827.011	10.522
830.847	22.274
834.681	45.008
838.514	7.729
842.345	0.542
846.174	18.222
850.001	30.022
853.827	37.85
857.651	74.391
861.473	59.582
865.293	101.48
869.112	142.392
872.928	214.319
876.744	317.263
880.557	427.226
884.369	571.233
888.178	833.282
891.987	1049.38
895.793	990.532
899.598	865.576
903.401	744.206
907.202	580.211
911.001	534.489
914.799	614.683
918.595	540.145
922.389	658.878
926.182	717.418
929.972	807.39
933.761	922.03
937.549	990.69
941.334	1055.39
945.118	1137.24
948.9	1383.12
952.681	1790.88
956.459	2612.08
960.236	4546.81
964.012	8468.55
967.785	18197.4
971.557	36606.3
975.327	39827.5
979.095	23316.7
982.862	12285.9
986.627	7585.02
990.39	5744.03
994.152	5029.6
997.912	4709.29
1001.67	4287.81
1005.43	3436.67
1009.18	2629.63
1012.93	2167.68
1016.68	2046.82
1020.43	2052.06
1024.18	2367.41
1027.93	2930.85
1031.67	4343.55
1035.42	7536.39
1039.16	10288.1
1042.9	7810.85
1046.63	4277.75
1050.37	2471.64
1054.11	1473.49
1057.84	1053.46
1061.57	812.64
1065.3	679.227
1069.03	602.306
1072.75	490.535
1076.47	448.561
1080.2	423.856
1083.92	414.188
1087.64	388.875
1091.36	336.553
1095.07	295.896
1098.79	245.405
1102.5	232.17
1106.21	201.591
1109.92	189.296
1113.62	251.138
1117.33	194.218
1121.04	256.963
1124.74	229.003
1128.44	209.702
1132.14	147.04
1135.83	168.616
1139.53	119.519
1143.22	168.786
1146.92	170.304
1150.61	173.08
1154.3	107.846
1157.98	140.86
1161.67	92.953
1165.35	34.678
1169.04	56.852
1172.72	47.872
1176.4	47.57
1180.07	52.159
1183.75	4.765
1187.42	46.816
1191.1	12.729
1194.77	15.343
1198.44	5.229
1202.1	26.132
1205.77	13.062
1209.43	15.984
1213.1	46.692
1216.76	37.32
1220.42	35.139
1224.07	7.458
1227.73	19.379
1231.38	20.13
1235.04	41.285
1238.69	98
1242.34	53.499
1245.99	11.152
1249.63	16.935
1253.28	55.206
1256.92	22.232
1260.56	22.536
1264.2	68.288
1267.84	35.878
1271.48	20.364
1275.11	86.884
1278.74	72.333
1282.38	71.357
1286.01	101.267
1289.63	69.02
1293.26	145.649
1296.89	120.124
1300.51	56.466
1304.13	129.689
1307.75	157.785
1311.37	136.753
1314.99	299.551
1318.6	74.223
1322.22	117.879
1325.83	98.515
1329.44	66.102
1333.05	87.318
1336.66	109.789
1340.26	106.482
1343.87	66.165
1347.47	77.551
1351.07	59.006
1354.67	71.649
1358.27	55.036
1361.86	50.83
1365.46	91.947
1369.05	100.368
1372.64	119.495
1376.23	93.22
1379.82	69.6
1383.41	94.718
1386.99	74.572
1390.57	71.611
1394.16	112.455
1397.74	77.121
1401.32	19.934
1404.89	45.223
1408.47	50.867
1412.04	56.636
1415.61	86.908
1419.18	66.815
1422.75	46.982
1426.32	79.831
1429.89	36.528
1433.45	52.672
1437.01	78.459
1440.58	92.801
1444.13	98.621
1447.69	105.035
1451.25	166.519
1454.81	191.373
1458.36	167.624
1461.91	197.682
1465.46	177.724
1469.01	139.831
1472.56	145.41
1476.1	157.714
1479.64	189.859
1483.19	98.329
1486.73	96.059
1490.27	141.06
1493.81	203.511
1497.34	109.348
1500.88	124.779
1504.41	9.981
1507.94	66.916
1511.47	39.247
1515	97.332
1518.53	4.848
1522.05	41.625
