Measurement: Raman, 514 nm, ccw, Raman Data Processed
Mineral: Bustamite
Rruff sample: R040014
Ideal chemistry: CaMn^2+^Si_2_O_6_
Locality: Broken Hill, New South Wales, Australia
Source: University of Arizona Mineral Museum
Description: Orange fragment
Measured chemistry: (Ca_0.90_Mn_0.10_)_Σ=1_(Mn^2+^_0.78_Fe^2+^_0.19_Fe^3+^_0.02_Mg_0.01_)_Σ=1_(Si_1.98_Fe^3+^_0.02_)_Σ=2_O_6_
Pin_id: M00370
Orientation: Laser parallel to b* (0 1 0). Fiducial mark perpendicular to laser is parallel to c [0 0 1]
Raman shift (cm-1)	intensity
92.678	0
96.858	415.605
101.036	1598.98
105.212	2507.31
109.387	2567.18
113.559	2106.71
117.729	1051.55
121.897	631.061
126.063	824.296
130.228	787.428
134.39	959.458
138.55	1145.48
142.709	939.422
146.865	825.255
151.019	1044.35
155.171	1385.33
159.322	1243.67
163.47	733.938
167.617	328.792
171.761	203.861
175.904	232.125
180.044	37.925
184.183	76.932
188.319	52.718
192.454	44.614
196.586	25.667
200.717	25.22
204.846	44.276
208.972	91.402
213.097	19.281
217.22	78.793
221.341	273.047
225.46	582.596
229.577	935.662
233.692	1397.87
237.805	1708.52
241.916	2035.95
246.025	1937.51
250.132	1441.1
254.237	941.67
258.34	519.944
262.442	375.228
266.541	367.617
270.639	513.671
274.734	846.271
278.828	1113.66
282.919	1180.12
287.009	1062.42
291.097	996.284
295.183	1079.67
299.266	1291.78
303.348	1872.01
307.428	3104.5
311.507	4889.46
315.583	6486.21
319.657	5891.77
323.729	4050.29
327.8	2619.8
331.868	1845.28
335.935	1469.74
339.999	1039.24
344.062	761.347
348.123	466.42
352.182	258.88
356.239	146.601
360.294	103.157
364.347	34.336
368.398	18.3
372.448	12.544
376.495	166.197
380.54	312.384
384.584	650.207
388.626	1229.05
392.666	1665.22
396.704	1972.12
400.74	2011.41
404.774	2196.22
408.806	1781.96
412.836	1070.63
416.865	558.031
420.891	292.753
424.916	59.157
428.939	67.632
432.959	41.233
436.978	55.833
440.996	108.209
445.011	34.432
449.024	22.562
453.036	14.834
457.045	7.603
461.053	32.81
465.059	27.193
469.063	11.408
473.065	58.104
477.065	154.41
481.063	477.691
485.06	511.962
489.054	264.161
493.047	173.299
497.038	114.366
501.027	145.38
505.014	402.319
508.999	839.238
512.982	1310.26
516.964	1383.22
520.944	778.765
524.921	412.396
528.897	155.852
532.871	43.942
536.844	34.797
540.814	29.562
544.783	34.741
548.749	58.725
552.714	6.525
556.677	20.155
560.638	125.636
564.597	244.985
568.555	458.2
572.511	914.279
576.464	1102.22
580.416	845.029
584.366	620.491
588.315	385.629
592.261	285.629
596.206	226.324
600.148	313.06
604.089	362.047
608.028	487.206
611.965	503.825
615.901	754.047
619.834	1040.14
623.766	1377.97
627.696	2107.83
631.624	3640.75
635.551	6763.96
639.475	12948.9
643.398	21849.8
647.318	21881
651.237	13279.1
655.155	7301.69
659.07	4002.57
662.984	2435.09
666.895	1566.67
670.805	1000.04
674.713	837.329
678.62	623.849
682.524	608.52
686.427	730.834
690.328	934.618
694.227	747.323
698.124	578.779
702.02	484.989
705.913	409.967
709.805	526.987
713.695	761.373
717.584	1035.43
721.47	853.351
725.355	620.127
729.238	329.765
733.119	243.263
736.998	238.625
740.876	42.853
744.752	28.953
748.626	41.949
752.498	24.186
756.368	53.422
760.237	35.821
764.104	15.962
767.969	5.894
771.832	28.051
775.693	112.885
779.553	13.572
783.411	54.065
787.267	15.551
791.122	34.364
794.974	24.493
798.825	40.095
802.674	10.512
806.522	44.306
810.367	23.337
814.211	105.413
818.053	121.989
821.893	69.417
825.732	6.328
829.568	105.765
833.403	66.771
837.236	2.298
841.068	70.534
844.898	29.274
848.726	68.99
852.552	25.708
856.376	87.396
860.199	112.064
864.02	92.719
867.839	152.343
871.656	192.941
875.472	279.521
879.286	506.083
883.098	550.654
886.909	889.215
890.717	1088.76
894.524	902.913
898.33	887.975
902.133	679.186
905.935	615.276
909.735	507.096
913.533	627.888
917.33	607.666
921.124	664.502
924.918	882.671
928.709	859.766
932.499	1079.19
936.286	1161.4
940.073	1241.39
943.857	1132.11
947.64	1273.71
951.421	1530.68
955.2	2173.96
958.978	3349.43
962.753	5933.7
966.527	11810.2
970.3	24836
974.071	37101.8
977.84	27388
981.607	15066.6
985.372	9326.23
989.136	7265.38
992.898	6843.55
996.659	6974.34
1000.42	6794.52
1004.17	5864.72
1007.93	4215.09
1011.68	3275.56
1015.43	2636.31
1019.18	2237.02
1022.93	2339.49
1026.68	2590.67
1030.42	2712.98
1034.17	4147.49
1037.91	5858.74
1041.65	5510.28
1045.39	3416.16
1049.12	2060.02
1052.86	1283.2
1056.59	827.067
1060.33	619.846
1064.06	543.592
1067.78	470.954
1071.51	412.024
1075.23	514.876
1078.96	497.596
1082.68	320.924
1086.4	234.09
1090.12	228.045
1093.83	261.803
1097.55	155.385
1101.26	69.178
1104.97	232.956
1108.68	126.321
1112.39	130.53
1116.1	205.44
1119.8	91.007
1123.5	145.809
1127.2	39.932
1130.9	105.804
1134.6	223.098
1138.3	72.067
1141.99	53.294
1145.69	17.721
1149.38	8.071
1153.07	108.604
1156.76	52.951
1160.44	11.348
1164.13	124.278
1167.81	41.688
1171.49	107.827
1175.17	36.68
1178.85	72.221
1182.52	36.084
1186.2	15.619
1189.87	139.844
1193.54	65.101
1197.21	13.666
1200.88	1.664
1204.55	5.433
1208.21	22.674
1211.88	0.977
1215.54	16.772
1219.2	85.354
1222.86	87.362
1226.51	11.866
1230.17	13.525
1233.82	115.457
1237.47	46.89
1241.12	77.481
1244.77	38.626
1248.42	99.185
1252.06	189.409
1255.71	19.842
1259.35	139.942
1262.99	40.838
1266.63	30.593
1270.26	110.212
1273.9	52.291
1277.53	161.261
1281.16	169.706
1284.8	148.385
1288.42	76.237
1292.05	142.83
1295.68	109.709
1299.3	46.415
1302.92	12.877
1306.55	18.896
1310.16	15.212
1313.78	130.371
1317.4	174.042
1321.01	87.541
1324.62	68.967
1328.24	43.403
1331.85	27.365
1335.45	1.025
1339.06	90.074
1342.66	100.823
1346.27	202.174
1349.87	172.539
1353.47	183.212
1357.07	174.947
1360.66	245.479
1364.26	76.463
1367.85	97.767
1371.44	59.033
1375.04	39.699
1378.62	140.664
1382.21	160.965
1385.8	223.415
1389.38	228.119
1392.96	232.828
1396.54	184.361
1400.12	127.395
1403.7	15.238
1407.28	63.967
1410.85	95.719
1414.42	153.871
1417.99	300.807
1421.56	203.737
1425.13	290.396
1428.7	224.256
1432.26	238.669
1435.83	250.266
1439.39	177.146
1442.95	292.16
1446.51	198.604
1450.06	339.621
1453.62	203.911
1457.17	319.515
1460.73	405.16
1464.28	479.225
1467.83	510.388
1471.37	495.583
1474.92	338.529
1478.46	160.203
1482.01	324.694
1485.55	149.48
1489.09	124.303
1492.63	179.168
1496.16	114.107
1499.7	160.172
1503.23	277.91
1506.76	356.847
1510.29	267.481
1513.82	380.895
1517.35	306.146
1520.88	253.646
1524.4	0
