Measurement: Raman, 514 nm, ccw, Raman Data Processed
Mineral: Bustamite
Rruff sample: R040014
Ideal chemistry: CaMn^2+^Si_2_O_6_
Locality: Broken Hill, New South Wales, Australia
Source: University of Arizona Mineral Museum
Description: Orange fragment
Measured chemistry: (Ca_0.90_Mn_0.10_)_Σ=1_(Mn^2+^_0.78_Fe^2+^_0.19_Fe^3+^_0.02_Mg_0.01_)_Σ=1_(Si_1.98_Fe^3+^_0.02_)_Σ=2_O_6_
Pin_id: L00268
Orientation: Laser parallel to -a* (-1 0 0). Fiducial mark perpendicular to laser is parallel to b [0 1 0]
Raman shift (cm-1)	intensity
99.453	0
103.636	298.715
107.817	477.26
111.996	228.751
116.172	139.862
120.347	138.415
124.519	752.874
128.69	1470.09
132.858	2396.32
137.025	3092.59
141.189	2583.11
145.352	2160.92
149.512	2476.14
153.67	3129.02
157.827	2708.01
161.981	1494.73
166.133	576.097
170.283	308.029
174.431	288.288
178.577	192.75
182.721	41.657
186.863	25.877
191.003	33.697
195.141	27.057
199.277	20.141
203.411	86.003
207.543	65.608
211.673	41.997
215.801	31.272
219.927	222.192
224.051	290.627
228.173	632.065
232.292	950.338
236.41	1218.03
240.526	1577.64
244.64	1846.15
248.752	1722.05
252.861	1357.15
256.969	959.319
261.075	648.511
265.179	427.794
269.281	454.034
273.38	441.49
277.478	611.338
281.574	773.14
285.668	725.895
289.76	737.509
293.85	843.811
297.937	1147.72
302.023	1787.33
306.107	2928.71
310.189	5002.77
314.269	7192.99
318.347	7124.69
322.423	4673.44
326.497	2859.71
330.569	2083.82
334.639	1894.58
338.707	1516.67
342.773	1097.38
346.837	704.114
350.899	441.068
354.96	227.938
359.018	135.708
363.074	103.764
367.128	9.108
371.181	6.096
375.231	42.113
379.28	169.811
383.326	373.1
387.37	706.579
391.413	1236.93
395.454	1609.31
399.492	1914.13
403.529	2498.24
407.564	2574.75
411.596	1611.23
415.627	911.682
419.656	438.104
423.683	190.496
427.708	38.86
431.731	55.184
435.752	56.462
439.772	77.655
443.789	109.917
447.804	75.082
451.817	158.184
455.829	388.207
459.838	628.193
463.846	557.136
467.852	257.091
471.855	61.012
475.857	26.921
479.857	11.177
483.855	19.519
487.851	59.32
491.845	27.998
495.837	38.538
499.828	126.979
503.816	270.348
507.802	494.647
511.787	907.893
515.77	1107.07
519.75	725.194
523.729	329.25
527.706	107.316
531.681	65.343
535.654	0.549
539.625	14.264
543.595	7.831
547.562	38.601
551.527	1.863
555.491	72.453
559.453	1.418
563.412	151.559
567.37	274.414
571.326	713.151
575.28	984.768
579.233	995.556
583.183	668.443
587.131	354.467
591.078	232.75
595.022	177.92
598.965	232.013
602.906	273.213
606.845	267.203
610.782	285.976
614.718	383.481
618.651	553.965
622.582	791.117
626.512	1119.42
630.44	1806.39
634.366	3241.54
638.29	6206.35
642.212	11773.5
646.132	15081.2
650.05	10008.8
653.967	5384.53
657.882	2917.78
661.794	1772.14
665.705	1066.22
669.614	678.718
673.522	551.304
677.427	424.742
681.331	349.681
685.232	340.02
689.132	504.179
693.03	491.786
696.926	411.626
700.82	260.206
704.713	238.125
708.603	314.625
712.492	608.159
716.379	857.914
720.264	791.22
724.147	347.853
728.028	268.325
731.908	155.641
735.785	225.797
739.661	130.788
743.535	8.608
747.407	3.217
751.278	1.426
755.146	8.628
759.013	47.424
762.878	17.95
766.741	2.726
770.602	5.375
774.461	41.226
778.319	27.201
782.174	6.034
786.028	53.985
789.88	30.653
793.73	11.061
797.579	11.342
801.425	59.553
805.27	6.3
809.113	19.031
812.954	33.611
816.794	34.059
820.631	73.372
824.467	57.567
828.301	9.364
832.133	31.561
835.963	146.384
839.792	117.117
843.618	62.761
847.443	144.332
851.266	60.911
855.088	109.519
858.907	159.203
862.725	191.885
866.541	161.57
870.355	187.248
874.167	115.911
877.978	209.564
881.787	365.196
885.594	439.804
889.399	539.121
893.202	619.205
897.004	570.078
900.803	522.956
904.601	394.885
908.398	405.744
912.192	387.304
915.985	401.404
919.776	320.949
923.565	458.942
927.352	480.63
931.138	571.895
934.922	662.186
938.704	666.862
942.484	662.196
946.262	709.357
950.039	878.143
953.814	1231.92
957.587	1717
961.359	3331.79
965.128	5984.79
968.896	13399.7
972.662	25484.9
976.427	22810.3
980.189	12294
983.95	6899.86
987.709	4795.96
991.467	4182.27
995.222	4113.4
998.976	4247.13
1002.73	4227.7
1006.48	3508.2
1010.23	3021.64
1013.97	2432.61
1017.72	2394.28
1021.46	2463.02
1025.2	2726.33
1028.94	2937.59
1032.68	3547.74
1036.42	5487.49
1040.15	6637.93
1043.89	4530.23
1047.62	2465.65
1051.35	1569.08
1055.07	1036.73
1058.8	788.762
1062.52	675.195
1066.25	525.252
1069.97	508.333
1073.69	520.638
1077.4	603.561
1081.12	768.271
1084.83	1610.89
1088.55	1332.23
1092.26	582.574
1095.96	386.786
1099.67	319.08
1103.38	275.489
1107.08	222.531
1110.78	206.494
1114.48	158.718
1118.18	156.519
1121.88	385.242
1125.57	332.243
1129.27	215.668
1132.96	10.181
1136.65	13.257
1140.34	38.991
1144.02	35.349
1147.71	146.574
1151.39	127.385
1155.07	145.34
1158.75	101.125
1162.43	94.243
1166.11	64.931
1169.78	21.722
1173.45	66.756
1177.12	15.049
1180.79	24.25
1184.46	68.34
1188.13	3.982
1191.79	36.005
1195.45	232.27
1199.11	6.115
1202.77	5.421
1206.43	91.816
1210.09	61.017
1213.74	143.228
1217.39	54.301
1221.05	43.706
1224.69	128.997
1228.34	191.098
1231.99	120.548
1235.63	129.594
1239.27	294.831
1242.91	268.583
1246.55	148.035
1250.19	217.149
1253.83	157.483
1257.46	126.571
1261.09	156.542
1264.72	111.523
1268.35	301.517
1271.98	385.765
1275.61	359.517
1279.23	184.57
1282.85	222.636
1286.47	149.795
1290.09	164.192
1293.71	277.059
1297.33	245.719
1300.94	246.654
1304.55	228.371
1308.16	182.066
1311.77	298.874
1315.38	203.495
1318.99	163.573
1322.59	189.251
1326.19	74.336
1329.79	78.676
1333.39	144.072
1336.99	206.275
1340.59	203.863
1344.18	130.011
1347.77	229.341
1351.37	111.918
1354.95	67.437
1358.54	60.669
1362.13	57.587
1365.71	154.797
1369.3	79.092
1372.88	136.17
1376.46	150.653
1380.04	18.414
1383.61	30.152
1387.19	192.102
1390.76	38.664
1394.33	70.685
1397.9	4.112
1401.47	176.214
1405.04	232.871
1408.6	137.92
1412.16	308.837
1415.72	264.576
1419.29	114.117
1422.84	62.175
1426.4	158.124
1429.96	73.378
1433.51	208.57
1437.06	178.46
1440.61	408.776
1444.16	531.168
1447.71	586.934
1451.25	547.068
1454.8	695.323
1458.34	593.185
1461.88	495.688
1465.42	345.115
1468.96	314.526
1472.49	232.712
1476.03	301.106
1479.56	360.305
1483.09	338.7
1486.62	258.443
1490.15	288.898
1493.67	320.385
1497.2	342.372
1500.72	175.176
1504.24	0.609
1507.76	116.168
1511.28	32.705
1514.8	10.38
1518.31	0.677
