Measurement: Raman, 514 nm, ccw, Raman Data Processed
Mineral: Bustamite
Rruff sample: R040014
Ideal chemistry: CaMn^2+^Si_2_O_6_
Locality: Broken Hill, New South Wales, Australia
Source: University of Arizona Mineral Museum
Description: Orange fragment
Measured chemistry: (Ca_0.90_Mn_0.10_)_Σ=1_(Mn^2+^_0.78_Fe^2+^_0.19_Fe^3+^_0.02_Mg_0.01_)_Σ=1_(Si_1.98_Fe^3+^_0.02_)_Σ=2_O_6_
Pin_id: L00174
Orientation: Laser parallel to (-1 0 -1). Fiducial mark perpendicular to laser is parallel to -b [0 -1 0]
Raman shift (cm-1)	intensity
107.817	0
111.996	8.098
116.172	85.495
120.347	1295.26
124.519	4279.47
128.69	4423.84
132.858	4220.52
137.025	4054.2
141.189	2918.07
145.352	2091.24
149.512	1968.11
153.67	2134.04
157.827	1739.26
161.981	1157.46
166.133	508.541
170.283	356.191
174.431	341.343
178.577	293.736
182.721	140.357
186.863	68.03
191.003	37.354
195.141	18.929
199.277	12.262
203.411	22.037
207.543	66.791
211.673	74.128
215.801	28.198
219.927	70.729
224.051	202.642
228.173	388.5
232.292	567.04
236.41	776.085
240.526	1099.29
244.64	1387.78
248.752	1449.56
252.861	1276.68
256.969	980.158
261.075	701.689
265.179	503.197
269.281	534.68
273.38	536.718
277.478	602.282
281.574	684.406
285.668	657.566
289.76	775.15
293.85	945.072
297.937	1207.24
302.023	1767.5
306.107	2794.11
310.189	4643.01
314.269	6635.31
318.347	6103.63
322.423	3768.34
326.497	2407
330.569	2246.72
334.639	2318.89
338.707	1954.03
342.773	1476.72
346.837	1089.07
350.899	781.503
354.96	530.679
359.018	413.87
363.074	382.351
367.128	313.006
371.181	251.555
375.231	329.56
379.28	420.144
383.326	685.155
387.37	1016.16
391.413	1676.5
395.454	3028.42
399.492	6258.12
403.529	10488.2
407.564	11256.7
411.596	7334.76
415.627	3735.73
419.656	2077.66
423.683	1280.54
427.708	742.348
431.731	550.116
435.752	372.106
439.772	313.656
443.789	264.044
447.804	241.275
451.817	215.351
455.829	292.329
459.838	342.196
463.846	231.934
467.852	85.549
471.855	86.008
475.857	51.672
479.857	127.412
483.855	153.402
487.851	139.297
491.845	33.104
495.837	36.853
499.828	62.531
503.816	196.088
507.802	179.559
511.787	350.969
515.77	382.351
519.75	225.719
523.729	96.108
527.706	32.536
531.681	11.03
535.654	3.501
539.625	115.222
543.595	52.316
547.562	9.207
551.527	27.856
555.491	76.921
559.453	1.195
563.412	68.281
567.37	235.535
571.326	428.635
575.28	622.562
579.233	592.998
583.183	418.633
587.131	286.304
591.078	185.385
595.022	193.281
598.965	212.81
602.906	264.523
606.845	292.024
610.782	371.817
614.718	525.231
618.651	703.663
622.582	994.804
626.512	1536.03
630.44	2642.61
634.366	4784.29
638.29	9314.44
642.212	17396.5
646.132	20187
650.05	12759.4
653.967	6876.98
657.882	3779.91
661.794	2301.35
665.705	1558.77
669.614	1172.8
673.522	846.911
677.427	730.479
681.331	675.98
685.232	706.76
689.132	726.206
693.03	578.537
696.926	365.978
700.82	206.597
704.713	251.824
708.603	136.292
712.492	130.276
716.379	192.884
720.264	250.703
724.147	185.699
728.028	89.606
731.908	39.333
735.785	164.868
739.661	97.234
743.535	3.424
747.407	95.389
751.278	85.878
755.146	55.436
759.013	57.799
762.878	6.076
766.741	75.204
770.602	11.3
774.461	37.421
778.319	91.591
782.174	12.401
786.028	36.048
789.88	81.554
793.73	38.923
797.579	44.116
801.425	13.855
805.27	72.041
809.113	64.446
812.954	13.25
816.794	11.891
820.631	45.897
824.467	18.751
828.301	28.541
832.133	2.032
835.963	19.341
839.792	4.372
843.618	53.821
847.443	98.002
851.266	12.763
855.088	38.564
858.907	57.936
862.725	112.831
866.541	160.008
870.355	136.435
874.167	209.801
877.978	528.206
881.787	893.379
885.594	1129.53
889.399	1324.61
893.202	1320.76
897.004	1009.98
900.803	764.424
904.601	576.964
908.398	487.627
912.192	489.061
915.985	525.365
919.776	437.059
923.565	572.471
927.352	579.685
931.138	868.944
934.922	744.896
938.704	799.153
942.484	954.812
946.262	1073.93
950.039	1312.1
953.814	1810.79
957.587	2693.15
961.359	4868.5
965.128	9306.54
968.896	20565.5
972.662	36325.5
976.427	28873.5
980.189	14691.7
983.95	7879.55
987.709	4900.72
991.467	3700.1
995.222	3310.6
998.976	3601.81
1002.73	4155.35
1006.48	3666.27
1010.23	2977.83
1013.97	2239.3
1017.72	2091.56
1021.46	1936.51
1025.2	2098.9
1028.94	2095.3
1032.68	2467.46
1036.42	3808.86
1040.15	4306.24
1043.89	2948.14
1047.62	1644.8
1051.35	1041.73
1055.07	694.518
1058.8	589.368
1062.52	514.066
1066.25	396.174
1069.97	388.149
1073.69	409.987
1077.4	491.784
1081.12	464.271
1084.83	446.448
1088.55	357.929
1092.26	429.854
1095.96	272.524
1099.67	284.556
1103.38	236.809
1107.08	208.723
1110.78	201.645
1114.48	83.087
1118.18	54.376
1121.88	296.167
1125.57	197.312
1129.27	168.316
1132.96	79.851
1136.65	7.832
1140.34	4.185
1144.02	2.746
1147.71	180.08
1151.39	243.587
1155.07	125.707
1158.75	107.129
1162.43	78.412
1166.11	60.478
1169.78	8.775
1173.45	68.948
1177.12	21.274
1180.79	130.396
1184.46	79.975
1188.13	69.187
1191.79	49.284
1195.45	68.669
1199.11	162.357
1202.77	39.706
1206.43	48.155
1210.09	85.467
1213.74	222.473
1217.39	88.517
1221.05	54.995
1224.69	21.238
1228.34	132.903
1231.99	174.786
1235.63	256.286
1239.27	266.964
1242.91	259.386
1246.55	172.486
1250.19	134.916
1253.83	17.246
1257.46	209.613
1261.09	197.903
1264.72	98.836
1268.35	320.67
1271.98	351.944
1275.61	258.736
1279.23	118.753
1282.85	20.559
1286.47	159.329
1290.09	90.021
1293.71	207.349
1297.33	269.799
1300.94	175.832
1304.55	329.971
1308.16	274.763
1311.77	194.325
1315.38	147.386
1318.99	126.011
1322.59	187.61
1326.19	89.378
1329.79	81.025
1333.39	165.743
1336.99	267.922
1340.59	227.603
1344.18	225.95
1347.77	109.59
1351.37	76.818
1354.95	101.235
1358.54	137.685
1362.13	72.819
1365.71	317.764
1369.3	152.148
1372.88	255.962
1376.46	189.736
1380.04	143.997
1383.61	257.888
1387.19	119.673
1390.76	120.103
1394.33	201.758
1397.9	222.441
1401.47	202.628
1405.04	307.913
1408.6	214.341
1412.16	326.755
1415.72	439.596
1419.29	121.645
1422.84	25.287
1426.4	127.868
1429.96	8.441
1433.51	278.752
1437.06	269.177
1440.61	318.489
1444.16	487.456
1447.71	487.557
1451.25	483.747
1454.8	528.355
1458.34	375.207
1461.88	322.145
1465.42	369.395
1468.96	127.685
1472.49	188.563
1476.03	402.88
1479.56	540.526
1483.09	422.712
1486.62	445.683
1490.15	439.977
1493.67	433.046
1497.2	483.487
1500.72	287.808
1504.24	144.203
1507.76	176.918
1511.28	165.715
1514.8	1.172
1518.31	2.807
1521.83	35.855
