Measurement: Raman, 514 nm, ccw, Raman Data Processed
Mineral: Bustamite
Rruff sample: R040014
Ideal chemistry: CaMn^2+^Si_2_O_6_
Locality: Broken Hill, New South Wales, Australia
Source: University of Arizona Mineral Museum
Description: Orange fragment
Measured chemistry: (Ca_0.90_Mn_0.10_)_Σ=1_(Mn^2+^_0.78_Fe^2+^_0.19_Fe^3+^_0.02_Mg_0.01_)_Σ=1_(Si_1.98_Fe^3+^_0.02_)_Σ=2_O_6_
Pin_id: L00281
Orientation: Laser parallel to (0 1 1). Fiducial mark perpendicular to laser is parallel to a [1 0 0]
Raman shift (cm-1)	intensity
49.365	0
53.566	75.595
57.765	201.686
61.962	394.081
66.157	375.42
70.349	303.212
74.54	200.913
78.729	91.269
82.916	13.836
87.101	26.1
91.284	6.228
95.465	81.791
99.644	241.642
103.82	460.523
107.995	598.604
112.168	1700.6
116.339	775.17
120.508	1010.86
124.675	2189.95
128.84	2268.07
133.003	1917.83
137.164	2068.19
141.323	1750.23
145.48	1429.39
149.635	1503.57
153.788	1608.4
157.939	1232.98
162.088	761.65
166.235	450.42
170.38	404.31
174.523	418.357
178.664	296.425
182.803	140.503
186.94	82.595
191.076	50.703
195.209	59.828
199.34	27.974
203.47	14.883
207.597	15.78
211.722	24.825
215.846	11.593
219.967	16.159
224.087	41.715
228.204	164.014
232.32	283.133
236.434	417.525
240.545	520.038
244.655	604.602
248.763	514.997
252.869	388.137
256.973	256.692
261.075	176.535
265.175	168.586
269.273	154.819
273.369	215.023
277.463	262.198
281.556	363.381
285.646	487.302
289.734	625.087
293.821	701.191
297.905	819.673
301.988	1189.04
306.069	1924.4
310.147	3097.79
314.224	4243.19
318.299	4008.61
322.372	2661.05
326.443	1781.53
330.512	1536.02
334.579	1567.54
338.645	1361.07
342.708	1002.63
346.769	687.416
350.829	462.202
354.887	307.621
358.942	210.194
362.996	134.161
367.048	107.738
371.098	77.75
375.146	89.307
379.192	172.726
383.236	257.678
387.279	417.92
391.319	673.381
395.358	1199.11
399.394	2090.73
403.429	3628.19
407.462	4110.67
411.493	2883.16
415.522	1527.73
419.549	782.394
423.575	410.115
427.598	222.843
431.619	121.573
435.639	82.312
439.657	42.053
443.673	13.144
447.687	1.33
451.699	26.517
455.709	30.252
459.717	92.05
463.724	138.88
467.728	64.752
471.731	39.689
475.732	136.644
479.731	350.613
483.728	591.632
487.723	377.673
491.716	140.74
495.708	71.813
499.697	28.891
503.685	88.989
507.671	225.087
511.655	442.186
515.637	558.289
519.617	373.397
523.596	164.515
527.572	60.667
531.547	4.871
535.52	0.853
539.491	15.552
543.46	20.348
547.427	23.239
551.393	26.233
555.356	23.667
559.318	48.539
563.278	85.392
567.236	225.226
571.192	454.041
575.147	708.834
579.099	662.625
583.05	430.398
586.999	267.294
590.946	176.557
594.891	180.918
598.834	175.886
602.776	218.289
606.715	246.438
610.653	313.653
614.589	405.689
618.523	574.604
622.456	724.352
626.386	1131.44
630.315	1866.32
634.242	3292.28
638.167	6437.97
642.09	12071.5
646.012	16111.6
649.931	11370.4
653.849	6207.73
657.765	3422.98
661.679	1968.27
665.592	1245.6
669.502	862.434
673.411	664.273
677.318	542.001
681.223	511.004
685.126	545.619
689.028	655.925
692.927	593.032
696.825	363.05
700.721	183.767
704.616	132.235
708.508	131.302
712.399	141.02
716.288	164.081
720.175	164.201
724.06	63.271
727.944	62.291
731.825	46.263
735.705	52.186
739.584	28.061
743.46	10.78
747.334	0.651
751.207	26.347
755.078	25.036
758.947	5.591
762.815	15.764
766.68	9.058
770.544	14.703
774.406	12.583
778.267	21.434
782.125	19.323
785.982	13.081
789.837	1.219
793.69	20.596
797.542	2.889
801.391	27.309
805.239	22.657
809.085	10.966
812.93	27.21
816.772	27.401
820.613	9.554
824.452	0.743
828.29	13.797
832.125	14.892
835.959	10.967
839.791	16.025
843.621	12.076
847.45	34.123
851.277	26.199
855.102	43.33
858.925	62.497
862.746	98.714
866.566	129.958
870.384	207.209
874.2	273.464
878.015	410.726
881.828	615.995
885.639	817.274
889.448	1022.56
893.256	1003.85
897.061	782.907
900.865	620.316
904.668	454.638
908.468	388.641
912.267	370.991
916.064	361.382
919.86	384.38
923.653	464.094
927.445	448.438
931.236	563.023
935.024	669.062
938.811	697.289
942.596	727.179
946.379	782.518
950.161	981.724
953.94	1306.9
957.719	1971.38
961.495	3303.32
965.27	6282.34
969.043	13650.3
972.814	25996.3
976.583	24992.8
980.351	13439.3
984.117	6973.87
987.882	4199.18
991.644	3122.88
995.405	2514.64
999.165	2421.45
1002.92	2314.33
1006.68	2012.26
1010.43	1528.24
1014.18	1410.28
1017.93	1476.46
1021.68	1741.74
1025.43	2219.05
1029.18	2409.38
1032.92	2446.72
1036.66	3364.63
1040.4	4189.28
1044.14	3123.16
1047.88	1801.06
1051.62	1053.69
1055.35	686.91
1059.08	492.336
1062.81	408.459
1066.54	346.393
1070.27	313.36
1073.99	290.405
1077.72	332.997
1081.44	389.038
1085.16	445.702
1088.88	391.256
1092.59	323.841
1096.31	218.437
1100.02	177.458
1103.73	140.385
1107.44	115.112
1111.15	101.607
1114.86	70.257
1118.57	138.858
1122.27	118.756
1125.97	58.586
1129.67	77.502
1133.37	76.486
1137.07	57.256
1140.76	89.175
1144.45	46.059
1148.15	33.952
1151.84	37.866
1155.53	22.771
1159.21	17.681
1162.9	21.592
1166.58	17.503
1170.26	36.41
1173.94	3.685
1177.62	4.206
1181.3	5.09
1184.97	2.946
1188.65	7.776
1192.32	1.463
1195.99	34.205
1199.66	3.58
1203.33	10.955
1206.99	2.385
1210.65	2.079
1214.32	10.798
1217.98	18.78
1221.64	0.055
1225.29	9.548
1228.95	12.761
1232.6	26.121
1236.26	0.688
1239.91	21.265
1243.56	3.686
1247.2	3.55
1250.85	1.659
1254.49	3.939
1258.13	14.778
1261.78	7.118
1265.41	1.249
1269.05	25.263
1272.69	49.822
1276.32	27.257
1279.95	53.635
1283.59	22.968
1287.21	41.285
1290.84	43.518
1294.47	35.696
1298.09	56.824
1301.72	69.931
1305.34	61.951
1308.96	66.921
1312.58	53.744
1316.19	55.483
1319.81	46.126
1323.42	50.881
1327.03	59.557
1330.64	64.673
1334.25	45.052
1337.86	69.159
1341.46	53.311
1345.07	32.605
1348.67	39.977
1352.27	33.17
1355.87	21.402
1359.46	20.928
1363.06	30.231
1366.65	84.322
1370.25	60.469
1373.84	31.685
1377.43	46.799
1381.02	18.265
1384.6	29.862
1388.18	43.641
1391.77	50.237
1395.35	19.59
1398.93	32.553
1402.51	4.495
1406.08	43.462
1409.66	22.374
1413.23	63.169
1416.8	26.881
1420.37	29.494
1423.94	53.144
1427.51	21.442
1431.08	30.82
1434.64	36.425
1438.2	22.793
1441.76	17.544
1445.32	52.606
1448.88	73.861
1452.43	46.952
1455.99	102.752
1459.54	71.415
1463.09	65.064
1466.64	32.861
1470.19	47.193
1473.74	24.687
1477.28	43.098
1480.83	54.652
1484.37	61.161
1487.91	96.879
1491.45	57.731
1494.98	50.679
1498.52	3.917
1502.05	32.378
1505.59	45.148
1509.12	21.265
1512.65	37.473
1516.17	35.48
1519.7	38.343
1523.23	0
