Measurement: Raman, 514 nm, ccw, Raman Data Processed
Mineral: Bustamite
Rruff sample: R040014
Ideal chemistry: CaMn^2+^Si_2_O_6_
Locality: Broken Hill, New South Wales, Australia
Source: University of Arizona Mineral Museum
Description: Orange fragment
Measured chemistry: (Ca_0.90_Mn_0.10_)_Σ=1_(Mn^2+^_0.78_Fe^2+^_0.19_Fe^3+^_0.02_Mg_0.01_)_Σ=1_(Si_1.98_Fe^3+^_0.02_)_Σ=2_O_6_
Pin_id: L00281
Orientation: Laser parallel to (0 1 1). Fiducial mark perpendicular to laser is parallel to a [1 0 0]
Raman shift (cm-1)	intensity
49.365	0
53.566	86.888
57.765	220.568
61.962	353.602
66.157	362.582
70.349	303.212
74.54	216.441
78.729	88.944
82.916	5.975
87.101	47.407
91.284	2.347
95.465	147.314
99.644	391.465
103.82	681.689
107.995	967.243
112.168	1197.57
116.339	927.597
120.508	1436.73
124.675	3611.11
128.84	4181.13
133.003	3345.25
137.164	3269.61
141.323	2782.76
145.48	2563.05
149.635	3050.31
153.788	3427.13
157.939	2654.75
162.088	1486.51
166.235	811.417
170.38	474.45
174.523	436.597
178.664	367.832
182.803	208.148
186.94	108.547
191.076	67.756
195.209	24.759
199.34	16.302
203.47	3.297
207.597	26.274
211.722	43.294
215.846	10.683
219.967	34.807
224.087	94.056
228.204	179.839
232.32	320.151
236.434	465.539
240.545	533.088
244.655	685.137
248.763	708.297
252.869	635.062
256.973	532.177
261.075	399.261
265.175	343.151
269.273	319.058
273.369	318.989
277.463	348.946
281.556	398.933
285.646	460.945
289.734	619.933
293.821	824.837
297.905	1131.55
301.988	1681.2
306.069	2771.89
310.147	4542.62
314.224	6435.39
318.299	6262.21
322.372	4091.09
326.443	2712.01
330.512	2601.34
334.579	2920.59
338.645	2619.78
342.708	1961.13
346.769	1366.28
350.829	984.417
354.887	716.187
358.942	480.412
362.996	370.743
367.048	320.658
371.098	293.991
375.146	289.397
379.192	357.281
383.236	487.217
387.279	687.691
391.319	1088.2
395.358	1904.93
399.394	3942.93
403.429	6909.26
407.462	7427.52
411.493	5004.83
415.522	2538.24
419.549	1325.79
423.575	760.387
427.598	418.997
431.619	268.614
435.639	160.684
439.657	138.885
443.673	110.537
447.687	92.201
451.699	128.874
455.709	155.573
459.717	346.292
463.724	436.06
467.728	257.863
471.731	118.701
475.732	59.57
479.731	60.501
483.728	52.479
487.723	30.503
491.716	30.451
495.708	17.492
499.697	11.358
503.685	52.129
507.671	114.883
511.655	280.638
515.637	417.394
519.617	265.148
523.596	135.902
527.572	50.66
531.547	4.562
535.52	8.194
539.491	30.127
543.46	16.561
547.427	5.122
551.393	0.313
555.356	2.482
559.318	23.74
563.278	52.931
567.236	137.093
571.192	279.226
575.147	523.327
579.099	501.395
583.05	365.427
586.999	257.423
590.946	224.868
594.891	196.289
598.834	224.35
602.776	266.781
606.715	340.138
610.653	444.958
614.589	532.423
618.523	716.209
622.456	949.341
626.386	1452.21
630.315	2449.01
634.242	4457.35
638.167	8639.51
642.09	16264.7
646.012	22003.8
649.931	15530
653.849	8364.17
657.765	4602.1
661.679	2824
665.592	1747.54
669.502	1242.87
673.411	920.507
677.318	697.322
681.223	602.078
685.126	563.773
689.028	494.864
692.927	386.149
696.825	292.667
700.721	160.314
704.616	165.79
708.508	159.144
712.399	135.737
716.288	228.746
720.175	224.918
724.06	147.08
727.944	116.195
731.825	83.264
735.705	83.289
739.584	51.271
743.46	16.211
747.334	14.103
751.207	39.937
755.078	0.723
758.947	1.452
762.815	13.127
766.68	16.253
770.544	17.277
774.406	28.261
778.267	19.068
782.125	23.674
785.982	2.529
789.837	2.517
793.69	29.562
797.542	0.795
801.391	14.115
805.239	0.5
809.085	10.137
812.93	36.805
816.772	36.486
820.613	25.131
824.452	16.25
828.29	21.332
832.125	18.912
835.959	3.49
839.791	28.068
843.621	9.351
847.45	15.721
851.277	20.951
855.102	24.687
858.925	50.482
862.746	37.313
866.566	70.179
870.384	138.073
874.2	199.991
878.015	316.927
881.828	513.889
885.639	707.902
889.448	970.949
893.256	941.021
897.061	762.081
900.865	573.01
904.668	425.571
908.468	406.104
912.267	426.917
916.064	428.387
919.86	498.042
923.653	569.287
927.445	550.5
931.236	665.836
935.024	703.407
938.811	787.314
942.596	831.642
946.379	934.882
950.161	1131.87
953.94	1682.38
957.719	2470.31
961.495	4318.19
965.27	8145.51
969.043	17639.9
972.814	33744.8
976.583	32810.1
980.351	17356.8
984.117	8873.42
987.882	5160.16
991.644	3452.97
995.405	2550.48
999.165	2189.96
1002.92	2268.57
1006.68	2126.65
1010.43	1722.8
1014.18	1449.02
1017.93	1346.3
1021.68	1424.03
1025.43	1635.44
1029.18	1777.92
1032.92	2165.18
1036.66	3382.25
1040.4	4388.94
1044.14	3259.28
1047.88	1895.1
1051.62	1120.05
1055.35	726.444
1059.08	567.525
1062.81	441.524
1066.54	421.69
1070.27	414.698
1073.99	464.084
1077.72	601.348
1081.44	699.745
1085.16	781.374
1088.88	682.539
1092.59	551.219
1096.31	397.016
1100.02	308.971
1103.73	244.317
1107.44	199.097
1111.15	135.317
1114.86	134.496
1118.57	134.554
1122.27	212.436
1125.97	129.151
1129.67	129.629
1133.37	111.806
1137.07	63.057
1140.76	89.524
1144.45	76.79
1148.15	61.037
1151.84	67.303
1155.53	97.577
1159.21	74.854
1162.9	51.135
1166.58	19.446
1170.26	1.722
1173.94	28.987
1177.62	29.341
1181.3	23.381
1184.97	7.779
1188.65	12.96
1192.32	14.878
1195.99	1.38
1199.66	7.147
1203.33	4.126
1206.99	6.923
1210.65	5.76
1214.32	19.758
1217.98	19.521
1221.64	2.305
1225.29	47.9
1228.95	9.376
1232.6	15.958
1236.26	19.329
1239.91	29.829
1243.56	7.997
1247.2	9.907
1250.85	27.277
1254.49	10.516
1258.13	12.359
1261.78	32.193
1265.41	47.982
1269.05	38.803
1272.69	46.568
1276.32	123.206
1279.95	72.311
1283.59	14.315
1287.21	68.769
1290.84	62.158
1294.47	98.486
1298.09	105.755
1301.72	68.935
1305.34	80.117
1308.96	39.212
1312.58	92.247
1316.19	91.845
1319.81	33.767
1323.42	62.637
1327.03	74.559
1330.64	47.015
1334.25	44.664
1337.86	59.855
1341.46	8.191
1345.07	77.165
1348.67	27.293
1352.27	55.628
1355.87	29.031
1359.46	41.32
1363.06	39.808
1366.65	26.178
1370.25	32.757
1373.84	43.267
1377.43	63.661
1381.02	4.67
1384.6	43.34
1388.18	60.307
1391.77	4.61
1395.35	29.993
1398.93	43.692
1402.51	42.372
1406.08	26.043
1409.66	64.858
1413.23	42.598
1416.8	67.18
1420.37	16.688
1423.94	3.046
1427.51	38.201
1431.08	37.699
1434.64	66.67
1438.2	29.474
1441.76	19.321
1445.32	76.157
1448.88	115.24
1452.43	91.076
1455.99	118.591
1459.54	51.409
1463.09	73.857
1466.64	44.223
1470.19	65.297
1473.74	23.696
1477.28	29.926
1480.83	43.23
1484.37	55.582
1487.91	61.988
1491.45	94.426
1494.98	72.865
1498.52	57.522
1502.05	9.581
1505.59	29.871
1509.12	25.36
1512.65	0.078
1516.17	47.262
1519.7	0.07
