Measurement: Raman, 514 nm, ccw, Raman Data Processed
Mineral: Bustamite
Rruff sample: R040014
Ideal chemistry: CaMn^2+^Si_2_O_6_
Locality: Broken Hill, New South Wales, Australia
Source: University of Arizona Mineral Museum
Description: Orange fragment
Measured chemistry: (Ca_0.90_Mn_0.10_)_Σ=1_(Mn^2+^_0.78_Fe^2+^_0.19_Fe^3+^_0.02_Mg_0.01_)_Σ=1_(Si_1.98_Fe^3+^_0.02_)_Σ=2_O_6_
Pin_id: M00138
Orientation: Laser parallel to c* (0 0 1). Fiducial mark perpendicular to laser is parallel to -a [-1 0 0]
Raman shift (cm-1)	intensity
85.706	0
89.89	5.421
94.071	112.759
98.251	327.755
102.428	467.404
106.604	592.954
110.777	1201.95
114.949	633.935
119.119	720.821
123.286	1052.24
127.452	949.549
131.615	1071.56
135.777	1505.22
139.937	1424.46
144.094	939.307
148.25	607.83
152.403	531.377
156.555	432.849
160.705	327.564
164.853	370.649
168.998	480.93
173.142	511.168
177.284	319.581
181.424	183.702
185.562	89.81
189.698	47.282
193.831	49.188
197.963	27.205
202.093	1.724
206.221	18.621
210.347	0.49
214.472	14.332
218.594	23.15
222.714	8.947
226.832	33.457
230.948	86.972
235.063	110.519
239.175	172.514
243.286	206.516
247.394	182.521
251.501	90.521
255.605	30.427
259.708	12.605
263.808	2.599
267.907	0.115
272.004	40.214
276.099	88.139
280.192	182.116
284.283	282.899
288.372	315.398
292.459	345.358
296.544	321.938
300.627	422.43
304.709	645.482
308.788	1038.9
312.865	1563.32
316.941	1746.65
321.015	1285.92
325.086	806.215
329.156	697.519
333.224	765.832
337.29	736.43
341.354	555.481
345.416	380.803
349.476	205.608
353.534	106.435
357.591	65.731
361.645	41.008
365.698	6.247
369.748	14.726
373.797	6.047
377.844	3.344
381.889	16.071
385.932	81.761
389.973	109.96
394.012	146.921
398.049	255.812
402.084	390.67
406.118	598.501
410.15	518.304
414.179	299.083
418.207	161.873
422.233	84.663
426.257	8.613
430.279	13.101
434.299	40.46
438.318	1.061
442.334	5.282
446.349	38.535
450.361	0.269
454.372	42.204
458.381	1.298
462.388	35.557
466.394	42.38
470.397	144.19
474.398	310.978
478.398	791.756
482.396	1519.57
486.391	1227.36
490.385	574.189
494.377	310.998
498.368	188.815
502.356	239.589
506.342	376.323
510.327	398.013
514.31	352.654
518.291	201.242
522.27	138.777
526.247	88.114
530.222	14.983
534.196	71.007
538.167	65.738
542.137	38.37
546.105	24.6
550.071	52.774
554.035	83.895
557.998	145.452
561.958	206.976
565.917	282.937
569.874	474.844
573.829	829.697
577.782	867.495
581.733	653.239
585.683	504.679
589.63	470.328
593.576	482.787
597.52	538.611
601.462	580.689
605.402	722.724
609.341	788.961
613.277	1016.5
617.212	1351.78
621.145	1718.15
625.076	2425.81
629.006	3922.16
632.933	6780.8
636.859	12402.4
640.783	23665.9
644.705	33510.4
648.625	26296
652.543	14471.2
656.46	7702.27
660.375	4421.02
664.288	2646.84
668.199	1761.69
672.108	1207.24
676.016	871.736
679.921	685.07
683.825	590.452
687.727	593.637
691.628	645.862
695.526	448.092
699.423	364.927
703.318	232.972
707.211	232.141
711.102	228.264
714.992	233.343
718.879	315.378
722.765	195.371
726.649	174.323
730.532	134.236
734.412	144.111
738.291	67.951
742.168	12.762
746.043	26.548
749.916	12.359
753.788	18.18
757.658	11.978
761.526	2.771
765.392	19.512
769.257	19.17
773.119	4.833
776.98	7.568
780.839	31.047
784.697	21.617
788.552	15.748
792.406	18.995
796.258	59.109
800.108	56.855
803.957	29.014
807.804	23.821
811.649	56.547
815.492	22.735
819.333	4.953
823.173	19.64
827.011	6.333
830.847	48.034
834.681	55.738
838.514	55.438
842.345	46.164
846.174	72.926
850.001	33.708
853.827	122.516
857.651	149.346
861.473	176.202
865.293	227.083
869.112	339.107
872.928	478.977
876.744	685.983
880.557	1011.02
884.369	1362.12
888.178	1758.3
891.987	1921.56
895.793	1764.75
899.598	1428.81
903.401	1061.96
907.202	827.327
911.001	743.417
914.799	670.282
918.595	687.667
922.389	824.592
926.182	845.683
929.972	1020.63
933.761	1150.13
937.549	1176.7
941.334	1325.93
945.118	1484.63
948.9	1845.51
952.681	2368.86
956.459	3398.25
960.236	5755.52
964.012	10548.9
967.785	22428.6
971.557	44299.5
975.327	47070.3
979.095	27091.3
982.862	14122.5
986.627	8782.8
990.39	6824.1
994.152	6230.49
997.912	5970.95
1001.67	5367.5
1005.43	3942.13
1009.18	2831.83
1012.93	2328.61
1016.68	2250.47
1020.43	2535.55
1024.18	3274.83
1027.93	3352.25
1031.67	2731.69
1035.42	2796.2
1039.16	3396.01
1042.9	2739.41
1046.63	1723.88
1050.37	996.488
1054.11	624.862
1057.84	507.545
1061.57	428.498
1065.3	303.381
1069.03	305.781
1072.75	245.76
1076.47	204.304
1080.2	158.172
1083.92	146.776
1087.64	147.782
1091.36	132.416
1095.07	105.24
1098.79	86.379
1102.5	109.524
1106.21	78.601
1109.92	85.256
1113.62	53.254
1117.33	71.28
1121.04	101.384
1124.74	117.406
1128.44	80.39
1132.14	58.449
1135.83	29.606
1139.53	31.627
1143.22	13.292
1146.92	74.399
1150.61	53.716
1154.3	46.698
1157.98	24.827
1161.67	1.802
1165.35	40.009
1169.04	25.915
1172.72	7.103
1176.4	70.05
1180.07	25.868
1183.75	24.304
1187.42	31.459
1191.1	42.219
1194.77	17.879
1198.44	50.305
1202.1	14.103
1205.77	23.286
1209.43	5.66
1213.1	48.383
1216.76	36.493
1220.42	52.456
1224.07	13.056
1227.73	39.705
1231.38	1.552
1235.04	13.62
1238.69	80.053
1242.34	20.424
1245.99	20.59
1249.63	10.552
1253.28	47.329
1256.92	28.476
1260.56	0.912
1264.2	52.494
1267.84	46.185
1271.48	93.921
1275.11	129.231
1278.74	66.637
1282.38	111.824
1286.01	13.851
1289.63	78.13
1293.26	111.934
1296.89	101.644
1300.51	116.271
1304.13	178.782
1307.75	153.208
1311.37	103.379
1314.99	49.603
1318.6	49.134
1322.22	89.181
1325.83	78.786
1329.44	75.748
1333.05	69.381
1336.66	107.049
1340.26	119.408
1343.87	36.306
1347.47	48.211
1351.07	47.344
1354.67	4.867
1358.27	11.236
1361.86	30.858
1365.46	72.866
1369.05	76.062
1372.64	104.34
1376.23	99.426
1379.82	47.352
1383.41	84.44
1386.99	148.566
1390.57	20.477
1394.16	3.837
1397.74	68.736
1401.32	79.761
1404.89	94.429
1408.47	103.399
1412.04	151.475
1415.61	62.723
1419.18	76.662
1422.75	46.594
1426.32	16.908
1429.89	1.501
1433.45	68.829
1437.01	148.531
1440.58	103.728
1444.13	170.713
1447.69	127.248
1451.25	196.198
1454.81	121.351
1458.36	169.002
1461.91	135.893
1465.46	91.01
1469.01	123.441
1472.56	58.666
1476.1	86.993
1479.64	153.887
1483.19	69.695
1486.73	235.437
1490.27	178.169
1493.81	180.856
1497.34	154.698
1500.88	94.323
1504.41	49.944
1507.94	106.615
1511.47	47.569
1515	33.023
1518.53	1.277
1522.05	50.261
1525.57	0
