Measurement: Raman, 514 nm, ccw, Raman Data Processed
Mineral: Bustamite
Rruff sample: R040014
Ideal chemistry: CaMn^2+^Si_2_O_6_
Locality: Broken Hill, New South Wales, Australia
Source: University of Arizona Mineral Museum
Description: Orange fragment
Measured chemistry: (Ca_0.90_Mn_0.10_)_Σ=1_(Mn^2+^_0.78_Fe^2+^_0.19_Fe^3+^_0.02_Mg_0.01_)_Σ=1_(Si_1.98_Fe^3+^_0.02_)_Σ=2_O_6_
Pin_id: M00138
Orientation: Laser parallel to c* (0 0 1). Fiducial mark perpendicular to laser is parallel to -a [-1 0 0]
Raman shift (cm-1)	intensity
92.678	0
96.858	92.466
101.036	419.996
105.212	801.178
109.387	2555.7
113.559	1741.39
117.729	1701.75
121.897	3939.68
126.063	6646.54
130.228	4872.73
134.39	4566.76
138.55	4383.87
142.709	3063.63
146.865	2036.19
151.019	1841.02
155.171	1746.41
159.322	1356.8
163.47	794.427
167.617	607.12
171.761	815.767
175.904	773.275
180.044	370.427
184.183	112.621
188.319	61.915
192.454	109.213
196.586	31.359
200.717	84.64
204.846	139.764
208.972	144.573
213.097	135.189
217.22	2.595
221.341	80.228
225.46	262.242
229.577	559.35
233.692	857.536
237.805	1178.06
241.916	1478.08
246.025	1769.72
250.132	1545.59
254.237	1183.64
258.34	789.148
262.442	470.48
266.541	380.742
270.639	417.734
274.734	516.631
278.828	653.212
282.919	785.422
287.009	819.928
291.097	823.131
295.183	956.924
299.266	1258.48
303.348	1765.41
307.428	3096.68
311.507	4942.38
315.583	6179.55
319.657	5085.94
323.729	3145.14
327.8	2337.5
331.868	2137.03
335.935	2183.73
339.999	1833.13
344.062	1257.54
348.123	796.556
352.182	507.661
356.239	383.838
360.294	239.948
364.347	168.428
368.398	101.207
372.448	122.648
376.495	214.712
380.54	315.974
384.584	626.33
388.626	1082.85
392.666	1982.01
396.704	3848.57
400.74	7735.01
404.774	12278.4
408.806	12041.9
412.836	7445.28
416.865	3795.68
420.891	2052.07
424.916	1183.48
428.939	676.855
432.959	394.183
436.978	301.419
440.996	256.558
445.011	171.665
449.024	83.763
453.036	56.785
457.045	44.767
461.053	84.676
465.059	68.507
469.063	50.074
473.065	114.456
477.065	368.77
481.063	987.106
485.06	1073.43
489.054	577.771
493.047	170.097
497.038	27.407
501.027	24.62
505.014	192.73
508.999	345.751
512.982	414.681
516.964	330.513
520.944	205.245
524.921	20.942
528.897	2.798
532.871	65.261
536.844	78.42
540.814	49.783
544.783	18.51
548.749	3.575
552.714	59.009
556.677	112.402
560.638	248.652
564.597	474.768
568.555	858.75
572.511	1497.6
576.464	1848.3
580.416	1402.87
584.366	904.831
588.315	561.328
592.261	441.168
596.206	429.396
600.148	487.1
604.089	468.23
608.028	602.254
611.965	757.38
615.901	990.895
619.834	1297.12
623.766	1784.06
627.696	2762.18
631.624	4650.7
635.551	8722.98
639.475	16863.2
643.398	28188.7
647.318	27629.7
651.237	16402.5
655.155	9019.05
659.07	5182.87
662.984	3114.57
666.895	2063.95
670.805	1493.86
674.713	1232.88
678.62	1142.46
682.524	1215.22
686.427	1443.51
690.328	1576.02
694.227	1107.87
698.124	715.051
702.02	473.664
705.913	287.78
709.805	246.825
713.695	204.995
717.584	249.883
721.47	228.63
725.355	169.237
729.238	139.708
733.119	104.046
736.998	110.254
740.876	54.327
744.752	47.233
748.626	46.98
752.498	16.835
756.368	18.958
760.237	0.161
764.104	12.006
767.969	25.347
771.832	18.942
775.693	59.292
779.553	2.615
783.411	19.376
787.267	24.713
791.122	41.041
794.974	32.611
798.825	19.418
802.674	13.565
806.522	38.341
810.367	22.975
814.211	0.55
818.053	90.061
821.893	38.512
825.732	20.907
829.568	1.75
833.403	26.546
837.236	18.19
841.068	39.056
844.898	89.434
848.726	71.972
852.552	124.649
856.376	102.445
860.199	159.345
864.02	172.328
867.839	292.333
871.656	501.364
875.472	760.66
879.286	1108.54
883.098	1584.7
886.909	2280.92
890.717	2442.19
894.524	2120.78
898.33	1601.94
902.133	1286.03
905.935	1031.77
909.735	903.681
913.533	732.259
917.33	732.299
921.124	793.382
924.918	825.621
928.709	960.551
932.499	1134.16
936.286	1198.88
940.073	1284.82
943.857	1393.52
947.64	1734.77
951.421	2147.96
955.2	3119.97
958.978	4843.9
962.753	8785.42
966.527	17447.3
970.3	37169.2
974.071	54541.2
977.84	38523.6
981.607	19565.8
985.372	11298.5
989.136	7570.68
992.898	6253.62
996.659	6016.66
1000.42	6480.03
1004.17	6453.3
1007.93	5256.68
1011.68	4112.16
1015.43	3589.75
1019.18	3738.28
1022.93	4554.05
1026.68	5161.16
1030.42	4977.32
1034.17	5466.1
1037.91	7421.78
1041.65	7176.88
1045.39	4635.95
1049.12	2641.95
1052.86	1705.77
1056.59	1170.15
1060.33	893.022
1064.06	692.92
1067.78	570.395
1071.51	514.999
1075.23	512.29
1078.96	497.161
1082.68	444.503
1086.4	442.705
1090.12	330.983
1093.83	261.698
1097.55	228.061
1101.26	155.244
1104.97	249.985
1108.68	161.013
1112.39	196.787
1116.1	127.586
1119.8	173.558
1123.5	153.631
1127.2	138.394
1130.9	158.433
1134.6	145.433
1138.3	123.694
1141.99	89.714
1145.69	12.174
1149.38	76.723
1153.07	47.826
1156.76	61.601
1160.44	73.651
1164.13	47.653
1167.81	17.495
1171.49	42.635
1175.17	55.16
1178.85	30.312
1182.52	8.534
1186.2	7.985
1189.87	4.88
1193.54	4.307
1197.21	21.415
1200.88	45.988
1204.55	19.279
1208.21	26.567
1211.88	71.15
1215.54	1.378
1219.2	36.063
1222.86	94.854
1226.51	21.541
1230.17	0.917
1233.82	87.802
1237.47	40.981
1241.12	112.617
1244.77	92.076
1248.42	135.668
1252.06	60.177
1255.71	86.587
1259.35	91.576
1262.99	79.956
1266.63	129.637
1270.26	26.401
1273.9	133.079
1277.53	137.732
1281.16	103.184
1284.8	107.275
1288.42	156.867
1292.05	111.284
1295.68	64.395
1299.3	133.329
1302.92	101.112
1306.55	129.709
1310.16	121.053
1313.78	121.346
1317.4	120.392
1321.01	112.753
1324.62	71.915
1328.24	55.641
1331.85	36.718
1335.45	41.266
1339.06	28.375
1342.66	103.11
1346.27	127.624
1349.87	64.94
1353.47	45.865
1357.07	115.995
1360.66	112.567
1364.26	45.698
1367.85	24.103
1371.44	69.219
1375.04	37.045
1378.62	143.271
1382.21	132.659
1385.8	149.018
1389.38	147.342
1392.96	79.158
1396.54	70.834
1400.12	114.888
1403.7	50.587
1407.28	18.941
1410.85	78.776
1414.42	161.983
1417.99	93.416
1421.56	187.68
1425.13	192.038
1428.7	137.086
1432.26	168.163
1435.83	129.616
1439.39	91.489
1442.95	184.75
1446.51	137.596
1450.06	269.821
1453.62	146.901
1457.17	295.424
1460.73	309.934
1464.28	261.593
1467.83	337.245
1471.37	220.583
1474.92	183.471
1478.46	136.148
1482.01	168.91
1485.55	69.222
1489.09	11.748
1492.63	107.418
1496.16	132.076
1499.7	114.199
1503.23	186.458
1506.76	153.76
1510.29	254.737
1513.82	123.055
1517.35	63.426
1520.88	60.746
