Measurement: Raman, 514 nm, ccw, Raman Data Processed
Mineral: Bustamite
Rruff sample: R040014
Ideal chemistry: CaMn^2+^Si_2_O_6_
Locality: Broken Hill, New South Wales, Australia
Source: University of Arizona Mineral Museum
Description: Orange fragment
Measured chemistry: (Ca_0.90_Mn_0.10_)_Σ=1_(Mn^2+^_0.78_Fe^2+^_0.19_Fe^3+^_0.02_Mg_0.01_)_Σ=1_(Si_1.98_Fe^3+^_0.02_)_Σ=2_O_6_
Pin_id: M00115
Orientation: Laser parallel to (-1 -1 0). Fiducial mark perpendicular to laser is parallel to c [0 0 1]
Raman shift (cm-1)	intensity
116.339	0
120.508	594.631
124.675	2857.36
128.84	1997.41
133.003	784.367
137.164	299.996
141.323	128.124
145.48	138.668
149.635	390.886
153.788	539.81
157.939	327.913
162.088	215.021
166.235	268.154
170.38	430.554
174.523	353.831
178.664	159.868
182.803	26.743
186.94	96.19
191.076	175.538
195.209	173.934
199.34	77.601
203.47	4.09
207.597	58.849
211.722	82.247
215.846	81.826
219.967	18.036
224.087	5.714
228.204	91.019
232.32	172.759
236.434	358.553
240.545	455.74
244.655	479.317
248.763	369.149
252.869	224.422
256.973	203.538
261.075	135.029
265.175	178.504
269.273	268.876
273.369	425.072
277.463	585.137
281.556	631.661
285.646	592.293
289.734	536.244
293.821	460.595
297.905	575.984
301.988	717.32
306.069	1164.45
310.147	1876.02
314.224	2681.56
318.299	2846.78
322.372	2119.57
326.443	1755.01
330.512	1905.1
334.579	2010.2
338.645	1712.92
342.708	1276.45
346.769	956.208
350.829	651.054
354.887	491.492
358.942	409.213
362.996	350.693
367.048	289.037
371.098	308.843
375.146	363.968
379.192	476.493
383.236	609.057
387.279	920.68
391.319	1584.96
395.358	2941.72
399.394	5901.85
403.429	9917.44
407.462	10725.4
411.493	7353.07
415.522	4060.88
419.549	2145.85
423.575	1230.51
427.598	773.386
431.619	499.04
435.639	341.351
439.657	280.136
443.673	279.897
447.687	249.388
451.699	250.572
455.709	260.481
459.717	427.104
463.724	364.496
467.728	238.692
471.731	168.73
475.732	352.608
479.731	848.333
483.728	1127.92
487.723	611.413
491.716	280.866
495.708	79.339
499.697	45.787
503.685	18.223
507.671	72.677
511.655	131.203
515.637	137.76
519.617	69.311
523.596	16.854
527.572	2.709
531.547	28.065
535.52	4.218
539.491	4.198
543.46	76.052
547.427	32.056
551.393	6.141
555.356	1.718
559.318	36.521
563.278	107.25
567.236	226.913
571.192	302.514
575.147	417.071
579.099	327.598
583.05	263.112
586.999	208.675
590.946	213.23
594.891	253.388
598.834	274.575
602.776	351.926
606.715	483.242
610.653	570.996
614.589	787.665
618.523	1017.19
622.456	1499.14
626.386	2171.01
630.315	3678.09
634.242	6541.31
638.167	12975.6
642.09	23472.3
646.012	27728.4
649.931	18196.9
653.849	9704.52
657.765	5389.23
661.679	3269.31
665.592	2224.62
669.502	1532.74
673.411	1194.77
677.318	1002.27
681.223	1047.08
685.126	1233.45
689.028	1288.39
692.927	982.001
696.825	603.936
700.721	353.953
704.616	228.944
708.508	157.135
712.399	178.281
716.288	143.075
720.175	159.549
724.06	200.67
727.944	134.726
731.825	120.719
735.705	54.649
739.584	58.518
743.46	45.325
747.334	27.07
751.207	10.385
755.078	10.234
758.947	39.364
762.815	31.88
766.68	11.987
770.544	13.957
774.406	0.814
778.267	24.487
782.125	20.979
785.982	0.775
789.837	12.597
793.69	6.761
797.542	17.152
801.391	30.833
805.239	31.284
809.085	1.551
812.93	20.888
816.772	19.701
820.613	15.975
824.452	8.854
828.29	57.407
832.125	55.951
835.959	9.496
839.791	60.048
843.621	57.651
847.45	66.321
851.277	73.845
855.102	105.803
858.925	171.706
862.746	157.656
866.566	295.636
870.384	523.635
874.2	808.659
878.015	1195.71
881.828	1799.8
885.639	2501.95
889.448	2908.14
893.256	2673.4
897.061	1966.57
900.865	1330.77
904.668	968.257
908.468	824.023
912.267	772.698
916.064	766.255
919.86	814.269
923.653	890.722
927.445	934.448
931.236	999.917
935.024	1075.17
938.811	1164.26
942.596	1281.27
946.379	1419.88
950.161	1832.04
953.94	2520.09
957.719	3839.74
961.495	6477.38
965.27	12663.6
969.043	27106.4
972.814	45809.3
976.583	38602.2
980.351	20105.3
984.117	10318.4
987.882	6295.6
991.644	4434.89
995.405	3438.27
999.165	2987.74
1002.92	2912.28
1006.68	2491.91
1010.43	2033.63
1014.18	1471.42
1017.93	1222.29
1021.68	1042.24
1025.43	1121.04
1029.18	1103.12
1032.92	1248.83
1036.66	1711.82
1040.4	1865.2
1044.14	1318.74
1047.88	836.12
1051.62	558.785
1055.35	374.292
1059.08	326.522
1062.81	252.089
1066.54	232.362
1070.27	289.598
1073.99	241.011
1077.72	306.018
1081.44	296.477
1085.16	340.596
1088.88	245.492
1092.59	178.535
1096.31	189.643
1100.02	116.108
1103.73	110.472
1107.44	85.517
1111.15	115.586
1114.86	127.78
1118.57	123.145
1122.27	107.478
1125.97	78.645
1129.67	57.14
1133.37	82.227
1137.07	91.414
1140.76	84.083
1144.45	50.258
1148.15	52.509
1151.84	63.929
1155.53	30.583
1159.21	16.782
1162.9	52.001
1166.58	27.237
1170.26	10.665
1173.94	23.428
1177.62	40.515
1181.3	16.025
1184.97	28.734
1188.65	13.236
1192.32	21.161
1195.99	18.704
1199.66	21.601
1203.33	13.421
1206.99	18.899
1210.65	39.992
1214.32	3.919
1217.98	10.962
1221.64	7.737
1225.29	55.287
1228.95	78.424
1232.6	35.228
1236.26	30.62
1239.91	34.863
1243.56	8.958
1247.2	25.218
1250.85	38.15
1254.49	57.719
1258.13	66.801
1261.78	65.54
1265.41	29.362
1269.05	90.008
1272.69	31.531
1276.32	4.866
1279.95	46.145
1283.59	48.289
1287.21	111.331
1290.84	60.242
1294.47	95.012
1298.09	129.649
1301.72	55.188
1305.34	80.616
1308.96	41.883
1312.58	81.053
1316.19	61.843
1319.81	82.336
1323.42	36.237
1327.03	24.286
1330.64	39.811
1334.25	52.921
1337.86	20.753
1341.46	19.47
1345.07	21.451
1348.67	5.85
1352.27	43.792
1355.87	70.768
1359.46	63.752
1363.06	49.068
1366.65	6.737
1370.25	33.759
1373.84	11.349
1377.43	24.351
1381.02	30.833
1384.6	30.742
1388.18	96.93
1391.77	70.234
1395.35	56.126
1398.93	114.999
1402.51	87.486
1406.08	87.624
1409.66	42.094
1413.23	11.7
1416.8	52.558
1420.37	22.424
1423.94	64.164
1427.51	82.562
1431.08	73.581
1434.64	68.965
1438.2	93.88
1441.76	111.134
1445.32	153.64
1448.88	32.637
1452.43	81.213
1455.99	68.519
1459.54	77.212
1463.09	63.219
1466.64	69.497
1470.19	119.671
1473.74	82.139
1477.28	133.59
1480.83	138.3
1484.37	114.327
1487.91	61.671
1491.45	57.323
1494.98	15.877
1498.52	33.295
1502.05	18.977
1505.59	19.303
1509.12	46.413
1512.65	21.691
1516.17	45.043
1519.7	120.297
1523.23	0
