Measurement: Raman, 514 nm, ccw, Raman Data Processed
Mineral: Bustamite
Rruff sample: R040014
Ideal chemistry: CaMn^2+^Si_2_O_6_
Locality: Broken Hill, New South Wales, Australia
Source: University of Arizona Mineral Museum
Description: Orange fragment
Measured chemistry: (Ca_0.90_Mn_0.10_)_Σ=1_(Mn^2+^_0.78_Fe^2+^_0.19_Fe^3+^_0.02_Mg_0.01_)_Σ=1_(Si_1.98_Fe^3+^_0.02_)_Σ=2_O_6_
Pin_id: M00370
Orientation: Laser parallel to b* (0 1 0). Fiducial mark perpendicular to laser is parallel to c [0 0 1]
Raman shift (cm-1)	intensity
91.284	0
95.465	41.371
99.644	327.481
103.82	674.489
107.995	1069.25
112.168	1377.5
116.339	789.026
120.508	768.161
124.675	1059.93
128.84	1360.71
133.003	1923.5
137.164	2216.06
141.323	1827.45
145.48	1262.83
149.635	1274.91
153.788	1347.95
157.939	1162.25
162.088	855.392
166.235	630.958
170.38	697.397
174.523	645.751
178.664	415.365
182.803	196.496
186.94	67.883
191.076	83.864
195.209	57.345
199.34	35.854
203.47	113.817
207.597	93.883
211.722	74.165
215.846	65.626
219.967	42.686
224.087	124.087
228.204	218.391
232.32	379.655
236.434	634.935
240.545	779.078
244.655	810.489
248.763	731.913
252.869	555.341
256.973	325.967
261.075	136.498
265.175	144.417
269.273	214.528
273.369	308.732
277.463	587.978
281.556	909.71
285.646	1181.96
289.734	1238.79
293.821	1143.25
297.905	1353.75
301.988	1845.52
306.069	2871.32
310.147	4503.93
314.224	5556.52
318.299	4946.19
322.372	3430.95
326.443	2195.62
330.512	1659.27
334.579	1314.89
338.645	1063.5
342.708	678.044
346.769	538.119
350.829	347.327
354.887	150.646
358.942	71.704
362.996	23.795
367.048	5.567
371.098	26.015
375.146	15.942
379.192	169.784
383.236	256.415
387.279	571.916
391.319	937.915
395.358	1289.5
399.394	1570.9
403.429	1970.29
407.462	1890.66
411.493	1295.02
415.522	758.354
419.549	395.663
423.575	159.386
427.598	60.935
431.619	38.006
435.639	124.787
439.657	83.431
443.673	163.949
447.687	93.415
451.699	1.16
455.709	24.11
459.717	58.214
463.724	8.745
467.728	20.845
471.731	74.999
475.732	193.825
479.731	631.652
483.728	987.517
487.723	690.374
491.716	323.222
495.708	134.043
499.697	201.817
503.685	514.55
507.671	901.277
511.655	1257
515.637	1250.39
519.617	819.674
523.596	406.75
527.572	135.528
531.547	40.03
535.52	0.599
539.491	15.206
543.46	66.669
547.427	96.255
551.393	176.92
555.356	111.027
559.318	92.066
563.278	213.038
567.236	454.941
571.192	762.773
575.147	1053.93
579.099	1013.51
583.05	719.531
586.999	495.181
590.946	430.605
594.891	419.688
598.834	380.227
602.776	429.714
606.715	658.147
610.653	646.361
614.589	830.351
618.523	1161.38
622.456	1582.49
626.386	2365.25
630.315	3892.17
634.242	6680.91
638.167	12969
642.09	23087.6
646.012	27372.6
649.931	18845.8
653.849	10047.6
657.765	5559.83
661.679	3209.68
665.592	2005.51
669.502	1395.13
673.411	879.904
677.318	669.408
681.223	731.565
685.126	805.85
689.028	1002.91
692.927	897.099
696.825	672.797
700.721	407.377
704.616	290.262
708.508	243.681
712.399	352.081
716.288	402.461
720.175	381.724
724.06	332.868
727.944	254.897
731.825	173.811
735.705	92.607
739.584	90.28
743.46	28.834
747.334	20.795
751.207	11.331
755.078	1.308
758.947	32.929
762.815	2.505
766.68	96.672
770.544	41.731
774.406	3.669
778.267	17.512
782.125	35.914
785.982	54.396
789.837	68.513
793.69	59.688
797.542	24.861
801.391	46.266
805.239	20.509
809.085	44.628
812.93	45.649
816.772	46.54
820.613	17.704
824.452	47.945
828.29	72.512
832.125	16.997
835.959	72.372
839.791	38.688
843.621	20.994
847.45	49.186
851.277	82.389
855.102	106.612
858.925	165.908
862.746	127.225
866.566	217.514
870.384	348.813
874.2	491.106
878.015	681.384
881.828	924.683
885.639	1347
889.448	1713
893.256	1728.93
897.061	1532.48
900.865	1229.26
904.668	1019.65
908.468	825.294
912.267	689.488
916.064	749.576
919.86	787.403
923.653	856.148
927.445	985.757
931.236	1101.15
935.024	1389.33
938.811	1432.22
942.596	1496.01
946.379	1406.1
950.161	1849.14
953.94	2380.74
957.719	3573.92
961.495	6168.7
965.27	12033
969.043	25454.6
972.814	43329.1
976.583	37584.1
980.351	20799.8
984.117	11293.7
987.882	7679.08
991.644	6075.35
995.405	5641.72
999.165	5508.23
1002.92	5074.85
1006.68	3971.44
1010.43	3158.25
1014.18	2635.15
1017.93	2642.36
1021.68	2992.99
1025.43	3660.51
1029.18	3889.86
1032.92	3909.3
1036.66	5268.64
1040.4	5826.22
1044.14	4136.03
1047.88	2445.06
1051.62	1454.27
1055.35	989.761
1059.08	706.154
1062.81	590.591
1066.54	481.15
1070.27	477.123
1073.99	326.96
1077.72	263.65
1081.44	328.875
1085.16	364.906
1088.88	381.141
1092.59	239.835
1096.31	206.322
1100.02	136.985
1103.73	66.396
1107.44	165.218
1111.15	158.359
1114.86	151.495
1118.57	202.175
1122.27	146.438
1125.97	124.567
1129.67	107.156
1133.37	120.143
1137.07	48.129
1140.76	149.73
1144.45	212.042
1148.15	147.396
1151.84	33.385
1155.53	25.894
1159.21	20.711
1162.9	41.695
1166.58	5.295
1170.26	91.324
1173.94	70.103
1177.62	7.761
1181.3	15.014
1184.97	37.241
1188.65	34.505
1192.32	31.079
1195.99	15.618
1199.66	87.861
1203.33	149.327
1206.99	126.18
1210.65	2.034
1214.32	27.948
1217.98	11.236
1221.64	3.003
1225.29	34.122
1228.95	112.584
1232.6	112.171
1236.26	171.877
1239.91	25.515
1243.56	89.939
1247.2	39.478
1250.85	30.726
1254.49	102.228
1258.13	123.736
1261.78	230.976
1265.41	84.978
1269.05	72.372
1272.69	76.225
1276.32	30.947
1279.95	66.843
1283.59	74.456
1287.21	127.229
1290.84	119.606
1294.47	136.733
1298.09	205.648
1301.72	224.372
1305.34	57.89
1308.96	31.938
1312.58	128.131
1316.19	22.652
1319.81	79.653
1323.42	178.331
1327.03	117.408
1330.64	116.233
1334.25	144.633
1337.86	42.759
1341.46	88.2
1345.07	6.719
1348.67	12.783
1352.27	121.86
1355.87	150.37
1359.46	124.603
1363.06	252.062
1366.65	120.109
1370.25	138.454
1373.84	3.084
1377.43	15.303
1381.02	15.749
1384.6	80.099
1388.18	61.352
1391.77	102.675
1395.35	240.291
1398.93	167.061
1402.51	291.856
1406.08	143.771
1409.66	125.238
1413.23	50.934
1416.8	1.486
1420.37	80.297
1423.94	4.945
1427.51	68.495
1431.08	102.817
1434.64	237.813
1438.2	371.255
1441.76	427.506
1445.32	293.175
1448.88	229.48
1452.43	200.181
1455.99	190.513
1459.54	174.039
1463.09	205.667
1466.64	119.607
1470.19	411.31
1473.74	343.755
1477.28	375.877
1480.83	348.738
1484.37	311.778
1487.91	194.692
1491.45	209.471
1494.98	234.823
1498.52	100.834
1502.05	28.032
1505.59	146.726
1509.12	47.599
1512.65	131.319
1516.17	279.499
1519.7	265.264
1523.23	267.852
