Measurement: Raman, 514 nm, ccw, Raman Data Processed
Mineral: Bustamite
Rruff sample: R040014
Ideal chemistry: CaMn^2+^Si_2_O_6_
Locality: Broken Hill, New South Wales, Australia
Source: University of Arizona Mineral Museum
Description: Orange fragment
Measured chemistry: (Ca_0.90_Mn_0.10_)_Σ=1_(Mn^2+^_0.78_Fe^2+^_0.19_Fe^3+^_0.02_Mg_0.01_)_Σ=1_(Si_1.98_Fe^3+^_0.02_)_Σ=2_O_6_
Pin_id: M00138
Orientation: Laser parallel to c* (0 0 1). Fiducial mark perpendicular to laser is parallel to -a [-1 0 0]
Raman shift (cm-1)	intensity
91.284	0
95.465	121.585
99.644	661.677
103.82	1392.3
107.995	2321.94
112.168	3143.41
116.339	1692.39
120.508	3000.07
124.675	7456.92
128.84	8592.84
133.003	7993
137.164	7379.33
141.323	5312.07
145.48	3597.23
149.635	3072.89
153.788	3080.46
157.939	2721.09
162.088	1823.42
166.235	803.05
170.38	430.835
174.523	424.693
178.664	342.16
182.803	115.676
186.94	19.371
191.076	4.169
195.209	2.079
199.34	108.501
203.47	98.241
207.597	131.44
211.722	139.289
215.846	71.408
219.967	11.999
224.087	183.599
228.204	375.062
232.32	654.943
236.434	1065.19
240.545	1489.72
244.655	1902.2
248.763	2312.21
252.869	2171.51
256.973	1578.45
261.075	1113.47
265.175	928.67
269.273	865.102
273.369	819.773
277.463	919.107
281.556	956.824
285.646	1011.68
289.734	1000.35
293.821	1092.8
297.905	1553.14
301.988	2293.42
306.069	3546.49
310.147	6182.99
314.224	9316.28
318.299	9437.46
322.372	5971.65
326.443	3787.91
330.512	3463.81
334.579	3526.28
338.645	3010.78
342.708	2301.97
346.769	1798.96
350.829	1257.08
354.887	955.341
358.942	747.834
362.996	621.116
367.048	550.544
371.098	564.926
375.146	623.521
379.192	750.496
383.236	1060.06
387.279	1466.31
391.319	2426.91
395.358	4800.23
399.394	9949.51
403.429	17521.7
407.462	19864
411.493	14206.2
415.522	7778.5
419.549	4043.82
423.575	2337.25
427.598	1536.71
431.619	1096.17
435.639	802.621
439.657	585.061
443.673	524.472
447.687	357.823
451.699	243.144
455.709	231.435
459.717	278.665
463.724	165.84
467.728	77.738
471.731	50.249
475.732	57.49
479.731	43.754
483.728	70.002
487.723	10.247
491.716	6.465
495.708	9.301
499.697	27.322
503.685	60.468
507.671	140.423
511.655	293.892
515.637	406.64
519.617	203.402
523.596	25.234
527.572	29.195
531.547	30.689
535.52	15.513
539.491	10.695
543.46	90.212
547.427	47.561
551.393	11.265
555.356	33.73
559.318	72.541
563.278	137.236
567.236	225.836
571.192	406.342
575.147	650.75
579.099	653.06
583.05	437.269
586.999	359.488
590.946	290.861
594.891	340.468
598.834	367.674
602.776	401.642
606.715	554.252
610.653	602.176
614.589	767.55
618.523	1018.78
622.456	1547.19
626.386	2330.31
630.315	3858.3
634.242	6760.05
638.167	13333.3
642.09	25303.1
646.012	31939.5
649.931	21397.2
653.849	11290.1
657.765	6312.07
661.679	3914.99
665.592	2605.74
669.502	1849.41
673.411	1366.92
677.318	1124.86
681.223	1047.95
685.126	1090.11
689.028	1128.55
692.927	785.541
696.825	453.896
700.721	355.564
704.616	224.384
708.508	217.142
712.399	154.231
716.288	194.574
720.175	116.623
724.06	146.634
727.944	152.556
731.825	95.392
735.705	105.144
739.584	71.814
743.46	2.406
747.334	17.298
751.207	10.752
755.078	11.447
758.947	52.553
762.815	42.577
766.68	27.468
770.544	53.628
774.406	7.007
778.267	36.34
782.125	55.898
785.982	6.318
789.837	35.703
793.69	24.873
797.542	33.139
801.391	14.437
805.239	68.874
809.085	3.345
812.93	43.873
816.772	36.434
820.613	44.015
824.452	77.458
828.29	118.907
832.125	0.655
835.959	10.221
839.791	1.784
843.621	43.698
847.45	38.285
851.277	64.964
855.102	81.77
858.925	118.786
862.746	142.938
866.566	164.224
870.384	253.614
874.2	454.086
878.015	798.611
881.828	1242.28
885.639	1797.05
889.448	2230.93
893.256	2285.9
897.061	1666.94
900.865	1248.4
904.668	985.526
908.468	819.753
912.267	717.19
916.064	756.685
919.86	806.845
923.653	859.534
927.445	887.22
931.236	1018.25
935.024	1181.02
938.811	1239.25
942.596	1421.87
946.379	1485.31
950.161	1899.7
953.94	2595.93
957.719	4150.81
961.495	7336.72
965.27	14023.8
969.043	29920.9
972.814	52516.1
976.583	45862.5
980.351	25000.1
984.117	13257.1
987.882	8304.69
991.644	5852.55
995.405	4910.58
999.165	5088.98
1002.92	6387.24
1006.68	6315.62
1010.43	5074.13
1014.18	3680.75
1017.93	2812.31
1021.68	2603.71
1025.43	2666.78
1029.18	2777.36
1032.92	3343.3
1036.66	5005.65
1040.4	5509.69
1044.14	3873.78
1047.88	2209.98
1051.62	1464.86
1055.35	955.131
1059.08	766.038
1062.81	647.521
1066.54	624.389
1070.27	508.817
1073.99	384.98
1077.72	526.491
1081.44	551.071
1085.16	599.694
1088.88	521.839
1092.59	346.467
1096.31	236.663
1100.02	92.06
1103.73	130.558
1107.44	217.341
1111.15	190.01
1114.86	191.92
1118.57	140.317
1122.27	154.95
1125.97	100.704
1129.67	106.575
1133.37	170.031
1137.07	86.565
1140.76	192.425
1144.45	148.383
1148.15	118.321
1151.84	15.165
1155.53	35.301
1159.21	49.425
1162.9	63.578
1166.58	66.537
1170.26	0.432
1173.94	67.018
1177.62	36.875
1181.3	61.893
1184.97	76.623
1188.65	24.244
1192.32	20.432
1195.99	7.441
1199.66	21.562
1203.33	4.553
1206.99	71.168
1210.65	32.342
1214.32	35.468
1217.98	8.326
1221.64	81.792
1225.29	21.519
1228.95	73.027
1232.6	112.249
1236.26	26.383
1239.91	90.896
1243.56	42.249
1247.2	13.307
1250.85	78.741
1254.49	108.976
1258.13	103.156
1261.78	96.102
1265.41	114.024
1269.05	96.678
1272.69	80.457
1276.32	120
1279.95	22.665
1283.59	137.773
1287.21	204.776
1290.84	119.534
1294.47	180.779
1298.09	231.111
1301.72	140.305
1305.34	38.331
1308.96	55.172
1312.58	102.048
1316.19	64.047
1319.81	135.383
1323.42	143.192
1327.03	155.881
1330.64	94.742
1334.25	17.041
1337.86	26.202
1341.46	3.223
1345.07	75.499
1348.67	71.553
1352.27	67.406
1355.87	118.369
1359.46	142.072
1363.06	112.646
1366.65	83.776
1370.25	51.377
1373.84	9.783
1377.43	0.12
1381.02	36.067
1384.6	110.637
1388.18	111.563
1391.77	153
1395.35	230.464
1398.93	99.877
1402.51	143.133
1406.08	139.121
1409.66	32.478
1413.23	5.47
1416.8	31.235
1420.37	0.463
1423.94	49.225
1427.51	131.601
1431.08	166.637
1434.64	233.498
1438.2	294.235
1441.76	223.406
1445.32	172.656
1448.88	120.169
1452.43	160.022
1455.99	226.433
1459.54	211.509
1463.09	185.476
1466.64	224.327
1470.19	213.772
1473.74	280.518
1477.28	236.676
1480.83	291.578
1484.37	210.98
1487.91	141.698
1491.45	46.619
1494.98	56.522
1498.52	106.04
1502.05	21.932
1505.59	69.827
1509.12	114.916
1512.65	191.271
1516.17	160.296
1519.7	178.036
1523.23	0
