Measurement: Raman, 514 nm, ccw, Raman Data Processed
Mineral: Bustamite
Rruff sample: R040014
Ideal chemistry: CaMn^2+^Si_2_O_6_
Locality: Broken Hill, New South Wales, Australia
Source: University of Arizona Mineral Museum
Description: Orange fragment
Measured chemistry: (Ca_0.90_Mn_0.10_)_Σ=1_(Mn^2+^_0.78_Fe^2+^_0.19_Fe^3+^_0.02_Mg_0.01_)_Σ=1_(Si_1.98_Fe^3+^_0.02_)_Σ=2_O_6_
Pin_id: L00268
Orientation: Laser parallel to -a* (-1 0 0). Fiducial mark perpendicular to laser is parallel to b [0 1 0]
Raman shift (cm-1)	intensity
51.904	0
56.11	181.322
60.314	37.488
64.516	161.494
68.716	211.105
72.914	171.473
77.11	90.623
81.304	3.361
85.496	0.42
89.685	127.175
93.873	390.467
98.058	857.18
102.242	1427.11
106.423	1759.97
110.603	1727.64
114.78	1456.06
118.956	1567.21
123.129	2341.11
127.3	3961.76
131.469	5688.15
135.636	7135.24
139.801	6181.15
143.964	4246.53
148.125	3244.03
152.284	3004.33
156.441	3000.47
160.596	2247.93
164.749	1198.74
168.9	773.883
173.049	885.365
177.195	885.181
181.34	591.405
185.483	362.46
189.624	272.964
193.762	205.823
197.899	173.372
202.034	150.331
206.166	119.491
210.297	177.847
214.425	195.477
218.552	238.924
222.676	469.115
226.799	749.857
230.919	1155.51
235.038	1533.82
239.154	1880.65
243.269	2341.35
247.381	2764.74
251.492	2486.23
255.6	1805.67
259.707	1283.36
263.811	833.323
267.914	681.539
272.014	614.992
276.113	607.674
280.209	668.573
284.304	760.679
288.396	868.982
292.487	970.47
296.575	1146.13
300.662	1563.96
304.746	2535.05
308.829	4236.52
312.909	6807.25
316.988	8198.4
321.065	5541.34
325.139	3054.27
329.212	2290.48
333.283	2214.05
337.351	2092.34
341.418	1541.34
345.483	1127.04
349.546	747.405
353.606	515.856
357.665	341.383
361.722	180.976
365.777	117.862
369.83	91.317
373.881	25.729
377.93	80.762
381.977	88.031
386.023	258.208
390.066	488.446
394.107	851.75
398.146	1768.66
402.184	3508.63
406.219	4774.67
410.252	3551.82
414.284	1957.15
418.313	918.594
422.341	462.079
426.367	300.609
430.39	169.225
434.412	160.903
438.432	195.635
442.45	260.427
446.466	120.252
450.48	119.112
454.492	96.025
458.502	120.973
462.51	81.97
466.517	15.019
470.521	68.036
474.523	40.383
478.524	1.076
482.523	31.509
486.519	9.949
490.514	61.66
494.507	42.458
498.498	44.505
502.487	3.217
506.474	103.338
510.459	235.413
514.442	314.934
518.424	256.375
522.403	95.731
526.381	12.997
530.356	19.849
534.33	13.919
538.302	13.786
542.272	3.714
546.24	5.7
550.206	25.869
554.17	94.173
558.132	142.889
562.093	184.668
566.051	489.458
570.008	888.286
573.963	1543.14
577.915	1661.8
581.866	1117.81
585.815	730.403
589.763	444.534
593.708	346.07
597.651	394.043
601.593	410.672
605.532	472.233
609.47	513.777
613.406	651.739
617.34	869.647
621.272	1157.7
625.202	1559.02
629.131	2349.61
633.057	3980.46
636.982	7678.36
640.905	14670.3
644.825	22309.3
648.744	17201.9
652.662	8993.31
656.577	4961.38
660.49	2858.55
664.402	1776.38
668.312	1177.65
672.219	802.036
676.125	635.256
680.03	467.363
683.932	423.546
687.832	346.451
691.731	307.417
695.628	175.855
699.522	177.371
703.415	136.33
707.307	116.229
711.196	177.54
715.083	206.874
718.969	126.047
722.853	94.061
726.735	80.912
730.615	64.598
734.493	15.12
738.37	44.469
742.244	11.39
746.117	13.46
749.988	21.899
753.857	0.481
757.724	4.361
761.59	14.404
765.453	1.31
769.315	2.214
773.175	14.019
777.033	30.021
780.889	13.67
784.744	34.297
788.596	0.891
792.447	30.61
796.296	37.371
800.143	21.666
803.989	48.617
807.832	23.53
811.674	38.597
815.514	38.148
819.352	56.76
823.189	46.243
827.023	97.611
830.856	21.898
834.687	66.109
838.516	56.252
842.343	106.349
846.169	74.458
849.992	74.573
853.814	26.702
857.634	138.699
861.453	148.729
865.269	179.695
869.084	192.719
872.897	217.751
876.708	204.58
880.517	324.302
884.325	617.854
888.13	848.042
891.934	992.811
895.737	906.843
899.537	746.092
903.336	609.626
907.132	503.062
910.928	522.047
914.721	517.672
918.512	533.705
922.302	529.218
926.09	560.363
929.876	627.231
933.66	805.117
937.443	857.475
941.224	854.388
945.003	918.544
948.78	1131.55
952.556	1520.98
956.33	2390.57
960.102	3902.66
963.872	7333
967.64	15171.8
971.407	31627.7
975.172	36945
978.935	21224.1
982.697	10853.2
986.456	6982.37
990.214	5161.73
993.971	4346.11
997.725	4092.63
1001.48	4196.34
1005.23	4461.25
1008.98	4201.26
1012.73	3425
1016.47	3132.11
1020.22	3272.98
1023.96	3961.85
1027.7	4242.79
1031.44	4385.94
1035.17	6386.62
1038.91	8548.06
1042.64	6821.25
1046.37	3864.64
1050.1	2281.24
1053.83	1563.84
1057.56	1028.58
1061.28	816.262
1065.01	632.812
1068.73	459.34
1072.45	543.234
1076.16	536.506
1079.88	501.639
1083.6	415.905
1087.31	384.027
1091.02	377.816
1094.73	334.705
1098.44	280.455
1102.14	246.778
1105.85	246.664
1109.55	222.793
1113.25	152.963
1116.95	124.588
1120.65	267.04
1124.34	215.447
1128.04	118.827
1131.73	147.382
1135.42	227.688
1139.11	149.729
1142.79	99.87
1146.48	26.466
1150.16	11.753
1153.84	41.611
1157.52	160.556
1161.2	55.63
1164.88	84.705
1168.56	3.926
1172.23	51.726
1175.9	13.102
1179.57	8.888
1183.24	41.573
1186.9	9.021
1190.57	44.568
1194.23	6.14
1197.89	0.764
1201.55	18.474
1205.21	40.454
1208.87	42.026
1212.52	23.663
1216.18	29.341
1219.83	87.63
1223.48	82.454
1227.13	18.032
1230.77	101.134
1234.42	122.386
1238.06	75.976
1241.7	82.258
1245.34	114.265
1248.98	106.669
1252.62	87.504
1256.25	150.904
1259.88	137.112
1263.51	165.508
1267.14	95.029
1270.77	138.589
1274.4	229.406
1278.02	260.285
1281.65	391.982
1285.27	159.544
1288.89	85.613
1292.51	197.907
1296.12	96.804
1299.74	154.458
1303.35	177.772
1306.96	90.753
1310.57	143.167
1314.18	201.941
1317.79	186.125
1321.39	199.085
1324.99	237.372
1328.59	99.469
1332.19	33.179
1335.79	9.381
1339.39	63.783
1342.98	100.587
1346.58	77.792
1350.17	98.234
1353.76	123.298
1357.35	8.65
1360.93	75.636
1364.52	41.262
1368.1	3.002
1371.68	6.645
1375.26	1.038
1378.84	98.586
1382.42	169.947
1385.99	116.172
1389.57	206.619
1393.14	17.373
1396.71	129.803
1400.28	38.138
1403.85	7.169
1407.41	97.004
1410.98	21.16
1414.54	88.829
1418.1	177.31
1421.66	325.352
1425.21	226.833
1428.77	188.081
1432.33	209.406
1435.88	179.912
1439.43	238.263
1442.98	301.045
1446.53	255.862
1450.07	411.435
1453.62	369.794
1457.16	515.349
1460.7	528.889
1464.24	486.807
1467.78	339.822
1471.32	268.046
1474.85	297.849
1478.38	130.863
1481.91	199.29
1485.44	171.006
1488.97	121.783
1492.5	117.303
1496.03	175.021
1499.55	166.917
1503.07	250.092
1506.59	271.463
1510.11	313.034
1513.63	190.936
1517.14	92.67
1520.66	55.812
