Measurement: Raman, 514 nm, ccw, Raman Data Processed
Mineral: Bustamite
Rruff sample: R040014
Ideal chemistry: CaMn^2+^Si_2_O_6_
Locality: Broken Hill, New South Wales, Australia
Source: University of Arizona Mineral Museum
Description: Orange fragment
Measured chemistry: (Ca_0.90_Mn_0.10_)_Σ=1_(Mn^2+^_0.78_Fe^2+^_0.19_Fe^3+^_0.02_Mg_0.01_)_Σ=1_(Si_1.98_Fe^3+^_0.02_)_Σ=2_O_6_
Pin_id: L00174
Orientation: Laser parallel to (-1 0 -1). Fiducial mark perpendicular to laser is parallel to -b [0 -1 0]
Raman shift (cm-1)	intensity
103.636	0
107.817	146.008
111.996	43.511
116.172	165.608
120.347	844.882
124.519	2362.23
128.69	2382.8
132.858	2568.1
137.025	2811.67
141.189	2198.21
145.352	1721.31
149.512	1802.62
153.67	1936.22
157.827	1488.71
161.981	908.061
166.133	473.739
170.283	444.797
174.431	547.556
178.577	340.747
182.721	135.39
186.863	67.428
191.003	126.943
195.141	155.135
199.277	0.032
203.411	40.596
207.543	66.875
211.673	105.686
215.801	98.273
219.927	18.205
224.051	107.796
228.173	239.431
232.292	427.114
236.41	586.72
240.526	813.027
244.64	952.175
248.752	882.052
252.861	674.514
256.969	464.151
261.075	282.795
265.179	223.428
269.281	165.061
273.38	309.222
277.478	366.91
281.574	513.173
285.668	753.61
289.76	856.011
293.85	887.318
297.937	1195.26
302.023	1680.77
306.107	2833.93
310.189	4651.62
314.269	6076.2
318.347	5370.17
322.423	3363.2
326.497	2040.99
330.569	1642.27
334.639	1480.33
338.707	1167.32
342.773	843.519
346.837	548.654
350.899	360.458
354.96	214.277
359.018	104.1
363.074	87.751
367.128	41.671
371.181	30.517
375.231	63.295
379.28	164.834
383.326	326.038
387.37	624.412
391.413	1142.11
395.454	1770.1
399.492	3020.79
403.529	5013.67
407.564	5595.34
411.596	3751.61
415.627	2049.83
419.656	1090.97
423.683	626.045
427.708	313.058
431.731	300.005
435.752	226.87
439.772	251.651
443.789	176.435
447.804	207.101
451.817	128.647
455.829	295.088
459.838	324.391
463.846	262.569
467.852	103.614
471.855	130.509
475.857	0.255
479.857	160.833
483.855	375.312
487.851	169.767
491.845	82.115
495.837	55.365
499.828	56.471
503.816	207.441
507.802	466.294
511.787	755.02
515.77	857.624
519.75	525.11
523.729	330.327
527.706	95.007
531.681	2.467
535.654	26.604
539.625	75.948
543.595	7.826
547.562	82.213
551.527	34.954
555.491	16.389
559.453	95.888
563.412	126.937
567.37	365.795
571.326	756.412
575.28	1158.4
579.233	1001.3
583.183	594.755
587.131	334.829
591.078	316.935
595.022	261.692
598.965	188.69
602.906	268.908
606.845	291.832
610.782	401.738
614.718	517.99
618.651	615.874
622.582	846.409
626.512	1231.39
630.44	2148.79
634.366	3877.41
638.29	7371.98
642.212	13809.2
646.132	16307.9
650.05	10609.9
653.967	5597.54
657.882	3206.7
661.794	1851.18
665.705	1240.27
669.614	798.38
673.522	691.126
677.427	590.089
681.331	554.886
685.232	705.174
689.132	865.993
693.03	818.12
696.926	533.254
700.82	310.867
704.713	266.337
708.603	244.017
712.492	198.072
716.379	334.284
720.264	323.702
724.147	121.201
728.028	71.523
731.908	149.598
735.785	98.438
739.661	104.023
743.535	36.354
747.407	79.425
751.278	73.245
755.146	24.647
759.013	33.283
762.878	24.381
766.741	37.763
770.602	58.846
774.461	7.325
778.319	58.224
782.174	40.539
786.028	4.376
789.88	30.454
793.73	105.037
797.579	47.266
801.425	19.834
805.27	22.789
809.113	26.155
812.954	1.308
816.794	4.229
820.631	28.923
824.467	29.58
828.301	8.659
832.133	29.662
835.963	54.491
839.792	8.875
843.618	11.469
847.443	30.658
851.266	11.259
855.088	49.833
858.907	139.013
862.725	144.086
866.541	110.348
870.355	257.661
874.167	273.922
877.978	487.78
881.787	774.721
885.594	777.547
889.399	1027.63
893.202	931.251
897.004	827.369
900.803	620.784
904.601	453.149
908.398	358.805
912.192	411.159
915.985	479.679
919.776	456.863
923.565	505.518
927.352	496.804
931.138	648.886
934.922	705.614
938.704	709.312
942.484	966.069
946.262	890.521
950.039	1056.91
953.814	1454.26
957.587	2153.19
961.359	3684.22
965.128	7225.47
968.896	15986.6
972.662	28267.9
976.427	23268.2
980.189	12118.2
983.95	6283.35
987.709	4116.08
991.467	3246.27
995.222	3003.5
998.976	3096.11
1002.73	3329.22
1006.48	2953.18
1010.23	2456.62
1013.97	2161.59
1017.72	2142.41
1021.46	2654.79
1025.2	3309.55
1028.94	3355.3
1032.68	3512.19
1036.42	5206.53
1040.15	5990.96
1043.89	4165.56
1047.62	2300.09
1051.35	1391.85
1055.07	876.576
1058.8	792.911
1062.52	521.061
1066.25	585.555
1069.97	549.271
1073.69	423.184
1077.4	497.732
1081.12	481.761
1084.83	555.793
1088.55	569.681
1092.26	405.135
1095.96	239.622
1099.67	243.999
1103.38	198.608
1107.08	92.815
1110.78	189.311
1114.48	73.779
1118.18	147.412
1121.88	351.595
1125.57	225.172
1129.27	108.719
1132.96	43.344
1136.65	8.006
1140.34	121.661
1144.02	175.174
1147.71	328.8
1151.39	322.439
1155.07	95.645
1158.75	30.41
1162.43	110.947
1166.11	138.512
1169.78	12.856
1173.45	34.734
1177.12	43.602
1180.79	86.894
1184.46	157.974
1188.13	78.741
1191.79	71.24
1195.45	23.755
1199.11	95.457
1202.77	105.039
1206.43	82.799
1210.09	170.959
1213.74	218.7
1217.39	107.264
1221.05	53.396
1224.69	191.863
1228.34	273.173
1231.99	360.605
1235.63	262.924
1239.27	417.44
1242.91	311.958
1246.55	184.852
1250.19	207.929
1253.83	20.537
1257.46	222.937
1261.09	304.318
1264.72	255.346
1268.35	496.986
1271.98	377.535
1275.61	187.804
1279.23	93.455
1282.85	172.447
1286.47	240.99
1290.09	256.111
1293.71	296.982
1297.33	371.891
1300.94	265.311
1304.55	194.356
1308.16	194.146
1311.77	296.519
1315.38	246.865
1318.99	276.3
1322.59	331.723
1326.19	260.205
1329.79	168.08
1333.39	304.474
1336.99	90.543
1340.59	145.264
1344.18	112.642
1347.77	286.34
1351.37	57.283
1354.95	116.825
1358.54	78.614
1362.13	229.847
1365.71	470.679
1369.3	291.988
1372.88	141.887
1376.46	83.379
1380.04	86.507
1383.61	153.495
1387.19	230.632
1390.76	189.239
1394.33	266.961
1397.9	252.496
1401.47	416.662
1405.04	361.273
1408.6	323.769
1412.16	345.081
1415.72	335.934
1419.29	56.204
1422.84	85.997
1426.4	199.101
1429.96	117.574
1433.51	374.668
1437.06	480.48
1440.61	364.689
1444.16	597.604
1447.71	568.439
1451.25	382.625
1454.8	540.457
1458.34	325.068
1461.88	217.162
1465.42	293.914
1468.96	253.631
1472.49	203.488
1476.03	411.576
1479.56	522.727
1483.09	570.984
1486.62	507.363
1490.15	360.756
1493.67	473.609
1497.2	427.691
1500.72	211.898
1504.24	74.973
1507.76	125.84
1511.28	18.809
1514.8	0.119
