Measurement: Raman, 514 nm, ccw, Raman Data Processed
Mineral: Bustamite
Rruff sample: R040014
Ideal chemistry: CaMn^2+^Si_2_O_6_
Locality: Broken Hill, New South Wales, Australia
Source: University of Arizona Mineral Museum
Description: Orange fragment
Measured chemistry: (Ca_0.90_Mn_0.10_)_Σ=1_(Mn^2+^_0.78_Fe^2+^_0.19_Fe^3+^_0.02_Mg_0.01_)_Σ=1_(Si_1.98_Fe^3+^_0.02_)_Σ=2_O_6_
Pin_id: L00268
Orientation: Laser parallel to -a* (-1 0 0). Fiducial mark perpendicular to laser is parallel to b [0 1 0]
Raman shift (cm-1)	intensity
93.873	0
98.058	305.9
102.242	816.537
106.423	919.866
110.603	556.78
114.78	350.316
118.956	257.502
123.129	198.908
127.3	377.81
131.469	704.382
135.636	1038.06
139.801	1099.69
143.964	824.67
148.125	679.331
152.284	780.812
156.441	854.024
160.596	569.221
164.749	167.956
168.9	14.95
173.049	55.207
177.195	113.977
181.34	17.348
185.483	82.687
189.624	33.258
193.762	6.612
197.899	12.974
202.034	45.104
206.166	30.533
210.297	0.235
214.425	37.617
218.552	176.871
222.676	393.248
226.799	802.496
230.919	1262.37
235.038	1562.82
239.154	1837.77
243.269	2024.82
247.381	1662.95
251.492	1135.13
255.6	766.347
259.707	582.84
263.811	486.597
267.914	541.112
272.014	736.471
276.113	1107.76
280.209	1243
284.304	1059.69
288.396	805.282
292.487	700.965
296.575	709.495
300.662	846.797
304.746	1179.6
308.829	1973.97
312.909	3339.72
316.988	4546.57
321.065	3451.39
325.139	1904.87
329.212	1178.16
333.283	876.473
337.351	686.521
341.418	441.616
345.483	303.694
349.546	183.249
353.606	103.114
357.665	50.055
361.722	9.857
365.777	11.322
369.83	22.345
373.881	86.21
377.93	137.856
381.977	221.127
386.023	444.034
390.066	817.763
394.107	1078.28
398.146	1030.61
402.184	810.855
406.219	717.026
410.252	549.125
414.284	261.147
418.313	153.63
422.341	77.97
426.367	28.855
430.39	0.67
434.412	3.689
438.432	35.245
442.45	87.146
446.466	59.464
450.48	5.888
454.492	21.8
458.502	59.802
462.51	121.716
466.517	47.517
470.521	9.85
474.523	23.385
478.524	34.117
482.523	24.845
486.519	14.4
490.514	5.874
494.507	24.499
498.498	23.674
502.487	79.696
506.474	217.593
510.459	352.4
514.442	530.136
518.424	450.754
522.403	260.587
526.381	145.444
530.356	126.982
534.33	104.893
538.302	101.899
542.272	76.743
546.24	95.423
550.206	186.946
554.17	159.313
558.132	242.525
562.093	312.583
566.051	457.485
570.008	948.23
573.963	1439.82
577.915	1598.25
581.866	1170.52
585.815	724.542
589.763	461.779
593.708	402.966
597.651	424.085
601.593	393.68
605.532	500.233
609.47	601.929
613.406	656.915
617.34	854.888
621.272	1116.41
625.202	1611.41
629.131	2381.54
633.057	3850.45
636.982	7112.76
640.905	13756
644.825	21407.8
648.744	17276.4
652.662	9083.14
656.577	5080.93
660.49	2926.67
664.402	3603.39
668.312	2801.41
672.219	858.651
676.125	673.509
680.03	579.124
683.932	755.965
687.832	1104.45
691.731	1400.38
695.628	998.167
699.522	766.056
703.415	426.485
707.307	416.775
711.196	590.975
715.083	836.03
718.969	936.943
722.853	744.715
726.735	483.348
730.615	315.845
734.493	246.209
738.37	127.443
742.244	81.565
746.117	41.594
749.988	49.562
753.857	10.438
757.724	50.157
761.59	52.721
765.453	4.861
769.315	20.625
773.175	10.392
777.033	5.319
780.889	4.011
784.744	27.446
788.596	0.967
792.447	13.927
796.296	16.79
800.143	83.734
803.989	75.864
807.832	22.812
811.674	35.611
815.514	9.177
819.352	2.855
823.189	44.372
827.023	20.522
830.856	0.403
834.687	14.399
838.516	31.475
842.343	106.355
846.169	83.129
849.992	94.852
853.814	131.537
857.634	124.179
861.453	175.782
865.269	122.348
869.084	102.883
872.897	175.402
876.708	161.908
880.517	145.436
884.325	185.974
888.13	352.605
891.934	398.268
895.737	402.694
899.537	397.645
903.336	427.913
907.132	396.473
910.928	394.714
914.721	402.425
918.512	401.101
922.302	369.41
926.09	389.643
929.876	493.214
933.66	595.266
937.443	637.022
941.224	659.212
945.003	692.408
948.78	863.214
952.556	1234.52
956.33	1747.42
960.102	2934.94
963.872	5542.76
967.64	11751.3
971.407	24209.3
975.172	29248.3
978.935	17327.3
982.697	9176.31
986.456	6205.2
990.214	4891.35
993.971	4585.88
997.725	4505.08
1001.48	4331.28
1005.23	3432.23
1008.98	2525.26
1012.73	2105.3
1016.47	1706.68
1020.22	1764.09
1023.96	1924.69
1027.7	2367.69
1031.44	3412.71
1035.17	6148.6
1038.91	8365.02
1042.64	6468.03
1046.37	3583.29
1050.1	2085.76
1053.83	1383.29
1057.56	966.96
1061.28	707.578
1065.01	521.763
1068.73	444.865
1072.45	427.876
1076.16	457.422
1079.88	493.932
1083.6	811.109
1087.31	1243.64
1091.02	333.339
1094.73	291.712
1098.44	138.518
1102.14	184.443
1105.85	214.239
1109.55	149.969
1113.25	167.487
1116.95	195.298
1120.65	436.906
1124.34	326.071
1128.04	97.228
1131.73	127.668
1135.42	205.977
1139.11	237.778
1142.79	149.04
1146.48	77.24
1150.16	30.217
1153.84	89.732
1157.52	103.436
1161.2	81.871
1164.88	124.232
1168.56	23.527
1172.23	42.543
1175.9	59.17
1179.57	3.818
1183.24	56.486
1186.9	31.292
1190.57	43.898
1194.23	45.894
1197.89	89.581
1201.55	29.285
1205.21	14.083
1208.87	9.957
1212.52	19.266
1216.18	39.376
1219.83	63.53
1223.48	43.508
1227.13	4.503
1230.77	82.144
1234.42	148.95
1238.06	73.198
1241.7	111.942
1245.34	76.34
1248.98	158.924
1252.62	204.227
1256.25	164.215
1259.88	115.273
1263.51	170.417
1267.14	156.561
1270.77	140.985
1274.4	181.446
1278.02	344.774
1281.65	322.961
1285.27	189.175
1288.89	193.945
1292.51	199.382
1296.12	151.029
1299.74	141.561
1303.35	200.55
1306.96	216.134
1310.57	189.752
1314.18	223.546
1317.79	263.272
1321.39	240.609
1324.99	215.292
1328.59	186.032
1332.19	63.627
1335.79	4.823
1339.39	75.325
1342.98	0.89
1346.58	146.599
1350.17	140.5
1353.76	189.432
1357.35	71.505
1360.93	76.081
1364.52	65.164
1368.1	54.346
1371.68	39.89
1375.26	6.441
1378.84	72.038
1382.42	111.396
1385.99	216.142
1389.57	164.378
1393.14	96.715
1396.71	110.764
1400.28	15.197
1403.85	35.611
1407.41	156.11
1410.98	5.606
1414.54	134.665
1418.1	168.766
1421.66	289.559
1425.21	164.329
1428.77	207.139
1432.33	285.385
1435.88	257.077
1439.43	230.255
1442.98	326.27
1446.53	376.875
1450.07	490.024
1453.62	445.094
1457.16	574.745
1460.7	547.385
1464.24	488.062
1467.78	456.959
1471.32	355.279
1474.85	280.145
1478.38	110.687
1481.91	242.805
1485.44	82.277
1488.97	232.023
1492.5	76.553
1496.03	148.651
1499.55	183.854
1503.07	262.469
1506.59	324.71
1510.11	220.42
1513.63	274.082
1517.14	110.257
1520.66	191.869
