Measurement: Raman, 514 nm, ccw, Raman Data Processed
Mineral: Bustamite
Rruff sample: R040014
Ideal chemistry: CaMn^2+^Si_2_O_6_
Locality: Broken Hill, New South Wales, Australia
Source: University of Arizona Mineral Museum
Description: Orange fragment
Measured chemistry: (Ca_0.90_Mn_0.10_)_Σ=1_(Mn^2+^_0.78_Fe^2+^_0.19_Fe^3+^_0.02_Mg_0.01_)_Σ=1_(Si_1.98_Fe^3+^_0.02_)_Σ=2_O_6_
Pin_id: L00174
Orientation: Laser parallel to (-1 0 -1). Fiducial mark perpendicular to laser is parallel to -b [0 -1 0]
Raman shift (cm-1)	intensity
100.848	0
105.03	167.766
109.21	112.756
113.388	84.752
117.564	209.522
121.738	516.606
125.91	848.134
130.08	1224.15
134.248	1955.91
138.413	2034.29
142.577	1403.45
146.739	1029.05
150.898	941.287
155.056	909.416
159.212	696.77
163.365	475.121
167.517	375.182
171.666	460.095
175.813	365.261
179.959	195.567
184.102	93.997
188.244	59.57
192.383	94.421
196.52	45.56
200.656	13.039
204.789	18.398
208.92	78.503
213.049	8.488
217.176	9.542
221.302	33.584
225.425	68.639
229.546	146.707
233.665	261.253
237.782	446.724
241.898	527.793
246.011	557.977
250.122	415.438
254.231	275.956
258.338	141.493
262.443	139.045
266.546	163.358
270.647	194.72
274.747	337.085
278.844	538.244
282.939	822.878
287.032	1081.92
291.123	1086.97
295.212	1095.12
299.3	1335.09
303.385	1826.54
307.468	2957.58
311.549	4592.9
315.629	5006.83
319.706	3706.64
323.781	2282.84
327.855	1364.85
331.926	1064.91
335.995	828.986
340.063	609.084
344.128	415.717
348.192	269.327
352.253	142.468
356.313	98.616
360.37	7.231
364.426	20.248
368.479	27.548
372.531	11.506
376.581	60.907
380.629	154.12
384.674	250.352
388.718	470.464
392.76	766.095
396.8	948.642
400.838	1255.54
404.874	1624.29
408.908	1495.03
412.94	969.754
416.97	529.465
420.999	282.159
425.025	135.838
429.049	118.502
433.072	126.153
437.092	155.775
441.111	184.356
445.127	170.902
449.142	87.422
453.155	15.915
457.166	64.406
461.175	28.838
465.181	46.258
469.186	13.649
473.19	23.99
477.191	102.303
481.19	254.638
485.187	328.962
489.183	177.278
493.176	103.617
497.168	93.929
501.157	246.233
505.145	436.514
509.131	788.751
513.115	1036.95
517.097	913.103
521.077	456.716
525.055	202.863
529.031	83.778
533.006	63.901
536.978	3.604
540.949	25.426
544.917	30.425
548.884	20.632
552.849	2.989
556.812	83.504
560.773	123.955
564.732	212.345
568.689	482.674
572.644	817.941
576.598	1034.14
580.55	814.284
584.499	499.762
588.447	353.001
592.393	295.67
596.337	279.17
600.279	335.113
604.219	401.393
608.158	452.876
612.094	549.331
616.029	692.131
619.962	914.158
623.892	1302.35
627.821	1998.44
631.749	3440.62
635.674	6087.87
639.597	11958.3
643.519	20330.9
647.438	19322.5
651.356	11162.6
655.272	5849.46
659.186	3342.48
663.098	2008.35
667.009	1296.89
670.917	898.343
674.824	655.673
678.728	592.576
682.631	665.107
686.532	865.725
690.432	912.018
694.329	758.181
698.224	535.148
702.118	320.254
706.01	214.271
709.9	182.494
713.788	221.692
717.674	264.893
721.558	188.097
725.441	119.216
729.322	175.249
733.201	140.199
737.078	64.066
740.953	76.844
744.826	34.702
748.698	18.136
752.567	16.639
756.435	10.948
760.301	24.329
764.165	1.488
768.028	38.48
771.888	53.328
775.747	0.929
779.604	7.645
783.459	6.93
787.312	29.636
791.164	40.444
795.013	26.626
798.861	39.139
802.707	26.767
806.551	8.263
810.394	10.653
814.234	8.912
818.073	3.091
821.91	16.784
825.745	29.264
829.578	10.735
833.41	7.798
837.24	0.941
841.068	3.9
844.894	33.685
848.718	16.553
852.54	15.214
856.361	61.037
860.18	43.9
863.997	115.784
867.812	188.661
871.626	220.534
875.438	331.442
879.248	486.36
883.056	609.297
886.862	881.232
890.667	1053.18
894.469	1123.87
898.27	942.557
902.07	703.832
905.867	617.342
909.663	446.735
913.457	490.054
917.249	546.309
921.039	517.65
924.827	581.585
928.614	698.232
932.399	835.384
936.182	999.389
939.964	1094.56
943.744	1038.67
947.521	1133.6
951.298	1357.52
955.072	1968.18
958.845	3106.18
962.615	5442.6
966.384	11064.8
970.152	23688.1
973.917	33570.8
977.681	22114.4
981.443	11087.6
985.203	6220.83
988.962	4332.22
992.719	3537.02
996.474	3165.1
1000.23	3046.59
1003.98	2811.48
1007.73	2173.72
1011.48	1823.07
1015.22	1775.48
1018.97	1928.53
1022.71	2461.47
1026.45	3106.5
1030.19	3149.58
1033.93	3773.53
1037.66	5392.05
1041.4	5020.79
1045.13	3044.04
1048.86	1776.42
1052.59	1131.55
1056.32	775.676
1060.04	552.745
1063.77	458.05
1067.49	412.892
1071.21	323.512
1074.93	291.106
1078.64	349.84
1082.36	327.766
1086.07	274.766
1089.78	242.289
1093.49	199.816
1097.2	152.029
1100.91	90.246
1104.61	64.5
1108.32	126.786
1112.02	127.146
1115.72	116.289
1119.41	168.374
1123.11	224.448
1126.8	82.613
1130.5	105.187
1134.19	64.093
1137.88	87.489
1141.56	159.606
1145.25	102.793
1148.93	117.673
1152.62	29.936
1156.3	19.186
1159.98	42.294
1163.65	1.811
1167.33	39.415
1171	95.395
1174.68	37.102
1178.35	38.296
1182.02	27.701
1185.68	65.425
1189.35	73.566
1193.01	13.127
1196.67	48.125
1200.33	18.805
1203.99	52.692
1207.65	42.692
1211.31	0.116
1214.96	10.057
1218.61	28.166
1222.26	58.644
1225.91	46.38
1229.56	0.495
1233.2	48.611
1236.85	91.842
1240.49	36.411
1244.13	60.354
1247.77	60.498
1251.4	22.83
1255.04	60.404
1258.67	153.179
1262.3	138.167
1265.93	96.025
1269.56	67.749
1273.19	29.673
1276.82	36.784
1280.44	22.023
1284.06	115.157
1287.68	139.03
1291.3	187.896
1294.92	115.416
1298.53	61.585
1302.14	61.602
1305.76	87.406
1309.37	5.729
1312.98	50.54
1316.58	134.177
1320.19	59.64
1323.79	61.946
1327.39	93.952
1330.99	94.232
1334.59	43.42
1338.19	25.249
1341.79	12.965
1345.38	27.467
1348.97	28.569
1352.56	52.106
1356.15	142.15
1359.74	107.244
1363.32	181.938
1366.91	66.721
1370.49	13.16
1374.07	11.983
1377.65	25.242
1381.23	8.762
1384.8	80.051
1388.38	82.271
1391.95	120.199
1395.52	178.476
1399.09	187.405
1402.66	144.871
1406.22	112.69
1409.79	120.585
1413.35	25.551
1416.91	4.056
1420.47	50.204
1424.03	99.305
1427.59	107.466
1431.14	184.692
1434.69	171.739
1438.24	312.697
1441.8	130.955
1445.34	84.495
1448.89	96.083
1452.43	103.367
1455.98	154.099
1459.52	60.175
1463.06	102.162
1466.6	191.709
1470.14	242.638
1473.67	330.142
1477.2	215.162
1480.74	209.643
1484.27	124.553
1487.8	148.102
1491.32	83.798
1494.85	0.804
1498.37	6.255
1501.9	49.589
1505.42	7.721
1508.94	24.659
1512.45	45.465
1515.97	163.562
1519.49	105.729
