Measurement: Raman, 514 nm, ccw, Raman Data Processed
Mineral: Bustamite
Rruff sample: R040014
Ideal chemistry: CaMn^2+^Si_2_O_6_
Locality: Broken Hill, New South Wales, Australia
Source: University of Arizona Mineral Museum
Description: Orange fragment
Measured chemistry: (Ca_0.90_Mn_0.10_)_Σ=1_(Mn^2+^_0.78_Fe^2+^_0.19_Fe^3+^_0.02_Mg_0.01_)_Σ=1_(Si_1.98_Fe^3+^_0.02_)_Σ=2_O_6_
Pin_id: M00370
Orientation: Laser parallel to b* (0 1 0). Fiducial mark perpendicular to laser is parallel to c [0 0 1]
Raman shift (cm-1)	intensity
92.678	0
96.858	47.16
101.036	189.28
105.212	434.299
109.387	873.662
113.559	1375.94
117.729	687.864
121.897	756.31
126.063	1074.64
130.228	1510.72
134.39	2204.55
138.55	2423.52
142.709	1692.54
146.865	1220.13
151.019	1002.07
155.171	968.008
159.322	902
163.47	731.624
167.617	645.006
171.761	830.052
175.904	618.668
180.044	327.552
184.183	138.652
188.319	147.616
192.454	68.018
196.586	67.894
200.717	25.794
204.846	4.193
208.972	53.123
213.097	45.654
217.22	14.399
221.341	1.652
225.46	27.207
229.577	65.452
233.692	130.92
237.805	259.529
241.916	323.713
246.025	432.514
250.132	337.256
254.237	149.952
258.34	86.215
262.442	42.059
266.541	140.878
270.639	156.583
274.734	285.237
278.828	563.195
282.919	869.708
287.009	1055.21
291.097	1169.12
295.183	1156.26
299.266	1233.44
303.348	1778.99
307.428	2885.84
311.507	4237.28
315.583	4725.23
319.657	3749.01
323.729	2379.83
327.8	1735.24
331.868	1328.58
335.935	1183.87
339.999	916.106
344.062	603.247
348.123	327.012
352.182	284.368
356.239	133.159
360.294	152.719
364.347	162.362
368.398	46.232
372.448	95.243
376.495	85.523
380.54	122.717
384.584	286.434
388.626	560.389
392.666	780.631
396.704	975.334
400.74	1127.17
404.774	1529.04
408.806	1369.87
412.836	914.667
416.865	491.315
420.891	235.564
424.916	127.581
428.939	7.16
432.959	92.413
436.978	115.48
440.996	117.604
445.011	121.697
449.024	39.266
453.036	12.563
457.045	33.715
461.053	34.183
465.059	38.892
469.063	36.843
473.065	94.078
477.065	349.952
481.063	761.832
485.06	909.669
489.054	489.495
493.047	283.323
497.038	185.109
501.027	309.874
505.014	661.576
508.999	1032.21
512.982	1199.79
516.964	1044.06
520.944	525.878
524.921	295.212
528.897	166.159
532.871	64.241
536.844	40.683
540.814	49.077
544.783	67.84
548.749	21.713
552.714	11.448
556.677	90.312
560.638	132.004
564.597	220.625
568.555	459.175
572.511	756.651
576.464	950.055
580.416	798.584
584.366	575.096
588.315	443.927
592.261	412.066
596.206	428.771
600.148	487.322
604.089	589.001
608.028	741.365
611.965	882.942
615.901	1105.07
619.834	1543.66
623.766	2114.9
627.696	3164.92
631.624	5318.14
635.551	9866.52
639.475	18605.8
643.398	31229
647.318	30194.8
651.237	18095.2
655.155	9837.72
659.07	5577.17
662.984	3283.9
666.895	2069.69
670.805	1323.23
674.713	1103.32
678.62	791.7
682.524	652.697
686.427	671.469
690.328	791.591
694.227	638.294
698.124	441.973
702.02	293.648
705.913	193.45
709.805	151.866
713.695	227.663
717.584	155.208
721.47	188.664
725.355	182.032
729.238	139.315
733.119	52.514
736.998	47.627
740.876	33.655
744.752	18.787
748.626	16.443
752.498	30.845
756.368	39.386
760.237	11.787
764.104	13.815
767.969	84.197
771.832	4.588
775.693	5.698
779.553	57.961
783.411	17.529
787.267	28.057
791.122	38.129
794.974	49.844
798.825	34.966
802.674	25.729
806.522	4.707
810.367	5.26
814.211	26.081
818.053	98.383
821.893	49.649
825.732	100.88
829.568	5.071
833.403	36.23
837.236	39.353
841.068	124.443
844.898	106.506
848.726	121.568
852.552	152.638
856.376	154.708
860.199	229.792
864.02	160.888
867.839	303.086
871.656	433.327
875.472	488.579
879.286	815.848
883.098	1218.16
886.909	1664.46
890.717	2035.71
894.524	1959.95
898.33	1656.06
902.133	1346.02
905.935	1085.07
909.735	954.813
913.533	836.001
917.33	777.289
921.124	811.958
924.918	1029.37
928.709	1102.48
932.499	1319.44
936.286	1485.25
940.073	1580.08
943.857	1469.49
947.64	1825.43
951.421	2119.93
955.2	3041.3
958.978	4805.3
962.753	8547.54
966.527	16743.3
970.3	35089.4
974.071	50815.4
977.84	35821.7
981.607	18307.5
985.372	10384.1
989.136	6850.08
992.898	5316.32
996.659	4843.23
1000.42	4681.14
1004.17	4169.15
1007.93	3166.34
1011.68	2463.62
1015.43	2106.66
1019.18	2278.21
1022.93	2936.18
1026.68	3653.97
1030.42	3283.93
1034.17	3346.04
1037.91	4167.94
1041.65	4210.56
1045.39	2726.44
1049.12	1571.58
1052.86	1072.04
1056.59	753.801
1060.33	634.778
1064.06	510.784
1067.78	414.923
1071.51	322.236
1075.23	324.522
1078.96	396.92
1082.68	351.657
1086.4	287.587
1090.12	240.765
1093.83	185.458
1097.55	164.975
1101.26	144.711
1104.97	241.231
1108.68	150.924
1112.39	153.259
1116.1	97.793
1119.8	156.521
1123.5	148.878
1127.2	55.658
1130.9	62.112
1134.6	168.893
1138.3	159.931
1141.99	115.765
1145.69	29.076
1149.38	27.803
1153.07	41.461
1156.76	79.124
1160.44	46.581
1164.13	131.979
1167.81	55.092
1171.49	37.479
1175.17	14.926
1178.85	12.401
1182.52	56.018
1186.2	3.903
1189.87	50.686
1193.54	3.046
1197.21	110.577
1200.88	61.631
1204.55	6.588
1208.21	98.414
1211.88	92.731
1215.54	61.131
1219.2	85.726
1222.86	115.705
1226.51	93.78
1230.17	24.642
1233.82	77.943
1237.47	45.32
1241.12	12.82
1244.77	76.451
1248.42	147.147
1252.06	203.964
1255.71	134.607
1259.35	109.804
1262.99	137.212
1266.63	13.745
1270.26	62.288
1273.9	37.879
1277.53	169.559
1281.16	170.425
1284.8	126.235
1288.42	135.724
1292.05	181.939
1295.68	154.848
1299.3	92.396
1302.92	151.81
1306.55	37.018
1310.16	12.347
1313.78	141.041
1317.4	103.231
1321.01	114.768
1324.62	64.66
1328.24	92.842
1331.85	30.271
1335.45	12.846
1339.06	59.956
1342.66	55.039
1346.27	75.041
1349.87	44.2
1353.47	114.295
1357.07	144.412
1360.66	114.402
1364.26	144.139
1367.85	4.279
1371.44	24.152
1375.04	33.063
1378.62	162.499
1382.21	170.672
1385.8	151.188
1389.38	328.51
1392.96	179.958
1396.54	164.687
1400.12	94.646
1403.7	61.478
1407.28	36.318
1410.85	14.523
1414.42	104.665
1417.99	80.248
1421.56	225.967
1425.13	330.797
1428.7	224.081
1432.26	99.337
1435.83	155.631
1439.39	201.561
1442.95	287.857
1446.51	193.686
1450.06	217.685
1453.62	200.73
1457.17	286.32
1460.73	381.367
1464.28	385.326
1467.83	395.482
1471.37	328.479
1474.92	331.156
1478.46	84.142
1482.01	208.753
1485.55	203.361
1489.09	107.999
1492.63	122.541
1496.16	187.995
1499.7	154.967
1503.23	233.15
1506.76	322.656
1510.29	264.391
1513.82	253.039
1517.35	227.073
1520.88	124.769
