Measurement: Raman, 514 nm, depolarized, Raman Data Processed
Mineral: Bustamite
Rruff sample: R040014
Ideal chemistry: CaMn^2+^Si_2_O_6_
Locality: Broken Hill, New South Wales, Australia
Source: University of Arizona Mineral Museum
Description: Orange fragment
Measured chemistry: (Ca_0.90_Mn_0.10_)_Σ=1_(Mn^2+^_0.78_Fe^2+^_0.19_Fe^3+^_0.02_Mg_0.01_)_Σ=1_(Si_1.98_Fe^3+^_0.02_)_Σ=2_O_6_
Pin_id: M00138
Orientation: Laser parallel to c* (0 0 1). Fiducial mark perpendicular to laser is parallel to -a [-1 0 0]
Raman shift (cm-1)	intensity
91.284	0
95.465	53.948
99.644	324.586
103.82	589.61
107.995	1218.07
112.168	1746.12
116.339	975.044
120.508	1737.79
124.675	3563.19
128.84	3647.43
133.003	3408
137.164	3396.13
141.323	2485.83
145.48	1641.33
149.635	1335.4
153.788	1297.08
157.939	1189.04
162.088	806.928
166.235	457.592
170.38	474.96
174.523	433.971
178.664	278.365
182.803	90.38
186.94	65.086
191.076	7.441
195.209	20.378
199.34	38.173
203.47	66.093
207.597	89.723
211.722	45.166
215.846	40.426
219.967	31.471
224.087	81.667
228.204	220.928
232.32	346.811
236.434	546.34
240.545	776.252
244.655	973.601
248.763	1033.23
252.869	813.997
256.973	540.579
261.075	362.042
265.175	233.027
269.273	230.03
273.369	266.36
277.463	382.076
281.556	455.016
285.646	512.074
289.734	472.035
293.821	581.861
297.905	697.194
301.988	1021.89
306.069	1627.92
310.147	2784.26
314.224	4160.08
318.299	4138.9
322.372	2669.46
326.443	1672.14
330.512	1498.96
334.579	1580.9
338.645	1317.95
342.708	976.088
346.769	699.343
350.829	465.685
354.887	268.042
358.942	188.531
362.996	165.094
367.048	135.58
371.098	92.603
375.146	136.555
379.192	185.243
383.236	324.987
387.279	503.402
391.319	968.225
395.358	1884.87
399.394	4042.88
403.429	7015.78
407.462	8046.71
411.493	5654.65
415.522	3092.59
419.549	1571.55
423.575	876.559
427.598	540.58
431.619	336.591
435.639	245.612
439.657	157.659
443.673	139.688
447.687	95.693
451.699	31.658
455.709	3.422
459.717	79.456
463.724	38.307
467.728	16.852
471.731	52.884
475.732	173.583
479.731	601.339
483.728	867.137
487.723	470.983
491.716	155.807
495.708	92.614
499.697	42.415
503.685	59.162
507.671	207.86
511.655	304.516
515.637	304.136
519.617	147.707
523.596	85.26
527.572	37.882
531.547	10.613
535.52	19.683
539.491	31.12
543.46	80.769
547.427	25.71
551.393	3.879
555.356	40.78
559.318	72.349
563.278	191.844
567.236	384.265
571.192	628.61
575.147	898.878
579.099	828.067
583.05	616.213
586.999	481.428
590.946	325.94
594.891	313.801
598.834	331.637
602.776	445.758
606.715	594.722
610.653	652.234
614.589	818.881
618.523	1044.38
622.456	1451.42
626.386	2220.85
630.315	3453.02
634.242	5976.86
638.167	11759.1
642.09	21488.5
646.012	26371
649.931	17612.5
653.849	9216.65
657.765	5237.05
661.679	3058.26
665.592	2013.62
669.502	1370.48
673.411	999.352
677.318	804.161
681.223	765.968
685.126	872.131
689.028	891.344
692.927	714.006
696.825	466.8
700.721	320.306
704.616	244.028
708.508	164.301
712.399	186.735
716.288	194.491
720.175	197.161
724.06	179.748
727.944	149.254
731.825	136.679
735.705	85.025
739.584	35.294
743.46	36.484
747.334	4.411
751.207	12.499
755.078	4.745
758.947	6.101
762.815	45.437
766.68	22.912
770.544	18.315
774.406	9.366
778.267	48.165
782.125	25.118
785.982	14.166
789.837	72.369
793.69	29.801
797.542	2.58
801.391	14.35
805.239	12.956
809.085	19.836
812.93	25.206
816.772	7.762
820.613	1.236
824.452	57.2
828.29	54.134
832.125	35.052
835.959	1.104
839.791	39.853
843.621	15.775
847.45	59.822
851.277	90.981
855.102	97.268
858.925	89.666
862.746	137.142
866.566	194.67
870.384	336.227
874.2	474.805
878.015	715.405
881.828	1025.03
885.639	1499.71
889.448	1813.44
893.256	1789.15
897.061	1459.86
900.865	1120.02
904.668	824.578
908.468	692.157
912.267	610.882
916.064	669.991
919.86	679.292
923.653	629.902
927.445	720.154
931.236	881.544
935.024	968.552
938.811	1079.76
942.596	1158.16
946.379	1244.44
950.161	1555.86
953.94	2191.23
957.719	3330.73
961.495	5890.99
965.27	11209.4
969.043	24028.6
972.814	41608.2
976.583	36367.1
980.351	19626.9
984.117	10456.7
987.882	6886.57
991.644	5372.65
995.405	4762.82
999.165	4689.07
1002.92	4913.42
1006.68	4191.86
1010.43	3266.39
1014.18	2645
1017.93	2380.5
1021.68	2576.29
1025.43	3115.53
1029.18	3128.47
1032.92	3103.2
1036.66	4176.69
1040.4	4494.97
1044.14	3230.3
1047.88	1813.76
1051.62	1095.74
1055.35	851.148
1059.08	580.456
1062.81	461.155
1066.54	412.967
1070.27	328.925
1073.99	321.236
1077.72	277.299
1081.44	294.655
1085.16	309.772
1088.88	228.182
1092.59	204.055
1096.31	116.047
1100.02	102.402
1103.73	70.24
1107.44	162.31
1111.15	132.41
1114.86	125.719
1118.57	139.84
1122.27	110.475
1125.97	128.5
1129.67	76.502
1133.37	40.676
1137.07	133.766
1140.76	83.798
1144.45	154.895
1148.15	86.919
1151.84	15.277
1155.53	16.427
1159.21	14.523
1162.9	80.569
1166.58	52.824
1170.26	10.614
1173.94	69.26
1177.62	24.341
1181.3	0.372
1184.97	40.645
1188.65	22.742
1192.32	6.596
1195.99	47.935
1199.66	8.054
1203.33	26.199
1206.99	6.52
1210.65	51.598
1214.32	10.795
1217.98	20.305
1221.64	28.738
1225.29	33.39
1228.95	112.729
1232.6	47.899
1236.26	19.908
1239.91	20.733
1243.56	22.51
1247.2	1.154
1250.85	31.848
1254.49	77.285
1258.13	54.07
1261.78	128.353
1265.41	31.672
1269.05	58.867
1272.69	68.834
1276.32	49.777
1279.95	109.843
1283.59	86.697
1287.21	114.275
1290.84	169.619
1294.47	133.78
1298.09	169.823
1301.72	85.752
1305.34	66.571
1308.96	36.285
1312.58	25.089
1316.19	92.284
1319.81	85.62
1323.42	89.912
1327.03	70.344
1330.64	87.751
1334.25	86.46
1337.86	7.467
1341.46	37.943
1345.07	41.251
1348.67	35.639
1352.27	75.263
1355.87	38.991
1359.46	37.693
1363.06	80.946
1366.65	45.672
1370.25	56.724
1373.84	58.177
1377.43	38.208
1381.02	66.709
1384.6	76.175
1388.18	61.588
1391.77	138.109
1395.35	149.14
1398.93	86.603
1402.51	121.794
1406.08	71.731
1409.66	22.548
1413.23	45.505
1416.8	28.627
1420.37	12.227
1423.94	10.278
1427.51	88.624
1431.08	128.642
1434.64	155.906
1438.2	166.658
1441.76	220.815
1445.32	184.32
1448.88	169.12
1452.43	126.389
1455.99	176.045
1459.54	133.462
1463.09	139.763
1466.64	164.3
1470.19	224.917
1473.74	209.056
1477.28	192.887
1480.83	169.568
1484.37	145.732
1487.91	125.935
1491.45	94.07
1494.98	108.13
1498.52	13.276
1502.05	0.648
1505.59	79.147
1509.12	23.51
1512.65	165.941
1516.17	163.671
1519.7	189.315
1523.23	122.612
