Measurement: Raman, 514 nm, ccw, Raman Data Processed
Mineral: Bustamite
Rruff sample: R040014
Ideal chemistry: CaMn^2+^Si_2_O_6_
Locality: Broken Hill, New South Wales, Australia
Source: University of Arizona Mineral Museum
Description: Orange fragment
Measured chemistry: (Ca_0.90_Mn_0.10_)_Σ=1_(Mn^2+^_0.78_Fe^2+^_0.19_Fe^3+^_0.02_Mg_0.01_)_Σ=1_(Si_1.98_Fe^3+^_0.02_)_Σ=2_O_6_
Pin_id: M00115
Orientation: Laser parallel to (-1 -1 0). Fiducial mark perpendicular to laser is parallel to c [0 0 1]
Raman shift (cm-1)	intensity
116.339	0
120.508	1125.93
124.675	4166.42
128.84	2935.79
133.003	1017.07
137.164	344.831
141.323	21.216
145.48	8.06
149.635	271.945
153.788	424.813
157.939	296.241
162.088	153.821
166.235	216.343
170.38	375.547
174.523	360.452
178.664	146.051
182.803	49.443
186.94	45.412
191.076	115.254
195.209	126.138
199.34	22.514
203.47	33.443
207.597	79.31
211.722	71.651
215.846	55.052
219.967	26.98
224.087	10.143
228.204	77.871
232.32	199.029
236.434	287.211
240.545	485.795
244.655	464.481
248.763	425.719
252.869	278.835
256.973	236.483
261.075	206.076
265.175	195.699
269.273	281.318
273.369	357.865
277.463	550.362
281.556	594.113
285.646	554.458
289.734	475.154
293.821	525.636
297.905	632.261
301.988	825.886
306.069	1329.34
310.147	2076.85
314.224	3031.65
318.299	3196.95
322.372	2339.75
326.443	1970.54
330.512	2208.87
334.579	2395.66
338.645	2144.64
342.708	1560.1
346.769	1149.37
350.829	869.695
354.887	655.609
358.942	523.204
362.996	496.117
367.048	480.978
371.098	445.749
375.146	493.563
379.192	610
383.236	853.035
387.279	1147.69
391.319	1895.35
395.358	3629.53
399.394	7395.21
403.429	12418.3
407.462	13417.2
411.493	9206.1
415.522	5086.25
419.549	2825.39
423.575	1593.1
427.598	968.001
431.619	645.354
435.639	453.973
439.657	320.765
443.673	258.521
447.687	263.023
451.699	224.249
455.709	262.189
459.717	360.876
463.724	292.329
467.728	236.56
471.731	243.652
475.732	431.591
479.731	912.408
483.728	1355.13
487.723	788.758
491.716	335.36
495.708	126.971
499.697	66.579
503.685	14.171
507.671	48.8
511.655	70.53
515.637	78.311
519.617	16.099
523.596	45.103
527.572	41.278
531.547	38.368
535.52	35.29
539.491	9.923
543.46	32.715
547.427	64.71
551.393	8.177
555.356	57.616
559.318	58.016
563.278	99.366
567.236	194.665
571.192	246.915
575.147	245.121
579.099	253.294
583.05	185.442
586.999	217.956
590.946	210.312
594.891	264.555
598.834	270.159
602.776	409.861
606.715	550.142
610.653	668.707
614.589	900.635
618.523	1180.91
622.456	1696.34
626.386	2559.21
630.315	4249.09
634.242	7621.86
638.167	14871.9
642.09	27221.9
646.012	32930.1
649.931	21728.8
653.849	11448.4
657.765	6440.17
661.679	3945.12
665.592	2621.4
669.502	1919.03
673.411	1364.93
677.318	1200.08
681.223	1266.64
685.126	1432.08
689.028	1529.03
692.927	1097.19
696.825	610.116
700.721	332.67
704.616	233.345
708.508	195.909
712.399	152.101
716.288	191.075
720.175	202.185
724.06	145.458
727.944	133.677
731.825	83.845
735.705	93.961
739.584	41.027
743.46	24.041
747.334	49.993
751.207	0.893
755.078	5.729
758.947	20.498
762.815	8.851
766.68	12.359
770.544	35.994
774.406	9.657
778.267	22.712
782.125	38.763
785.982	2.983
789.837	59.36
793.69	21.866
797.542	8.52
801.391	10.171
805.239	13.96
809.085	15.144
812.93	13.797
816.772	31.238
820.613	73.273
824.452	3.694
828.29	56.331
832.125	72.358
835.959	26.405
839.791	75.524
843.621	62.736
847.45	123.021
851.277	115.382
855.102	139.794
858.925	180.258
862.746	262.746
866.566	355.267
870.384	600.835
874.2	983.458
878.015	1427.1
881.828	2121.77
885.639	2909.47
889.448	3359.22
893.256	3042.05
897.061	2180.51
900.865	1499.27
904.668	1212.58
908.468	954.356
912.267	881.276
916.064	884.865
919.86	913.245
923.653	968.488
927.445	1025.56
931.236	1120.56
935.024	1227.94
938.811	1330.9
942.596	1445.64
946.379	1667.35
950.161	2004.19
953.94	2868.65
957.719	4376.31
961.495	7467.01
965.27	14381.6
969.043	30657
972.814	52372.5
976.583	44418
980.351	23293.6
984.117	11869.4
987.882	7233.18
991.644	4998.08
995.405	3715.06
999.165	3214.13
1002.92	3069.27
1006.68	2857.49
1010.43	2154.78
1014.18	1553.16
1017.93	1236
1021.68	1051.39
1025.43	1022.99
1029.18	916.79
1032.92	950.708
1036.66	1049.57
1040.4	1068.95
1044.14	815.762
1047.88	536.931
1051.62	398.599
1055.35	355.941
1059.08	292.318
1062.81	228.739
1066.54	255.314
1070.27	200.415
1073.99	230.561
1077.72	240.431
1081.44	282.613
1085.16	304.89
1088.88	259.337
1092.59	201.608
1096.31	104.88
1100.02	107.52
1103.73	95.181
1107.44	134.265
1111.15	104.059
1114.86	135.782
1118.57	134.944
1122.27	84.652
1125.97	113.44
1129.67	100.115
1133.37	137.756
1137.07	64.404
1140.76	80.133
1144.45	79.786
1148.15	49.441
1151.84	60.093
1155.53	26.74
1159.21	12.855
1162.9	35.01
1166.58	4.615
1170.26	22.139
1173.94	1.609
1177.62	9.153
1181.3	1.428
1184.97	25.846
1188.65	42.241
1192.32	9.19
1195.99	15.298
1199.66	6.204
1203.33	27.612
1206.99	29.251
1210.65	8.112
1214.32	10.779
1217.98	14.324
1221.64	25.795
1225.29	12.388
1228.95	26.854
1232.6	36.136
1236.26	3.274
1239.91	9.254
1243.56	7.082
1247.2	24.051
1250.85	22.227
1254.49	0.124
1258.13	4.33
1261.78	28.746
1265.41	68.201
1269.05	26.417
1272.69	46.561
1276.32	58.807
1279.95	89.828
1283.59	84.75
1287.21	96.596
1290.84	96.403
1294.47	82.077
1298.09	110.655
1301.72	91.148
1305.34	127.559
1308.96	105.889
1312.58	86.752
1316.19	82.065
1319.81	107.1
1323.42	91.909
1327.03	57.525
1330.64	38.844
1334.25	22.943
1337.86	43.258
1341.46	63.661
1345.07	11.52
1348.67	28.885
1352.27	7.029
1355.87	52.071
1359.46	47.143
1363.06	59.876
1366.65	34.558
1370.25	12.448
1373.84	28.284
1377.43	29.058
1381.02	34.042
1384.6	49.538
1388.18	47.597
1391.77	86.116
1395.35	72.45
1398.93	69.267
1402.51	88.192
1406.08	10.93
1409.66	46.61
1413.23	63.14
1416.8	57.518
1420.37	38.805
1423.94	74.906
1427.51	42.715
1431.08	68.909
1434.64	81.059
1438.2	93.518
1441.76	131.549
1445.32	135.601
1448.88	59.939
1452.43	90.797
1455.99	110.115
1459.54	78.572
1463.09	84.616
1466.64	140.822
1470.19	141.753
1473.74	106.046
1477.28	146.797
1480.83	101.411
1484.37	111.3
1487.91	103.231
1491.45	99.115
1494.98	44.718
1498.52	34.739
1502.05	21.171
1505.59	62.17
1509.12	46.02
1512.65	79.016
1516.17	100.716
1519.7	68.632
1523.23	0
