Measurement: Raman, 514 nm, ccw, Raman Data Processed
Mineral: Calcite
Rruff sample: R040070
Ideal chemistry: CaCO_3_
Locality: Pryor Mountain, Big Horn County, Montana, USA
Source: University of Arizona Mineral Museum
Description: Orange scalenohedral crystals
Measured chemistry: (Ca_0.99_Mg_0.01_)CO_3_
Pin_id: M00039
Orientation: Laser parallel to -c* (0 0 -1). Fiducial mark perpendicular to laser is parallel to a [1 0 0]
Raman shift (cm-1)	intensity
94.768	0
98.947	27.464
103.124	38.634
107.3	59.276
111.473	155.337
115.644	163.72
119.813	94.366
123.981	21.291
128.146	37.61
132.309	39.629
136.47	44.469
140.63	78.869
144.787	166.644
148.942	471.903
153.096	1092.25
157.247	907.182
161.396	372.839
165.544	172.342
169.689	30.281
173.833	58.237
177.974	41.311
182.114	5.619
186.251	2.064
190.387	35.617
194.52	8.709
198.652	8.978
202.782	25.374
206.909	5.217
211.035	14.906
215.159	7.614
219.281	37.868
223.4	19.649
227.518	32.544
231.634	39.479
235.748	64.153
239.86	76.785
243.97	66.979
248.079	91.142
252.185	113.289
256.289	146.479
260.391	230.848
264.492	323.708
268.59	485.239
272.687	822.26
276.781	1589.59
280.874	2263.01
284.964	1651.9
289.053	840.369
293.14	435.66
297.225	264.473
301.308	160.733
305.389	174.928
309.468	111.639
313.545	90.315
317.62	67.67
321.693	80.793
325.765	54.841
329.834	68.917
333.902	91.183
337.967	105.182
342.031	115.032
346.093	42.299
350.153	58.704
354.21	58.849
358.267	80.868
362.321	60.556
366.373	27.123
370.423	26.339
374.471	116.478
378.518	32.687
382.563	87.933
386.605	52.389
390.646	63.596
394.685	56.715
398.722	39.801
402.757	45.825
406.79	16.519
410.821	15.128
414.851	36.832
418.878	13.494
422.904	16.704
426.927	23.058
430.949	6.891
434.969	28.048
438.987	18.792
443.003	7.333
447.018	3.63
451.03	5.118
455.041	28.364
459.049	28.692
463.056	12.935
467.061	73.096
471.064	12.191
475.065	42.244
479.064	62.224
483.062	54.139
487.057	51.957
491.051	32.519
495.043	42.203
499.032	38.682
503.02	24.214
507.007	64.662
510.991	81.785
514.973	44.561
518.954	91
522.933	51.27
526.91	34.552
530.885	65.972
534.858	83.387
538.829	66.697
542.799	66.41
546.766	31.959
550.732	56.5
554.696	34.925
558.658	77.28
562.618	66.514
566.576	89.413
570.533	53.419
574.488	38.184
578.44	77.969
582.391	77.366
586.341	112.065
590.288	60.203
594.233	106.076
598.177	106.417
602.119	48.438
606.059	74.118
609.997	105.902
613.933	106.309
617.868	161.279
621.801	223.971
625.731	221.474
629.66	167.429
633.588	153.248
637.513	159.452
641.437	156.862
645.358	208.936
649.278	184.777
653.196	226.489
657.113	150.701
661.027	51.449
664.94	30.632
668.851	33.209
672.76	17.322
676.667	42.232
680.572	41.308
684.476	10.839
688.378	10.015
692.278	30.027
696.176	93.92
700.072	114.706
703.967	209.382
707.86	872.181
711.751	3996.56
715.64	1358.27
719.527	299.807
723.413	131.549
727.297	98.384
731.179	28.654
735.059	45.157
738.937	51.678
742.814	29.278
746.689	15.835
750.562	24.348
754.433	2.211
758.303	59.122
762.17	54.466
766.036	70.803
769.901	17.017
773.763	28.245
777.624	41.425
781.482	22.435
785.339	33.607
789.195	28.55
793.048	9.447
796.9	48.307
800.75	27.134
804.598	23.74
808.445	10.299
812.289	9.416
816.132	40.089
819.973	10.653
823.813	51.604
827.65	62.288
831.486	72.674
835.32	89.37
839.152	112.916
842.983	116.812
846.812	121.778
850.639	171.814
854.464	202.239
858.288	204.752
862.11	252.913
865.93	210.84
869.748	102.375
873.564	57.904
877.379	142.428
881.192	139.784
885.004	108.415
888.813	80.854
892.621	106.217
896.427	93.324
900.232	135.339
904.034	109.7
907.835	132.962
911.634	113.323
915.432	78.94
919.227	34.335
923.021	51.703
926.813	95.304
930.604	80.489
934.393	68.417
938.18	55.728
941.965	51.728
945.749	66.256
949.53	75.724
953.311	84.302
957.089	76.902
960.866	24.804
964.641	0.633
968.414	21.19
972.185	3.697
975.955	17.045
979.723	4.24
983.49	14.524
987.254	34.188
991.017	34.105
994.779	53.326
998.538	129.576
1002.3	262.631
1006.05	180.269
1009.81	140.215
1013.56	83.561
1017.31	171.563
1021.06	288.345
1024.81	213.725
1028.55	228.931
1032.3	114.924
1036.04	105.748
1039.78	185.713
1043.52	160.024
1047.26	147.859
1050.99	184.533
1054.73	184.004
1058.46	221.447
1062.19	268.385
1065.92	611.62
1069.65	543.371
1073.37	678.872
1077.1	1143.06
1080.82	3363.86
1084.54	29807.3
1088.26	38304.7
1091.97	5118.5
1095.69	1184.19
1099.4	568.02
1103.12	349.776
1106.83	284.354
1110.54	258.963
1114.24	161.323
1117.95	174.785
1121.65	236.296
1125.35	157.408
1129.06	86.551
1132.75	53.996
1136.45	53.241
1140.15	22.415
1143.84	23.865
1147.53	19.88
1151.22	64.806
1154.91	76.644
1158.6	25.589
1162.28	58.295
1165.97	68.078
1169.65	26.205
1173.33	56.541
1177.01	22.209
1180.69	47.907
1184.36	73.918
1188.04	17.142
1191.71	61.918
1195.38	54.695
1199.05	59.756
1202.71	52.405
1206.38	85.056
1210.04	86.583
1213.71	14.892
1217.37	55.481
1221.03	58.028
1224.68	94.066
1228.34	84.983
1231.99	23.968
1235.65	87.653
1239.3	104.053
1242.95	120.231
1246.59	148.642
1250.24	110.667
1253.88	122.595
1257.53	155.427
1261.17	118.254
1264.81	157.982
1268.45	151.537
1272.08	226.008
1275.72	173.409
1279.35	167.715
1282.98	130.935
1286.61	77.792
1290.24	107.257
1293.87	129.414
1297.49	119.832
1301.11	127.378
1304.73	76.355
1308.36	143.033
1311.97	194.89
1315.59	125.621
1319.2	197.933
1322.82	209.341
1326.43	112.479
1330.04	143.971
1333.65	35.847
1337.26	92.663
1340.86	34.453
1344.47	31.651
1348.07	3.8
1351.67	48.047
1355.27	59.324
1358.87	46.309
1362.46	22.667
1366.06	105.748
1369.65	22.935
1373.24	88.202
1376.83	87.5
1380.42	40.13
1384	130.872
1387.59	96.178
1391.17	162.584
1394.75	104.832
1398.33	92.863
1401.91	139.871
1405.49	110.533
1409.06	126.971
1412.64	129.646
1416.21	178.856
1419.78	176.493
1423.35	148.075
1426.91	225.347
1430.48	267.303
1434.05	645.177
1437.61	1422.96
1441.17	837.362
1444.73	571.551
1448.29	556.586
1451.84	578.803
1455.4	659.139
1458.95	655.483
1462.5	505.751
1466.05	475.283
1469.6	326.862
1473.15	319.994
1476.69	262.689
1480.24	316.712
1483.78	213.197
1487.32	170.577
1490.86	143.336
1494.39	41.758
1497.93	110.233
1501.46	14.431
1505	4.008
1508.53	65.133
1512.06	131.021
1515.59	64.898
1519.11	47.707
