Measurement: Raman, 514 nm, ccw, Raman Data Processed
Mineral: Calcite
Rruff sample: R050307
Ideal chemistry: CaCO_3_
Locality: Zaire
Source: Eugene Schlepp
Description: Group of pink prismatic crystals
Measured chemistry: Ca_1.00_CO_3_
Pin_id: L01569
Orientation: Laser parallel to -c* (0 0 -1). Fiducial mark perpendicular to laser is parallel to a [1 0 0]
Raman shift (cm-1)	intensity
116.903	0
121.827	5.32568
126.749	45.8569
131.668	185.388
136.585	150.638
141.5	251.011
146.412	460.97
151.321	697.125
156.229	677.621
161.134	313.554
166.036	351.42
170.936	200.923
175.834	107.814
180.729	164.386
185.622	170.362
190.512	235.317
195.4	160.393
200.286	143.637
205.169	207.548
210.049	120.022
214.928	251.09
219.803	55.6797
224.677	178.668
229.548	223.045
234.416	130.798
239.282	196.745
244.146	245.565
249.007	253.881
253.866	370.846
258.722	332.552
263.576	494.549
268.427	854.654
273.276	1816.08
278.123	2318.44
282.967	2051.7
287.809	895.169
292.648	437.565
297.485	311.582
302.319	232.149
307.151	254.352
311.98	127.613
316.807	111.059
321.631	173.797
326.454	115.805
331.273	214.032
336.09	156.456
340.905	66.0713
345.717	94.8769
350.527	111.865
355.334	103.975
360.139	6.79688
364.941	18.7246
369.741	258.792
374.538	101.153
379.333	61.6787
384.126	112.425
388.916	160.218
393.703	37.0938
398.488	250.545
403.271	159.761
408.051	96.8936
412.828	9.22168
417.603	116.283
422.376	150.775
427.146	144.578
431.914	32.5469
436.679	143.168
441.442	5.94043
446.202	102.147
450.96	46.0898
455.715	209.073
460.467	214.15
465.218	190.189
469.965	125.385
474.711	130.74
479.454	64.1738
484.194	92.6856
488.932	161.25
493.667	152.862
498.4	105.505
503.13	168.792
507.858	23.2246
512.583	161.155
517.306	70.9209
522.026	71.749
526.744	173.421
531.459	126.245
536.172	171.371
540.882	43.4668
545.59	213.19
550.295	131.886
554.998	105.609
559.698	94.0947
564.396	29.7979
569.091	191.504
573.784	204.912
578.474	271.734
583.162	31.9492
587.847	65.834
592.529	168.833
597.209	11.5176
601.887	199.397
606.562	57.1777
611.235	156.496
615.905	133.299
620.572	122.204
625.237	238.246
629.9	130.053
634.56	225.41
639.217	55.4619
643.872	161.94
648.524	175.082
653.174	109.154
657.821	199.852
662.466	201.942
667.108	156
671.748	11.1123
676.385	178.356
681.02	189.638
685.652	91.6963
690.281	84.3106
694.908	178.432
699.533	338.121
704.155	1039.43
708.774	2621.75
713.391	1921.25
718.005	254.323
722.617	504.397
727.226	178.212
731.833	221.519
736.437	199.365
741.039	187.34
745.638	106.204
750.234	152.061
754.828	117.829
759.419	14.5566
764.008	117.838
768.595	164.334
773.178	102.832
777.759	188.463
782.338	34.5547
786.914	49.9688
791.488	125.156
796.059	52.5488
800.627	231.31
805.193	191.637
809.756	202.332
814.317	198.529
818.875	175.404
823.431	29.0605
827.984	155.443
832.534	81.3789
837.082	93.3633
841.627	271.893
846.17	46.8105
850.71	168.199
855.248	115.082
859.783	359.016
864.316	132.643
868.846	118.436
873.373	177.81
877.898	332.484
882.42	177.207
886.94	96.6914
891.457	185.744
895.971	242.244
900.483	6.00586
904.993	213.758
909.5	179.498
914.004	153.938
918.505	150.678
923.004	39.5449
927.501	150.191
931.995	203.5
936.486	174.887
940.975	78.8418
945.461	162.137
949.945	153.859
954.426	64.3438
958.904	217.818
963.38	122.848
967.853	29.8418
972.324	140.66
976.792	111.394
981.258	99.3887
985.72	250.039
990.181	60.5801
994.639	105.973
999.094	13.5176
1003.55	96.6562
1008	0.011719
1012.44	124.176
1016.89	104.522
1021.33	30.5332
1025.77	145.523
1030.21	142.348
1034.64	177.836
1039.07	61.373
1043.5	43.2578
1047.93	268.377
1052.35	137.455
1056.78	134.176
1061.19	423.594
1065.61	525.465
1070.02	649.021
1074.43	964.348
1078.84	9709.57
1083.25	33718.9
1087.65	20788.9
1092.05	1444.17
1096.45	407.006
1100.85	292.143
1105.24	304.312
1109.63	273.9
1114.02	366.773
1118.4	70.5059
1122.78	186.926
1127.16	325.475
1131.54	60.0957
1135.92	137.383
1140.29	1.28125
1144.66	137.955
1149.02	153.406
1153.39	12.3242
1157.75	11.2656
1162.11	52.3945
1166.46	221.83
1170.82	55.4316
1175.17	211.602
1179.52	8.49805
1183.86	208.102
1188.21	315.162
1192.55	120.428
1196.89	173.316
1201.22	112.117
1205.55	295.113
1209.88	120.603
1214.21	353.391
1218.54	215.342
1222.86	118.311
1227.18	69.5781
1231.5	367.107
1235.81	100.477
1240.12	2.3125
1244.43	180.008
1248.74	151.986
1253.04	177.297
1257.34	3.03125
1261.64	210.293
1265.94	195.381
1270.23	94.9805
1274.52	25.0859
1278.81	298.834
1283.1	229.803
1287.38	65.7949
1291.66	175.461
1295.94	253.586
1300.21	28.8379
1304.48	92.7363
1308.75	314.566
1313.02	286.074
1317.29	196.613
1321.55	237.791
1325.81	245.008
1330.06	78.9004
1334.32	311.1
1338.57	121.461
1342.82	117.484
1347.06	68.8867
1351.31	16.7617
1355.55	262.365
1359.79	121.07
1364.02	35.5156
1368.26	268.728
1372.49	17.4707
1376.71	166.115
1380.94	202.559
1385.16	126.361
1389.38	248.162
1393.6	382.451
1397.81	246.365
1402.02	55.2383
1406.23	292.092
1410.44	333.238
1414.64	279.547
1418.85	153.627
1423.04	327.34
1427.24	444.992
1431.43	927.775
1435.62	990.66
1439.81	261.893
1444	281.522
1448.18	230.055
1452.36	171.041
1456.54	208.023
1460.71	223.016
1464.89	285.117
1469.06	349.482
1473.22	320.147
1477.39	27.4688
1481.55	249.07
1485.71	283.781
1489.86	193.006
1494.02	62.6914
1498.17	134.514
1502.32	347.199
1506.46	324.324
1510.61	389.449
1514.75	59.3262
1518.88	375.295
1523.02	299.32
1527.15	320.367
1531.28	191.613
1535.41	208.283
1539.53	238.721
1543.66	228.758
1547.78	185.246
1551.89	281.752
1556.01	59.7207
1560.12	305.643
1564.23	172.353
1568.33	242.793
