Measurement: Raman, 514 nm, ccw, Raman Data Processed
Mineral: Calcite
Rruff sample: R050127
Ideal chemistry: CaCO_3_
Locality: Rodeo, Durango, Mexico
Source: Dave Bunk Minerals
Description: Group of colorless crystals
Measured chemistry: Ca_1.00_CO_3_
Pin_id: M00125
Orientation: Laser parallel to -c* (0 0 -1). Fiducial mark perpendicular to laser is parallel to -a [-1 0 0]
Raman shift (cm-1)	intensity
101.036	0
105.212	99.023
109.387	135.885
113.559	19.658
117.729	88.379
121.897	174.877
126.063	139.727
130.228	16.624
134.39	29.437
138.55	35.018
142.709	84.678
146.865	100.126
151.019	168.22
155.171	524.554
159.322	793.351
163.47	301.15
167.617	163.018
171.761	105.571
175.904	50.291
180.044	79.478
184.183	70.097
188.319	55.987
192.454	18.333
196.586	15.902
200.717	32.489
204.846	18.892
208.972	35.406
213.097	18.098
217.22	22.121
221.341	23.406
225.46	14.823
229.577	40.843
233.692	24.677
237.805	3.944
241.916	38.626
246.025	63.6
250.132	36.475
254.237	41.644
258.34	87.572
262.442	88.725
266.541	99.175
270.639	175.13
274.734	384.616
278.828	775.332
282.919	1398.09
287.009	1301.82
291.097	662.593
295.183	319.765
299.266	196.574
303.348	110.338
307.428	115.387
311.507	75.493
315.583	112.217
319.657	84.179
323.729	64.849
327.8	43.989
331.868	51.098
335.935	38.859
339.999	34.509
344.062	85.069
348.123	60.425
352.182	35.38
356.239	79.853
360.294	74.962
364.347	66.377
368.398	35.753
372.448	63.386
376.495	54.611
380.54	11.769
384.584	51.152
388.626	67.329
392.666	13.128
396.704	33.129
400.74	20.767
404.774	36.109
408.806	21.859
412.836	21.573
416.865	8.611
420.891	26.59
424.916	65.921
428.939	0.732
432.959	36.733
436.978	50.506
440.996	67.048
445.011	67.332
449.024	33.212
453.036	63.518
457.045	12.061
461.053	24.539
465.059	60.314
469.063	49.368
473.065	56.849
477.065	32.192
481.063	48.449
485.06	22.354
489.054	20.025
493.047	51.621
497.038	43.138
501.027	39.865
505.014	39.453
508.999	29.183
512.982	35.95
516.964	53.171
520.944	20.759
524.921	50.429
528.897	40.81
532.871	35.905
536.844	49.493
540.814	60.831
544.783	59.243
548.749	37.703
552.714	3.091
556.677	20.163
560.638	23.489
564.597	37.774
568.555	1.927
572.511	21.185
576.464	58.519
580.416	20.941
584.366	68.444
588.315	19.767
592.261	2.093
596.206	53.416
600.148	20.793
604.089	52.826
608.028	7.095
611.965	35.221
615.901	57.996
619.834	48.221
623.766	0.445
627.696	27.731
631.624	35.841
635.551	68.087
639.475	24.717
643.398	40.817
647.318	2.122
651.237	45.486
655.155	35.703
659.07	24.243
662.984	17.154
666.895	35.982
670.805	47.852
674.713	51.012
678.62	16.004
682.524	35.993
686.427	21.988
690.328	16.87
694.227	61.091
698.124	33.078
702.02	63.689
705.913	92.541
709.805	358.193
713.695	2721.05
717.584	1078.87
721.47	204.433
725.355	74.359
729.238	84.091
733.119	33.273
736.998	34.066
740.876	5.792
744.752	33.837
748.626	19.345
752.498	17.038
756.368	28.165
760.237	29.815
764.104	30.252
767.969	26.773
771.832	64.681
775.693	43.21
779.553	43.104
783.411	29.171
787.267	13.079
791.122	2.53
794.974	74.792
798.825	28.173
802.674	31.647
806.522	9.6
810.367	67.849
814.211	75.965
818.053	34.053
821.893	46.001
825.732	15.918
829.568	17.976
833.403	19.068
837.236	64.149
841.068	47.356
844.898	1.673
848.726	27.662
852.552	94.636
856.376	84.585
860.199	17.514
864.02	11.429
867.839	19.332
871.656	23.223
875.472	29.894
879.286	51.925
883.098	23.747
886.909	32.552
890.717	26.316
894.524	24.082
898.33	31.652
902.133	60.294
905.935	60.982
909.735	89.699
913.533	33.624
917.33	36.383
921.124	91.059
924.918	67.757
928.709	55.476
932.499	7.18
936.286	14.933
940.073	51.605
943.857	50.033
947.64	75.29
951.421	47.038
955.2	70.221
958.978	19.903
962.753	58.615
966.527	53.938
970.3	9.13
974.071	45.651
977.84	22.587
981.607	13.87
985.372	63.868
989.136	15.652
992.898	84.42
996.659	107.914
1000.42	17.675
1004.17	43.428
1007.93	61.51
1011.68	54.302
1015.43	99.085
1019.18	131.948
1022.93	161.941
1026.68	112.797
1030.42	65.926
1034.17	128.877
1037.91	62.572
1041.65	159.488
1045.39	136.857
1049.12	151.948
1052.86	123.712
1056.59	95.852
1060.33	49.351
1064.06	135.643
1067.78	379.809
1071.51	350.907
1075.23	379.015
1078.96	553.72
1082.68	1155.86
1086.4	10199
1090.12	30931.3
1093.83	2022.58
1097.55	626.812
1101.26	358.073
1104.97	256.345
1108.68	172.693
1112.39	96.256
1116.1	53.576
1119.8	151.256
1123.5	98.591
1127.2	130.87
1130.9	121.689
1134.6	71.115
1138.3	103.4
1141.99	93.481
1145.69	39.616
1149.38	90.496
1153.07	85.065
1156.76	83.005
1160.44	33.74
1164.13	11.579
1167.81	2.862
1171.49	16.604
1175.17	12.858
1178.85	91.189
1182.52	102.871
1186.2	70.415
1189.87	72.972
1193.54	14.345
1197.21	15.617
1200.88	35.993
1204.55	21.259
1208.21	88.419
1211.88	31.295
1215.54	71.095
1219.2	65.01
1222.86	5.101
1226.51	43.643
1230.17	53.622
1233.82	100.82
1237.47	88.973
1241.12	131.606
1244.77	108.603
1248.42	126.266
1252.06	40.873
1255.71	8.153
1259.35	87.664
1262.99	104.03
1266.63	98.377
1270.26	130.642
1273.9	59.037
1277.53	67.939
1281.16	98.264
1284.8	52.27
1288.42	2.816
1292.05	27.03
1295.68	41.818
1299.3	82.499
1302.92	78.092
1306.55	122.586
1310.16	3.058
1313.78	4.138
1317.4	20.796
1321.01	37.175
1324.62	94.727
1328.24	55.553
1331.85	138.13
1335.45	59.753
1339.06	94.271
1342.66	44.258
1346.27	34.025
1349.87	17.233
1353.47	18.457
1357.07	17.468
1360.66	26.692
1364.26	123.771
1367.85	80.177
1371.44	109.585
1375.04	60.463
1378.62	63.19
1382.21	25.917
1385.8	28.625
1389.38	18.743
1392.96	21.81
1396.54	0.297
1400.12	85.906
1403.7	87.874
1407.28	183.875
1410.85	168.025
1414.42	167.504
1417.99	157.616
1421.56	131.506
1425.13	91.787
1428.7	113.364
1432.26	159.31
1435.83	388.223
1439.39	956.285
1442.95	383.281
1446.51	222.845
1450.06	251.693
1453.62	191.407
1457.17	139.687
1460.73	86.991
1464.28	65.44
1467.83	51.909
1471.37	54.758
1474.92	57.999
1478.46	54.399
1482.01	164.735
1485.55	151.222
1489.09	183.972
1492.63	178.371
1496.16	99.242
1499.7	87.599
1503.23	23.545
1506.76	13.748
1510.29	10.206
1513.82	23.461
1517.35	27.999
1520.88	122.572
