Measurement: Raman, 514 nm, ccw, Raman Data Processed
Mineral: Calcite
Rruff sample: R050127
Ideal chemistry: CaCO_3_
Locality: Rodeo, Durango, Mexico
Source: Dave Bunk Minerals
Description: Group of colorless crystals
Measured chemistry: Ca_1.00_CO_3_
Pin_id: M00125
Orientation: Laser parallel to -c* (0 0 -1). Fiducial mark perpendicular to laser is parallel to -a [-1 0 0]
Raman shift (cm-1)	intensity
84.311	0
88.496	16.945
92.678	3.1
96.858	205.949
101.036	117.873
105.212	15.258
109.387	177.79
113.559	63.4
117.729	68.601
121.897	130.484
126.063	64.966
130.228	56.396
134.39	28.505
138.55	94.521
142.709	110.941
146.865	43.581
151.019	162.07
155.171	501.063
159.322	705.137
163.47	226.391
167.617	159.31
171.761	69.658
175.904	54.642
180.044	20.326
184.183	34.526
188.319	27.634
192.454	31.496
196.586	4.473
200.717	28.648
204.846	7.545
208.972	10.69
213.097	16.901
217.22	11.45
221.341	24.208
225.46	51.232
229.577	12.102
233.692	20.59
237.805	24.974
241.916	18.598
246.025	23.358
250.132	5.742
254.237	32.567
258.34	72.195
262.442	119.478
266.541	176.311
270.639	207.177
274.734	361.035
278.828	656.665
282.919	1128.91
287.009	1048.52
291.097	622.968
295.183	331.742
299.266	192.269
303.348	116.593
307.428	142.584
311.507	131.657
315.583	109.131
319.657	116.079
323.729	103.718
327.8	78.55
331.868	82.702
335.935	89.071
339.999	86.656
344.062	89.2
348.123	78.287
352.182	54.528
356.239	83.936
360.294	77.412
364.347	21.515
368.398	98.587
372.448	84.461
376.495	88.879
380.54	88.046
384.584	56.9
388.626	53.901
392.666	88.045
396.704	24.573
400.74	44.827
404.774	47.111
408.806	52.951
412.836	41.327
416.865	49.891
420.891	73.893
424.916	17.342
428.939	43.24
432.959	41.024
436.978	77.116
440.996	74.053
445.011	74.624
449.024	31.154
453.036	57.016
457.045	46.335
461.053	74.391
465.059	57.929
469.063	65.163
473.065	77.035
477.065	61.164
481.063	12.93
485.06	29.579
489.054	67.693
493.047	34.955
497.038	83.162
501.027	12.633
505.014	116.711
508.999	44.785
512.982	37.825
516.964	54.136
520.944	42.729
524.921	39.577
528.897	49.439
532.871	23.535
536.844	17.611
540.814	34.818
544.783	24.641
548.749	36.563
552.714	2.311
556.677	26.675
560.638	75.729
564.597	91.76
568.555	27.587
572.511	26.464
576.464	38.55
580.416	24.509
584.366	33.165
588.315	21.062
592.261	2.812
596.206	5.217
600.148	18.44
604.089	7.46
608.028	32.208
611.965	7.244
615.901	26.279
619.834	36.369
623.766	19.467
627.696	49.492
631.624	56.519
635.551	31.854
639.475	5.544
643.398	0.466
647.318	18.61
651.237	3.052
655.155	69.722
659.07	59.32
662.984	23.269
666.895	10.805
670.805	2.954
674.713	76.183
678.62	3.934
682.524	12.403
686.427	69.304
690.328	48.883
694.227	66.071
698.124	81.736
702.02	39.021
705.913	117.503
709.805	349.801
713.695	2378.03
717.584	999.212
721.47	191.124
725.355	89.533
729.238	113.931
733.119	52.108
736.998	44.403
740.876	46.72
744.752	23.101
748.626	42.188
752.498	79.294
756.368	59.411
760.237	14.6
764.104	33.765
767.969	12.523
771.832	36.55
775.693	53.639
779.553	12.028
783.411	35.118
787.267	7.26
791.122	38.971
794.974	36.774
798.825	67.633
802.674	28.781
806.522	2.398
810.367	48.156
814.211	83.739
818.053	92.528
821.893	0.143
825.732	0.09
829.568	26.254
833.403	49.147
837.236	67.954
841.068	58.55
844.898	29.113
848.726	13.727
852.552	94.246
856.376	50.831
860.199	95.402
864.02	56.961
867.839	6.49
871.656	22.03
875.472	38.553
879.286	54.057
883.098	52.551
886.909	67.037
890.717	12.48
894.524	31.894
898.33	42.275
902.133	42.669
905.935	29.537
909.735	9.874
913.533	73.174
917.33	2.449
921.124	13.829
924.918	93.193
928.709	65.41
932.499	57.656
936.286	45.029
940.073	23.273
943.857	43.33
947.64	59.682
951.421	37.818
955.2	0.215
958.978	15.613
962.753	24.122
966.527	37.328
970.3	77.714
974.071	79.006
977.84	25.996
981.607	31.234
985.372	37.99
989.136	15.975
992.898	15.561
996.659	38.787
1000.42	50.556
1004.17	65.827
1007.93	64.293
1011.68	47.759
1015.43	88.237
1019.18	138.08
1022.93	136.209
1026.68	36.357
1030.42	41.045
1034.17	121.578
1037.91	82.132
1041.65	121.976
1045.39	133.507
1049.12	132.211
1052.86	81.793
1056.59	128.762
1060.33	105.449
1064.06	170.331
1067.78	358.867
1071.51	369.716
1075.23	357.562
1078.96	593.495
1082.68	1223.1
1086.4	10446
1090.12	32156.9
1093.83	2193.9
1097.55	696.786
1101.26	377.984
1104.97	253.161
1108.68	158.327
1112.39	70.35
1116.1	132.448
1119.8	167.596
1123.5	145.554
1127.2	83.366
1130.9	59.843
1134.6	64.055
1138.3	59.011
1141.99	104.998
1145.69	3.061
1149.38	111.396
1153.07	98.568
1156.76	37.041
1160.44	77.263
1164.13	31.271
1167.81	6.774
1171.49	15.786
1175.17	90.902
1178.85	122.958
1182.52	52.012
1186.2	81.705
1189.87	42.679
1193.54	6.525
1197.21	19.485
1200.88	7.848
1204.55	45.753
1208.21	49.14
1211.88	69.21
1215.54	54.851
1219.2	35.96
1222.86	17.185
1226.51	14.226
1230.17	64.229
1233.82	128.435
1237.47	99.086
1241.12	119.158
1244.77	119.197
1248.42	62.322
1252.06	30.475
1255.71	33.426
1259.35	35.469
1262.99	158.383
1266.63	148.21
1270.26	169.988
1273.9	135.063
1277.53	151.762
1281.16	102.411
1284.8	53.956
1288.42	3.573
1292.05	128.746
1295.68	37.952
1299.3	39.053
1302.92	89.03
1306.55	71.854
1310.16	29.552
1313.78	37.115
1317.4	12.063
1321.01	19.503
1324.62	40.71
1328.24	61.983
1331.85	50.141
1335.45	133.001
1339.06	65.827
1342.66	26.616
1346.27	43.618
1349.87	48.363
1353.47	13.808
1357.07	4.448
1360.66	66.92
1364.26	43.226
1367.85	91.339
1371.44	152.955
1375.04	86.066
1378.62	77.698
1382.21	81.515
1385.8	82.068
1389.38	40.259
1392.96	30.798
1396.54	83.208
1400.12	105.466
1403.7	101.544
1407.28	169.504
1410.85	176.742
1414.42	122.856
1417.99	105.258
1421.56	124.296
1425.13	86.112
1428.7	54.817
1432.26	140.071
1435.83	308.529
1439.39	805.731
1442.95	407.66
1446.51	247.356
1450.06	206.074
1453.62	129.69
1457.17	175.44
1460.73	132.431
1464.28	117.641
1467.83	69.873
1471.37	97.772
1474.92	26.269
1478.46	49.908
1482.01	106.873
1485.55	213.527
1489.09	197.574
1492.63	152.654
1496.16	115.013
1499.7	82.93
1503.23	10.192
1506.76	56.206
1510.29	5.042
1513.82	15.544
1517.35	19.176
