Measurement: Raman, 514 nm, ccw, Raman Data Processed
Mineral: Calcite
Rruff sample: R050130
Ideal chemistry: CaCO_3_
Locality: Mexico
Source: Dave Bunk Minerals
Description: Colorless cleavage rhomb
Measured chemistry: Ca_1.00_CO_3_; trace amounts of Si (?)
Pin_id: L00286
Orientation: Laser parallel to a* (1 0 0). Fiducial mark perpendicular to laser is parallel to -c [0 0 -1]
Raman shift (cm-1)	intensity
85.455	0
89.663	11.163
93.868	22.88
98.07	48.279
102.271	74.584
106.469	133.67
110.665	136.4
114.859	155.072
119.05	173.228
123.24	175.566
127.427	169.886
131.612	157.007
135.794	160.771
139.975	176.074
144.153	199.843
148.329	299.023
152.503	801.58
156.674	889.483
160.843	322.738
165.011	188.31
169.175	120.134
173.338	122.059
177.499	97.039
181.657	91.183
185.813	83.465
189.967	78.859
194.119	61.378
198.268	53.022
202.415	50.783
206.561	74.682
210.703	58.744
214.844	80.967
218.983	56.288
223.119	46.812
227.253	54.427
231.385	60.674
235.515	78.308
239.643	63.861
243.768	53.852
247.891	62.843
252.012	84.629
256.131	109.299
260.248	150.292
264.363	163.693
268.475	289.041
272.585	471.99
276.693	897.175
280.799	1560.05
284.903	1200.51
289.005	567.102
293.104	243.826
297.201	130.64
301.296	93.942
305.389	87.926
309.48	73.984
313.569	41.162
317.655	56.543
321.74	27.11
325.822	6.002
329.902	1.567
333.98	28.265
338.056	17.03
342.129	2.807
346.201	6.329
350.27	37.887
354.337	37.577
358.402	17.221
362.465	5.128
366.526	27.56
370.585	39.261
374.642	0.982
378.696	6.725
382.748	16.96
386.799	9.068
390.847	6.852
394.893	5.261
398.936	12.482
402.978	21.385
407.018	23.194
411.055	9.01
415.091	11.83
419.124	16.661
423.155	16.512
427.184	13.426
431.211	10.694
435.236	0.576
439.259	18.72
443.28	4.603
447.298	32.21
451.315	3.299
455.329	5.087
459.341	4.921
463.352	17.992
467.36	7.91
471.366	7.013
475.37	15.934
479.372	14.885
483.371	5.155
487.369	19.785
491.365	4.447
495.358	16.555
499.35	32.391
503.339	48.323
507.326	50.155
511.311	31.984
515.295	20.807
519.276	20.567
523.255	13.301
527.232	31.139
531.207	25.369
535.179	49.135
539.15	52.914
543.119	11.321
547.086	26.658
551.05	9.62
555.013	36.912
558.973	39.568
562.932	54.121
566.888	29.739
570.842	24.343
574.795	30.223
578.745	27.353
582.693	27.92
586.639	8.827
590.583	40.364
594.525	44.842
598.465	31.343
602.403	3.734
606.339	30.715
610.273	48.143
614.205	49.536
618.135	28.512
622.063	32.922
625.989	33.265
629.912	45.595
633.834	66.091
637.754	36.212
641.671	15.782
645.587	5.946
649.501	36.377
653.412	51.043
657.322	30.198
661.23	38.085
665.135	30.277
669.039	58.809
672.94	14.835
676.84	36.232
680.738	15.315
684.633	28.392
688.527	60.461
692.418	47.514
696.308	45.619
700.195	43.832
704.081	140.686
707.964	460.582
711.846	2906.81
715.726	675.836
719.603	155.685
723.479	70.623
727.352	23.878
731.224	37.794
735.094	44.714
738.961	19.624
742.827	44.947
746.691	29.776
750.552	59.678
754.412	45.302
758.27	26.495
762.125	16.348
765.979	27.301
769.831	27.277
773.681	8.045
777.529	22.881
781.375	28.145
785.219	26.778
789.06	27.584
792.901	37.349
796.739	31.048
800.575	8.048
804.409	22.312
808.241	29.456
812.071	31.269
815.899	54.207
819.726	3.086
823.55	22.153
827.372	1.801
831.193	27.47
835.011	9.354
838.828	36.057
842.642	12.697
846.455	34.33
850.266	0.036
854.075	6.589
857.881	35.202
861.686	13.811
865.489	16.425
869.29	25.049
873.089	37.676
876.886	0.696
880.682	36.933
884.475	24.56
888.266	2.192
892.056	2.83
895.843	17.469
899.629	34.1
903.413	31.737
907.194	16.383
910.974	28.037
914.752	6.295
918.528	38.373
922.302	35.059
926.074	30.705
929.844	25.411
933.613	21.116
937.379	7.842
941.144	35.341
944.906	46.065
948.667	10.658
952.426	15.624
956.183	3.208
959.938	7.4
963.691	10.584
967.442	24.224
971.191	2.38
974.939	54.464
978.684	6.208
982.428	27.889
986.169	18.793
989.909	43.706
993.647	52.632
997.383	71.598
1001.12	98.368
1004.85	67.645
1008.58	100.682
1012.31	132.72
1016.03	125.533
1019.76	113.625
1023.48	106.736
1027.2	127.047
1030.92	88.946
1034.64	63.13
1038.36	109.682
1042.07	94.924
1045.78	154.418
1049.49	167.709
1053.2	130.018
1056.9	184.341
1060.61	252.767
1064.31	694.861
1068.01	491.269
1071.71	575.694
1075.41	916.162
1079.1	2326.73
1082.79	31766.8
1086.48	27073.3
1090.17	2478.76
1093.86	867.292
1097.55	482.871
1101.23	370.024
1104.91	227.62
1108.59	155.07
1112.27	202.552
1115.95	135.216
1119.62	189.961
1123.3	124.195
1126.97	149.1
1130.63	78.788
1134.3	71.261
1137.97	73.959
1141.63	80.594
1145.29	69.371
1148.95	80.197
1152.61	45.359
1156.27	26.271
1159.92	33.379
1163.57	11.508
1167.22	29.541
1170.87	73.543
1174.52	66.462
1178.16	46.005
1181.81	26.844
1185.45	23.102
1189.09	5.016
1192.73	5.5
1196.36	41.314
1200	71.063
1203.63	59.803
1207.26	62.819
1210.89	43.32
1214.52	27.197
1218.14	5.907
1221.77	0.987
1225.39	12.862
1229.01	67.522
1232.62	40.187
1236.24	65.193
1239.86	64.862
1243.47	46.669
1247.08	10.689
1250.69	26.332
1254.3	0.909
1257.9	44.601
1261.5	35.171
1265.11	66.663
1268.71	59.134
1272.3	47.562
1275.9	20.959
1279.49	22.305
1283.09	27.588
1286.68	23.827
1290.27	41.028
1293.86	14.15
1297.44	54.235
1301.03	38.279
1304.61	29.298
1308.19	8.258
1311.77	4.136
1315.34	8.986
1318.92	29.516
1322.49	30.27
1326.06	18.972
1329.63	3.289
1333.2	52.891
1336.77	30.805
1340.33	52.337
1343.89	43.838
1347.46	3.317
1351.02	19.308
1354.57	18.114
1358.13	72.381
1361.68	57.716
1365.23	67.908
1368.79	55.99
1372.33	69.006
1375.88	10.29
1379.43	23.507
1382.97	12.014
1386.51	14.01
1390.05	38.973
1393.59	69.561
1397.13	46.337
1400.66	119.89
1404.19	92.546
1407.72	131.753
1411.25	109.049
1414.78	57.068
1418.31	62.077
1421.83	84.831
1425.36	131.612
1428.88	406.797
1432.39	698.623
1435.91	180.341
1439.43	89.425
1442.94	108.896
1446.45	78.643
1449.96	79.572
1453.47	15.596
1456.98	22.258
1460.48	22.054
1463.99	25.929
1467.49	12.761
1470.99	61.787
1474.49	55.935
1477.99	57.219
1481.48	36.563
1484.97	100.32
1488.46	124.41
1491.95	42.818
1495.44	47.899
1498.93	20.804
1502.41	43.267
1505.9	22.727
1509.38	26.431
