Measurement: Raman, 514 nm, ccw, Raman Data Processed
Mineral: Calcite
Rruff sample: R050048
Ideal chemistry: CaCO_3_
Locality: Magdalena, New Mexico, USA
Source: University of Arizona Mineral Museum
Description: Colorless massive
Measured chemistry: (Ca_0.99_Zn_0.01_)CO_3_
Pin_id: M00181
Orientation: Laser parallel to c* (0 0 1). Fiducial mark perpendicular to laser is parallel to b [0 1 0]
Raman shift (cm-1)	intensity
99.652	0
103.843	40.847
108.033	87.651
112.22	204.946
116.406	368.504
120.589	293.826
124.77	306.528
128.949	312.147
133.126	306.732
137.301	280.83
141.473	305.526
145.644	404.965
149.812	602.65
153.979	1099.37
158.143	824.977
162.305	383.368
166.465	259.451
170.623	259.207
174.778	193.603
178.932	146.658
183.083	179.183
187.233	108.836
191.38	123.601
195.525	99.631
199.669	134.863
203.81	96.272
207.949	74.865
212.085	34.651
216.22	124.093
220.353	94.365
224.483	61.871
228.612	69.647
232.738	106.561
236.863	117.664
240.985	94.156
245.105	92.066
249.223	93.806
253.339	112.746
257.453	154.681
261.565	183.499
265.675	251.135
269.783	361.152
273.888	486.938
277.992	1038.06
282.093	1364.68
286.193	787.235
290.29	393.542
294.386	242.215
298.479	130.143
302.57	82.418
306.659	38.747
310.746	69.237
314.831	58.868
318.914	57.626
322.995	20.83
327.074	39.614
331.151	16.25
335.226	40.154
339.299	2.622
343.37	44.269
347.438	28.584
351.505	35.449
355.57	24.734
359.632	29.235
363.693	28.787
367.751	0.413
371.808	16.924
375.862	5.616
379.914	17.246
383.965	8.678
388.013	50.784
392.06	44.469
396.104	27.899
400.146	14.352
404.186	10.393
408.225	2.201
412.261	4.895
416.295	19.496
420.327	26.121
424.357	3.068
428.386	18.425
432.412	8.102
436.436	10.656
440.458	0.787
444.478	35.778
448.496	11.702
452.513	66.765
456.527	50.453
460.539	31.917
464.549	72.402
468.557	21.854
472.563	43.301
476.567	45.73
480.57	5.137
484.57	18.489
488.568	20.541
492.564	24.818
496.558	31.037
500.551	7.805
504.541	60.37
508.529	7.58
512.515	31.284
516.5	45.528
520.482	58.798
524.462	46.958
528.441	88.96
532.417	50.627
536.391	26.227
540.364	11.645
544.334	33.28
548.303	63.23
552.269	15.741
556.234	34.891
560.197	40.961
564.157	50.05
568.116	79.153
572.073	74.16
576.027	78.124
579.98	65.943
583.931	30.715
587.88	53.006
591.827	50.875
595.772	76.85
599.715	59.77
603.656	56.827
607.595	95.405
611.532	38.296
615.468	80.888
619.401	106.592
623.332	45.914
627.262	114.311
631.189	78.684
635.115	77.987
639.039	115.913
642.96	61.724
646.88	96.253
650.798	71.866
654.714	101.34
658.628	38.188
662.54	36.614
666.45	10.059
670.358	29.82
674.264	15.663
678.169	33.622
682.071	2.56
685.972	26.841
689.87	39.161
693.767	3.219
697.662	23.353
701.555	87.359
705.446	265.157
709.335	1198.76
713.222	2482.58
717.107	503.589
720.99	140.507
724.872	67.254
728.751	65.451
732.629	21.312
736.504	43.084
740.378	45.488
744.25	50.258
748.12	0.984
751.988	43.664
755.854	82.319
759.719	46.925
763.581	27.531
767.442	34.604
771.3	8.925
775.157	27.43
779.012	73.862
782.865	77.27
786.716	33.63
790.565	26.961
794.413	12.584
798.258	3.452
802.102	15.803
805.943	30.036
809.783	39.259
813.621	15.467
817.457	6.595
821.292	42.264
825.124	72.583
828.954	4.784
832.783	4.332
836.61	72.456
840.435	50.054
844.258	92.59
848.079	65.679
851.898	54.66
855.715	116.767
859.531	140.889
863.345	127.013
867.157	76.141
870.967	68.266
874.775	51.39
878.581	18.484
882.386	7.629
886.188	114.697
889.989	56.815
893.788	46.943
897.585	52.087
901.38	46.649
905.174	53.482
908.965	89.648
912.755	120.19
916.543	74.065
920.329	19.935
924.113	26.959
927.895	59.102
931.676	78.311
935.454	79.536
939.231	76.743
943.006	31.978
946.78	59.191
950.551	32.789
954.32	73.97
958.088	52.2
961.854	58.322
965.618	2.293
969.38	32.029
973.141	17.651
976.9	56.742
980.656	53.833
984.411	112.98
988.165	107.517
991.916	34.074
995.665	77.73
999.413	184.25
1003.16	202.841
1006.9	138.513
1010.65	89.258
1014.39	138.033
1018.12	229.832
1021.86	220.661
1025.6	188.601
1029.33	140.674
1033.06	119.875
1036.79	155.917
1040.52	165.997
1044.25	98.078
1047.97	95.139
1051.69	271.391
1055.41	196.049
1059.13	235.152
1062.85	355.581
1066.57	570.097
1070.28	472.894
1073.99	717.276
1077.7	1620.6
1081.41	7224.16
1085.12	45739.6
1088.82	10405.1
1092.52	1582.09
1096.22	586.669
1099.92	399.171
1103.62	375.686
1107.32	277.365
1111.01	211.035
1114.7	141.608
1118.39	200.152
1122.08	299.253
1125.77	71.764
1129.45	171.523
1133.14	144.798
1136.82	125.693
1140.5	84.525
1144.18	16.581
1147.85	38.546
1151.53	38.852
1155.2	42.482
1158.87	98.471
1162.54	97.569
1166.21	34.012
1169.88	79.417
1173.54	50.778
1177.2	30.633
1180.86	1.617
1184.52	86.684
1188.18	42.642
1191.83	60.174
1195.49	9.625
1199.14	48.067
1202.79	24.631
1206.44	18.985
1210.08	13.962
1213.73	69.838
1217.37	65.91
1221.01	142.893
1224.65	4.36
1228.29	39.678
1231.93	99.064
1235.56	75.162
1239.19	128.6
1242.83	142.994
1246.46	94.546
1250.08	106.883
1253.71	125.792
1257.33	124.111
1260.96	179.551
1264.58	77.836
1268.19	108.29
1271.81	193.799
1275.43	231.769
1279.04	156.68
1282.65	54.529
1286.27	73.257
1289.87	16.732
1293.48	33.203
1297.09	17.439
1300.69	24.785
1304.29	2.876
1307.89	22.8
1311.49	73.588
1315.09	93.289
1318.68	110.771
1322.28	152.57
1325.87	93.699
1329.46	2.889
1333.05	40.138
1336.63	11.249
1340.22	20.534
1343.8	23.823
1347.38	5.557
1350.96	83.92
1354.54	72.197
1358.12	111.575
1361.69	30.083
1365.26	27.438
1368.83	20.29
1372.4	8.121
1375.97	104.838
1379.54	117.1
1383.1	209.11
1386.66	221.965
1390.23	136.703
1393.79	89.36
1397.34	75.851
1400.9	36.853
1404.45	63.42
1408.01	92.176
1411.56	154.326
1415.11	181.163
1418.66	338.748
1422.2	246.372
1425.75	246.926
1429.29	344.579
1432.83	775.63
1436.37	695.168
1439.91	267.641
1443.44	313.653
1446.98	302.596
1450.51	296.545
1454.04	460.907
1457.57	415.53
1461.1	465.574
1464.63	293.729
1468.15	370.674
1471.67	289.049
1475.19	158.703
1478.71	175.819
1482.23	137.764
1485.75	111.529
1489.26	159.665
1492.78	114.449
1496.29	48.489
1499.8	262.698
1503.31	233.607
1506.81	245.232
1510.32	105.143
1513.82	179.386
1517.32	0
