Measurement: Raman, 514 nm, ccw, Raman Data Processed
Mineral: Calcite
Rruff sample: R050307
Ideal chemistry: CaCO_3_
Locality: Zaire
Source: Eugene Schlepp
Description: Group of pink prismatic crystals
Measured chemistry: Ca_1.00_CO_3_
Pin_id: L01569
Orientation: Laser parallel to -c* (0 0 -1). Fiducial mark perpendicular to laser is parallel to a [1 0 0]
Raman shift (cm-1)	intensity
116.903	0
121.827	15.0098
126.749	84.5234
131.668	94.5356
136.585	250.024
141.5	251.736
146.412	681.815
151.321	1157.18
156.229	964.201
161.134	386.241
166.036	280.849
170.936	132.274
175.834	183.999
180.729	355.221
185.622	186.491
190.512	229.959
195.4	162.375
200.286	294.741
205.169	166.977
210.049	129.746
214.928	194.986
219.803	271.576
224.677	203.526
229.548	235.555
234.416	235.26
239.282	137.501
244.146	160.062
249.007	194.856
253.866	217.111
258.722	473.21
263.576	438.966
268.427	708.902
273.276	1141.15
278.123	1641.65
282.967	1560.98
287.809	799.774
292.648	350.072
297.485	227.034
302.319	195.107
307.151	91.6728
311.98	148.524
316.807	130.637
321.631	177.54
326.454	12.6768
331.273	234.556
336.09	8.40625
340.905	56.6309
345.717	144.022
350.527	135.741
355.334	138.438
360.139	96.2627
364.941	16.2725
369.741	30.583
374.538	49.8076
379.333	135.13
384.126	117.554
388.916	96.9531
393.703	32.9502
398.488	144.35
403.271	99.1582
408.051	117.707
412.828	68.7246
417.603	48.4863
422.376	85.374
427.146	30.377
431.914	157.675
436.679	58.8779
441.442	231.118
446.202	13.5908
450.96	133.844
455.715	58.1387
460.467	62.4873
465.218	177.852
469.965	36.6709
474.711	155.142
479.454	94.3193
484.194	102.545
488.932	33.0684
493.667	113.567
498.4	96.7178
503.13	114.6
507.858	23.6475
512.583	80.1914
517.306	114.628
522.026	181.06
526.744	160.487
531.459	138.157
536.172	148.605
540.882	10.0088
545.59	56.7656
550.295	64.3945
554.998	32.7978
559.698	123.328
564.396	217.672
569.091	72.8779
573.784	93.1592
578.474	120.397
583.162	171.385
587.847	219.266
592.529	42.083
597.209	234.863
601.887	114.762
606.562	5.59375
611.235	97.0166
615.905	67.5478
620.572	14.8789
625.237	131.705
629.9	29.6475
634.56	67.4609
639.217	160.806
643.872	0.125977
648.524	66.3838
653.174	81.543
657.821	93.5996
662.466	67.915
667.108	107.032
671.748	83.5078
676.385	86.9394
681.02	139.75
685.652	130.757
690.281	156.662
694.908	153.11
699.533	216.587
704.155	815.124
708.774	2208.99
713.391	1589.29
718.005	427.806
722.617	1.15137
727.226	241.491
731.833	181.656
736.437	129.991
741.039	52.9736
745.638	29.459
750.234	210.23
754.828	235.042
759.419	280.336
764.008	63.5068
768.595	109.144
773.178	85.9053
777.759	117.614
782.338	18.6826
786.914	156.81
791.488	106.702
796.059	238.711
800.627	162.593
805.193	130.459
809.756	157.167
814.317	35.4463
818.875	197.467
823.431	288.813
827.984	184.428
832.534	80.3477
837.082	214.435
841.627	136.754
846.17	87.5977
850.71	93.0498
855.248	260.239
859.783	70.2539
864.316	276.982
868.846	112.723
873.373	123.656
877.898	171.426
882.42	58.7285
886.94	126.488
891.457	180.504
895.971	61.1465
900.483	130.984
904.993	51.875
909.5	233.529
914.004	15.3555
918.505	158.68
923.004	161.906
927.501	88.832
931.995	57.4863
936.486	254.857
940.975	74.7793
945.461	241.959
949.945	171.018
954.426	101.975
958.904	255.547
963.38	291.031
967.853	70.3809
972.324	11.0859
976.792	50.7891
981.258	219.9
985.72	182.725
990.181	218.281
994.639	262.059
999.094	89.3594
1003.55	161.248
1008	52.5918
1012.44	214.004
1016.89	55.375
1021.33	178.242
1025.77	184.367
1030.21	58.6445
1034.64	177.769
1039.07	224.309
1043.5	1.60156
1047.93	150.502
1052.35	304.26
1056.78	376.803
1061.19	425.59
1065.61	528.977
1070.02	499.941
1074.43	958.039
1078.84	7873.53
1083.25	31058.3
1087.65	19467.8
1092.05	1411.95
1096.45	658.279
1100.85	333.477
1105.24	307.793
1109.63	150.508
1114.02	369.723
1118.4	251.791
1122.78	198.764
1127.16	253.207
1131.54	127.703
1135.92	101.365
1140.29	111.607
1144.66	77.6328
1149.02	176.377
1153.39	6.02539
1157.75	15.293
1162.11	237.365
1166.46	172.19
1170.82	156.621
1175.17	167.519
1179.52	241.406
1183.86	2.48828
1188.21	195.422
1192.55	202.158
1196.89	131.207
1201.22	171.947
1205.55	281.119
1209.88	108.447
1214.21	161.086
1218.54	114.717
1222.86	300.019
1227.18	9.78711
1231.5	264.629
1235.81	187.168
1240.12	4.63281
1244.43	202.076
1248.74	118.441
1253.04	17.0645
1257.34	9.34766
1261.64	254.275
1265.94	298.85
1270.23	182.283
1274.52	113.742
1278.81	108.5
1283.1	83.7363
1287.38	207.398
1291.66	13.707
1295.94	23.0547
1300.21	309.781
1304.48	104.207
1308.75	179.992
1313.02	19.9121
1317.29	289.277
1321.55	317.961
1325.81	289.398
1330.06	224.596
1334.32	197.144
1338.57	38.0039
1342.82	82.2305
1347.06	309.578
1351.31	337.853
1355.55	15.3203
1359.79	18.0703
1364.02	170.435
1368.26	311.631
1372.49	34.2656
1376.71	282.315
1380.94	64.3457
1385.16	308.06
1389.38	163.553
1393.6	223.26
1397.81	235.312
1402.02	89.3242
1406.23	9.97266
1410.44	218.549
1414.64	195.789
1418.85	62.6855
1423.04	152.057
1427.24	162.576
1431.43	800.449
1435.62	907.314
1439.81	317.606
1444	190.453
1448.18	234.117
1452.36	217.674
1456.54	48.5137
1460.71	250.902
1464.89	159.44
1469.06	80.916
1473.22	78.1231
1477.39	206.06
1481.55	251.25
1485.71	402.59
1489.86	133.647
1494.02	288.074
1498.17	109.068
1502.32	342.367
1506.46	417.004
1510.61	250.799
1514.75	110.906
1518.88	196.107
1523.02	200.836
1527.15	172.236
1531.28	280.822
1535.41	303.588
1539.53	444.016
1543.66	306.154
1547.78	108.103
1551.89	20.4609
1556.01	336.836
1560.12	48.1035
1564.23	408.949
1568.33	5.48242
