Measurement: Raman, 514 nm, ccw, Raman Data Processed
Mineral: Calcite
Rruff sample: R050307
Ideal chemistry: CaCO_3_
Locality: Zaire
Source: Eugene Schlepp
Description: Group of pink prismatic crystals
Measured chemistry: Ca_1.00_CO_3_
Pin_id: L01569
Orientation: Laser parallel to -c* (0 0 -1). Fiducial mark perpendicular to laser is parallel to a [1 0 0]
Raman shift (cm-1)	intensity
116.903	0
121.827	64.8584
126.749	40.8472
131.668	89.3652
136.585	258.477
141.5	269.948
146.412	546.455
151.321	862.715
156.229	927.934
161.134	375.388
166.036	340.999
170.936	151.152
175.834	208.947
180.729	152.243
185.622	52.5303
190.512	297.908
195.4	185.535
200.286	111.605
205.169	205.903
210.049	130.52
214.928	212.493
219.803	108.385
224.677	136.157
229.548	167.277
234.416	142.734
239.282	255.615
244.146	139.476
249.007	244.274
253.866	328.779
258.722	295.82
263.576	324.589
268.427	519.968
273.276	1184.65
278.123	1550.67
282.967	1267.65
287.809	633.245
292.648	347.35
297.485	291.886
302.319	220.872
307.151	88.1533
311.98	45.7285
316.807	199.591
321.631	28.6748
326.454	147.001
331.273	74.5234
336.09	117.225
340.905	49.0957
345.717	67.1299
350.527	228.323
355.334	6.60742
360.139	208.019
364.941	99.8769
369.741	53.7217
374.538	150.248
379.333	127.394
384.126	31.4033
388.916	74.626
393.703	100.588
398.488	34.9248
403.271	133.263
408.051	16.9893
412.828	133.607
417.603	56.5264
422.376	6.03906
427.146	38.8984
431.914	87.8799
436.679	11.9736
441.442	3.16992
446.202	139.081
450.96	88.458
455.715	157.917
460.467	211.122
465.218	109.318
469.965	103.019
474.711	52.6982
479.454	99.457
484.194	33.2734
488.932	83.168
493.667	54.0967
498.4	167.179
503.13	60.4404
507.858	30.0029
512.583	23.1338
517.306	17.5547
522.026	117.372
526.744	149.865
531.459	55.1172
536.172	271.324
540.882	96.21
545.59	4.03711
550.295	226.833
554.998	134.094
559.698	162.968
564.396	86.2275
569.091	166.467
573.784	41.7129
578.474	263.965
583.162	22.1387
587.847	81.4014
592.529	202.54
597.209	17.1475
601.887	362.9
606.562	277.425
611.235	256.446
615.905	205.736
620.572	131.256
625.237	205.198
629.9	116.151
634.56	163.107
639.217	168.073
643.872	132.953
648.524	220.728
653.174	64.2285
657.821	150.19
662.466	48.7275
667.108	104.135
671.748	141.75
676.385	51.4766
681.02	231.782
685.652	210.903
690.281	81.3154
694.908	288.933
699.533	309.071
704.155	798.464
708.774	2088.87
713.391	1624.54
718.005	255.246
722.617	98.1387
727.226	75.4141
731.833	310.379
736.437	99.3457
741.039	282.654
745.638	198.541
750.234	59.0605
754.828	7.86133
759.419	164.975
764.008	112.238
768.595	239.361
773.178	83.2188
777.759	131.391
782.338	187.92
786.914	130.914
791.488	47.6543
796.059	244.51
800.627	47.5645
805.193	36.5215
809.756	386.475
814.317	76.1953
818.875	39.9512
823.431	85.7031
827.984	13.9902
832.534	138.924
837.082	210.279
841.627	195.867
846.17	32.0156
850.71	28.0332
855.248	238.348
859.783	168.588
864.316	37.6191
868.846	198.584
873.373	156.248
877.898	48.4004
882.42	191.93
886.94	24.6953
891.457	171.228
895.971	76.6953
900.483	304.973
904.993	163.266
909.5	67.2051
914.004	276.051
918.505	217.387
923.004	9.89844
927.501	28.6113
931.995	110.133
936.486	97.3652
940.975	78.916
945.461	172.647
949.945	119.531
954.426	113.168
958.904	51.3496
963.38	130.32
967.853	106.658
972.324	176.457
976.792	118.285
981.258	85.3496
985.72	305.691
990.181	207.555
994.639	137.106
999.094	212.731
1003.55	184.932
1008	168.828
1012.44	228.309
1016.89	81.7148
1021.33	135.664
1025.77	326.447
1030.21	135.68
1034.64	212.283
1039.07	158.215
1043.5	140.434
1047.93	87.7148
1052.35	169.58
1056.78	445.065
1061.19	529.68
1065.61	580.018
1070.02	442.898
1074.43	1094.71
1078.84	7258.09
1083.25	28600.3
1087.65	18520.3
1092.05	1328.17
1096.45	493.043
1100.85	317.182
1105.24	237.676
1109.63	111.203
1114.02	114.772
1118.4	403.9
1122.78	338.797
1127.16	23.0449
1131.54	203.822
1135.92	36.6152
1140.29	253.617
1144.66	275.803
1149.02	168.625
1153.39	98.7109
1157.75	124.312
1162.11	136.59
1166.46	254.254
1170.82	3.82812
1175.17	120.742
1179.52	67.6367
1183.86	230.49
1188.21	33.7871
1192.55	58.9551
1196.89	97.5781
1201.22	270.996
1205.55	81.8926
1209.88	352.879
1214.21	110.65
1218.54	259.478
1222.86	188.065
1227.18	111.322
1231.5	351.803
1235.81	384.688
1240.12	160.74
1244.43	340.24
1248.74	260.803
1253.04	248.643
1257.34	21.9258
1261.64	265.988
1265.94	40.6152
1270.23	149.898
1274.52	82.0703
1278.81	299.065
1283.1	195.19
1287.38	233.039
1291.66	264.672
1295.94	132.586
1300.21	16.2773
1304.48	146.385
1308.75	70.9375
1313.02	23.5547
1317.29	93.9219
1321.55	534.346
1325.81	87.2227
1330.06	192.99
1334.32	238.527
1338.57	293.185
1342.82	130.19
1347.06	120.012
1351.31	176.412
1355.55	95.8965
1359.79	402.6
1364.02	109.164
1368.26	188.606
1372.49	163.16
1376.71	287.031
1380.94	110.49
1385.16	16.1816
1389.38	139.644
1393.6	196.072
1397.81	195.658
1402.02	20.6387
1406.23	103.787
1410.44	434.272
1414.64	336.332
1418.85	277.725
1423.04	319.117
1427.24	296.996
1431.43	887.91
1435.62	850.354
1439.81	404.316
1444	9.96875
1448.18	310.086
1452.36	330.703
1456.54	190.123
1460.71	282.408
1464.89	222.68
1469.06	42.4453
1473.22	174.125
1477.39	127.014
1481.55	97.2734
1485.71	408.332
1489.86	426.934
1494.02	105.57
1498.17	103.553
1502.32	276.674
1506.46	394.699
1510.61	288.039
1514.75	106.219
1518.88	135.281
1523.02	345.35
1527.15	141.17
1531.28	162.606
1535.41	340.803
1539.53	78.4824
1543.66	337.277
1547.78	286.981
1551.89	191.156
1556.01	312.928
1560.12	402.977
1564.23	61.3848
1568.33	0.019531
