Measurement: Raman, 514 nm, ccw, Raman Data Processed
Mineral: Calcite
Rruff sample: R050307
Ideal chemistry: CaCO_3_
Locality: Zaire
Source: Eugene Schlepp
Description: Group of pink prismatic crystals
Measured chemistry: Ca_1.00_CO_3_
Pin_id: L01775
Orientation: Laser parallel to -a* (-1 0 0). Fiducial mark perpendicular to laser is parallel to -c [0 0 -1]
Raman shift (cm-1)	intensity
116.903	0
121.827	39.639
126.749	41.8738
131.668	33.4082
136.585	145.725
141.5	261.569
146.412	576.912
151.321	885.006
156.229	554.973
161.134	213.967
166.036	73.1768
170.936	61.8948
175.834	30.8657
180.729	3.01538
185.622	34.282
190.512	16.6706
195.4	34.1113
200.286	9.66773
205.169	25.6912
210.049	16.78
214.928	15.0454
219.803	19.5364
224.677	3.20361
229.548	29.6675
234.416	56.2566
239.282	5.80371
244.146	82.8276
249.007	57.2432
253.866	148.96
258.722	207.502
263.576	353.419
268.427	738.418
273.276	1459.06
278.123	1871.32
282.967	1353.51
287.809	592.97
292.648	249.418
297.485	161.873
302.319	94.8384
307.151	87.0007
311.98	91.3733
316.807	49.0173
321.631	42.7017
326.454	31.3648
331.273	58.9587
336.09	27.3867
340.905	70.1267
345.717	34.7014
350.527	47.4382
355.334	7.15308
360.139	12.2483
364.941	11.3594
369.741	48.0591
374.538	58.7273
379.333	68.5513
384.126	80.0791
388.916	32.7102
393.703	52.3254
398.488	28.0183
403.271	104.675
408.051	28.375
412.828	9.979
417.603	30.5852
422.376	23.1494
427.146	65.6724
431.914	74.0525
436.679	97.2942
441.442	37.4941
446.202	49.9209
450.96	7.94873
455.715	26.0842
460.467	63.3428
465.218	15.2959
469.965	70.2178
474.711	8.15063
479.454	95.0115
484.194	61.8152
488.932	64.5166
493.667	91.2585
498.4	71.6174
503.13	61.2954
507.858	52.3059
512.583	64.9187
517.306	134.522
522.026	83.0823
526.744	48.8332
531.459	99.335
536.172	94.8372
540.882	123.289
545.59	14.6306
550.295	79.3179
554.998	74.7612
559.698	59.1111
564.396	33.0945
569.091	61.3057
573.784	48.3623
578.474	65.501
583.162	45.6716
587.847	77.3579
592.529	69.9866
597.209	16.2642
601.887	66.3987
606.562	28.3081
611.235	115.212
615.905	106.644
620.572	158.285
625.237	71.188
629.9	89.9985
634.56	55.8049
639.217	85.9438
643.872	67.3889
648.524	92.1255
653.174	72.029
657.821	63.6975
662.466	7.18286
667.108	66.7224
671.748	83.2207
676.385	38.7156
681.02	92.0339
685.652	116.146
690.281	12.406
694.908	66.7549
699.533	204.05
704.155	941.382
708.774	2675.69
713.391	1080.13
718.005	182.491
722.617	65.8581
727.226	94.9546
731.833	84.3213
736.437	68.6274
741.039	116.659
745.638	73.9807
750.234	24.6528
754.828	2.62085
759.419	67.5015
764.008	28.6013
768.595	19.7007
773.178	2.19116
777.759	61.6982
782.338	112.674
786.914	127.314
791.488	134.229
796.059	15.9072
800.627	89.7839
805.193	44.6709
809.756	72.2158
814.317	65.9524
818.875	23.4397
823.431	80.1843
827.984	48.2961
832.534	24.3267
837.082	113.411
841.627	102.337
846.17	12.7546
850.71	75.5393
855.248	90.8718
859.783	137.083
864.316	97.384
868.846	66.6589
873.373	72.813
877.898	140.927
882.42	98.1792
886.94	86.3887
891.457	33.5688
895.971	39.7637
900.483	64.8564
904.993	66.9846
909.5	25.7766
914.004	84.9004
918.505	29.905
923.004	38.9531
927.501	36.7895
931.995	85.2324
936.486	32.8057
940.975	30.9287
945.461	45.0237
949.945	57.0725
954.426	79.1448
958.904	41.3279
963.38	6.46094
967.853	30.4299
972.324	29.5808
976.792	52.2734
981.258	4.95312
985.72	93.8711
990.181	5.34375
994.639	98.4966
999.094	131.212
1003.55	108.879
1008	69.5664
1012.44	173.229
1016.89	111.857
1021.33	149.842
1025.77	80.6519
1030.21	138.069
1034.64	43.7773
1039.07	129.612
1043.5	97.2476
1047.93	112.219
1052.35	175.922
1056.78	239.179
1061.19	446.295
1065.61	632.002
1070.02	637.784
1074.43	1577.19
1078.84	12609.8
1083.25	53303.6
1087.65	17066.2
1092.05	1497.76
1096.45	509.784
1100.85	343.313
1105.24	190.254
1109.63	148.079
1114.02	157.206
1118.4	161.651
1122.78	96.8823
1127.16	111.789
1131.54	107.074
1135.92	107.353
1140.29	84.6938
1144.66	30.9102
1149.02	2.88135
1153.39	73.2432
1157.75	9.47559
1162.11	14.3491
1166.46	73.6045
1170.82	38.4868
1175.17	0.297852
1179.52	75.0713
1183.86	8.19873
1188.21	67.4614
1192.55	16.9644
1196.89	23.4751
1201.22	9.8252
1205.55	8.34521
1209.88	5.70654
1214.21	4.02441
1218.54	33.0635
1222.86	2.59424
1227.18	2.62842
1231.5	54.0073
1235.81	44.978
1240.12	184.441
1244.43	54.7124
1248.74	51.6899
1253.04	93.5601
1257.34	103.3
1261.64	92.3252
1265.94	28.6045
1270.23	90.1812
1274.52	40.1397
1278.81	134.423
1283.1	14.1631
1287.38	114.875
1291.66	127.158
1295.94	119.443
1300.21	101.435
1304.48	74.2998
1308.75	78.3213
1313.02	170.5
1317.29	143.367
1321.55	104.374
1325.81	45.1558
1330.06	35.5952
1334.32	103.135
1338.57	36.6157
1342.82	67.7676
1347.06	85.1313
1351.31	107.119
1355.55	101.278
1359.79	44.4399
1364.02	110.847
1368.26	36.0088
1372.49	120.446
1376.71	95.7568
1380.94	104.908
1385.16	121.204
1389.38	16.9287
1393.6	39.6968
1397.81	114.752
1402.02	82.4912
1406.23	12.3477
1410.44	177.677
1414.64	162.837
1418.85	120.893
1423.04	123.149
1427.24	250.029
1431.43	627.37
1435.62	647.563
1439.81	286.318
1444	155.245
1448.18	211.67
1452.36	117.625
1456.54	100.624
1460.71	160.44
1464.89	90.167
1469.06	70.6743
1473.22	64.4307
1477.39	139.804
1481.55	100.536
1485.71	26.9907
1489.86	142.167
1494.02	48.9702
1498.17	5.9585
1502.32	54.1108
1506.46	76.2686
1510.61	9.08887
1514.75	64.8926
1518.88	50.3286
1523.02	68.9541
1527.15	100.639
1531.28	34.0713
1535.41	113.573
1539.53	44.7036
1543.66	236.651
1547.78	6.44629
1551.89	102.249
1556.01	113.027
1560.12	67.7051
1564.23	2.17725
1568.33	3.84228
