Measurement: Raman, 514 nm, ccw, Raman Data Processed
Mineral: Calcite
Rruff sample: R050130
Ideal chemistry: CaCO_3_
Locality: Mexico
Source: Dave Bunk Minerals
Description: Colorless cleavage rhomb
Measured chemistry: Ca_1.00_CO_3_; trace amounts of Si (?)
Pin_id: L00264
Orientation: Laser parallel to -c* (0 0 -1). Fiducial mark perpendicular to laser is parallel to a [1 0 0]
Raman shift (cm-1)	intensity
49.365	0
53.566	41.654
57.765	26.116
61.962	34.024
66.157	50.918
70.349	63.72
74.54	49.741
78.729	69.941
82.916	24.274
87.101	9.891
91.284	4.909
95.465	1.832
99.644	31.477
103.82	121.631
107.995	92.596
112.168	122.407
116.339	167.633
120.508	131.657
124.675	170.076
128.84	169.629
133.003	154.662
137.164	135.911
141.323	176.236
145.48	190.5
149.635	365.25
153.788	753.34
157.939	847.221
162.088	378.057
166.235	198.9
170.38	107.734
174.523	85.549
178.664	79.34
182.803	48.095
186.94	30.972
191.076	54.057
195.209	32.44
199.34	27.775
203.47	23.551
207.597	7.45
211.722	24.856
215.846	28.835
219.967	22.976
224.087	34.552
228.204	15.865
232.32	14.545
236.434	49.581
240.545	42.203
244.655	41.956
248.763	82.863
252.869	67.912
256.973	77.176
261.075	121.317
265.175	171.481
269.273	269.015
273.369	467.061
277.463	940.192
281.556	1490.79
285.646	1215.45
289.734	658.035
293.821	306.414
297.905	162.105
301.988	81.454
306.069	70.764
310.147	53.954
314.224	43.116
318.299	24.242
322.372	39.305
326.443	41.393
330.512	19.397
334.579	6.359
338.645	3.34
342.708	6.283
346.769	2.963
350.829	32.688
354.887	23.2
358.942	22.561
362.996	10.863
367.048	11.202
371.098	24.779
375.146	1.879
379.192	8.042
383.236	11.052
387.279	5.008
391.319	31.827
395.358	3.66
399.394	397.678
403.429	19.761
407.462	4.722
411.493	25.882
415.522	9.006
419.549	3.147
423.575	26.321
427.598	3.433
431.619	5.887
435.639	34.926
439.657	31.924
443.673	19.97
447.687	9.969
451.699	25.96
455.709	6.176
459.717	22.714
463.724	2.959
467.728	24.785
471.731	26.577
475.732	21.346
479.731	28.053
483.728	10.685
487.723	27.279
491.716	26.73
495.708	24.258
499.697	30.558
503.685	31.876
507.671	26.741
511.655	36.153
515.637	38.528
519.617	16.87
523.596	10.001
527.572	18.827
531.547	35.02
535.52	34.164
539.491	18.364
543.46	15.626
547.427	27.791
551.393	14.647
555.356	19.281
559.318	1.1
563.278	32.369
567.236	5.407
571.192	40.632
575.147	30.455
579.099	3.388
583.05	37.18
586.999	11.258
590.946	14.328
594.891	25.17
598.834	11.001
602.776	8.096
606.715	10.053
610.653	20.124
614.589	17.853
618.523	1.043
622.456	18.849
626.386	23.944
630.315	2.949
634.242	3.995
638.167	28.063
642.09	30.999
646.012	0.755
649.931	1.738
653.849	12.692
657.765	6.077
661.679	42.922
665.592	19.329
669.502	36.191
673.411	28.122
677.318	27.952
681.223	27.736
685.126	6.973
689.028	27.77
692.927	33.554
696.825	78.207
700.721	84.988
704.616	144.617
708.508	681.31
712.399	3258.99
716.288	1449.17
720.175	360.157
724.06	107.494
727.944	53.2
731.825	24.918
735.705	44.018
739.584	14.939
743.46	39.893
747.334	39.158
751.207	0.746
755.078	30.544
758.947	26.999
762.815	12.472
766.68	37.955
770.544	19.494
774.406	22.815
778.267	12.582
782.125	30.979
785.982	17.391
789.837	8.799
793.69	35.189
797.542	8.444
801.391	21.818
805.239	28.059
809.085	0.23
812.93	14.405
816.772	33.676
820.613	15.228
824.452	1.438
828.29	22.613
832.125	15.684
835.959	4.159
839.791	20.896
843.621	31.035
847.45	10.841
851.277	22.247
855.102	16.321
858.925	43.366
862.746	24.39
866.566	19.394
870.384	32.363
874.2	8.712
878.015	2.171
881.828	14.041
885.639	22.899
889.448	2.26
893.256	37.529
897.061	12.324
900.865	23.076
904.668	2.338
908.468	21.441
912.267	15.192
916.064	19.9
919.86	21.656
923.653	25.399
927.445	1.12
931.236	13.818
935.024	3.505
938.811	1.205
942.596	46.802
946.379	63.454
950.161	5.355
953.94	28.048
957.719	2.708
961.495	16.151
965.27	30.568
969.043	1.764
972.814	42.418
976.583	12.964
980.351	17.327
984.117	39.337
987.882	51.567
991.644	53.274
995.405	43.978
999.165	66.809
1002.92	55.523
1006.68	78.192
1010.43	68.982
1014.18	95.697
1017.93	105.443
1021.68	87.571
1025.43	110.241
1029.18	102.895
1032.92	123.644
1036.66	96.333
1040.4	107.283
1044.14	109.016
1047.88	113.189
1051.62	124.597
1055.35	173.129
1059.08	167.074
1062.81	198.908
1066.54	486.733
1070.27	457.497
1073.99	480.353
1077.72	831.111
1081.44	2013.34
1085.16	18762.6
1088.88	39149.5
1092.59	5074.51
1096.31	1049.4
1100.02	485.289
1103.73	329.217
1107.44	254.135
1111.15	191.734
1114.86	172.836
1118.57	138.823
1122.27	132.462
1125.97	123.51
1129.67	119.519
1133.37	101.925
1137.07	71.877
1140.76	53.835
1144.45	42.675
1148.15	50.61
1151.84	71.572
1155.53	65.568
1159.21	32.581
1162.9	54.59
1166.58	33.587
1170.26	28.573
1173.94	28.564
1177.62	12.649
1181.3	7.592
1184.97	23.695
1188.65	39.755
1192.32	18.809
1195.99	13.067
1199.66	16.127
1203.33	3.916
1206.99	31.097
1210.65	22.071
1214.32	12.052
1217.98	1.974
1221.64	27.657
1225.29	9.82
1228.95	0.551
1232.6	1.171
1236.26	14.754
1239.91	21.679
1243.56	27.554
1247.2	28.373
1250.85	9.196
1254.49	1.979
1258.13	1.272
1261.78	15.518
1265.41	8.808
1269.05	0.869
1272.69	11.534
1276.32	15.193
1279.95	30.848
1283.59	27.482
1287.21	25.09
1290.84	37.676
1294.47	25.241
1298.09	13.792
1301.72	20.323
1305.34	35.821
1308.96	22.246
1312.58	19.607
1316.19	22.946
1319.81	28.265
1323.42	16.563
1327.03	26.807
1330.64	8.05
1334.25	20.269
1337.86	3.465
1341.46	0.206
1345.07	69.348
1348.67	16.365
1352.27	12.078
1355.87	52.115
1359.46	37.168
1363.06	6.855
1366.65	38.252
1370.25	5.774
1373.84	20.904
1377.43	17.726
1381.02	13.497
1384.6	38.453
1388.18	74.899
1391.77	61.607
1395.35	42.551
1398.93	45.992
1402.51	21.737
1406.08	45.99
1409.66	64.156
1413.23	79.294
1416.8	98.344
1420.37	83.44
1423.94	133.449
1427.51	165.995
1431.08	171.821
1434.64	428.24
1438.2	1144.1
1441.76	351.907
1445.32	118.454
1448.88	100.445
1452.43	72.192
1455.99	114.363
1459.54	61.687
1463.09	70.066
1466.64	87.344
1470.19	86.636
1473.74	46.807
1477.28	31.916
1480.83	66.96
1484.37	45.88
1487.91	8.006
1491.45	39.688
1494.98	23.442
1498.52	44.295
1502.05	45.341
1505.59	52.483
1509.12	42.739
1512.65	63.785
1516.17	47.749
1519.7	49.409
1523.23	0
