Measurement: Raman, 514 nm, ccw, Raman Data Processed
Mineral: Calcite
Rruff sample: R050127
Ideal chemistry: CaCO_3_
Locality: Rodeo, Durango, Mexico
Source: Dave Bunk Minerals
Description: Group of colorless crystals
Measured chemistry: Ca_1.00_CO_3_
Pin_id: M00388
Orientation: Laser parallel to a* (1 0 0). Fiducial mark perpendicular to laser is parallel to -c [0 0 -1]
Raman shift (cm-1)	intensity
109.512	0
114.44	7.3938
119.365	60.5752
124.288	92.957
129.209	400.733
134.127	868.989
139.043	2373.12
143.956	3141.49
148.867	4133.19
153.775	6092.3
158.681	3789.49
163.585	1197.6
168.486	459.559
173.385	203.089
178.282	70.9194
183.176	73.6406
188.067	74.4717
192.956	183.434
197.843	70.7466
202.727	149.67
207.609	77.1924
212.489	62.396
217.366	29.3271
222.24	68.7119
227.112	138.464
231.982	156.945
236.849	165.158
241.714	242.286
246.577	448.725
251.437	597.326
256.294	971.527
261.149	1632
266.002	2809.49
270.852	5561.14
275.7	9972.64
280.545	12264.8
285.388	7880.51
290.229	3275.77
295.067	1391.7
299.902	748.656
304.735	508.356
309.566	439.384
314.394	214.456
319.22	203.735
324.043	254.241
328.864	141.209
333.682	48.8618
338.498	77.6787
343.311	30.0991
348.122	76.7012
352.931	19.9951
357.737	71.7481
362.54	80.1025
367.341	6.13916
372.14	31.0312
376.936	124.471
381.73	100.707
386.521	98.9038
391.31	71.0933
396.096	169.218
400.88	26.1821
405.661	18.2764
410.44	106.563
415.216	69.8633
419.99	13.396
424.761	76.0884
429.53	8.3833
434.297	23.5532
439.061	12.2451
443.822	13.3457
448.581	63.9639
453.337	1.52246
458.091	104.105
462.843	27.0283
467.592	18.1719
472.338	41.334
477.082	12.251
481.824	39.0586
486.563	3.20947
491.3	65.6982
496.034	6.20654
500.765	99.6372
505.494	25.9922
510.221	87.1338
514.945	105.226
519.666	150.377
524.385	146.448
529.102	25.4351
533.816	55.4014
538.527	28.7798
543.236	154.038
547.943	43.2661
552.647	55.0649
557.348	39.8105
562.047	21.0801
566.744	95.8535
571.438	102.684
576.129	143.338
580.818	143.411
585.504	72.6807
590.188	18.3711
594.87	88.6118
599.549	0.810547
604.225	107.97
608.899	10.6777
613.57	148.178
618.239	148.367
622.905	153.54
627.569	72.3198
632.23	295.157
636.889	302.585
641.545	116.674
646.198	156.441
650.849	171.017
655.498	88.9512
660.144	163.998
664.787	103.88
669.428	91.6397
674.067	98.4072
678.703	61.5156
683.336	64.063
687.967	18.8394
692.595	86.4224
697.221	193.935
701.844	230.911
706.465	1247.29
711.083	2575.84
715.698	1038.29
720.311	186.079
724.922	37.7427
729.53	126.699
734.135	5.20361
738.738	104.001
743.338	80.4219
747.936	96.2124
752.531	50.5747
757.124	27.9253
761.714	138.528
766.302	127.758
770.887	78.937
775.469	35.9619
780.049	69.957
784.626	242.06
789.201	7.54297
793.773	32.1836
798.343	126.73
802.91	129.209
807.475	137.622
812.037	59.9482
816.596	185.24
821.153	160.428
825.707	44.6465
830.259	136.696
834.808	231.977
839.355	90.0772
843.899	141.305
848.441	72.3047
852.98	116.131
857.516	131.995
862.05	129.216
866.581	172.764
871.11	129.956
875.636	24.7783
880.159	49.2168
884.68	72.9561
889.199	239.517
893.714	138.028
898.228	150.514
902.738	113.188
907.246	165.936
911.752	42.1123
916.255	55.4023
920.755	111.874
925.253	229.762
929.748	53.0674
934.241	100.941
938.731	110.052
943.218	91.9746
947.703	75.8789
952.186	105.576
956.665	42.4307
961.142	142.12
965.617	211.919
970.089	286.662
974.558	21.3115
979.025	147.951
983.489	127.424
987.951	208.915
992.41	137.874
996.866	155.22
1001.32	94.1221
1005.77	168.695
1010.22	232.746
1014.67	246.435
1019.11	96.4072
1023.55	105.773
1027.99	120.141
1032.42	146.227
1036.86	49.6387
1041.29	85.0791
1045.72	57.3633
1050.14	128.162
1054.56	296.437
1058.98	300.831
1063.4	423.416
1067.82	676.011
1072.23	546.514
1076.64	1456.71
1081.05	13904.3
1085.45	51656.9
1089.85	14040
1094.25	1339.27
1098.65	489.453
1103.04	282.993
1107.43	193.598
1111.82	150.834
1116.21	203.55
1120.59	139.359
1124.97	236.54
1129.35	95.3574
1133.73	5.32715
1138.1	203.847
1142.47	96.7686
1146.84	13.959
1151.21	170.219
1155.57	100.552
1159.93	66.916
1164.29	51.2334
1168.64	56.3203
1172.99	31.3213
1177.34	136.918
1181.69	96.2578
1186.04	16.7324
1190.38	161.977
1194.72	83.21
1199.05	304.44
1203.39	214.673
1207.72	194.017
1212.05	30.7891
1216.37	258.474
1220.7	31.5791
1225.02	46.0889
1229.34	143.01
1233.65	175.925
1237.97	72.1611
1242.28	17.7656
1246.59	127.617
1250.89	117.616
1255.19	141.611
1259.49	131.561
1263.79	55.208
1268.09	89.5918
1272.38	49.8262
1276.67	154.808
1280.95	55.0059
1285.24	76.9551
1289.52	121.694
1293.8	8.64941
1298.08	64.9434
1302.35	181.666
1306.62	171.19
1310.89	176.384
1315.15	133.836
1319.42	76.6914
1323.68	214.102
1327.94	189.502
1332.19	20.7061
1336.44	195
1340.69	148.398
1344.94	42.7822
1349.19	5.45215
1353.43	140.421
1357.67	175.558
1361.9	174.885
1366.14	154.555
1370.37	162.057
1374.6	42.498
1378.83	175.68
1383.05	105.537
1387.27	78.7344
1391.49	167.214
1395.7	288.353
1399.92	131.31
1404.13	226.391
1408.34	170.528
1412.54	74.2637
1416.74	95.7256
1420.94	238.248
1425.14	206.618
1429.34	304.713
1433.53	1106.8
1437.72	639.797
1441.9	415.79
1446.09	113.162
1450.27	224.972
1454.45	72.4502
1458.63	7.92481
1462.8	73.1113
1466.97	273.099
1471.14	86.0752
1475.31	254.096
1479.47	230.081
1483.63	181.253
1487.79	108.73
1491.94	5.09961
1496.09	207.952
1500.24	144.066
1504.39	34.4053
1508.54	235.987
1512.68	115.774
1516.82	143.397
1520.95	3.08789
1525.09	212.879
1529.22	124.578
1533.35	187.698
1537.47	155.169
1541.6	238.249
1545.72	289.082
1549.83	256.255
1553.95	242.648
1558.06	105.6
1562.17	351.549
1566.28	4.375
1570.38	0
