Measurement: Raman, 514 nm, ccw, Raman Data Processed
Mineral: Calcite
Rruff sample: R050307
Ideal chemistry: CaCO_3_
Locality: Zaire
Source: Eugene Schlepp
Description: Group of pink prismatic crystals
Measured chemistry: Ca_1.00_CO_3_
Pin_id: L01775
Orientation: Laser parallel to -a* (-1 0 0). Fiducial mark perpendicular to laser is parallel to -c [0 0 -1]
Raman shift (cm-1)	intensity
116.903	0
121.827	102.975
126.749	29.0523
131.668	7.70508
136.585	76.2417
141.5	358.71
146.412	913.972
151.321	1745.03
156.229	1089.31
161.134	337.271
166.036	88.5503
170.936	48.9248
175.834	118.248
180.729	49.4282
185.622	87.4561
190.512	237.351
195.4	255.501
200.286	281.95
205.169	218.725
210.049	92.7568
214.928	59.0654
219.803	46.9331
224.677	168.869
229.548	189.275
234.416	172.94
239.282	146.772
244.146	136.053
249.007	231.826
253.866	239.488
258.722	498.155
263.576	801.943
268.427	1278.97
273.276	2370.08
278.123	3439.66
282.967	2290.15
287.809	1035.83
292.648	440.871
297.485	224.137
302.319	196.722
307.151	251.568
311.98	67.9624
316.807	41.2407
321.631	10.2949
326.454	70.3555
331.273	92.1465
336.09	39.1367
340.905	6.08984
345.717	0.331055
350.527	94.6426
355.334	73.1562
360.139	85.7852
364.941	71.5186
369.741	88.3389
374.538	73.2598
379.333	131.28
384.126	90.3564
388.916	95.8135
393.703	103.384
398.488	72.8447
403.271	93.0898
408.051	14.6484
412.828	141.73
417.603	39.2324
422.376	26.2109
427.146	33.4336
431.914	2.05176
436.679	56.2539
441.442	183.08
446.202	71.7334
450.96	23.1865
455.715	84.9356
460.467	12.1074
465.218	45.1973
469.965	134.547
474.711	73.9228
479.454	95.3496
484.194	15.3193
488.932	78.0586
493.667	130.487
498.4	300.019
503.13	42.6416
507.858	150.287
512.583	128.036
517.306	17.8232
522.026	89.2783
526.744	74.1611
531.459	52.8633
536.172	201.751
540.882	162.76
545.59	78.4648
550.295	139.644
554.998	114.259
559.698	108.197
564.396	40.8594
569.091	183.921
573.784	140.769
578.474	227.864
583.162	41.8691
587.847	101.985
592.529	60.1416
597.209	88.499
601.887	128.683
606.562	144.13
611.235	190.374
615.905	183.555
620.572	40.5205
625.237	183.083
629.9	18.3428
634.56	181.754
639.217	194.91
643.872	143.874
648.524	47.9678
653.174	88.0498
657.821	164.857
662.466	144.909
667.108	4.02441
671.748	158.903
676.385	169.808
681.02	179.69
685.652	91.8633
690.281	222.905
694.908	76.042
699.533	144.027
704.155	234.373
708.774	641.858
713.391	406.975
718.005	118.909
722.617	116.573
727.226	178.259
731.833	141.992
736.437	167.446
741.039	60.1797
745.638	31.2061
750.234	194.483
754.828	97.4414
759.419	144.444
764.008	121.526
768.595	137.954
773.178	57.8935
777.759	129.297
782.338	161.266
786.914	147.155
791.488	131.527
796.059	152.101
800.627	112.718
805.193	61.9209
809.756	176.36
814.317	165.89
818.875	214.602
823.431	201.191
827.984	265.78
832.534	191.671
837.082	173.04
841.627	74.0137
846.17	174.159
850.71	120.603
855.248	55.9287
859.783	299.093
864.316	2.32617
868.846	205.356
873.373	247.17
877.898	120.344
882.42	151.051
886.94	92.9766
891.457	42.2471
895.971	144.241
900.483	79.5703
904.993	52.7881
909.5	6.85449
914.004	52.7676
918.505	23.6621
923.004	127.367
927.501	45.8965
931.995	96.5244
936.486	196.774
940.975	71.6689
945.461	8.60449
949.945	35.7676
954.426	94.1924
958.904	18.3887
963.38	136.578
967.853	43.4961
972.324	152.382
976.792	54.6728
981.258	59.8232
985.72	144.262
990.181	242.427
994.639	122.336
999.094	286.754
1003.55	166.607
1008	182.812
1012.44	140.251
1016.89	419.044
1021.33	242.839
1025.77	208.717
1030.21	209.057
1034.64	283.935
1039.07	122.942
1043.5	185.037
1047.93	180.76
1052.35	95.9658
1056.78	267.525
1061.19	423.157
1065.61	597.917
1070.02	569.105
1074.43	1118.52
1078.84	6291.21
1083.25	40037.5
1087.65	16608.1
1092.05	1442.77
1096.45	352.65
1100.85	303.039
1105.24	154.49
1109.63	160.469
1114.02	52.4619
1118.4	153.018
1122.78	229.755
1127.16	217.545
1131.54	23.2178
1135.92	86.6338
1140.29	68.9307
1144.66	41.0928
1149.02	32.4346
1153.39	28.2725
1157.75	72.2715
1162.11	21.7139
1166.46	50.7773
1170.82	49.0488
1175.17	12.1065
1179.52	143.685
1183.86	208.916
1188.21	149.303
1192.55	22.6172
1196.89	98.5606
1201.22	4.87891
1205.55	81.1348
1209.88	55.4785
1214.21	44.0859
1218.54	31.0625
1222.86	315.625
1227.18	125.371
1231.5	11.8281
1235.81	169.053
1240.12	101.592
1244.43	113.334
1248.74	222.688
1253.04	166.565
1257.34	158.572
1261.64	23.3848
1265.94	203.898
1270.23	103.443
1274.52	213.908
1278.81	170.715
1283.1	95.457
1287.38	73.834
1291.66	65.1191
1295.94	51.4297
1300.21	111.885
1304.48	36.4883
1308.75	169.881
1313.02	6.90039
1317.29	233.5
1321.55	294.746
1325.81	192.58
1330.06	171.477
1334.32	13.791
1338.57	222.41
1342.82	233.541
1347.06	109.144
1351.31	244.576
1355.55	138.934
1359.79	162.885
1364.02	194.117
1368.26	45.6309
1372.49	94.2519
1376.71	59.8242
1380.94	154.826
1385.16	284.603
1389.38	62.2148
1393.6	18.1289
1397.81	158.633
1402.02	235.996
1406.23	28.6562
1410.44	217.838
1414.64	224.644
1418.85	74.4805
1423.04	0.810547
1427.24	269.572
1431.43	524.043
1435.62	563.973
1439.81	259.6
1444	281.986
1448.18	189.504
1452.36	136.123
1456.54	105.156
1460.71	295.551
1464.89	58.9434
1469.06	213.736
1473.22	113.459
1477.39	281.963
1481.55	158.402
1485.71	321.312
1489.86	313.65
1494.02	251.31
1498.17	130.672
1502.32	228.334
1506.46	200.916
1510.61	140.617
1514.75	256.264
1518.88	241.545
1523.02	359.672
1527.15	142.484
1531.28	197.842
1535.41	355.555
1539.53	253.127
1543.66	68.7441
1547.78	60.7578
1551.89	300.721
1556.01	79.8418
1560.12	252.377
1564.23	3.01172
1568.33	34.3652
