Measurement: Raman, 514 nm, ccw, Raman Data Processed
Mineral: Calcite
Rruff sample: R040070
Ideal chemistry: CaCO_3_
Locality: Pryor Mountain, Big Horn County, Montana, USA
Source: University of Arizona Mineral Museum
Description: Orange scalenohedral crystals
Measured chemistry: (Ca_0.99_Mg_0.01_)CO_3_
Pin_id: L00173
Orientation: Laser parallel to a* (1 0 0). Fiducial mark perpendicular to laser is parallel to -c [0 0 -1]
Raman shift (cm-1)	intensity
98.947	0
103.124	2.286
107.3	30.32
111.473	84.67
115.644	158.016
119.813	165.595
123.981	97.581
128.146	86.154
132.309	105.314
136.47	108.834
140.63	231.379
144.787	513.717
148.942	1301.12
153.096	2220.77
157.247	1363.66
161.396	493.769
165.544	195.016
169.689	51.344
173.833	11.215
177.974	20.397
182.114	10.798
186.251	0.039
190.387	18.105
194.52	72.825
198.652	85.872
202.782	70.034
206.909	52.233
211.035	61.486
215.159	49.839
219.281	78.696
223.4	71.036
227.518	56.052
231.634	72.059
235.748	105.937
239.86	103.794
243.97	148.129
248.079	183.225
252.185	195.462
256.289	272.111
260.391	409.353
264.492	637.809
268.59	1007.82
272.687	1922.85
276.781	3612.82
280.874	4332.89
284.964	2741.26
289.053	1363.12
293.14	677.452
297.225	373.518
301.308	235.849
305.389	211.237
309.468	149.246
313.545	65.99
317.62	53.362
321.693	79.406
325.765	54.156
329.834	49.77
333.902	2.406
337.967	22.594
342.031	34.717
346.093	10.055
350.153	31.457
354.21	75.475
358.267	15.739
362.321	73.973
366.373	43.263
370.423	50.528
374.471	51.725
378.518	38.928
382.563	9.856
386.605	35.039
390.646	3.745
394.685	19.449
398.722	53.491
402.757	13.448
406.79	17.403
410.821	20.353
414.851	1.925
418.878	20.473
422.904	40.82
426.927	70.127
430.949	35.236
434.969	69.275
438.987	51.604
443.003	25.498
447.018	12.875
451.03	21.797
455.041	27.483
459.049	10.677
463.056	16.15
467.061	5.999
471.064	6.844
475.065	18.996
479.064	8.312
483.062	33.66
487.057	73.664
491.051	7.255
495.043	21.304
499.032	45.458
503.02	41.769
507.007	35.946
510.991	17.931
514.973	78.026
518.954	60.308
522.933	57.466
526.91	74.756
530.885	52.841
534.858	47.781
538.829	75.686
542.799	33.839
546.766	32.935
550.732	43.909
554.696	41.792
558.658	28.531
562.618	37.998
566.576	7.992
570.533	48.272
574.488	39.218
578.44	42.84
582.391	40.594
586.341	25.538
590.288	62.196
594.233	33.273
598.177	40.139
602.119	66.881
606.059	36.639
609.997	31.413
613.933	19.573
617.868	49.229
621.801	74.093
625.731	36.979
629.66	59.94
633.588	9.087
637.513	16.177
641.437	19.466
645.358	27.956
649.278	6.662
653.196	67.321
657.113	65.03
661.027	43.432
664.94	6.372
668.851	28.464
672.76	19.223
676.667	16.983
680.572	0.6
684.476	49.758
688.378	39.942
692.278	22.264
696.176	68.26
700.072	67.139
703.967	106.824
707.86	310.843
711.751	913.054
715.64	317.798
719.527	125.65
723.413	111.446
727.297	76.578
731.179	95.394
735.059	70.215
738.937	72.998
742.814	47.825
746.689	47.953
750.562	72.128
754.433	83.948
758.303	2.974
762.17	72.981
766.036	81.834
769.901	2.508
773.763	22.509
777.624	49.523
781.482	81.141
785.339	55.669
789.195	41.363
793.048	23.6
796.9	33.441
800.75	20.175
804.598	17.562
808.445	58.16
812.289	21.007
816.132	16.624
819.973	38.001
823.813	50.802
827.65	49.021
831.486	1.054
835.32	5.974
839.152	13.936
842.983	8.192
846.812	27.182
850.639	49.099
854.464	79.112
858.288	5.956
862.11	31.122
865.93	99.547
869.748	23.123
873.564	12.593
877.379	101.952
881.192	49.084
885.004	8.031
888.813	32.712
892.621	31.367
896.427	7.266
900.232	26.132
904.034	26.352
907.835	72.597
911.634	79.117
915.432	6.802
919.227	7.709
923.021	34.776
926.813	84.095
930.604	39.188
934.393	66.456
938.18	81.538
941.965	55.327
945.749	72.847
949.53	87.305
953.311	2.843
957.089	61.661
960.866	97.816
964.641	95.764
968.414	8.21
972.185	29.694
975.955	41.384
979.723	22.339
983.49	43.82
987.254	24.229
991.017	91.308
994.779	72.648
998.538	122.636
1002.3	108.625
1006.05	197.759
1009.81	173.398
1013.56	148.292
1017.31	272.886
1021.06	243.304
1024.81	190.473
1028.55	219.916
1032.3	217.207
1036.04	168.875
1039.78	279.073
1043.52	210.406
1047.26	200.349
1050.99	273.045
1054.73	276.505
1058.46	325.402
1062.19	346.306
1065.92	802.186
1069.65	524.8
1073.37	618.308
1077.1	1217.28
1080.82	3793.73
1084.54	31293.8
1088.26	44621.9
1091.97	4462.89
1095.69	1057.38
1099.4	558.452
1103.12	340.397
1106.83	258.121
1110.54	176.794
1114.24	159.602
1117.95	146.037
1121.65	172.27
1125.35	164.818
1129.06	149.608
1132.75	21.376
1136.45	24.424
1140.15	43.536
1143.84	44.578
1147.53	44.281
1151.22	55.939
1154.91	64.31
1158.6	98.027
1162.28	3.693
1165.97	29.726
1169.65	84.736
1173.33	56.132
1177.01	42.826
1180.69	21.567
1184.36	49.09
1188.04	130.693
1191.71	103.011
1195.38	76.514
1199.05	123.08
1202.71	2.828
1206.38	75.088
1210.04	78.823
1213.71	67.5
1217.37	126.484
1221.03	108.418
1224.68	86.346
1228.34	122.537
1231.99	111.341
1235.65	91.583
1239.3	119.985
1242.95	81.635
1246.59	151.715
1250.24	113.946
1253.88	111.131
1257.53	19.981
1261.17	39.51
1264.81	42.3
1268.45	145.368
1272.08	53.83
1275.72	43.882
1279.35	84.531
1282.98	4.15
1286.61	103.414
1290.24	106.91
1293.87	144.685
1297.49	26.852
1301.11	36.892
1304.73	34.005
1308.36	23.817
1311.97	69.256
1315.59	74.276
1319.2	39.984
1322.82	25.875
1326.43	43.28
1330.04	46.135
1333.65	131.213
1337.26	55.959
1340.86	25.686
1344.47	6.106
1348.07	78.368
1351.67	71.924
1355.27	37.313
1358.87	98.613
1362.46	61.426
1366.06	125.915
1369.65	44.395
1373.24	34.436
1376.83	35.59
1380.42	3.453
1384	112.683
1387.59	50.242
1391.17	38.199
1394.75	38.223
1398.33	96.573
1401.91	108.617
1405.49	130.945
1409.06	155.947
1412.64	91.232
1416.21	130.3
1419.78	203.05
1423.35	199.058
1426.91	228.646
1430.48	191.928
1434.05	321.152
1437.61	940.84
1441.17	542.734
1444.73	187.294
1448.29	195.171
1451.84	173.689
1455.4	68.257
1458.95	110.352
1462.5	129.074
1466.05	139.182
1469.6	94.048
1473.15	174.721
1476.69	65.773
1480.24	120.398
1483.78	217.037
1487.32	213.169
1490.86	65.668
1494.39	69.951
1497.93	211.008
1501.46	15.871
1505	80.938
1508.53	164.312
1512.06	190.281
1515.59	171.646
1519.11	118.075
