Measurement: Raman, 514 nm, ccw, Raman Data Processed
Mineral: Calcite
Rruff sample: R050130
Ideal chemistry: CaCO_3_
Locality: Mexico
Source: Dave Bunk Minerals
Description: Colorless cleavage rhomb
Measured chemistry: Ca_1.00_CO_3_; trace amounts of Si (?)
Pin_id: L00286
Orientation: Laser parallel to a* (1 0 0). Fiducial mark perpendicular to laser is parallel to -c [0 0 -1]
Raman shift (cm-1)	intensity
88.26	0
92.466	6.585
96.67	55.763
100.871	55.796
105.07	97.903
109.267	108.155
113.461	163.044
117.653	154.28
121.843	138.738
126.031	120.477
130.217	119.924
134.4	77.333
138.581	132.597
142.76	154.649
146.937	286.883
151.112	747.285
155.284	1394.18
159.454	492.204
163.622	165.048
167.787	41.912
171.951	1.842
176.112	2.829
180.271	8.162
184.428	11.883
188.583	4.927
192.735	1.957
196.885	12.029
201.033	12.177
205.179	43.073
209.323	22.556
213.464	4.365
217.603	15.839
221.741	4.372
225.875	3.481
230.008	39.63
234.139	38.604
238.267	63.689
242.393	22.529
246.517	57.415
250.639	71.14
254.759	94.602
258.876	138.56
262.991	229.64
267.104	316.857
271.215	478.521
275.324	989.709
279.431	1968.96
283.535	2075.85
287.638	933.687
291.738	417.464
295.836	252.396
299.932	138.249
304.025	80.568
308.117	61.71
312.206	63.885
316.293	45.984
320.378	48.967
324.461	19.079
328.542	46.2
332.621	16.229
336.697	10.118
340.772	10.002
344.844	39.793
348.914	14.859
352.982	37.708
357.048	3.982
361.111	63.577
365.173	4.852
369.232	4.471
373.29	31.677
377.345	43.587
381.398	17.836
385.449	0.878
389.497	58.147
393.544	20.239
397.589	29.331
401.631	6.582
405.672	0.728
409.71	12.641
413.746	18.408
417.78	23.122
421.812	22.844
425.842	61.579
429.869	30.844
433.895	10.342
437.918	4.109
441.94	54.626
445.959	40.834
449.976	31.065
453.991	13.159
458.004	25.172
462.015	57.224
466.024	42.134
470.031	35.066
474.035	46.696
478.038	64.86
482.038	58.56
486.037	30.935
490.033	33.33
494.027	37.139
498.019	46.535
502.009	10.775
505.997	15.091
509.983	63.801
513.967	77.435
517.949	36.186
521.929	34.613
525.906	38.749
529.882	76.702
533.855	25.526
537.827	55.331
541.796	18.39
545.764	37.867
549.729	54.907
553.692	29.072
557.653	20.077
561.612	53.017
565.569	61.206
569.524	27.718
573.477	11.164
577.428	6.619
581.377	1.125
585.324	36.756
589.269	6.113
593.212	4.133
597.152	2.983
601.091	65.572
605.028	47.892
608.962	60.096
612.895	34.213
616.825	14.288
620.754	76.254
624.68	100.483
628.605	28.68
632.527	19.587
636.447	46.489
640.366	57.584
644.282	45.45
648.196	32.41
652.109	51.994
656.019	53.852
659.927	93.501
663.834	28.574
667.738	18.546
671.64	25.284
675.54	9.08
679.439	54.992
683.335	39.856
687.229	9.941
691.121	1.711
695.012	35.387
698.9	17.925
702.786	93.711
706.67	26.855
710.552	290.411
714.433	324.911
718.311	96.434
722.187	79.562
726.061	26.468
729.934	51.556
733.804	55.836
737.672	76.162
741.539	33.711
745.403	9.283
749.265	38.328
753.126	34.198
756.984	51.532
760.84	79.326
764.695	46.657
768.547	6.304
772.398	37.439
776.246	32.795
780.093	57.156
783.937	38.427
787.78	10.347
791.621	49.667
795.459	67.974
799.296	96.272
803.131	75.557
806.964	18.807
810.795	19.891
814.623	15.057
818.45	66.764
822.275	60.531
826.098	55.709
829.92	0.064
833.739	1.007
837.556	58.814
841.371	63.068
845.184	14.991
848.996	6.877
852.805	24.918
856.613	16.033
860.418	59.108
864.222	68.213
868.023	49.317
871.823	5.42
875.621	24.472
879.417	23.6
883.211	68.67
887.003	54.724
890.793	63.735
894.581	11.713
898.367	0.656
902.152	68.743
905.934	48.848
909.714	82.701
913.493	39.776
917.27	23.109
921.044	16.073
924.817	56.001
928.588	106.09
932.357	88.197
936.124	59.316
939.889	45.823
943.652	24.99
947.414	46.167
951.173	76.328
954.931	93.391
958.686	54.877
962.44	11.115
966.192	31.626
969.942	22.321
973.69	65.572
977.436	71.848
981.18	57.99
984.922	10.234
988.663	24.581
992.401	37.334
996.138	91.726
999.873	120.664
1003.61	115.092
1007.34	110.539
1011.07	97.764
1014.79	83.255
1018.52	62.728
1022.24	169.254
1025.96	162.323
1029.68	104.918
1033.4	74.039
1037.12	45.841
1040.83	88.498
1044.54	111.558
1048.25	157.308
1051.96	162.219
1055.67	176.201
1059.37	151.142
1063.08	211.589
1066.78	329.16
1070.48	325.198
1074.17	585.084
1077.87	1038.78
1081.56	5964.68
1085.26	35263.3
1088.94	2377.29
1092.63	624.304
1096.32	330.342
1100	267.365
1103.69	213.405
1107.37	145.409
1111.05	50.259
1114.72	28.811
1118.4	103.927
1122.07	127.114
1125.74	142.252
1129.41	170.227
1133.08	145.432
1136.75	115.684
1140.41	41.941
1144.07	8.16
1147.73	53.438
1151.39	47.81
1155.05	110.204
1158.7	109.112
1162.36	77.468
1166.01	17.689
1169.66	11.221
1173.3	6.152
1176.95	3.57
1180.59	56.711
1184.24	72.033
1187.88	64.447
1191.52	47.936
1195.15	4.061
1198.79	29.763
1202.42	35.452
1206.05	34.56
1209.68	83.488
1213.31	147.727
1216.93	123.981
1220.56	75.975
1224.18	48.263
1227.8	9.546
1231.42	23.015
1235.04	58.099
1238.65	100.233
1242.26	95.308
1245.88	134.39
1249.48	101.376
1253.09	55.772
1256.7	57.777
1260.3	53.76
1263.9	16.676
1267.51	69.572
1271.11	123.448
1274.7	98.281
1278.3	157.051
1281.89	82.797
1285.48	42.499
1289.07	16.171
1292.66	32.796
1296.25	17.385
1299.83	33.928
1303.41	77.594
1306.99	114.988
1310.57	113.51
1314.15	97.826
1317.73	31.078
1321.3	30.2
1324.87	22.4
1328.44	8.47
1332.01	11.615
1335.58	43.223
1339.14	100.917
1342.71	116.171
1346.27	110.101
1349.83	112.928
1353.39	20.827
1356.94	19.666
1360.5	4.616
1364.05	12.593
1367.6	16.563
1371.15	112.131
1374.7	116.611
1378.24	179.228
1381.79	136.805
1385.33	126.531
1388.87	53.007
1392.41	2.392
1395.95	23.42
1399.48	27.539
1403.02	66.675
1406.55	106.594
1410.08	132.721
1413.61	152.233
1417.13	161.349
1420.66	177.089
1424.18	150.886
1427.7	129.265
1431.22	424.191
1434.74	158.327
1438.26	47.14
1441.77	37.035
1445.28	124.386
1448.79	190.94
1452.3	158.657
1455.81	148.196
1459.32	150.609
1462.82	108.013
1466.32	91.148
1469.82	78.712
1473.32	32.065
1476.82	11.524
1480.32	41.423
1483.81	63.648
1487.3	79.606
1490.79	189.687
1494.28	134.186
1497.77	120.033
1501.25	152.821
1504.74	103.206
1508.22	52.932
1511.7	11.234
