Measurement: Raman, 514 nm, ccw, Raman Data Processed
Mineral: Calcite
Rruff sample: R050307
Ideal chemistry: CaCO_3_
Locality: Zaire
Source: Eugene Schlepp
Description: Group of pink prismatic crystals
Measured chemistry: Ca_1.00_CO_3_
Pin_id: L01775
Orientation: Laser parallel to -a* (-1 0 0). Fiducial mark perpendicular to laser is parallel to -c [0 0 -1]
Raman shift (cm-1)	intensity
116.903	0
121.827	53.9385
126.749	138.043
131.668	174.619
136.585	500.061
141.5	1459.71
146.412	3259.25
151.321	5181.57
156.229	2790.14
161.134	962.198
166.036	342.676
170.936	158.325
175.834	86.9626
180.729	27.4814
185.622	8.66187
190.512	0.115723
195.4	16.77
200.286	80.6108
205.169	60.6008
210.049	102.995
214.928	32.7249
219.803	71.7219
224.677	164.001
229.548	173.39
234.416	229.929
239.282	356.369
244.146	447.765
249.007	718.341
253.866	1069.27
258.722	1762.05
263.576	3134.91
268.427	6356.89
273.276	11287.3
278.123	14289.1
282.967	9018.39
287.809	3746.08
292.648	1710.94
297.485	1011.53
302.319	611.572
307.151	441.745
311.98	273.581
316.807	228.988
321.631	128.773
326.454	102.929
331.273	83.0293
336.09	78.7793
340.905	65.5698
345.717	25.4756
350.527	92.3232
355.334	110.036
360.139	82.9731
364.941	20.9722
369.741	75.7432
374.538	74.6519
379.333	44.7783
384.126	40.0918
388.916	90.4907
393.703	14.169
398.488	6.82031
403.271	75.1016
408.051	55.0147
412.828	8.43701
417.603	39.3066
422.376	31.9351
427.146	39.352
431.914	48.4971
436.679	47.5171
441.442	90.395
446.202	1.14648
450.96	20.0967
455.715	84.6103
460.467	75.6973
465.218	19.9692
469.965	107.819
474.711	161.616
479.454	54.1782
484.194	44.897
488.932	37.2529
493.667	78.9053
498.4	129.976
503.13	27.29
507.858	54.9683
512.583	103.855
517.306	116.702
522.026	9.18652
526.744	55.7837
531.459	91.1269
536.172	32.7393
540.882	121.216
545.59	90.7246
550.295	145.404
554.998	62.957
559.698	23.147
564.396	32.3735
569.091	97.4951
573.784	128.602
578.474	82.522
583.162	71.9019
587.847	57.9575
592.529	56.437
597.209	120.032
601.887	4.76856
606.562	99.7583
611.235	45.6196
615.905	68.2007
620.572	94.4453
625.237	77.2417
629.9	23.3711
634.56	80.1206
639.217	106.165
643.872	125.762
648.524	51.0806
653.174	14.2676
657.821	38.6572
662.466	81.749
667.108	17.3145
671.748	82.2344
676.385	127.158
681.02	58.8877
685.652	93.624
690.281	85.2671
694.908	81.7188
699.533	253.956
704.155	1612.15
708.774	3666.49
713.391	1320.97
718.005	245.496
722.617	110.768
727.226	113.04
731.833	115.468
736.437	84.4331
741.039	64.3232
745.638	66.8931
750.234	30.4434
754.828	40.956
759.419	100.485
764.008	72.9844
768.595	84.4282
773.178	49.6616
777.759	51.0996
782.338	85.8662
786.914	72.291
791.488	3.72656
796.059	106.618
800.627	0.664063
805.193	13.7656
809.756	103.929
814.317	118.58
818.875	61.2266
823.431	0.00293
827.984	160.368
832.534	127.908
837.082	88.9858
841.627	78.2588
846.17	72.4287
850.71	39.4644
855.248	135.834
859.783	69.1196
864.316	198.283
868.846	78.3511
873.373	53.6099
877.898	85.8506
882.42	119.765
886.94	39.873
891.457	196.589
895.971	29.0366
900.483	144.719
904.993	124.241
909.5	57.0166
914.004	38.5688
918.505	87.6255
923.004	78.0713
927.501	59.4346
931.995	47.3809
936.486	57.0684
940.975	168.644
945.461	60.6099
949.945	10.2827
954.426	89.9067
958.904	74.7007
963.38	83.5903
967.853	15.8462
972.324	23.7695
976.792	152.388
981.258	82.8501
985.72	108.906
990.181	70.0664
994.639	105.952
999.094	184.055
1003.55	156.281
1008	189.388
1012.44	309.993
1016.89	224.003
1021.33	207.532
1025.77	92.2383
1030.21	223.844
1034.64	70.022
1039.07	77.1318
1043.5	43.3247
1047.93	185.124
1052.35	162.895
1056.78	285.7
1061.19	373.905
1065.61	495.134
1070.02	663.396
1074.43	1585.38
1078.84	13322.9
1083.25	50025.7
1087.65	12088
1092.05	1182.89
1096.45	332.823
1100.85	322.573
1105.24	166.915
1109.63	211.452
1114.02	157.078
1118.4	261.26
1122.78	215.09
1127.16	196.99
1131.54	144.231
1135.92	59.7041
1140.29	42.9746
1144.66	65.9912
1149.02	146.585
1153.39	105.142
1157.75	63.6201
1162.11	76.9326
1166.46	108.402
1170.82	2.51562
1175.17	116.461
1179.52	83.3281
1183.86	82.1299
1188.21	13.4873
1192.55	80.5977
1196.89	90.8535
1201.22	200.882
1205.55	68.0644
1209.88	156.373
1214.21	58.1201
1218.54	55.5352
1222.86	159.435
1227.18	158.149
1231.5	67.4834
1235.81	83.7314
1240.12	263.496
1244.43	163.081
1248.74	75.9639
1253.04	147.471
1257.34	80.8857
1261.64	1.12207
1265.94	194.311
1270.23	8.30664
1274.52	128.334
1278.81	75.2598
1283.1	82.457
1287.38	78.4033
1291.66	136.544
1295.94	123.135
1300.21	220.325
1304.48	190.982
1308.75	102.882
1313.02	135.328
1317.29	155.344
1321.55	196.759
1325.81	53.1846
1330.06	145.607
1334.32	36.0459
1338.57	67.8525
1342.82	41.0742
1347.06	75.958
1351.31	66.9424
1355.55	80.3779
1359.79	210.202
1364.02	85.7275
1368.26	155.265
1372.49	23.459
1376.71	76.8057
1380.94	31.7012
1385.16	177.415
1389.38	129.341
1393.6	87.6113
1397.81	100.232
1402.02	90.4619
1406.23	132.741
1410.44	96.6787
1414.64	143.394
1418.85	253.165
1423.04	212.576
1427.24	315.751
1431.43	1380.23
1435.62	999.285
1439.81	351.801
1444	223.49
1448.18	240.216
1452.36	140.599
1456.54	81.3359
1460.71	87.6172
1464.89	108.861
1469.06	52.0029
1473.22	54.9551
1477.39	15.4248
1481.55	212.582
1485.71	65.9356
1489.86	65.0147
1494.02	11.8594
1498.17	175.426
1502.32	99.4111
1506.46	111.671
1510.61	123.193
1514.75	95.793
1518.88	172.072
1523.02	115.515
1527.15	135.371
1531.28	152.331
1535.41	145.472
1539.53	98.666
1543.66	116.655
1547.78	89.4678
1551.89	252.458
1556.01	138.319
1560.12	129.37
1564.23	46.1572
1568.33	116.348
