Measurement: Raman, 514 nm, ccw, Raman Data Processed
Mineral: Calcite
Rruff sample: R050048
Ideal chemistry: CaCO_3_
Locality: Magdalena, New Mexico, USA
Source: University of Arizona Mineral Museum
Description: Colorless massive
Measured chemistry: (Ca_0.99_Zn_0.01_)CO_3_
Pin_id: L00439
Orientation: Laser parallel to -a* (-1 0 0). Fiducial mark perpendicular to laser is parallel to -c [0 0 -1]
Raman shift (cm-1)	intensity
114.859	0
119.05	1.926
123.24	35.436
127.427	77.855
131.612	46.143
135.794	101.269
139.975	131.706
144.153	199.08
148.329	467.17
152.503	872.824
156.674	786.939
160.843	420.667
165.011	198.451
169.175	93.489
173.338	87.74
177.499	66.285
181.657	47.922
185.813	18.743
189.967	9.676
194.119	6.724
198.268	62.081
202.415	44.401
206.561	6.286
210.703	33.058
214.844	24.452
218.983	19.947
223.119	13.476
227.253	43.023
231.385	23.589
235.515	54.181
239.643	60.586
243.768	57.325
247.891	83.943
252.012	126.498
256.131	124.483
260.248	232.097
264.363	272.729
268.475	471.417
272.585	809.724
276.693	1407.34
280.799	1986.72
284.903	1607.14
289.005	911.117
293.104	502.287
297.201	240.401
301.296	187.744
305.389	151.055
309.48	65.608
313.569	89.721
317.655	114.399
321.74	46.116
325.822	76.726
329.902	78.36
333.98	44.14
338.056	55.818
342.129	37.552
346.201	2.524
350.27	13.27
354.337	48.466
358.402	6.803
362.465	9.038
366.526	20.692
370.585	77.367
374.642	21.212
378.696	63.046
382.748	23.721
386.799	12.46
390.847	2.835
394.893	3.187
398.936	17.424
402.978	27.537
407.018	22.174
411.055	48.81
415.091	13.334
419.124	18.837
423.155	3.324
427.184	22.216
431.211	35.322
435.236	5.311
439.259	35.956
443.28	25.316
447.298	5.575
451.315	3.815
455.329	9.917
459.341	40.349
463.352	19.089
467.36	6.244
471.366	22.378
475.37	12.487
479.372	12.423
483.371	21.572
487.369	39.22
491.365	8.169
495.358	28.854
499.35	14.586
503.339	11.677
507.326	18.617
511.311	28.439
515.295	39.496
519.276	29.314
523.255	48.739
527.232	30.39
531.207	10.046
535.179	25.706
539.15	48.334
543.119	24.29
547.086	42.724
551.05	36.114
555.013	37.449
558.973	0.071
562.932	33.364
566.888	14.768
570.842	37.127
574.795	40.416
578.745	35.705
582.693	28.893
586.639	9.644
590.583	20.392
594.525	37.019
598.465	48.304
602.403	61.444
606.339	45.015
610.273	20.098
614.205	40.012
618.135	97.211
622.063	51.193
625.989	35.2
629.912	38.118
633.834	53.304
637.754	49.053
641.671	38.908
645.587	47.725
649.501	6.13
653.412	7.236
657.322	29.628
661.23	44.644
665.135	37.035
669.039	10.952
672.94	2.709
676.84	26.238
680.738	22.807
684.633	47.287
688.527	69.783
692.418	88.223
696.308	78.524
700.195	133.921
704.081	239.255
707.964	826.205
711.846	2610.54
715.726	1062.32
719.603	295.636
723.479	116.784
727.352	92.439
731.224	50.698
735.094	50.938
738.961	59.153
742.827	39.239
746.691	62.465
750.552	43.705
754.412	65.17
758.27	3.575
762.125	76.039
765.979	73.181
769.831	56.664
773.681	57.721
777.529	37.276
781.375	38.366
785.219	50.437
789.06	30.478
792.901	91.539
796.739	17.615
800.575	47.006
804.409	68.307
808.241	62.516
812.071	66.54
815.899	66.339
819.726	54.219
823.55	37.935
827.372	71.443
831.193	8.43
835.011	25.336
838.828	70.5
842.642	42.437
846.455	52.373
850.266	43.311
854.075	6.25
857.881	39.193
861.686	29.132
865.489	11.067
869.29	7.01
873.089	33.965
876.886	77.927
880.682	49.906
884.475	42.892
888.266	23.889
892.056	38.897
895.843	24.917
899.629	47.949
903.413	13.993
907.194	27.873
910.974	62.354
914.752	38.377
918.528	63.326
922.302	14.628
926.074	49.516
929.844	28.596
933.613	47.686
937.379	48.806
941.144	20.949
944.906	29.112
948.667	35.295
952.426	22.507
956.183	20.301
959.938	45.374
963.691	18.459
967.442	31.351
971.191	40.297
974.939	106.631
978.684	71.43
982.428	22.831
986.169	32.835
989.909	78.598
993.647	81.864
997.383	99.372
1001.12	110.918
1004.85	36.512
1008.58	134.235
1012.31	103.354
1016.03	161.136
1019.76	78.957
1023.48	168.83
1027.2	90.757
1030.92	123.342
1034.64	192.582
1038.36	169.61
1042.07	189.671
1045.78	240.76
1049.49	239.875
1053.2	225.015
1056.9	272.943
1060.61	345.346
1064.31	669.144
1068.01	650.425
1071.71	825.381
1075.41	1900.74
1079.1	6547.73
1082.79	29484.2
1086.48	39395.9
1090.17	5213.45
1093.86	1228.01
1097.55	618.595
1101.23	434.232
1104.91	290.857
1108.59	270.56
1112.27	189.236
1115.95	217.935
1119.62	185.053
1123.3	118.862
1126.97	102.671
1130.63	63.36
1134.3	135.16
1137.97	86.352
1141.63	40.422
1145.29	57.706
1148.95	129.757
1152.61	136.886
1156.27	82.959
1159.92	51.965
1163.57	35.827
1167.22	84.622
1170.87	30.654
1174.52	61.535
1178.16	87.495
1181.81	52.555
1185.45	35.404
1189.09	72.444
1192.73	62.335
1196.36	18.146
1200	36.896
1203.63	64.657
1207.26	117.521
1210.89	31.831
1214.52	33.538
1218.14	17.768
1221.77	7.3
1225.39	73.62
1229.01	84.254
1232.62	63.092
1236.24	85.692
1239.86	130.676
1243.47	31.263
1247.08	39.936
1250.69	20.602
1254.3	49.161
1257.9	49.669
1261.5	71.288
1265.11	52.66
1268.71	91.934
1272.3	78.149
1275.9	123.275
1279.49	46.346
1283.09	32.375
1286.68	2.363
1290.27	7.696
1293.86	25.16
1297.44	65.897
1301.03	27.41
1304.61	55.836
1308.19	30.206
1311.77	20.493
1315.34	38.292
1318.92	30.822
1322.49	23.876
1326.06	0.369
1329.63	46.569
1333.2	53.453
1336.77	67.284
1340.33	94.074
1343.89	52.833
1347.46	21.566
1351.02	31.086
1354.57	63.591
1358.13	31.28
1361.68	30.994
1365.23	28.19
1368.79	84.767
1372.33	51.348
1375.88	90.594
1379.43	6.56
1382.97	89.449
1386.51	29.275
1390.05	26.808
1393.59	80.435
1397.13	79.758
1400.66	135.392
1404.19	70.826
1407.72	143.734
1411.25	204.542
1414.78	175.101
1418.31	62.256
1421.83	88.914
1425.36	162.854
1428.88	305.229
1432.39	639.448
1435.91	433.195
1439.43	224.311
1442.94	147.433
1446.45	135.174
1449.96	139.203
1453.47	98.238
1456.98	97.371
1460.48	41.128
1463.99	72.679
1467.49	81.414
1470.99	86.072
1474.49	77.56
1477.99	80.582
1481.48	160.41
1484.97	94.604
1488.46	89.368
1491.95	143.807
1495.44	108.25
1498.93	70.039
1502.41	86.673
1505.9	5.803
1509.38	116.761
1512.86	0
