Measurement: Raman, 514 nm, ccw, Raman Data Processed
Mineral: Calcite
Rruff sample: R040070
Ideal chemistry: CaCO_3_
Locality: Pryor Mountain, Big Horn County, Montana, USA
Source: University of Arizona Mineral Museum
Description: Orange scalenohedral crystals
Measured chemistry: (Ca_0.99_Mg_0.01_)CO_3_
Pin_id: M00039
Orientation: Laser parallel to -c* (0 0 -1). Fiducial mark perpendicular to laser is parallel to a [1 0 0]
Raman shift (cm-1)	intensity
94.768	0
98.947	33.939
103.124	41.692
107.3	78.365
111.473	242.049
115.644	226.683
119.813	166.205
123.981	77.315
128.146	18.653
132.309	48.952
136.47	31.177
140.63	66.529
144.787	147.218
148.942	378.993
153.096	843.876
157.247	759.577
161.396	345.512
165.544	142.935
169.689	76.912
173.833	45.688
177.974	41.561
182.114	33.681
186.251	32.914
190.387	0.218
194.52	17.058
198.652	6.919
202.782	10.532
206.909	22.001
211.035	17.498
215.159	1.157
219.281	19.47
223.4	15.694
227.518	6.994
231.634	46.917
235.748	79.9
239.86	79.995
243.97	46.56
248.079	112.574
252.185	129.39
256.289	164.423
260.391	212.839
264.492	307.665
268.59	449.567
272.687	793.452
276.781	1454.38
280.874	2149.68
284.964	1649.49
289.053	767.656
293.14	435.251
297.225	250.523
301.308	168.999
305.389	132.252
309.468	97.606
313.545	66.808
317.62	43.598
321.693	51.93
325.765	84.33
329.834	84.854
333.902	70.54
337.967	94.184
342.031	3.591
346.093	76.653
350.153	51.499
354.21	51.356
358.267	42.061
362.321	55.585
366.373	42.207
370.423	21.12
374.471	58.376
378.518	37.803
382.563	28.383
386.605	44.32
390.646	66.588
394.685	13.907
398.722	29.91
402.757	32.203
406.79	48.412
410.821	3.001
414.851	16.852
418.878	23.035
422.904	7.183
426.927	4.683
430.949	28.693
434.969	20.991
438.987	25.214
443.003	35.35
447.018	68.415
451.03	24.567
455.041	59.296
459.049	12.087
463.056	25.806
467.061	44.439
471.064	13.994
475.065	59.471
479.064	70.838
483.062	41.131
487.057	43.314
491.051	25.492
495.043	3.3
499.032	6.178
503.02	35.38
507.007	12.218
510.991	63.588
514.973	38.17
518.954	37.151
522.933	96.011
526.91	39.571
530.885	35.194
534.858	95.345
538.829	87.506
542.799	29.412
546.766	42.443
550.732	71.569
554.696	48.057
558.658	26.923
562.618	78.453
566.576	11.055
570.533	37.854
574.488	68.793
578.44	40.186
582.391	58.191
586.341	75.668
590.288	96.25
594.233	107.934
598.177	97.636
602.119	66.345
606.059	53.731
609.997	72.786
613.933	91.12
617.868	183.438
621.801	198.068
625.731	229.65
629.66	197.702
633.588	124.525
637.513	138.44
641.437	192.793
645.358	167.841
649.278	195.967
653.196	182.509
657.113	157.055
661.027	80.906
664.94	32.74
668.851	16.642
672.76	60.438
676.667	31.239
680.572	5.021
684.476	13.562
688.378	0.03
692.278	52.122
696.176	60.201
700.072	157.307
703.967	239.549
707.86	1010.81
711.751	4341.84
715.64	1404.77
719.527	345.714
723.413	90.34
727.297	2.85
731.179	26.654
735.059	41.386
738.937	56.27
742.814	53.2
746.689	20.899
750.562	27.922
754.433	23.689
758.303	36.587
762.17	59.01
766.036	41.583
769.901	3.113
773.763	0.427
777.624	72.983
781.482	12.636
785.339	9.693
789.195	3.012
793.048	21.385
796.9	61.609
800.75	53.803
804.598	6.973
808.445	44.125
812.289	20.565
816.132	60.681
819.973	34.632
823.813	40.671
827.65	32.008
831.486	98.696
835.32	76.692
839.152	142.506
842.983	126.09
846.812	122.032
850.639	122.874
854.464	159.168
858.288	254.87
862.11	196.978
865.93	205.079
869.748	104.176
873.564	54.271
877.379	147.362
881.192	101.249
885.004	83.251
888.813	87.215
892.621	130.173
896.427	95.908
900.232	141.374
904.034	140.246
907.835	142.529
911.634	88.924
915.432	70.024
919.227	64.322
923.021	54.582
926.813	78.88
930.604	56.094
934.393	129.276
938.18	23.397
941.965	11.046
945.749	27.104
949.53	38.317
953.311	42.226
957.089	83.346
960.866	28.547
964.641	95.721
968.414	49.951
972.185	67.087
975.955	11.311
979.723	13.51
983.49	44.685
987.254	15.123
991.017	79.094
994.779	53.412
998.538	152.945
1002.3	364.99
1006.05	238.019
1009.81	166.943
1013.56	163.551
1017.31	214.911
1021.06	282.723
1024.81	250.185
1028.55	249.581
1032.3	224.141
1036.04	228.618
1039.78	167.219
1043.52	244.346
1047.26	137.54
1050.99	280.724
1054.73	190.03
1058.46	239.925
1062.19	336.845
1065.92	646.02
1069.65	527.771
1073.37	664.449
1077.1	1079.06
1080.82	3505.18
1084.54	30382.9
1088.26	35585
1091.97	4556.04
1095.69	1160.9
1099.4	572.846
1103.12	382.751
1106.83	280.699
1110.54	276.623
1114.24	262.197
1117.95	235.917
1121.65	206.562
1125.35	176.486
1129.06	105.984
1132.75	64.209
1136.45	6.847
1140.15	72.51
1143.84	78.857
1147.53	95.025
1151.22	62.119
1154.91	65.089
1158.6	15.858
1162.28	31.729
1165.97	15.319
1169.65	63.812
1173.33	56.227
1177.01	63.561
1180.69	11.816
1184.36	12.136
1188.04	65.546
1191.71	45.99
1195.38	30.809
1199.05	89.543
1202.71	42.819
1206.38	105.057
1210.04	39.07
1213.71	2.283
1217.37	53.61
1221.03	101.936
1224.68	129.031
1228.34	91.295
1231.99	89.779
1235.65	95.526
1239.3	146.019
1242.95	150.442
1246.59	120.792
1250.24	120.203
1253.88	105.852
1257.53	195.218
1261.17	125.266
1264.81	132.243
1268.45	179.29
1272.08	197.988
1275.72	218.75
1279.35	180.43
1282.98	183.173
1286.61	95.563
1290.24	130.795
1293.87	156.695
1297.49	134.819
1301.11	154.846
1304.73	39.654
1308.36	87.931
1311.97	114.208
1315.59	177.228
1319.2	182.236
1322.82	188.262
1326.43	152.733
1330.04	52.43
1333.65	36.161
1337.26	25.89
1340.86	9.048
1344.47	17.288
1348.07	82.115
1351.67	15.617
1355.27	44.25
1358.87	6.074
1362.46	51.44
1366.06	46.124
1369.65	51.932
1373.24	9.498
1376.83	44.294
1380.42	126.061
1384	173.311
1387.59	83.445
1391.17	60.236
1394.75	31.983
1398.33	25.593
1401.91	115.339
1405.49	109.811
1409.06	144.234
1412.64	164.711
1416.21	101.027
1419.78	169.604
1423.35	186.145
1426.91	258.211
1430.48	243.175
1434.05	692.191
1437.61	1480.93
1441.17	807.957
1444.73	571.272
1448.29	619.535
1451.84	604.512
1455.4	644.612
1458.95	649.851
1462.5	553.165
1466.05	492.793
1469.6	455.271
1473.15	368.831
1476.69	216
1480.24	247.668
1483.78	259.628
1487.32	161.954
1490.86	131.245
1494.39	64.958
1497.93	102.127
1501.46	7.847
1505	13.117
1508.53	93.204
1512.06	113.101
1515.59	118.569
1519.11	17.512
