Measurement: Raman, 514 nm, ccw, Raman Data Processed
Mineral: Calcite
Rruff sample: R050048
Ideal chemistry: CaCO_3_
Locality: Magdalena, New Mexico, USA
Source: University of Arizona Mineral Museum
Description: Colorless massive
Measured chemistry: (Ca_0.99_Zn_0.01_)CO_3_
Pin_id: M00181
Orientation: Laser parallel to c* (0 0 1). Fiducial mark perpendicular to laser is parallel to b [0 1 0]
Raman shift (cm-1)	intensity
101.049	0
105.24	37.543
109.429	73.573
113.616	207.664
117.8	340.986
121.983	175.698
126.163	123.152
130.342	130.651
134.518	147.72
138.692	152.889
142.864	170.986
147.034	314.768
151.201	697.739
155.367	1037.65
159.53	511.164
163.692	229.958
167.851	115.795
172.008	86.005
176.163	29.484
180.316	45.409
184.467	22.971
188.616	40.61
192.762	62.303
196.907	36.901
201.049	4.995
205.189	14.992
209.328	4.064
213.464	18.188
217.598	9.634
221.73	5.413
225.86	32.852
229.988	49.146
234.113	29.43
238.237	80.859
242.359	68.104
246.478	109.369
250.595	137.676
254.711	220.221
258.824	332.696
262.935	475.573
267.044	666.86
271.151	1182.86
275.256	2277.27
279.359	3949.5
283.46	4016.82
287.559	2220.45
291.656	1045.53
295.75	559.563
299.843	331.657
303.933	241.839
308.022	180.805
312.108	109.065
316.193	86.313
320.275	100.203
324.355	87.348
328.434	50.609
332.51	30.942
336.584	49.637
340.656	28.972
344.726	31.477
348.794	75.514
352.86	35.787
356.924	39.716
360.986	26.255
365.046	27.436
369.104	20.998
373.159	3.083
377.213	37.202
381.265	14.695
385.315	31.992
389.362	21.235
393.408	17.232
397.451	22.662
401.493	41.607
405.533	8.889
409.57	23.838
413.606	28.872
417.639	21.345
421.671	24.319
425.7	10.545
429.728	28.642
433.753	10.217
437.777	19.841
441.798	57.766
445.818	1.374
449.835	28.436
453.851	30.239
457.864	68.923
461.876	1.499
465.885	2.998
469.893	85.425
473.898	67.828
477.902	32.195
481.903	13.49
485.903	34.705
489.9	66.863
493.896	42.964
497.889	30.994
501.881	39.955
505.87	5.86
509.858	39.854
513.844	51.818
517.827	99.614
521.809	63.57
525.789	57.129
529.766	27.289
533.742	69.43
537.716	21.012
541.688	57.292
545.657	28.494
549.625	48.617
553.591	20.638
557.555	43.604
561.517	65.429
565.477	54.264
569.435	69.998
573.391	73.598
577.345	35.771
581.297	74.047
585.248	74.54
589.196	30.503
593.142	32.453
597.086	82.352
601.029	97.595
604.969	54.051
608.908	31.117
612.844	31.055
616.779	50.469
620.712	83.416
624.642	174.791
628.571	135.27
632.498	55.371
636.423	73.04
640.346	95.728
644.267	96.834
648.186	132.674
652.103	119.663
656.019	75.574
659.932	54.919
663.843	63.736
667.753	29.235
671.66	28.805
675.566	18.01
679.47	4.196
683.372	23.343
687.271	6.292
691.169	50.058
695.065	81.408
698.96	102.969
702.852	195.063
706.742	576.628
710.631	3704.78
714.517	2537.2
718.402	429.722
722.284	147.483
726.165	72.987
730.044	56.839
733.921	60.244
737.796	54.554
741.669	35.048
745.54	38.46
749.41	48.874
753.277	37.342
757.143	69.798
761.006	42.239
764.868	4.57
768.728	4.007
772.586	18.4
776.442	1.232
780.297	8.116
784.149	33.577
787.999	36.77
791.848	55.932
795.695	50.085
799.54	2.734
803.382	6.644
807.224	27.415
811.063	10.465
814.9	23.437
818.736	48.546
822.569	6.344
826.401	44.672
830.231	75.804
834.059	80.712
837.885	27.469
841.709	48.482
845.532	75.082
849.352	23.784
853.171	48.71
856.988	110.641
860.803	120.575
864.616	96.512
868.427	53.463
872.236	26.42
876.044	81.387
879.849	116.369
883.653	53.375
887.455	43.414
891.255	55.396
895.054	34.387
898.85	77.486
902.645	80.481
906.438	68.604
910.229	69.654
914.018	72.782
917.805	60.88
921.59	78.978
925.374	66.785
929.156	96.727
932.936	0.874
936.714	26.768
940.49	72.376
944.264	60.627
948.037	3.176
951.808	40.724
955.577	18.492
959.344	79.74
963.109	9.052
966.872	63.878
970.634	59.246
974.394	29.292
978.152	38.328
981.908	83.719
985.663	63.116
989.415	103.573
993.166	45.027
996.915	106.611
1000.66	244.239
1004.41	125.893
1008.15	151.584
1011.89	147.283
1015.63	157.003
1019.37	174.392
1023.11	187.153
1026.84	177.547
1030.57	141.379
1034.31	135.694
1038.03	192.207
1041.76	166.088
1045.49	130.916
1049.21	221.378
1052.93	186.5
1056.65	192.615
1060.37	226.717
1064.09	523.165
1067.8	640.452
1071.52	626.632
1075.23	1136.84
1078.94	2974.05
1082.64	15974.3
1086.35	50282.5
1090.05	5909.82
1093.76	1321.19
1097.46	728.517
1101.16	496.988
1104.85	324.446
1108.55	266.958
1112.24	203.385
1115.93	184.788
1119.62	390.434
1123.31	231.833
1127	227.723
1130.68	135.203
1134.37	125.308
1138.05	43.781
1141.72	29.912
1145.4	125.351
1149.08	69.987
1152.75	79.659
1156.42	82.15
1160.1	74.717
1163.76	9.889
1167.43	57.524
1171.1	13.139
1174.76	23.455
1178.42	18.741
1182.08	89.781
1185.74	40.175
1189.4	44.622
1193.05	19.965
1196.7	5.207
1200.36	46.729
1204.01	52.569
1207.65	41.974
1211.3	139.908
1214.94	145.286
1218.59	39.417
1222.23	50.74
1225.87	52.011
1229.5	104.215
1233.14	134.753
1236.77	170.411
1240.41	160.983
1244.04	90.533
1247.66	110.198
1251.29	33.698
1254.92	82.261
1258.54	49.736
1262.16	16.095
1265.78	107.4
1269.4	164.676
1273.02	216.927
1276.63	100.154
1280.25	95.345
1283.86	7.473
1287.47	62.477
1291.08	92.351
1294.68	68.037
1298.29	69.634
1301.89	136.145
1305.49	67.533
1309.09	128.186
1312.69	61.429
1316.29	106.585
1319.88	71.116
1323.47	0.133
1327.06	5.361
1330.65	74.885
1334.24	61.718
1337.83	96.105
1341.41	74.613
1344.99	49.235
1348.57	24.729
1352.15	38.224
1355.73	17.602
1359.31	3.804
1362.88	70.253
1366.45	46.141
1370.02	20.146
1373.59	62.621
1377.16	57.842
1380.73	84.484
1384.29	57.999
1387.85	22.383
1391.41	78.614
1394.97	35.026
1398.53	148.295
1402.09	80.944
1405.64	102.684
1409.19	124.022
1412.74	169.734
1416.29	85.185
1419.84	119.069
1423.38	189.17
1426.93	153.054
1430.47	493.823
1434.01	1369.02
1437.55	701.371
1441.09	512.587
1444.62	399.589
1448.16	418.814
1451.69	365.926
1455.22	344.448
1458.75	299.739
1462.28	259.116
1465.8	213.398
1469.33	217.333
1472.85	207.024
1476.37	227.459
1479.89	173.492
1483.4	191.319
1486.92	151.669
1490.43	177.509
1493.95	160.119
1497.46	128.003
1500.97	62.47
1504.47	1.941
1507.98	65.208
1511.48	114.441
1514.99	0.604
