Measurement: Raman, 514 nm, ccw, Raman Data Processed
Mineral: Calcite
Rruff sample: R050130
Ideal chemistry: CaCO_3_
Locality: Mexico
Source: Dave Bunk Minerals
Description: Colorless cleavage rhomb
Measured chemistry: Ca_1.00_CO_3_; trace amounts of Si (?)
Pin_id: L00264
Orientation: Laser parallel to -c* (0 0 -1). Fiducial mark perpendicular to laser is parallel to a [1 0 0]
Raman shift (cm-1)	intensity
49.365	0
53.566	29.554
57.765	39.198
61.962	33.342
66.157	47.828
70.349	56.121
74.54	45.444
78.729	55.564
82.916	10.826
87.101	4.567
91.284	3.689
95.465	21.529
99.644	44.697
103.82	86.643
107.995	109.337
112.168	144.903
116.339	156.382
120.508	120.973
124.675	112.016
128.84	145.855
133.003	159.739
137.164	140.626
141.323	121.869
145.48	175.8
149.635	312.886
153.788	606.361
157.939	593.58
162.088	298.772
166.235	173.949
170.38	100.101
174.523	68.225
178.664	49.313
182.803	36.39
186.94	11.705
191.076	4.944
195.209	10.496
199.34	4.99
203.47	8.358
207.597	19.586
211.722	15.762
215.846	17.858
219.967	16.337
224.087	7.812
228.204	16.845
232.32	37.846
236.434	22.526
240.545	19.535
244.655	24.678
248.763	58.013
252.869	49.422
256.973	68.921
261.075	88.024
265.175	176.525
269.273	283.678
273.369	463.687
277.463	905.711
281.556	1442.56
285.646	1248.36
289.734	618.127
293.821	279.87
297.905	143.432
301.988	93.034
306.069	57.556
310.147	63.934
314.224	48.337
318.299	18.962
322.372	43.234
326.443	41.471
330.512	23.67
334.579	13.887
338.645	7.98
342.708	19.868
346.769	5.678
350.829	15.26
354.887	9.678
358.942	0.186
362.996	14.601
367.048	13.98
371.098	4.357
375.146	23.509
379.192	20.769
383.236	14.597
387.279	14.228
391.319	2.201
395.358	18.351
399.394	11.405
403.429	3.392
407.462	37.438
411.493	6.682
415.522	24.885
419.549	2.172
423.575	42.418
427.598	0.637
431.619	16.235
435.639	7.436
439.657	20.59
443.673	26.718
447.687	27.763
451.699	4.921
455.709	35.519
459.717	13.521
463.724	17.647
467.728	22.682
471.731	14.563
475.732	28.401
479.731	34.812
483.728	19.759
487.723	33.492
491.716	37.11
495.708	49.511
499.697	31.059
503.685	37.489
507.671	47.467
511.655	38.861
515.637	30.553
519.617	19.793
523.596	21.281
527.572	51.534
531.547	31.812
535.52	48.156
539.491	29.432
543.46	13.497
547.427	41.776
551.393	21.973
555.356	18.737
559.318	32.964
563.278	36.304
567.236	54.477
571.192	42.66
575.147	9.809
579.099	40.948
583.05	37.277
586.999	32.427
590.946	30.573
594.891	8.692
598.834	20.891
602.776	34.085
606.715	1.597
610.653	8.566
614.589	22.625
618.523	31.753
622.456	6.816
626.386	22.882
630.315	16.41
634.242	4.049
638.167	2.256
642.09	8.117
646.012	26.185
649.931	28.175
653.849	1.137
657.765	25.537
661.679	35.533
665.592	26.601
669.502	4.023
673.411	19.839
677.318	42.756
681.223	12.639
685.126	26.491
689.028	15.293
692.927	46.117
696.825	40.979
700.721	69.433
704.616	137.419
708.508	573.218
712.399	2982.12
716.288	1274.88
720.175	265.679
724.06	123.449
727.944	75.229
731.825	24.364
735.705	13.038
739.584	30.734
743.46	13.741
747.334	18.001
751.207	11.815
755.078	55.539
758.947	41.106
762.815	11.561
766.68	24.608
770.544	19.038
774.406	8.571
778.267	40.884
782.125	23.294
785.982	9.232
789.837	10.867
793.69	24.723
797.542	8.004
801.391	15.827
805.239	20.643
809.085	3.931
812.93	25.222
816.772	45.505
820.613	20.628
824.452	32.601
828.29	2.805
832.125	10.013
835.959	28.214
839.791	37.434
843.621	40.635
847.45	8.832
851.277	16.017
855.102	0.807
858.925	10.353
862.746	7.502
866.566	32.643
870.384	17.78
874.2	14.094
878.015	13.996
881.828	8.074
885.639	32.141
889.448	56.163
893.256	3.856
897.061	9.105
900.865	2.899
904.668	0.046
908.468	31.97
912.267	32.934
916.064	17.694
919.86	14.352
923.653	0.505
927.445	30.352
931.236	41.259
935.024	20.128
938.811	8.78
942.596	2.943
946.379	24.803
950.161	34.307
953.94	13.2
957.719	13.109
961.495	8.923
965.27	27.447
969.043	9.683
972.814	1.929
976.583	15.521
980.351	27.365
984.117	30.258
987.882	19.172
991.644	25.093
995.405	43.019
999.165	59.924
1002.92	39.821
1006.68	47.504
1010.43	88.426
1014.18	78.35
1017.93	99.201
1021.68	96.155
1025.43	97.071
1029.18	130
1032.92	106.898
1036.66	84.726
1040.4	99.735
1044.14	106.391
1047.88	120.429
1051.62	151.155
1055.35	150.1
1059.08	152.071
1062.81	203.074
1066.54	476.079
1070.27	367.141
1073.99	436.135
1077.72	776.166
1081.44	1819.42
1085.16	17299.5
1088.88	33367.6
1092.59	4286.64
1096.31	895.734
1100.02	472.89
1103.73	283.823
1107.44	251.524
1111.15	173.662
1114.86	146.848
1118.57	92.676
1122.27	102.814
1125.97	90.957
1129.67	101.539
1133.37	65.671
1137.07	72.051
1140.76	49.759
1144.45	62.175
1148.15	19.307
1151.84	20.438
1155.53	36.092
1159.21	35.536
1162.9	61.744
1166.58	11.922
1170.26	26.023
1173.94	12.174
1177.62	28.282
1181.3	6.016
1184.97	17.082
1188.65	30.358
1192.32	27.498
1195.99	37.608
1199.66	14.36
1203.33	31.463
1206.99	9.773
1210.65	31.927
1214.32	11.096
1217.98	25.197
1221.64	34.848
1225.29	24.941
1228.95	15.852
1232.6	15.689
1236.26	26.51
1239.91	15.607
1243.56	26.675
1247.2	14.808
1250.85	18.103
1254.49	21.112
1258.13	25.094
1261.78	16.941
1265.41	5.142
1269.05	13.072
1272.69	7.977
1276.32	62.864
1279.95	27.74
1283.59	6.401
1287.21	0.567
1290.84	40.251
1294.47	27.05
1298.09	5.166
1301.72	21.592
1305.34	4.316
1308.96	14
1312.58	26.656
1316.19	51.3
1319.81	45.923
1323.42	23.53
1327.03	30.843
1330.64	0.414
1334.25	16.005
1337.86	35.242
1341.46	35.701
1345.07	51.217
1348.67	46.82
1352.27	27.364
1355.87	20.852
1359.46	29.302
1363.06	4.272
1366.65	43.072
1370.25	8.715
1373.84	20.176
1377.43	58.223
1381.02	45.6
1384.6	65.433
1388.18	52.844
1391.77	53.476
1395.35	18.859
1398.93	36.485
1402.51	37.401
1406.08	1.978
1409.66	40.588
1413.23	84.518
1416.8	98.191
1420.37	135.608
1423.94	151.083
1427.51	139.502
1431.08	191.916
1434.64	342.307
1438.2	964.244
1441.76	345.427
1445.32	145.691
1448.88	63.265
1452.43	91.375
1455.99	103.959
1459.54	72.305
1463.09	101.311
1466.64	70.948
1470.19	42.977
1473.74	4.99
1477.28	9.001
1480.83	33.045
1484.37	30.156
1487.91	14.494
1491.45	37.026
1494.98	52.738
1498.52	77.483
1502.05	48.618
1505.59	70.16
1509.12	29.209
1512.65	35.184
1516.17	15.527
1519.7	12.231
