Measurement: Raman, 514 nm, ccw, Raman Data Processed
Mineral: Calcite
Rruff sample: R050130
Ideal chemistry: CaCO_3_
Locality: Mexico
Source: Dave Bunk Minerals
Description: Colorless cleavage rhomb
Measured chemistry: Ca_1.00_CO_3_; trace amounts of Si (?)
Pin_id: L00286
Orientation: Laser parallel to a* (1 0 0). Fiducial mark perpendicular to laser is parallel to -c [0 0 -1]
Raman shift (cm-1)	intensity
82.649	0
86.858	7.221
91.065	2.914
95.269	8.583
99.471	31.725
103.67	46.977
107.868	44.003
112.063	66.674
116.256	116.829
120.447	109.302
124.636	107.034
128.822	130.009
133.006	120.196
137.188	213.2
141.368	311.664
145.545	654.596
149.72	1849.21
153.893	5009.9
158.064	3049.69
162.233	963.604
166.399	372.667
170.563	196.872
174.725	114.171
178.885	75.503
183.043	55.824
187.198	14.141
191.351	25.455
195.502	22.76
199.651	4.079
203.797	12.386
207.942	31.695
212.084	15.98
216.224	25.236
220.362	41.46
224.497	43.716
228.631	60.4
232.762	62.197
236.891	98.448
241.018	116.902
245.143	151.8
249.265	218.366
253.386	345.315
257.504	497.84
261.62	674.235
265.734	1086.94
269.845	1724.24
273.955	2970.32
278.062	6051.63
282.167	9242.82
286.27	5157.06
290.371	2066.33
294.47	1037.59
298.567	619.722
302.661	445.791
306.753	278.597
310.843	194.708
314.931	180.931
319.017	143.998
323.101	87.236
327.182	85.7
331.261	81.682
335.339	42.461
339.414	56.197
343.487	28.049
347.557	34.77
351.626	51.516
355.693	27.862
359.757	36.461
363.819	39.309
367.879	30.788
371.937	16.179
375.993	5.278
380.047	26.063
384.099	2.457
388.148	33.785
392.196	5.094
396.241	12.276
400.284	1.417
404.325	13.485
408.364	19.415
412.401	3.453
416.435	8.278
420.468	6.992
424.498	24.161
428.527	4.404
432.553	7.019
436.577	21.541
440.599	34.024
444.619	19.452
448.637	12.788
452.653	3.103
456.667	24.5
460.678	32.752
464.688	29.709
468.695	17.794
472.701	1.811
476.704	9.842
480.705	24.884
484.704	29.791
488.701	42.287
492.696	38.302
496.689	40.02
500.68	35.71
504.668	24.909
508.655	27.478
512.639	42.045
516.622	41.655
520.602	55.125
524.581	35.521
528.557	25.798
532.531	45.065
536.503	39.746
540.473	24.895
544.441	30.036
548.407	32.062
552.371	47.865
556.333	24.707
560.293	40.001
564.251	21.711
568.206	53.01
572.16	32.757
576.112	31.368
580.061	11.251
584.009	40.033
587.954	17.505
591.897	32.766
595.839	50.265
599.778	13.49
603.716	46.937
607.651	38.302
611.584	17.38
615.515	10.623
619.444	9.153
623.372	25.084
627.297	46.619
631.22	37.496
635.141	11.542
639.06	43.626
642.977	12.468
646.892	37.054
650.805	37.969
654.716	29.018
658.625	7.144
662.532	23.358
666.437	19.761
670.34	8.19
674.241	26.248
678.139	23.11
682.036	32.66
685.931	23.468
689.824	32.672
693.715	31.792
697.604	19.56
701.491	71.388
705.376	181.098
709.259	889.773
713.139	2880.26
717.018	422.982
720.895	102.916
724.77	76.581
728.643	23.802
732.514	46.617
736.383	9.752
740.25	32.861
744.115	41.51
747.978	38.138
751.839	23.749
755.698	32.28
759.555	39.908
763.41	40.5
767.263	23.005
771.114	21.009
774.964	35.797
778.811	10.855
782.656	35.386
786.499	38.908
790.341	15.294
794.18	2.95
798.017	4.344
801.853	26.183
805.686	56.389
809.518	8.835
813.347	20.055
817.175	4.895
821.001	6.516
824.824	22.769
828.646	24.729
832.466	20.141
836.284	14.426
840.1	4.286
843.914	31.725
847.726	16.046
851.536	15.345
855.344	13.646
859.15	13.943
862.954	38.237
866.756	42.521
870.557	26.789
874.355	17.053
878.152	7.689
881.946	1.443
885.739	24.755
889.53	44.183
893.318	28.426
897.105	20.655
900.89	10.88
904.673	51.135
908.454	22.391
912.234	16.406
916.011	16.472
919.786	12.312
923.56	13.944
927.331	11.792
931.101	19.394
934.868	28.507
938.634	45.772
942.398	5.965
946.16	1.248
949.92	30.495
953.678	30.765
957.435	43.064
961.189	37.369
964.941	31.191
968.692	27.06
972.441	7.824
976.187	15.845
979.932	28.389
983.675	48.724
987.416	47.074
991.155	0.054
994.893	40.44
998.628	42.395
1002.36	79.82
1006.09	118.165
1009.82	120.631
1013.55	135.129
1017.28	95.822
1021	111.35
1024.72	66.553
1028.44	111.011
1032.16	138.44
1035.88	131.025
1039.59	113.806
1043.31	110.438
1047.02	112.111
1050.73	111.527
1054.43	192.212
1058.14	211.904
1061.84	282.648
1065.54	754.771
1069.24	432.905
1072.94	616.684
1076.64	1169.26
1080.33	4630.13
1084.03	64143
1087.71	10929.8
1091.4	1519.51
1095.09	657.417
1098.78	395.307
1102.46	304.211
1106.14	221.124
1109.82	185.047
1113.5	151.264
1117.17	171.985
1120.85	146.043
1124.52	106.391
1128.19	109.463
1131.86	120.504
1135.52	101.658
1139.19	98.922
1142.85	79.037
1146.51	38.314
1150.17	16.353
1153.83	25.491
1157.48	18.147
1161.14	66.193
1164.79	69.518
1168.44	38.573
1172.09	31.706
1175.73	16.774
1179.38	7.177
1183.02	4.796
1186.66	17.082
1190.3	43.524
1193.94	45.672
1197.58	39.724
1201.21	14.787
1204.84	2.318
1208.47	6.797
1212.1	25.364
1215.72	15.232
1219.35	47.342
1222.97	39.421
1226.59	33.601
1230.21	47.014
1233.83	91.97
1237.45	11.141
1241.06	19.152
1244.67	20.367
1248.28	37.78
1251.89	38.198
1255.5	50.063
1259.1	46.947
1262.7	16.84
1266.31	29.631
1269.9	5.378
1273.5	2.174
1277.1	14.106
1280.69	67.564
1284.29	32.195
1287.88	45.803
1291.46	41.373
1295.05	21.883
1298.64	28.355
1302.22	10.233
1305.8	1.107
1309.38	27.413
1312.96	31.68
1316.54	45.917
1320.11	60.709
1323.68	11.949
1327.25	18.91
1330.82	28.014
1334.39	23.108
1337.96	22.111
1341.52	11.359
1345.08	10.327
1348.64	63.27
1352.2	53.818
1355.76	16.738
1359.31	42.623
1362.87	31.672
1366.42	22.516
1369.97	18.689
1373.52	16.728
1377.06	2.237
1380.61	52.785
1384.15	49.301
1387.69	49.749
1391.23	54.084
1394.77	93.268
1398.3	25.284
1401.84	26.201
1405.37	37.586
1408.9	76.253
1412.43	14.853
1415.96	76.752
1419.48	139.091
1423.01	155.34
1426.53	254.275
1430.05	889.793
1433.57	685.174
1437.08	177.285
1440.6	71.656
1444.11	49.543
1447.62	65.164
1451.13	55.192
1454.64	42.815
1458.15	46.306
1461.65	68.912
1465.16	80.447
1468.66	95.073
1472.16	97.701
1475.65	74.327
1479.15	56.175
1482.64	37.265
1486.14	13.527
1489.63	34.571
1493.12	13.09
1496.61	25.703
1500.09	40.787
1503.58	57.22
1507.06	54.759
1510.54	48.142
