Measurement: Raman, 514 nm, ccw, Raman Data Processed
Mineral: Calcite
Rruff sample: R040070
Ideal chemistry: CaCO_3_
Locality: Pryor Mountain, Big Horn County, Montana, USA
Source: University of Arizona Mineral Museum
Description: Orange scalenohedral crystals
Measured chemistry: (Ca_0.99_Mg_0.01_)CO_3_
Pin_id: L00173
Orientation: Laser parallel to a* (1 0 0). Fiducial mark perpendicular to laser is parallel to -c [0 0 -1]
Raman shift (cm-1)	intensity
94.768	0
98.947	31.264
103.124	6.698
107.3	54.385
111.473	49.335
115.644	95.081
119.813	84.815
123.981	64.021
128.146	104.354
132.309	164.574
136.47	262.542
140.63	534.144
144.787	1233.23
148.942	3273.72
153.096	5826.57
157.247	4033.72
161.396	1732.13
165.544	687.759
169.689	298.61
173.833	187.837
177.974	83.349
182.114	62.912
186.251	56.432
190.387	21.989
194.52	12.666
198.652	21.494
202.782	20.36
206.909	23.334
211.035	75.356
215.159	49.487
219.281	77.655
223.4	72.834
227.518	103.024
231.634	140.216
235.748	177.409
239.86	204.644
243.97	290.839
248.079	376.203
252.185	510.865
256.289	812.25
260.391	1156.9
264.492	1709.67
268.59	2779.38
272.687	5126.72
276.781	9527.15
280.874	12218.8
284.964	8098.58
289.053	3980.67
293.14	1983.09
297.225	1096.99
301.308	670.156
305.389	469.269
309.468	322.575
313.545	259.509
317.62	192.066
321.693	139.447
325.765	122.94
329.834	92.175
333.902	66.097
337.967	61.373
342.031	42.548
346.093	34.632
350.153	65.938
354.21	45.086
358.267	40.147
362.321	31.181
366.373	30.187
370.423	32.188
374.471	12.467
378.518	11.39
382.563	4.222
386.605	13.023
390.646	10.171
394.685	23.341
398.722	15.386
402.757	0.014
406.79	3.116
410.821	11.53
414.851	19.71
418.878	20.121
422.904	23.439
426.927	10.547
430.949	13.552
434.969	18.565
438.987	10.56
443.003	12.606
447.018	9.521
451.03	16.469
455.041	6.677
459.049	19.819
463.056	27.425
467.061	6.97
471.064	16.568
475.065	1.614
479.064	18.986
483.062	2.374
487.057	8.572
491.051	3.391
495.043	15.473
499.032	21.796
503.02	37.986
507.007	27.067
510.991	22.108
514.973	24.659
518.954	33.301
522.933	33.391
526.91	22.781
530.885	32.924
534.858	35.951
538.829	52.893
542.799	40.733
546.766	35.666
550.732	29.441
554.696	18.309
558.658	27.584
562.618	21.753
566.576	24.009
570.533	61.866
574.488	28.332
578.44	17.464
582.391	22.935
586.341	38.953
590.288	37.017
594.233	39.172
598.177	21.014
602.119	35.915
606.059	9.612
609.997	39.906
613.933	29.291
617.868	22.63
621.801	37.164
625.731	15.422
629.66	35.33
633.588	20.981
637.513	0.741
641.437	41.599
645.358	1.584
649.278	59.966
653.196	11.767
657.113	34.549
661.027	39.358
664.94	37.311
668.851	56.756
672.76	21.195
676.667	20.818
680.572	29.315
684.476	37.632
688.378	44.13
692.278	56.512
696.176	61.11
700.072	88.586
703.967	236.818
707.86	985.745
711.751	3237.72
715.64	955.704
719.527	230.216
723.413	111.715
727.297	41.935
731.179	38.643
735.059	28.191
738.937	57.536
742.814	16.941
746.689	34.305
750.562	37.319
754.433	37.298
758.303	50.115
762.17	70.162
766.036	29.979
769.901	52.568
773.763	17.458
777.624	44.344
781.482	56.142
785.339	20.825
789.195	45.096
793.048	13.575
796.9	67.516
800.75	2.205
804.598	20.598
808.445	33.631
812.289	12.306
816.132	3.573
819.973	29.755
823.813	12.196
827.65	21.851
831.486	29.171
835.32	33.106
839.152	1.63
842.983	5.162
846.812	28.522
850.639	61.923
854.464	0.841
858.288	24.316
862.11	2.591
865.93	12.436
869.748	13.622
873.564	46.224
877.379	3.984
881.192	28.717
885.004	2.658
888.813	27.735
892.621	26.219
896.427	28.428
900.232	10.333
904.034	43.65
907.835	53.849
911.634	10.908
915.432	26.036
919.227	37.583
923.021	39.853
926.813	3.55
930.604	84.235
934.393	50.911
938.18	26.712
941.965	27.823
945.749	3.071
949.53	7.28
953.311	21.87
957.089	30.049
960.866	39.265
964.641	39.341
968.414	17.245
972.185	47.064
975.955	43.861
979.723	60.818
983.49	8.538
987.254	56.245
991.017	22.064
994.779	96.666
998.538	25.606
1002.3	56.995
1006.05	100.419
1009.81	121.309
1013.56	115.054
1017.31	158.941
1021.06	156.499
1024.81	150.717
1028.55	131.854
1032.3	120.842
1036.04	124.188
1039.78	195.585
1043.52	231.7
1047.26	223.624
1050.99	225.562
1054.73	199.208
1058.46	239.05
1062.19	290.791
1065.92	649.797
1069.65	530.989
1073.37	583.484
1077.1	1151.67
1080.82	3560.08
1084.54	29306
1088.26	41263.9
1091.97	4398.66
1095.69	1046.55
1099.4	546.625
1103.12	351.358
1106.83	284.645
1110.54	177.605
1114.24	174.064
1117.95	145.374
1121.65	155.353
1125.35	130.455
1129.06	147.485
1132.75	58.291
1136.45	40.385
1140.15	51.39
1143.84	62.189
1147.53	12.096
1151.22	24.444
1154.91	33.674
1158.6	1.156
1162.28	4.048
1165.97	36.433
1169.65	15.379
1173.33	4.001
1177.01	30.578
1180.69	20.339
1184.36	58.397
1188.04	57.334
1191.71	3.321
1195.38	28.809
1199.05	81.004
1202.71	23.351
1206.38	1.395
1210.04	66.06
1213.71	63.774
1217.37	36.356
1221.03	20.193
1224.68	12.54
1228.34	20.12
1231.99	5.569
1235.65	11.92
1239.3	34.792
1242.95	62.276
1246.59	36.323
1250.24	61.39
1253.88	27.537
1257.53	10.026
1261.17	57.169
1264.81	65.981
1268.45	16.482
1272.08	24.706
1275.72	54.7
1279.35	15.382
1282.98	2.313
1286.61	19.604
1290.24	7.37
1293.87	48.474
1297.49	1.23
1301.11	13.284
1304.73	23.932
1308.36	32.924
1311.97	25.778
1315.59	6.649
1319.2	21.109
1322.82	76.987
1326.43	75.289
1330.04	27.833
1333.65	4.757
1337.26	11.296
1340.86	17.746
1344.47	31.304
1348.07	85.524
1351.67	6.638
1355.27	17.119
1358.87	28.787
1362.46	95.039
1366.06	65.141
1369.65	5.744
1373.24	38.741
1376.83	63.224
1380.42	19.68
1384	64.748
1387.59	3.389
1391.17	66.167
1394.75	22.793
1398.33	61.345
1401.91	98.682
1405.49	111.998
1409.06	87.396
1412.64	167.7
1416.21	124.797
1419.78	196.464
1423.35	216.406
1426.91	160.716
1430.48	233.104
1434.05	452.972
1437.61	1323.45
1441.17	529.637
1444.73	184.407
1448.29	91.383
1451.84	149.755
1455.4	146.541
1458.95	151.251
1462.5	55.425
1466.05	165.966
1469.6	89.442
1473.15	166.75
1476.69	54.279
1480.24	125.779
1483.78	69.305
1487.32	139.438
1490.86	116.073
1494.39	79.179
1497.93	115.633
1501.46	2.373
1505	0.546
1508.53	91.7
1512.06	70.159
1515.59	141.028
1519.11	92.201
1522.64	37.954
