Measurement: Raman, 514 nm, ccw, Raman Data Processed
Mineral: Calcite
Rruff sample: R050048
Ideal chemistry: CaCO_3_
Locality: Magdalena, New Mexico, USA
Source: University of Arizona Mineral Museum
Description: Colorless massive
Measured chemistry: (Ca_0.99_Zn_0.01_)CO_3_
Pin_id: M00181
Orientation: Laser parallel to c* (0 0 1). Fiducial mark perpendicular to laser is parallel to b [0 1 0]
Raman shift (cm-1)	intensity
101.049	0
105.24	38.385
109.429	73.887
113.616	139.18
117.8	276.047
121.983	143.542
126.163	153.012
130.342	143.754
134.518	134.458
138.692	140.161
142.864	187.564
147.034	308.642
151.201	749.779
155.367	1083.44
159.53	512.416
163.692	215.423
167.851	111.05
172.008	80.013
176.163	97.403
180.316	34.933
184.467	57.766
188.616	19.671
192.762	9.557
196.907	7.463
201.049	31.473
205.189	6.55
209.328	17.029
213.464	30.458
217.598	33.987
221.73	3.712
225.86	23.955
229.988	11.512
234.113	15.664
238.237	11.378
242.359	38.49
246.478	16.625
250.595	55.188
254.711	67.961
258.824	134.089
262.935	148.284
267.044	225.643
271.151	372.419
275.256	635.244
279.359	1241.87
283.46	1176.63
287.559	654.655
291.656	345.766
295.75	125.657
299.843	50.406
303.933	100.742
308.022	54.095
312.108	23.529
316.193	4.792
320.275	20.668
324.355	39.737
328.434	15.145
332.51	17.506
336.584	23.202
340.656	27.712
344.726	5.41
348.794	52.641
352.86	45.098
356.924	34.646
360.986	5.683
365.046	4.806
369.104	34.895
373.159	28.298
377.213	51.632
381.265	24.53
385.315	56.961
389.362	41.844
393.408	29.332
397.451	20.329
401.493	13.248
405.533	77.138
409.57	18.933
413.606	18.606
417.639	23.548
421.671	27.214
425.7	5.646
429.728	3.973
433.753	3.328
437.777	36.957
441.798	28.797
445.818	12.982
449.835	27.218
453.851	46.886
457.864	49.932
461.876	21.934
465.885	39.883
469.893	47.785
473.898	9.636
477.902	2.284
481.903	36.882
485.903	26.395
489.9	71.028
493.896	12.647
497.889	35.121
501.881	41.614
505.87	9.818
509.858	66.244
513.844	47.596
517.827	35.931
521.809	59.205
525.789	73.63
529.766	23.842
533.742	19.452
537.716	11.204
541.688	42.846
545.657	58.053
549.625	15.814
553.591	31.399
557.555	38.931
561.517	49.344
565.477	28.612
569.435	60.062
573.391	23.52
577.345	64.555
581.297	91.225
585.248	48.863
589.196	5.297
593.142	30.623
597.086	22.723
601.029	92.694
604.969	32.912
608.908	15.099
612.844	99.989
616.779	74.959
620.712	73.23
624.642	165.028
628.571	92.673
632.498	52.08
636.423	45.782
640.346	64.833
644.267	23.636
648.186	90.06
652.103	92.424
656.019	54.661
659.932	74.088
663.843	14.601
667.753	30.196
671.66	83.42
675.566	44.489
679.47	6.886
683.372	32.01
687.271	59.317
691.169	37.856
695.065	64.302
698.96	9.665
702.852	131.398
706.742	393.622
710.631	2327.94
714.517	1708.52
718.402	257.08
722.284	69.807
726.165	21.284
730.044	91.136
733.921	87.386
737.796	94.727
741.669	39.21
745.54	33.33
749.41	100.663
753.277	48.005
757.143	0.131
761.006	14.814
764.868	11.275
768.728	96.582
772.586	46.829
776.442	97.02
780.297	55.181
784.149	2.318
787.999	75.431
791.848	59.541
795.695	39.627
799.54	46.628
803.382	39.679
807.224	10.7
811.063	28.687
814.9	27.551
818.736	57.292
822.569	55.206
826.401	42.132
830.231	24.651
834.059	35.056
837.885	87.8
841.709	41.243
845.532	70.237
849.352	31.95
853.171	71.435
856.988	98.171
860.803	88.906
864.616	87.642
868.427	61.381
872.236	6.12
876.044	106.856
879.849	103.542
883.653	39.255
887.455	13.923
891.255	12.636
895.054	21.329
898.85	55.13
902.645	61.913
906.438	83.753
910.229	29.196
914.018	20.833
917.805	43.632
921.59	130.541
925.374	71.577
929.156	75.462
932.936	35.292
936.714	19.106
940.49	45.026
944.264	143.989
948.037	83.236
951.808	54.178
955.577	60.146
959.344	56.88
963.109	51.905
966.872	23.614
970.634	85.638
974.394	3.718
978.152	34.806
981.908	41.95
985.663	81.085
989.415	41.233
993.166	127.771
996.915	123.024
1000.66	235.267
1004.41	87.534
1008.15	3.829
1011.89	65.147
1015.63	156.49
1019.37	220.292
1023.11	229.728
1026.84	141.356
1030.57	123.814
1034.31	79.833
1038.03	144.037
1041.76	226.232
1045.49	149.777
1049.21	158.772
1052.93	166.829
1056.65	186.107
1060.37	189.792
1064.09	400.483
1067.8	566.204
1071.52	592.538
1075.23	939.43
1078.94	2308.41
1082.64	12472.3
1086.35	40231.2
1090.05	4766.55
1093.76	1070.57
1097.46	589.541
1101.16	409.635
1104.85	264.6
1108.55	182.667
1112.24	144.738
1115.93	192.789
1119.62	379.815
1123.31	236.807
1127	180.91
1130.68	123.219
1134.37	62.52
1138.05	42.726
1141.72	24.853
1145.4	141.26
1149.08	138.635
1152.75	93.099
1156.42	73.603
1160.1	60.051
1163.76	8.742
1167.43	7.427
1171.1	13.703
1174.76	57.004
1178.42	74.014
1182.08	111.644
1185.74	22.917
1189.4	55.16
1193.05	36.739
1196.7	38.203
1200.36	7.944
1204.01	60.944
1207.65	64.747
1211.3	96.298
1214.94	40.548
1218.59	11.031
1222.23	11.562
1225.87	62.89
1229.5	79.035
1233.14	145.595
1236.77	160.806
1240.41	155.955
1244.04	105.213
1247.66	66.385
1251.29	38.486
1254.92	42.135
1258.54	99.772
1262.16	73.775
1265.78	126.649
1269.4	193.557
1273.02	194.855
1276.63	80.577
1280.25	45.272
1283.86	65.861
1287.47	30.376
1291.08	49.755
1294.68	133.08
1298.29	92.31
1301.89	150.454
1305.49	106.379
1309.09	157.755
1312.69	17.449
1316.29	28.084
1319.88	60.121
1323.47	37.537
1327.06	124.826
1330.65	46.288
1334.24	80.716
1337.83	98.372
1341.41	109.727
1344.99	12.911
1348.57	14.695
1352.15	7.656
1355.73	8.07
1359.31	38.492
1362.88	74.115
1366.45	115.505
1370.02	108.332
1373.59	0.4
1377.16	114.085
1380.73	55.516
1384.29	30.289
1387.85	36.947
1391.41	111.652
1394.97	24.21
1398.53	72.474
1402.09	75.732
1405.64	110.549
1409.19	201.696
1412.74	223.866
1416.29	128.289
1419.84	75.704
1423.38	133.117
1426.93	110.995
1430.47	343.264
1434.01	827.183
1437.55	552.087
1441.09	365.883
1444.62	408.229
1448.16	382.937
1451.69	384.727
1455.22	308.494
1458.75	304.265
1462.28	224.976
1465.8	178.149
1469.33	144.078
1472.85	178.803
1476.37	189.44
1479.89	281.911
1483.4	225.26
1486.92	213.696
1490.43	226.445
1493.95	179.04
1497.46	122.384
1500.97	10.792
1504.47	44.562
1507.98	4.27
1511.48	79.402
1514.99	0.195
