Measurement: Raman, 514 nm, ccw, Raman Data Processed
Mineral: Calcite
Rruff sample: R040170
Ideal chemistry: CaCO_3_
Locality: Peramea, Lerida Province, Catalonia, Spain
Source: University of Arizona Mineral Museum
Description: Pink fragment
Measured chemistry: (Ca_0.99_Mg_0.01_)CO_3_; trace amounts of Co
Pin_id: L00956
Orientation: Laser parallel to -a* (-1 0 0). Fiducial mark perpendicular to laser is parallel to c [0 0 1]
Raman shift (cm-1)	intensity
102.116	0
107.047	12.5884
111.976	35.1582
116.903	170.088
121.827	48.9932
126.749	110.66
131.668	242.87
136.585	453.365
141.5	1038.43
146.412	1618.39
151.321	1837.84
156.229	1182.49
161.134	506.136
166.036	362.709
170.936	160.332
175.834	153.431
180.729	49.064
185.622	146.327
190.512	159.531
195.4	133.089
200.286	123.491
205.169	79.1372
210.049	108.484
214.928	58.1206
219.803	59.9438
224.677	71.7261
229.548	114.874
234.416	131.012
239.282	124.196
244.146	216.833
249.007	461.146
253.866	458.021
258.722	678.951
263.576	1098.13
268.427	1805.57
273.276	2772.77
278.123	2891.52
282.967	1953.12
287.809	1095.78
292.648	630.606
297.485	425.222
302.319	331.001
307.151	138.906
311.98	254.913
316.807	148.439
321.631	123.569
326.454	68.5303
331.273	47.7383
336.09	55.977
340.905	16.4439
345.717	89.4346
350.527	25.1597
355.334	19.9683
360.139	122.213
364.941	29.4839
369.741	59.7148
374.538	30.8701
379.333	2.06885
384.126	38.5688
388.916	57.5259
393.703	50.602
398.488	135.394
403.271	14.7876
408.051	0.92041
412.828	64.0454
417.603	12.6733
422.376	42.0981
427.146	1.42432
431.914	49.9019
436.679	60.1738
441.442	23.4204
446.202	89.0527
450.96	72.6558
455.715	96.063
460.467	146.968
465.218	98.7441
469.965	113.455
474.711	32.0835
479.454	29.1987
484.194	175.816
488.932	197.667
493.667	76.9014
498.4	81.0727
503.13	108.557
507.858	29.8057
512.583	162.18
517.306	85.6982
522.026	128.172
526.744	24.4292
531.459	95.4668
536.172	38.0605
540.882	131.682
545.59	14.5093
550.295	79.8076
554.998	61.8408
559.698	0.247559
564.396	114.364
569.091	120.373
573.784	47.3696
578.474	42.8662
583.162	31.3501
587.847	6.26856
592.529	2.79541
597.209	67.2241
601.887	136.358
606.562	151.726
611.235	162.669
615.905	35.7935
620.572	46.1714
625.237	137.375
629.9	139.068
634.56	51.2188
639.217	105.271
643.872	31.5083
648.524	93.3477
653.174	124.116
657.821	48.8232
662.466	88.4937
667.108	10.1948
671.748	111.925
676.385	190.086
681.02	52.5527
685.652	186.737
690.281	187.345
694.908	196.603
699.533	599.555
704.155	1375.69
708.774	2144.84
713.391	1351.95
718.005	423.989
722.617	108.392
727.226	72.9668
731.833	129.155
736.437	95.9053
741.039	248.596
745.638	15.7725
750.234	167.67
754.828	11.7676
759.419	119.588
764.008	194.34
768.595	15.918
773.178	151.644
777.759	30.6602
782.338	63.1728
786.914	112.555
791.488	58.2676
796.059	70.8731
800.627	149.211
805.193	54.6572
809.756	94.418
814.317	95.8955
818.875	22.8262
823.431	76.6836
827.984	130.752
832.534	5.36328
837.082	119.1
841.627	168.823
846.17	103.231
850.71	136.573
855.248	135.848
859.783	50.0684
864.316	53.2588
868.846	154.397
873.373	161.49
877.898	157.31
882.42	152.728
886.94	95.6279
891.457	80.2764
895.971	82.9922
900.483	43.6846
904.993	126.287
909.5	54.7041
914.004	68.8506
918.505	164.977
923.004	105.113
927.501	148.276
931.995	168.401
936.486	50.4785
940.975	130.592
945.461	47.4404
949.945	19.8584
954.426	112.795
958.904	87.9717
963.38	101.173
967.853	22.3066
972.324	17.5391
976.792	75.4883
981.258	216.586
985.72	214.696
990.181	250.289
994.639	261.953
999.094	308.109
1003.55	504.701
1008	732.9
1012.44	863.003
1016.89	688.269
1021.33	399.981
1025.77	200.779
1030.21	178.257
1034.64	294.949
1039.07	132.469
1043.5	117.564
1047.93	134.348
1052.35	283.128
1056.78	334.262
1061.19	611.223
1065.61	802.234
1070.02	1565.3
1074.43	5140.97
1078.84	22427.9
1083.25	47282.2
1087.65	18118.7
1092.05	3019.15
1096.45	736.336
1100.85	443.838
1105.24	230.532
1109.63	210.079
1114.02	239.945
1118.4	141.831
1122.78	223.766
1127.16	162.748
1131.54	125.815
1135.92	38.8887
1140.29	24.9668
1144.66	33.1543
1149.02	95.7773
1153.39	103.54
1157.75	112.662
1162.11	118.815
1166.46	50.332
1170.82	26.8643
1175.17	110.091
1179.52	154.738
1183.86	30.3281
1188.21	197.413
1192.55	99.1309
1196.89	115.071
1201.22	151.835
1205.55	90.4277
1209.88	84.2305
1214.21	205.81
1218.54	24.4062
1222.86	44.9668
1227.18	82.6269
1231.5	199.289
1235.81	147.364
1240.12	154.42
1244.43	121.042
1248.74	79.6719
1253.04	111.306
1257.34	5.99902
1261.64	35.6533
1265.94	36.9072
1270.23	128.588
1274.52	2.14941
1278.81	3.49512
1283.1	13.7188
1287.38	186.28
1291.66	36.6914
1295.94	70.0439
1300.21	111.392
1304.48	8.66211
1308.75	170.918
1313.02	45.1816
1317.29	83.0264
1321.55	140.363
1325.81	180.481
1330.06	169.587
1334.32	1.48535
1338.57	148.5
1342.82	85.8682
1347.06	66.71
1351.31	149.829
1355.55	92.7637
1359.79	168.834
1364.02	31.8896
1368.26	86.3213
1372.49	90.4707
1376.71	157.102
1380.94	29.4639
1385.16	127.234
1389.38	221.913
1393.6	197.936
1397.81	118.888
1402.02	127.817
1406.23	255.177
1410.44	47.9131
1414.64	121.638
1418.85	111.409
1423.04	231.801
1427.24	300.529
1431.43	600.049
1435.62	365.921
1439.81	252.383
1444	121.922
1448.18	218.223
1452.36	172.203
1456.54	81.418
1460.71	69.7686
1464.89	217.075
1469.06	180.375
1473.22	36.7773
1477.39	119.117
1481.55	118.505
1485.71	72.8789
1489.86	80.4951
1494.02	156.858
1498.17	130.54
1502.32	126.67
1506.46	196.259
1510.61	84.0918
1514.75	180.515
1518.88	147.572
1523.02	57.9688
1527.15	76.2373
1531.28	299.065
1535.41	20.1934
1539.53	204.867
1543.66	125.728
1547.78	112.834
1551.89	130.132
1556.01	169.101
1560.12	119.158
1564.23	130.109
1568.33	90.2236
