Measurement: Raman, 514 nm, ccw, Raman Data Processed
Mineral: Calcite
Rruff sample: R050048
Ideal chemistry: CaCO_3_
Locality: Magdalena, New Mexico, USA
Source: University of Arizona Mineral Museum
Description: Colorless massive
Measured chemistry: (Ca_0.99_Zn_0.01_)CO_3_
Pin_id: L00439
Orientation: Laser parallel to -a* (-1 0 0). Fiducial mark perpendicular to laser is parallel to -c [0 0 -1]
Raman shift (cm-1)	intensity
116.256	0
120.447	27.763
124.636	74.979
128.822	91.572
133.006	105.799
137.188	234.568
141.368	370.224
145.545	692.73
149.72	1545.4
153.893	2466.78
158.064	1757.6
162.233	719.619
166.399	334.563
170.563	143.267
174.725	102.638
178.885	113.582
183.043	86.021
187.198	28.908
191.351	55.246
195.502	102.357
199.651	67.975
203.797	110.504
207.942	110.043
212.084	26.803
216.224	72.648
220.362	75.608
224.497	73.782
228.631	76.257
232.762	97.811
236.891	139.446
241.018	187.164
245.143	193.023
249.265	254.916
253.386	309.325
257.504	499.348
261.62	626.8
265.734	989.461
269.845	1623.73
273.955	2943.23
278.062	5188.28
282.167	6390.22
286.27	4273.9
290.371	2067.7
294.47	1009.08
298.567	590.12
302.661	394.177
306.753	294.516
310.843	181.07
314.931	177.806
319.017	137.934
323.101	69.656
327.182	167.3
331.261	60.293
335.339	32.04
339.414	19.998
343.487	47.408
347.557	20.235
351.626	58.355
355.693	47.874
359.757	82.414
363.819	64.364
367.879	33.958
371.937	2.651
375.993	44.966
380.047	19.583
384.099	66.207
388.148	13.862
392.196	44.482
396.241	8.078
400.284	9.92
404.325	20.637
408.364	39.82
412.401	15.944
416.435	0.34
420.468	4.032
424.498	80.641
428.527	80.493
432.553	71.07
436.577	0.332
440.599	22.708
444.619	19.585
448.637	32.506
452.653	35.416
456.667	7.307
460.678	9.861
464.688	15.407
468.695	47.059
472.701	51.714
476.704	53.711
480.705	49.287
484.704	75.856
488.701	4.616
492.696	80.777
496.689	52.238
500.68	73.836
504.668	130.01
508.655	53.281
512.639	52.328
516.622	100.396
520.602	127.372
524.581	78.333
528.557	10.163
532.531	74.904
536.503	79.592
540.473	71.254
544.441	96.008
548.407	49.121
552.371	75.532
556.333	1.862
560.293	90.8
564.251	78.963
568.206	71.011
572.16	32.804
576.112	73.16
580.061	70.846
584.009	108.778
587.954	70.25
591.897	122.883
595.839	60.315
599.778	95.879
603.716	86.319
607.651	87.584
611.584	74.897
615.515	92.117
619.444	4.989
623.372	65.13
627.297	128.145
631.22	49.085
635.141	50.906
639.06	74.416
642.977	136.603
646.892	149.252
650.805	143.949
654.716	3.265
658.625	98.539
662.532	26.89
666.437	147.18
670.34	61.416
674.241	39.067
678.139	34.389
682.036	114.042
685.931	70.328
689.824	76.221
693.715	31.056
697.604	1.079
701.491	109.786
705.376	174.111
709.259	684.021
713.139	1179.63
717.018	394.159
720.895	100.651
724.77	85.19
728.643	53.083
732.514	66.347
736.383	71.78
740.25	90.198
744.115	127.709
747.978	117.757
751.839	67.537
755.698	38.056
759.555	19.607
763.41	72.635
767.263	92.484
771.114	60.099
774.964	22.828
778.811	81.038
782.656	96.515
786.499	80.726
790.341	70.544
794.18	47.268
798.017	21.812
801.853	14.888
805.686	56.483
809.518	97.363
813.347	14.464
817.175	78.356
821.001	36.407
824.824	114.491
828.646	97.248
832.466	60.231
836.284	19.771
840.1	15.247
843.914	92.421
847.726	98.431
851.536	58.486
855.344	31.375
859.15	79.475
862.954	17.602
866.756	129.756
870.557	129.942
874.355	175.154
878.152	116.393
881.946	20.338
885.739	7.939
889.53	90.258
893.318	54.614
897.105	78.018
900.89	49.468
904.673	32.041
908.454	73.388
912.234	46.111
916.011	35.606
919.786	45.207
923.56	53.868
927.331	86.569
931.101	95.359
934.868	94.199
938.634	155.085
942.398	85.062
946.16	66.874
949.92	2.054
953.678	40.367
957.435	103.754
961.189	78.218
964.941	174.496
968.692	77.825
972.441	1.792
976.187	55.643
979.932	34.652
983.675	94.021
987.416	47.565
991.155	67.325
994.893	49.223
998.628	147.615
1002.36	175.408
1006.09	157.538
1009.82	139.786
1013.55	269.121
1017.28	210.304
1021	152.767
1024.72	38.408
1028.44	219.906
1032.16	260.72
1035.88	282.449
1039.59	158.428
1043.31	26.264
1047.02	107.288
1050.73	156.264
1054.43	340.002
1058.14	349.076
1061.84	395.372
1065.54	641.699
1069.24	525.974
1072.94	730.407
1076.64	1896.36
1080.33	7738.88
1084.03	46061.4
1087.71	14804
1091.4	2101.94
1095.09	687.663
1098.78	393.414
1102.46	235.836
1106.14	232.207
1109.82	284.881
1113.5	197.791
1117.17	160.79
1120.85	121.771
1124.52	80.763
1128.19	76.777
1131.86	103.085
1135.52	178.007
1139.19	132.79
1142.85	254.503
1146.51	150.494
1150.17	45.927
1153.83	39.97
1157.48	134.903
1161.14	78.262
1164.79	136.742
1168.44	116.394
1172.09	146.312
1175.73	23.563
1179.38	172.378
1183.02	24.144
1186.66	47.853
1190.3	189.097
1193.94	198.064
1197.58	50.59
1201.21	112.292
1204.84	7.368
1208.47	26.323
1212.1	132.764
1215.72	131.698
1219.35	201.163
1222.97	259.002
1226.59	240.812
1230.21	241.503
1233.83	213.634
1237.45	127.103
1241.06	108.004
1244.67	55.955
1248.28	148.641
1251.89	243.455
1255.5	260.109
1259.1	176.46
1262.7	261.771
1266.31	104.082
1269.9	7.997
1273.5	47.021
1277.1	69.895
1280.69	81.416
1284.29	126.768
1287.88	207.912
1291.46	177.518
1295.05	96.372
1298.64	39.918
1302.22	26.834
1305.8	35.162
1309.38	58.778
1312.96	157.454
1316.54	225.857
1320.11	203.219
1323.68	164.406
1327.25	138.276
1330.82	59.095
1334.39	9.195
1337.96	4.784
1341.52	114.479
1345.08	73.739
1348.64	172.718
1352.2	260.643
1355.76	176.559
1359.31	124.55
1362.87	172.587
1366.42	60.774
1369.97	47.867
1373.52	61.735
1377.06	45.256
1380.61	213.748
1384.15	194.743
1387.69	368.943
1391.23	364.085
1394.77	400.267
1398.3	239.122
1401.84	105.589
1405.37	67.88
1408.9	187.098
1412.43	74.097
1415.96	94.162
1419.48	234.146
1423.01	259.961
1426.53	487.298
1430.05	883.676
1433.57	844.586
1437.08	478.091
1440.6	171.94
1444.11	175.228
1447.62	141.33
1451.13	80.062
1454.64	201.479
1458.15	188.64
1461.65	310.628
1465.16	360.461
1468.66	332.947
1472.16	329.648
1475.65	255.998
1479.15	220.907
1482.64	158.498
1486.14	79.549
1489.63	41.103
1493.12	78.554
1496.61	13.383
1500.09	219.801
1503.58	158.536
1507.06	282.656
1510.54	193.102
