Measurement: Raman, 514 nm, ccw, Raman Data Processed
Mineral: Calcite
Rruff sample: R050127
Ideal chemistry: CaCO_3_
Locality: Rodeo, Durango, Mexico
Source: Dave Bunk Minerals
Description: Group of colorless crystals
Measured chemistry: Ca_1.00_CO_3_
Pin_id: M00388
Orientation: Laser parallel to a* (1 0 0). Fiducial mark perpendicular to laser is parallel to -c [0 0 -1]
Raman shift (cm-1)	intensity
109.512	0
114.44	43.5845
119.365	8.74609
124.288	67.2339
129.209	158.816
134.127	628.622
139.043	1027.42
143.956	1444.27
148.867	1708.29
153.775	2313.1
158.681	1346.41
163.585	489.973
168.486	128.68
173.385	75.4863
178.282	66.3877
183.176	32.0718
188.067	103.944
192.956	50.977
197.843	217.47
202.727	252.34
207.609	257.585
212.489	112.341
217.366	179.515
222.24	98.1621
227.112	169.725
231.982	182.115
236.849	194.563
241.714	182.25
246.577	212.419
251.437	222.708
256.294	324.856
261.149	605.605
266.002	1000.57
270.852	1938.44
275.7	3487.8
280.545	4245.38
285.388	2626.9
290.229	1079.14
295.067	598.301
299.902	240.821
304.735	254.826
309.566	67.8106
314.394	132.092
319.22	74.3262
324.043	44.085
328.864	104.124
333.682	15.7251
338.498	43.0127
343.311	45.8794
348.122	63.082
352.931	59.4238
357.737	66.4981
362.54	22.9209
367.341	23.2754
372.14	16.3613
376.936	9.08594
381.73	94.8877
386.521	237.772
391.31	130.629
396.096	62.5156
400.88	98.417
405.661	70.8174
410.44	64.9668
415.216	73.2764
419.99	135.586
424.761	150.889
429.53	143.226
434.297	89.6562
439.061	41.0752
443.822	99.1143
448.581	38.5938
453.337	14.0742
458.091	73.4746
462.843	42.8779
467.592	100.267
472.338	92.5996
477.082	82.8223
481.824	80.0254
486.563	6
491.3	53.1484
496.034	69.3301
500.765	122.498
505.494	55.9522
510.221	30.5391
514.945	69.6397
519.666	118.603
524.385	100.164
529.102	114.186
533.816	84.1494
538.527	24.6104
543.236	76.5303
547.943	49.4277
552.647	34.2256
557.348	70.9873
562.047	129.875
566.744	126.086
571.438	73.8115
576.129	11.1562
580.818	5.22754
585.504	53.1904
590.188	152.345
594.87	129.809
599.549	125.032
604.225	46.4531
608.899	114.477
613.57	57.5918
618.239	65.9863
622.905	264.55
627.569	147.818
632.23	239.274
636.889	292.317
641.545	327.161
646.198	268.126
650.849	225.08
655.498	113.821
660.144	15.2725
664.787	125.54
669.428	139.321
674.067	128.199
678.703	63.1103
683.336	181.112
687.967	165.635
692.595	55.666
697.221	174.419
701.844	170.143
706.465	342.838
711.083	709.28
715.698	360.716
720.311	94.0537
724.922	113.609
729.53	92.2607
734.135	103.856
738.738	67.4941
743.338	93.04
747.936	143.59
752.531	125.158
757.124	96.7363
761.714	0.264648
766.302	128.734
770.887	121.897
775.469	143.445
780.049	124.673
784.626	214.863
789.201	269.049
793.773	138.154
798.343	141.709
802.91	83.7695
807.475	99.1445
812.037	127.539
816.596	166.92
821.153	173.394
825.707	39.4141
830.259	148.288
834.808	141.974
839.355	26.3799
843.899	140.377
848.441	82.7373
852.98	187.054
857.516	239.363
862.05	132.714
866.581	191.024
871.11	87.2383
875.636	43.4785
880.159	27.7246
884.68	247.939
889.199	79.1231
893.714	91.3115
898.228	156.399
902.738	54.4082
907.246	132.172
911.752	48.1201
916.255	149.056
920.755	214.001
925.253	65.0147
929.748	26.2539
934.241	85.2529
938.731	85.2383
943.218	146.099
947.703	90.8779
952.186	24.5898
956.665	6.83203
961.142	133.637
965.617	104.284
970.089	203.939
974.558	71.3525
979.025	34.3975
983.489	161.344
987.951	68.9424
992.41	100.144
996.866	2.43262
1001.32	351.106
1005.77	241.823
1010.22	252.297
1014.67	339.074
1019.11	248.305
1023.55	156.637
1027.99	345.552
1032.42	167.552
1036.86	59.8633
1041.29	224.061
1045.72	172.068
1050.14	301.981
1054.56	291.617
1058.98	142.997
1063.4	458.47
1067.82	602.021
1072.23	572.576
1076.64	1380.95
1081.05	11808.9
1085.45	43171.3
1089.85	14276.5
1094.25	1136.38
1098.65	519.379
1103.04	288.421
1107.43	156.548
1111.82	134.507
1116.21	261.847
1120.59	116.237
1124.97	95.6865
1129.35	187.6
1133.73	53.2022
1138.1	58.9004
1142.47	109.772
1146.84	56.5391
1151.21	57.4238
1155.57	88.2676
1159.93	134.634
1164.29	22.7812
1168.64	2.73633
1172.99	142.285
1177.34	195.357
1181.69	16.5371
1186.04	284.5
1190.38	74.4678
1194.72	197.445
1199.05	89.5049
1203.39	129.999
1207.72	28.8896
1212.05	254.208
1216.37	219.343
1220.7	147.532
1225.02	53.876
1229.34	150.123
1233.65	252.642
1237.97	159.717
1242.28	132.63
1246.59	188.082
1250.89	169.51
1255.19	149.029
1259.49	146.59
1263.79	132.652
1268.09	135.981
1272.38	105.691
1276.67	33.1309
1280.95	87.4199
1285.24	46.2188
1289.52	106.213
1293.8	164.422
1298.08	193.43
1302.35	194.35
1306.62	161.215
1310.89	210.324
1315.15	213.084
1319.42	137.938
1323.68	106.775
1327.94	147.691
1332.19	219.549
1336.44	172.43
1340.69	228.066
1344.94	124.166
1349.19	380.434
1353.43	124.164
1357.67	250.727
1361.9	5.43555
1366.14	112.957
1370.37	210.803
1374.6	143.252
1378.83	118.553
1383.05	163.836
1387.27	74.6113
1391.49	231.719
1395.7	54.7812
1399.92	25.5449
1404.13	170.945
1408.34	76.3672
1412.54	205.83
1416.74	99.2402
1420.94	239.652
1425.14	66.6269
1429.34	312.772
1433.53	648.521
1437.72	377.975
1441.9	150.924
1446.09	302.25
1450.27	145.199
1454.45	192.369
1458.63	103.129
1462.8	171.057
1466.97	108.295
1471.14	88.8691
1475.31	219.148
1479.47	31.5703
1483.63	95.9375
1487.79	92.7441
1491.94	39.9277
1496.09	176.996
1500.24	189.512
1504.39	140.703
1508.54	101.947
1512.68	240.947
1516.82	94.1016
1520.95	249.912
1525.09	128.389
1529.22	21.3379
1533.35	224.389
1537.47	313.289
1541.6	173.59
1545.72	254.967
1549.83	288.996
1553.95	142.143
1558.06	151.943
1562.17	289.154
1566.28	2.55078
1570.38	0
