Measurement: Raman, 514 nm, ccw, Raman Data Processed
Mineral: Calcite
Rruff sample: R050130
Ideal chemistry: CaCO_3_
Locality: Mexico
Source: Dave Bunk Minerals
Description: Colorless cleavage rhomb
Measured chemistry: Ca_1.00_CO_3_; trace amounts of Si (?)
Pin_id: L00264
Orientation: Laser parallel to -c* (0 0 -1). Fiducial mark perpendicular to laser is parallel to a [1 0 0]
Raman shift (cm-1)	intensity
49.365	0
53.566	30.004
57.765	76.836
61.962	127.056
66.157	115.974
70.349	101.458
74.54	63.852
78.729	28.794
82.916	15.133
87.101	21.793
91.284	20.279
95.465	0.878
99.644	35.238
103.82	44.761
107.995	58.408
112.168	123.173
116.339	97.047
120.508	86.021
124.675	84.088
128.84	107.24
133.003	80.468
137.164	104.797
141.323	116.219
145.48	157.71
149.635	324.229
153.788	764.735
157.939	857.151
162.088	353.615
166.235	164.14
170.38	101.757
174.523	80.414
178.664	60.104
182.803	57.831
186.94	72.59
191.076	71.398
195.209	43.233
199.34	59.095
203.47	34.98
207.597	34.883
211.722	21.802
215.846	47.887
219.967	44.403
224.087	31.87
228.204	52.191
232.32	55.557
236.434	32.541
240.545	46.681
244.655	59.434
248.763	73.114
252.869	84.321
256.973	111.626
261.075	138.841
265.175	184.7
269.273	300.617
273.369	530.578
277.463	1033.54
281.556	1677.6
285.646	1302.28
289.734	642.354
293.821	290.492
297.905	167.68
301.988	110.776
306.069	74.86
310.147	55.178
314.224	51.451
318.299	36.582
322.372	30.305
326.443	23.552
330.512	11.992
334.579	1.159
338.645	10.295
342.708	16.707
346.769	15.906
350.829	10.219
354.887	11.395
358.942	24.545
362.996	15.699
367.048	23.85
371.098	13.038
375.146	22.379
379.192	14.526
383.236	5.059
387.279	8.19
391.319	25.695
395.358	0.822
399.394	9.068
403.429	1.058
407.462	17.191
411.493	7.367
415.522	9.466
419.549	4.859
423.575	24.029
427.598	9.158
431.619	7.478
435.639	13.705
439.657	16.796
443.673	15.736
447.687	11.357
451.699	9.81
455.709	1.142
459.717	4.925
463.724	18.933
467.728	3.065
471.731	2.078
475.732	15.992
479.731	11.969
483.728	0.692
487.723	3.584
491.716	9.363
495.708	28.492
499.697	2.546
503.685	2.333
507.671	23.202
511.655	9.081
515.637	17.054
519.617	11.914
523.596	15.765
527.572	19.576
531.547	7.374
535.52	37.156
539.491	3.072
543.46	17.684
547.427	9.433
551.393	28.164
555.356	27.68
559.318	6.922
563.278	21.606
567.236	2.267
571.192	5.829
575.147	1.014
579.099	4.62
583.05	30.139
586.999	0.228
590.946	9.403
594.891	24.984
598.834	3.436
602.776	8.099
606.715	26.992
610.653	24.834
614.589	6.137
618.523	13.608
622.456	20.322
626.386	29.632
630.315	26.897
634.242	21.348
638.167	4.243
642.09	0.208
646.012	9.856
649.931	9.258
653.849	5.94
657.765	23.029
661.679	24.555
665.592	9.217
669.502	12.405
673.411	7.669
677.318	21.911
681.223	17.155
685.126	31.372
689.028	33.522
692.927	30.936
696.825	57.904
700.721	94.943
704.616	169.084
708.508	694.994
712.399	3585.2
716.288	1349.3
720.175	289.404
724.06	100.743
727.944	47.332
731.825	33.77
735.705	33.842
739.584	26.316
743.46	41.117
747.334	34.089
751.207	20.993
755.078	36.822
758.947	11.824
762.815	17.733
766.68	24.227
770.544	5.088
774.406	23.263
778.267	12.667
782.125	18.592
785.982	17.424
789.837	19.144
793.69	11.546
797.542	17.207
801.391	13.918
805.239	20.642
809.085	16.142
812.93	4.97
816.772	24.85
820.613	19.523
824.452	13.551
828.29	19.461
832.125	10.119
835.959	12.723
839.791	9.343
843.621	10.951
847.45	30.546
851.277	4.879
855.102	15.671
858.925	1.201
862.746	0.714
866.566	17.195
870.384	27.666
874.2	21.126
878.015	11.573
881.828	8.999
885.639	11.394
889.448	5.786
893.256	21.165
897.061	8.529
900.865	5.869
904.668	21.217
908.468	16.566
912.267	7.853
916.064	23.166
919.86	21.128
923.653	9.415
927.445	11.741
931.236	2.785
935.024	23.996
938.811	10.292
942.596	17.565
946.379	13.821
950.161	9.75
953.94	24.039
957.719	8.289
961.495	10.217
965.27	7.437
969.043	14.511
972.814	11.425
976.583	3.625
980.351	31.9
984.117	44.168
987.882	15.449
991.644	49.717
995.405	16.992
999.165	31.889
1002.92	66.57
1006.68	54.388
1010.43	81.605
1014.18	94.755
1017.93	93.043
1021.68	78.338
1025.43	102.646
1029.18	88.61
1032.92	100.725
1036.66	99.561
1040.4	117.839
1044.14	118.791
1047.88	129.232
1051.62	146.601
1055.35	147.46
1059.08	210.651
1062.81	235.317
1066.54	559.78
1070.27	441.251
1073.99	461.871
1077.72	851.05
1081.44	2056
1085.16	20876.5
1088.88	35834
1092.59	3655.6
1096.31	898.055
1100.02	501.667
1103.73	319.218
1107.44	224.784
1111.15	193.353
1114.86	161.817
1118.57	121.839
1122.27	105.445
1125.97	104.81
1129.67	108.988
1133.37	95.539
1137.07	91.084
1140.76	71.661
1144.45	25.23
1148.15	30.776
1151.84	58.423
1155.53	28.373
1159.21	57.805
1162.9	50.929
1166.58	36.571
1170.26	57.148
1173.94	42.095
1177.62	13.931
1181.3	19.544
1184.97	26.061
1188.65	20.744
1192.32	45.744
1195.99	17.386
1199.66	17.538
1203.33	45.66
1206.99	5.84
1210.65	19.747
1214.32	27.21
1217.98	31.892
1221.64	35.483
1225.29	15.971
1228.95	4.54
1232.6	11.239
1236.26	8.691
1239.91	13.742
1243.56	30.918
1247.2	43.293
1250.85	10.603
1254.49	25.915
1258.13	11.198
1261.78	6.528
1265.41	21.73
1269.05	0.03
1272.69	34.179
1276.32	31.362
1279.95	39.53
1283.59	72.662
1287.21	28.738
1290.84	52.784
1294.47	8.793
1298.09	16.226
1301.72	21.714
1305.34	14.623
1308.96	36.479
1312.58	30.291
1316.19	42.066
1319.81	15.048
1323.42	9.235
1327.03	32.466
1330.64	12.382
1334.25	1.775
1337.86	12.086
1341.46	34.594
1345.07	68.091
1348.67	30.144
1352.27	24.562
1355.87	28.986
1359.46	3.358
1363.06	6.681
1366.65	26.794
1370.25	9.014
1373.84	10.91
1377.43	23.111
1381.02	15.114
1384.6	20.766
1388.18	47.544
1391.77	40.335
1395.35	22.383
1398.93	46.905
1402.51	42.613
1406.08	35.31
1409.66	36.988
1413.23	53.766
1416.8	91.464
1420.37	99.843
1423.94	113.366
1427.51	117.825
1431.08	162.674
1434.64	381.662
1438.2	1099.72
1441.76	327.557
1445.32	119.845
1448.88	48.35
1452.43	33.518
1455.99	61.125
1459.54	51.571
1463.09	47.976
1466.64	44.26
1470.19	55.448
1473.74	8.611
1477.28	3.157
1480.83	26.192
1484.37	21.555
1487.91	2.941
1491.45	23.531
1494.98	10.039
1498.52	32.458
1502.05	57.981
1505.59	72.131
1509.12	16.788
1512.65	40.265
1516.17	48.319
1519.7	0.213
1523.23	0
