Measurement: Raman, 514 nm, ccw, Raman Data Processed
Mineral: Calcite
Rruff sample: R040070
Ideal chemistry: CaCO_3_
Locality: Pryor Mountain, Big Horn County, Montana, USA
Source: University of Arizona Mineral Museum
Description: Orange scalenohedral crystals
Measured chemistry: (Ca_0.99_Mg_0.01_)CO_3_
Pin_id: M00039
Orientation: Laser parallel to -c* (0 0 -1). Fiducial mark perpendicular to laser is parallel to a [1 0 0]
Raman shift (cm-1)	intensity
97.554	0
101.732	0.86
105.908	53.527
110.082	83.197
114.254	104.053
118.424	86.83
122.592	64.568
126.758	42.276
130.922	20.445
135.083	83.21
139.243	30.068
143.401	129.834
147.557	292.982
151.711	758.895
155.863	1070.36
160.013	526.999
164.161	230.876
168.308	112.417
172.452	92.432
176.594	49.867
180.734	42.169
184.872	30.667
189.008	15.616
193.143	26.263
197.275	21.739
201.405	13.263
205.534	28.201
209.66	16.303
213.784	7.158
217.907	37.073
222.027	61.967
226.146	37.857
230.263	27.761
234.377	46.446
238.49	66.131
242.601	104.187
246.709	85.588
250.816	77.551
254.921	115.363
259.024	170.296
263.125	212.597
267.224	327.066
271.321	459.2
275.416	893.232
279.51	1506.85
283.601	1430.27
287.69	718.775
291.778	379.468
295.863	244.044
299.947	174.342
304.029	107.038
308.108	112.48
312.186	86.592
316.262	101.425
320.336	66.951
324.408	80.312
328.478	57.593
332.546	57.831
336.612	47.018
340.677	79.354
344.739	75.91
348.799	91.85
352.858	31.382
356.915	35.788
360.969	48.04
365.022	34.402
369.073	43.853
373.122	58.815
377.169	54.569
381.215	21.257
385.258	36.237
389.299	80.19
393.339	43.916
397.376	16.969
401.412	15.703
405.446	43.631
409.478	29.502
413.508	24.392
417.536	18.277
421.562	6.076
425.586	11.784
429.609	28.389
433.629	11.917
437.648	19.353
441.665	13.69
445.68	10.354
449.693	1.102
453.704	12.143
457.713	1.15
461.721	14.944
465.726	48.728
469.73	29.44
473.731	38.435
477.731	27.653
481.729	37.99
485.725	49.417
489.72	10.516
493.712	9.544
497.703	40.329
501.691	40.335
505.678	41.374
509.663	50.433
513.646	50.263
517.627	47.087
521.607	58.428
525.584	65.57
529.56	67.679
533.534	54.089
537.506	45.107
541.476	68.944
545.444	52.466
549.41	42.032
553.375	16.595
557.337	71.789
561.298	63.876
565.257	68.948
569.214	59.958
573.17	47.78
577.123	50.574
581.075	72.386
585.024	77.392
588.972	103.212
592.918	115.065
596.863	112.775
600.805	132.099
604.746	103.688
608.685	147.113
612.621	92.532
616.557	185.433
620.49	235.637
624.421	365.289
628.351	295.693
632.279	152.289
636.205	188.475
640.129	170.707
644.051	249.913
647.972	255.886
651.89	234.302
655.807	164.345
659.722	90.464
663.636	96.191
667.547	59.02
671.457	47.027
675.365	35.996
679.271	24.961
683.175	13.286
687.077	24.554
690.978	9.026
694.877	4.197
698.774	46.511
702.669	104.646
706.562	421.663
710.454	2337.6
714.344	1958.71
718.232	398.763
722.118	105.874
726.002	75.936
729.885	79.947
733.766	39.961
737.645	5.258
741.522	19.962
745.397	43.086
749.271	20.758
753.143	33.574
757.013	23.645
760.881	14.057
764.748	24.749
768.613	18.423
772.476	36.079
776.337	4.717
780.196	55.331
784.054	1.921
787.91	101.486
791.764	66.032
795.616	50.559
799.467	41.648
803.316	12.565
807.163	26.049
811.008	43.675
814.851	47.126
818.693	73.496
822.533	95.676
826.371	60.899
830.208	67.132
834.042	108.888
837.875	99.391
841.706	144.523
845.536	110.137
849.363	187.521
853.189	176.728
857.013	288.154
860.836	338.61
864.656	226.073
868.475	213.554
872.292	175.039
876.108	131.532
879.922	135.022
883.733	105.522
887.544	99.028
891.352	106.191
895.159	133.552
898.964	76.075
902.767	128.431
906.568	129.914
910.368	92.977
914.166	125.433
917.962	73.072
921.757	31.625
925.55	64.155
929.341	38.692
933.13	45.361
936.918	86.906
940.703	35.571
944.488	77.275
948.27	82.071
952.051	67.877
955.83	75.605
959.607	90.075
963.383	70.822
967.156	17.588
970.928	25.561
974.699	20.278
978.468	7.873
982.234	4.524
986	52.815
989.763	27.71
993.525	41.894
997.285	109.274
1001.04	304.944
1004.8	259.317
1008.55	160.588
1012.31	132.578
1016.06	120.834
1019.81	243.156
1023.56	270.464
1027.31	192.892
1031.05	173.502
1034.79	147.508
1038.53	72.048
1042.27	123.98
1046.01	113.239
1049.75	141.151
1053.48	128.274
1057.22	155.605
1060.95	219.048
1064.68	392.932
1068.4	610.368
1072.13	463.819
1075.86	842.706
1079.58	1882.45
1083.3	11665
1087.02	54746.3
1090.74	8949.53
1094.45	1522.72
1098.17	613.89
1101.88	414.037
1105.59	278.162
1109.3	274.267
1113.01	194.198
1116.71	150.258
1120.42	159.691
1124.12	95.453
1127.82	86.305
1131.52	87.187
1135.22	61.107
1138.91	29.663
1142.61	2.146
1146.3	9.354
1149.99	28.34
1153.68	12.023
1157.37	9.468
1161.06	35.004
1164.74	28.422
1168.42	60.776
1172.1	42.08
1175.78	57.33
1179.46	37.533
1183.14	85.684
1186.81	9.27
1190.48	10.136
1194.15	34.992
1197.83	2.071
1201.49	82.175
1205.16	47.586
1208.82	54.265
1212.49	49.725
1216.15	55.752
1219.81	27.999
1223.46	18.881
1227.12	23.463
1230.78	77.822
1234.43	77.955
1238.08	100.999
1241.73	95.986
1245.38	106.926
1249.03	168.819
1252.67	100.783
1256.31	64.656
1259.95	79.414
1263.6	127.111
1267.23	181.76
1270.87	216.367
1274.51	190.926
1278.14	245.45
1281.77	169.926
1285.4	127.322
1289.03	111.111
1292.66	133.46
1296.28	174.333
1299.91	129.502
1303.53	119.36
1307.15	157.119
1310.77	133.682
1314.38	183.017
1318	198.333
1321.61	193.908
1325.23	159.281
1328.84	84.478
1332.45	0.266
1336.06	3.43
1339.66	3.959
1343.27	26.744
1346.87	2.369
1350.47	60.524
1354.07	34.344
1357.67	21.641
1361.26	3.534
1364.86	6.937
1368.45	7.531
1372.04	39.099
1375.63	73.759
1379.22	100.309
1382.81	58.503
1386.39	55.996
1389.98	97.409
1393.56	63.735
1397.14	68.984
1400.72	50.151
1404.3	78.073
1407.87	109.234
1411.45	111.248
1415.02	91.285
1418.59	150.345
1422.16	96.398
1425.73	150.425
1429.29	222.801
1432.86	365.883
1436.42	1063.08
1439.98	893.351
1443.54	623.964
1447.1	618.569
1450.66	711.189
1454.21	721.312
1457.77	733.396
1461.32	658.062
1464.87	540.613
1468.42	424.19
1471.96	345.953
1475.51	245.675
1479.06	204.738
1482.6	245.329
1486.14	225.512
1489.68	127.049
1493.22	68.703
1496.75	63.55
1500.29	47.501
1503.82	16.732
1507.35	39.393
1510.88	79.973
1514.41	26.821
1517.94	6.735
1521.46	26.933
