Measurement: Raman, 514 nm, ccw, Raman Data Processed
Mineral: Calcite
Rruff sample: R050127
Ideal chemistry: CaCO_3_
Locality: Rodeo, Durango, Mexico
Source: Dave Bunk Minerals
Description: Group of colorless crystals
Measured chemistry: Ca_1.00_CO_3_
Pin_id: M00388
Orientation: Laser parallel to a* (1 0 0). Fiducial mark perpendicular to laser is parallel to -c [0 0 -1]
Raman shift (cm-1)	intensity
109.512	0
114.44	38.6292
119.365	40.407
124.288	54.4003
129.209	147.486
134.127	286.858
139.043	663.422
143.956	1040.62
148.867	1123.05
153.775	1568.9
158.681	894.057
163.585	321.625
168.486	185.716
173.385	125.769
178.282	16.9631
183.176	80.5277
188.067	89.1009
192.956	61.7563
197.843	35.652
202.727	29.7146
207.609	67.9825
212.489	89.3923
217.366	49.0193
222.24	25.7476
227.112	34.1672
231.982	37.3196
236.849	41.3367
241.714	65.3164
246.577	143.863
251.437	186.781
256.294	282.53
261.149	417.372
266.002	674.109
270.852	1305.09
275.7	2423.41
280.545	3053.51
285.388	1860.25
290.229	815.51
295.067	368.615
299.902	251.122
304.735	150.99
309.566	133.257
314.394	111.347
319.22	41.825
324.043	13.2961
328.864	33.8127
333.682	34.4426
338.498	34.0478
343.311	12.5046
348.122	6.43262
352.931	8.00732
357.737	56.7102
362.54	42.3398
367.341	47.3018
372.14	28.083
376.936	23.698
381.73	77.8306
386.521	60.3591
391.31	118.522
396.096	109.987
400.88	42.6965
405.661	32.4653
410.44	20.9756
415.216	51.4717
419.99	38.6802
424.761	77.7314
429.53	12.1421
434.297	8.54517
439.061	13.8833
443.822	28.1711
448.581	70.4663
453.337	31.9104
458.091	19.9419
462.843	40.0608
467.592	57.1465
472.338	18.0037
477.082	12.1394
481.824	72.4048
486.563	1.92627
491.3	50.1428
496.034	6.771
500.765	44.5847
505.494	103.474
510.221	33.9048
514.945	61.4216
519.666	38.6997
524.385	76.364
529.102	124.163
533.816	46.9958
538.527	25.8843
543.236	1.62061
547.943	79.3581
552.647	17.5679
557.348	104.249
562.047	46.3413
566.744	53.9412
571.438	45.5171
576.129	46.7019
580.818	17.1328
585.504	78.2361
590.188	12.0286
594.87	19.5237
599.549	63.2795
604.225	74.5491
608.899	18.2466
613.57	9.32373
618.239	69.1062
622.905	102.272
627.569	74.1116
632.23	34.3254
636.889	81.4519
641.545	134.649
646.198	152.852
650.849	98.8076
655.498	74.9736
660.144	94.0134
664.787	43.2358
669.428	56.2471
674.067	43.5173
678.703	74.4622
683.336	73.854
687.967	139.678
692.595	72.6025
697.221	83.624
701.844	240.227
706.465	1303.57
711.083	2729.51
715.698	963.42
720.311	171.374
724.922	72.2632
729.53	88.1304
734.135	0.468506
738.738	14.8626
743.338	58.9321
747.936	48.7141
752.531	43.602
757.124	96.2327
761.714	71.261
766.302	12.864
770.887	40.4258
775.469	63.9497
780.049	66.1826
784.626	117.87
789.201	55.8855
793.773	76.4775
798.343	50.0933
802.91	67.4536
807.475	17.6211
812.037	52.6665
816.596	87.5476
821.153	109.867
825.707	55.3179
830.259	12.8884
834.808	85.8699
839.355	26.7107
843.899	37.4241
848.441	93.092
852.98	26.7197
857.516	58.3064
862.05	18.853
866.581	93.3589
871.11	21.624
875.636	123.073
880.159	71.4966
884.68	95.4363
889.199	15.311
893.714	38.5935
898.228	63.8565
902.738	20.0259
907.246	34.2156
911.752	89.2117
916.255	24.2546
920.755	131.245
925.253	30.1016
929.748	9.04077
934.241	25.5662
938.731	50.8984
943.218	13.8218
947.703	26.8108
952.186	86.7358
956.665	82.6394
961.142	36.5603
965.617	24.2334
970.089	58.9529
974.558	77.5574
979.025	105.798
983.489	32.3852
987.951	120.955
992.41	54.5066
996.866	198.05
1001.32	63.7092
1005.77	105.196
1010.22	120.821
1014.67	130.189
1019.11	176.759
1023.55	80.0586
1027.99	135.801
1032.42	149.908
1036.86	108.635
1041.29	131.414
1045.72	115.183
1050.14	82.647
1054.56	191.562
1058.98	186.92
1063.4	481.57
1067.82	589.26
1072.23	663.259
1076.64	1675.26
1081.05	16411.3
1085.45	58247.4
1089.85	13592.2
1094.25	1220.85
1098.65	531.908
1103.04	359.416
1107.43	173.677
1111.82	174.066
1116.21	145.485
1120.59	215.107
1124.97	101.603
1129.35	106.126
1133.73	95.7642
1138.1	59.6392
1142.47	113.273
1146.84	35.9531
1151.21	113.654
1155.57	0.163086
1159.93	30.4766
1164.29	56.2656
1168.64	40.0776
1172.99	106.915
1177.34	4.18311
1181.69	8.20508
1186.04	1.71533
1190.38	121.151
1194.72	53.0444
1199.05	50.958
1203.39	88.4844
1207.72	19.8359
1212.05	125.797
1216.37	66.8852
1220.7	24.4707
1225.02	53.4976
1229.34	7.78076
1233.65	77.3975
1237.97	44.667
1242.28	98.6133
1246.59	48.7158
1250.89	50.9336
1255.19	22.0654
1259.49	86.1665
1263.79	17.2602
1268.09	72.9287
1272.38	62.0527
1276.67	112.089
1280.95	22.689
1285.24	63.6577
1289.52	34.6162
1293.8	19.5527
1298.08	52.4819
1302.35	63.4043
1306.62	71.2251
1310.89	102.539
1315.15	53.2739
1319.42	88.0356
1323.68	106.717
1327.94	56.4956
1332.19	77.3623
1336.44	95.165
1340.69	91.8291
1344.94	55.4839
1349.19	55.0478
1353.43	36.8657
1357.67	10.5806
1361.9	99.9263
1366.14	22.3105
1370.37	129.924
1374.6	12.981
1378.83	98.6099
1383.05	82.9658
1387.27	75.2598
1391.49	73.1777
1395.7	40.4219
1399.92	105.662
1404.13	41.8906
1408.34	128.688
1412.54	136.066
1416.74	82.7925
1420.94	151.024
1425.14	194.318
1429.34	229.469
1433.53	916.925
1437.72	513.946
1441.9	147.671
1446.09	185.938
1450.27	163.548
1454.45	98.1382
1458.63	35.582
1462.8	78.3106
1466.97	96.4844
1471.14	142.625
1475.31	87.5347
1479.47	118.762
1483.63	152.662
1487.79	140.735
1491.94	50.6802
1496.09	79.8569
1500.24	96.0205
1504.39	40.1372
1508.54	107.43
1512.68	113.845
1516.82	138.145
1520.95	100.233
1525.09	197.385
1529.22	23.917
1533.35	89.5063
1537.47	53.5732
1541.6	166.139
1545.72	104.313
1549.83	203.058
1553.95	117.679
1558.06	88.2754
1562.17	150.971
1566.28	62.7822
1570.38	0
