Measurement: Raman, 514 nm, ccw, Raman Data Processed
Mineral: Calcite
Rruff sample: R050048
Ideal chemistry: CaCO_3_
Locality: Magdalena, New Mexico, USA
Source: University of Arizona Mineral Museum
Description: Colorless massive
Measured chemistry: (Ca_0.99_Zn_0.01_)CO_3_
Pin_id: L00439
Orientation: Laser parallel to -a* (-1 0 0). Fiducial mark perpendicular to laser is parallel to -c [0 0 -1]
Raman shift (cm-1)	intensity
116.256	0
120.447	46.949
124.636	22.183
128.822	75.697
133.006	213.701
137.188	337.707
141.368	607.109
145.545	1183.24
149.72	2644.2
153.893	4339.55
158.064	3349.74
162.233	1567.17
166.399	718.831
170.563	373.517
174.725	221.066
178.885	132.359
183.043	70.326
187.198	84.888
191.351	46.295
195.502	23.24
199.651	54.873
203.797	105.437
207.942	93.062
212.084	6.935
216.224	99.018
220.362	75.289
224.497	118.225
228.631	169.355
232.762	104.139
236.891	188.112
241.018	312.172
245.143	322.073
249.265	442.242
253.386	648.488
257.504	944.408
261.62	1280.49
265.734	1945.7
269.845	2986.55
273.955	5232.61
278.062	9527.14
282.167	12010.6
286.27	8512.68
290.371	4378.32
294.47	2312.14
298.567	1357.15
302.661	925.998
306.753	596.802
310.843	470.011
314.931	358.964
319.017	295.441
323.101	196.491
327.182	187.784
331.261	88.385
335.339	116.029
339.414	53.232
343.487	149.348
347.557	76.293
351.626	99.827
355.693	106.498
359.757	134.09
363.819	16.796
367.879	43.59
371.937	10.888
375.993	25.109
380.047	61.138
384.099	68.175
388.148	84.935
392.196	3.408
396.241	33.518
400.284	24.531
404.325	49.457
408.364	47.011
412.401	36.191
416.435	24.441
420.468	5.75
424.498	19.739
428.527	11.393
432.553	18.753
436.577	1.27
440.599	60.674
444.619	8.585
448.637	6.793
452.653	56.037
456.667	21.263
460.678	17.197
464.688	22.787
468.695	42
472.701	16.294
476.704	90.872
480.705	71.042
484.704	40.364
488.701	146.712
492.696	105.481
496.689	90.619
500.68	21.145
504.668	119.194
508.655	19.115
512.639	79.857
516.622	40.409
520.602	94.185
524.581	118.79
528.557	71.458
532.531	129.97
536.503	118.078
540.473	88.006
544.441	56.733
548.407	61.521
552.371	61.951
556.333	61.455
560.293	98.426
564.251	83.633
568.206	93.743
572.16	41.764
576.112	52.663
580.061	60.913
584.009	51.383
587.954	97.78
591.897	71.735
595.839	102.396
599.778	90.977
603.716	9.016
607.651	112.749
611.584	5.354
615.515	119.602
619.444	50.944
623.372	160.438
627.297	178.812
631.22	91.463
635.141	64.229
639.06	9.878
642.977	88
646.892	127.817
650.805	92.301
654.716	65.875
658.625	15.76
662.532	11.031
666.437	156.074
670.34	90.095
674.241	35.838
678.139	27.669
682.036	59.507
685.931	91.129
689.824	35.804
693.715	60.452
697.604	114.604
701.491	196.474
705.376	304.706
709.259	1290.27
713.139	2693.73
717.018	788.992
720.895	214.206
724.77	173.781
728.643	146.502
732.514	149.104
736.383	115.886
740.25	101.652
744.115	84.241
747.978	38.735
751.839	102.64
755.698	78.445
759.555	91.703
763.41	188.473
767.263	83.655
771.114	51.315
774.964	19.961
778.811	19.703
782.656	114.834
786.499	53.553
790.341	119.609
794.18	40.301
798.017	14.225
801.853	63.744
805.686	36.718
809.518	57.178
813.347	13.208
817.175	148.378
821.001	35.792
824.824	96.141
828.646	2.559
832.466	110.566
836.284	32.985
840.1	65.74
843.914	45.131
847.726	8.587
851.536	38.022
855.344	83.47
859.15	0.943
862.954	56.441
866.756	38.344
870.557	87.569
874.355	121.192
878.152	102.802
881.946	10.423
885.739	23.286
889.53	118.954
893.318	109.697
897.105	20.483
900.89	32.628
904.673	40.514
908.454	24.442
912.234	56.429
916.011	12.527
919.786	132.564
923.56	88.723
927.331	84.932
931.101	14.784
934.868	83.561
938.634	143.966
942.398	170.851
946.16	58.283
949.92	20.896
953.678	5.576
957.435	62.345
961.189	100.032
964.941	43.487
968.692	119.528
972.441	1.332
976.187	39.14
979.932	54.037
983.675	112.341
987.416	90.726
991.155	119.182
994.893	97.771
998.628	144.238
1002.36	1.961
1006.09	120.805
1009.82	170.129
1013.55	288.918
1017.28	130.806
1021	200.148
1024.72	29.57
1028.44	146.65
1032.16	116.355
1035.88	316.066
1039.59	235.909
1043.31	175.893
1047.02	338.685
1050.73	177.81
1054.43	408.02
1058.14	438.316
1061.84	428.688
1065.54	728.792
1069.24	649.315
1072.94	919.895
1076.64	2190.87
1080.33	8711.28
1084.03	40232.2
1087.71	19653.2
1091.4	2954.39
1095.09	895.525
1098.78	416.721
1102.46	408.791
1106.14	280.42
1109.82	331.903
1113.5	333.278
1117.17	224.689
1120.85	226.428
1124.52	216.131
1128.19	57.702
1131.86	139.942
1135.52	112.388
1139.19	177.96
1142.85	350.064
1146.51	192.882
1150.17	205.315
1153.83	17.032
1157.48	116.623
1161.14	18.205
1164.79	100.06
1168.44	43.524
1172.09	165.964
1175.73	180.309
1179.38	63.146
1183.02	60.298
1186.66	86.233
1190.3	240.137
1193.94	262.221
1197.58	153.67
1201.21	157.619
1204.84	231.32
1208.47	1105.03
1212.1	476.392
1215.72	607.35
1219.35	298.446
1222.97	348.493
1226.59	222.275
1230.21	253.955
1233.83	287.568
1237.45	257.95
1241.06	167.874
1244.67	8.564
1248.28	208.648
1251.89	348.402
1255.5	328.095
1259.1	247.989
1262.7	237.504
1266.31	126.74
1269.9	125.685
1273.5	24.549
1277.1	23.982
1280.69	162.376
1284.29	130.503
1287.88	198.403
1291.46	126.091
1295.05	183.551
1298.64	140.341
1302.22	102.896
1305.8	73.442
1309.38	7.027
1312.96	132.977
1316.54	148.695
1320.11	124.251
1323.68	239.479
1327.25	124.444
1330.82	180.549
1334.39	45.787
1337.96	107.273
1341.52	8.761
1345.08	5.951
1348.64	269.596
1352.2	243.064
1355.76	346.412
1359.31	219.442
1362.87	182.51
1366.42	116.151
1369.97	58.167
1373.52	21.631
1377.06	95.476
1380.61	201.897
1384.15	248.236
1387.69	414.775
1391.23	380.835
1394.77	425.966
1398.3	340.901
1401.84	260.096
1405.37	282.854
1408.9	205.918
1412.43	175.395
1415.96	77.027
1419.48	304.372
1423.01	331.146
1426.53	627.312
1430.05	1111.34
1433.57	1186
1437.08	665.351
1440.6	336.174
1444.11	229.446
1447.62	97.317
1451.13	123.246
1454.64	179.15
1458.15	213.782
1461.65	288.595
1465.16	392.052
1468.66	506.155
1472.16	561.109
1475.65	385.919
1479.15	352.001
1482.64	368.361
1486.14	155.668
1489.63	172.808
1493.12	42.236
1496.61	64.049
1500.09	162.46
1503.58	303.592
1507.06	427.542
1510.54	153.73
