Measurement: Raman, 514 nm, ccw, Raman Data Processed
Mineral: Calcite
Rruff sample: R040070
Ideal chemistry: CaCO_3_
Locality: Pryor Mountain, Big Horn County, Montana, USA
Source: University of Arizona Mineral Museum
Description: Orange scalenohedral crystals
Measured chemistry: (Ca_0.99_Mg_0.01_)CO_3_
Pin_id: L00173
Orientation: Laser parallel to a* (1 0 0). Fiducial mark perpendicular to laser is parallel to -c [0 0 -1]
Raman shift (cm-1)	intensity
98.947	0
103.124	0.793
107.3	27.512
111.473	1.878
115.644	28.889
119.813	19.427
123.981	21.478
128.146	23.89
132.309	23.955
136.47	38.711
140.63	61.893
144.787	189.191
148.942	463.58
153.096	837.052
157.247	576.613
161.396	241.78
165.544	96.337
169.689	61.04
173.833	46.785
177.974	49.585
182.114	33.471
186.251	12.358
190.387	8.239
194.52	12.128
198.652	9.03
202.782	18.025
206.909	6.102
211.035	6.204
215.159	17.748
219.281	4.029
223.4	4.933
227.518	10.447
231.634	11.629
235.748	23.703
239.86	36.78
243.97	53.882
248.079	54.014
252.185	72.499
256.289	94.56
260.391	160.665
264.492	264.84
268.59	386.631
272.687	742.481
276.781	1428.33
280.874	1794.32
284.964	1142.28
289.053	562.368
293.14	299.398
297.225	160.466
301.308	117.458
305.389	87.377
309.468	66.535
313.545	57.09
317.62	11.213
321.693	48.904
325.765	42.102
329.834	34.187
333.902	12.27
337.967	31.316
342.031	21.386
346.093	11.417
350.153	28.443
354.21	4.534
358.267	13.533
362.321	7.544
366.373	22.594
370.423	6.586
374.471	37.788
378.518	29.828
382.563	3.746
386.605	15.93
390.646	14.19
394.685	4.164
398.722	7.144
402.757	8.035
406.79	8.941
410.821	13.832
414.851	5.794
418.878	21.897
422.904	24.695
426.927	33.525
430.949	20.326
434.969	41.796
438.987	13.58
443.003	32.311
447.018	29.071
451.03	13.836
455.041	12.54
459.049	5.279
463.056	26.036
467.061	2.567
471.064	16.398
475.065	8.956
479.064	30.972
483.062	15.001
487.057	24.592
491.051	35.781
495.043	23.268
499.032	14.58
503.02	34.343
507.007	37.732
510.991	26.27
514.973	24.44
518.954	19.838
522.933	30.218
526.91	25.621
530.885	0.995
534.858	5.356
538.829	23.639
542.799	1.12
546.766	24.118
550.732	27.322
554.696	6.466
558.658	22.583
562.618	20.385
566.576	22.504
570.533	12.615
574.488	4.683
578.44	20.726
582.391	48.525
586.341	34.555
590.288	5.45
594.233	14.409
598.177	34.352
602.119	27.22
606.059	7.153
609.997	21.799
613.933	19.734
617.868	22.515
621.801	35.203
625.731	2.051
629.66	21.717
633.588	16.873
637.513	12.823
641.437	44.992
645.358	22.557
649.278	30.348
653.196	22.08
657.113	19.767
661.027	45.367
664.94	12.77
668.851	22.372
672.76	37.053
676.667	18.694
680.572	8.644
684.476	41.158
688.378	12.191
692.278	36.866
696.176	74.329
700.072	68.597
703.967	236.016
707.86	879.705
711.751	2778.9
715.64	804.173
719.527	200.509
723.413	90.444
727.297	57.872
731.179	45.808
735.059	62.883
738.937	32.406
742.814	57.499
746.689	18.518
750.562	43.573
754.433	26.745
758.303	24.977
762.17	30.901
766.036	12.859
769.901	51.766
773.763	5.405
777.624	19.496
781.482	36.328
785.339	17.206
789.195	38.988
793.048	21.838
796.9	33.768
800.75	17.464
804.598	12.74
808.445	30.445
812.289	9.872
816.132	5.39
819.973	14.918
823.813	26.312
827.65	8.688
831.486	8.924
835.32	9.436
839.152	23.803
842.983	37.026
846.812	20.326
850.639	21.605
854.464	11.861
858.288	7.097
862.11	22.321
865.93	16.526
869.748	8.714
873.564	9.117
877.379	0.984
881.192	17.128
885.004	2.226
888.813	11.311
892.621	28.38
896.427	17.399
900.232	2.419
904.034	5.447
907.835	36.456
911.634	34.433
915.432	29.376
919.227	13.408
923.021	42.324
926.813	0.655
930.604	39.541
934.393	16.415
938.18	14.28
941.965	40.114
945.749	2.1
949.53	16.683
953.311	5.5
957.089	13.151
960.866	31.902
964.641	10.769
968.414	35.331
972.185	30.337
975.955	14.117
979.723	20.701
983.49	2.624
987.254	38.639
991.017	41.388
994.779	37.071
998.538	37.812
1002.3	105.557
1006.05	89.093
1009.81	115.803
1013.56	139.6
1017.31	114.341
1021.06	109.186
1024.81	154.302
1028.55	116.026
1032.3	106.98
1036.04	170.854
1039.78	202.932
1043.52	161.626
1047.26	179.667
1050.99	213.454
1054.73	193.614
1058.46	247.458
1062.19	308.217
1065.92	634.4
1069.65	531.113
1073.37	628.516
1077.1	1141.58
1080.82	3491.33
1084.54	29293.1
1088.26	41990.1
1091.97	4327.94
1095.69	1030.48
1099.4	528.34
1103.12	358.603
1106.83	268.538
1110.54	213.332
1114.24	168.027
1117.95	130.756
1121.65	178.802
1125.35	107.665
1129.06	97.541
1132.75	81.191
1136.45	78.441
1140.15	75.316
1143.84	77.186
1147.53	38.594
1151.22	20.399
1154.91	69.079
1158.6	59.394
1162.28	43.171
1165.97	18.868
1169.65	58.707
1173.33	25.426
1177.01	23.025
1180.69	34.555
1184.36	2.68
1188.04	6.834
1191.71	15.059
1195.38	34.01
1199.05	45.235
1202.71	30.621
1206.38	25.298
1210.04	27.765
1213.71	27.286
1217.37	6.25
1221.03	5.054
1224.68	42.74
1228.34	12.155
1231.99	8.451
1235.65	28.683
1239.3	50.116
1242.95	17.151
1246.59	54.152
1250.24	13.078
1253.88	21.632
1257.53	36.148
1261.17	38.496
1264.81	26.75
1268.45	54.916
1272.08	45.974
1275.72	37.923
1279.35	4.227
1282.98	0.51
1286.61	6.111
1290.24	17.608
1293.87	18.008
1297.49	23.222
1301.11	50.133
1304.73	35.449
1308.36	7.436
1311.97	12.245
1315.59	9.164
1319.2	6.484
1322.82	28.194
1326.43	2.63
1330.04	35.26
1333.65	25.199
1337.26	29.198
1340.86	33.399
1344.47	12.835
1348.07	38.068
1351.67	32.636
1355.27	21.152
1358.87	38.26
1362.46	29.15
1366.06	23.277
1369.65	19.248
1373.24	47.152
1376.83	24.669
1380.42	32.214
1384	25.892
1387.59	13.236
1391.17	14.965
1394.75	42.997
1398.33	28.612
1401.91	79.597
1405.49	99.916
1409.06	77.708
1412.64	97.183
1416.21	96.031
1419.78	78.27
1423.35	72.378
1426.91	110.966
1430.48	108.113
1434.05	309.499
1437.61	803.525
1441.17	350.156
1444.73	114.65
1448.29	71.231
1451.84	55.805
1455.4	55.362
1458.95	32.041
1462.5	35.412
1466.05	62.264
1469.6	61.004
1473.15	37.649
1476.69	16.3
1480.24	93.048
1483.78	12.756
1487.32	46.354
1490.86	6.984
1494.39	0.043
1497.93	48.311
1501.46	28.42
1505	5.066
1508.53	4.115
1512.06	24.584
1515.59	16.362
1519.11	11.206
1522.64	22.18
