Measurement: Raman, 514 nm, ccw, Raman Data Processed
Mineral: Calcite
Rruff sample: R050127
Ideal chemistry: CaCO_3_
Locality: Rodeo, Durango, Mexico
Source: Dave Bunk Minerals
Description: Group of colorless crystals
Measured chemistry: Ca_1.00_CO_3_
Pin_id: M00125
Orientation: Laser parallel to -c* (0 0 -1). Fiducial mark perpendicular to laser is parallel to -a [-1 0 0]
Raman shift (cm-1)	intensity
80.125	0
84.311	109.225
88.496	57.721
92.678	111.654
96.858	278.885
101.036	154.956
105.212	72.02
109.387	221.192
113.559	156.925
117.729	92.168
121.897	118.476
126.063	67.558
130.228	45.144
134.39	111.35
138.55	89.528
142.709	131.433
146.865	94.123
151.019	195.758
155.171	504.951
159.322	793.661
163.47	318.716
167.617	180.034
171.761	84.662
175.904	73.035
180.044	43.646
184.183	6.808
188.319	8.488
192.454	16.422
196.586	4.182
200.717	61.105
204.846	29.775
208.972	22.511
213.097	21.345
217.22	15.422
221.341	0.211
225.46	13.372
229.577	16.165
233.692	41.52
237.805	33.375
241.916	16.934
246.025	61.373
250.132	33.797
254.237	57.058
258.34	131.243
262.442	134.29
266.541	209.226
270.639	216.081
274.734	360.597
278.828	681.422
282.919	1176.51
287.009	1126.59
291.097	610.149
295.183	329.914
299.266	209.977
303.348	134.538
307.428	157.379
311.507	93.115
315.583	95.531
319.657	137.432
323.729	122.636
327.8	137.448
331.868	115.728
335.935	117.451
339.999	97.825
344.062	91.349
348.123	81.446
352.182	111.694
356.239	119.024
360.294	93.447
364.347	143.055
368.398	126.432
372.448	99.399
376.495	104.733
380.54	96.914
384.584	119.746
388.626	114.505
392.666	46.156
396.704	60.197
400.74	60.063
404.774	42.091
408.806	57.065
412.836	50.657
416.865	59.884
420.891	67.084
424.916	81.49
428.939	57.397
432.959	23.311
436.978	88.938
440.996	91.736
445.011	94.282
449.024	80.694
453.036	52.462
457.045	73.995
461.053	103.785
465.059	96.991
469.063	90.761
473.065	46.788
477.065	37.956
481.063	62.173
485.06	39.182
489.054	57.961
493.047	57.636
497.038	75.341
501.027	68.984
505.014	55.035
508.999	19.196
512.982	100.693
516.964	83.376
520.944	88.978
524.921	33.334
528.897	73.476
532.871	56.555
536.844	44.751
540.814	67.004
544.783	94.532
548.749	62.056
552.714	1.92
556.677	36.115
560.638	39.172
564.597	1.143
568.555	67.978
572.511	40.842
576.464	58.01
580.416	60.403
584.366	53.467
588.315	7.773
592.261	48.471
596.206	63.482
600.148	72.577
604.089	32.616
608.028	35.478
611.965	23.798
615.901	4.467
619.834	25.71
623.766	8.638
627.696	40.553
631.624	23.434
635.551	66.478
639.475	2.148
643.398	16.817
647.318	14.696
651.237	21.217
655.155	71.174
659.07	30.829
662.984	32.873
666.895	68.918
670.805	33.162
674.713	74.347
678.62	92.846
682.524	36.036
686.427	53.62
690.328	47.105
694.227	48.432
698.124	47.222
702.02	23.686
705.913	113.798
709.805	343.778
713.695	2488.84
717.584	1029.81
721.47	116.6
725.355	70.792
729.238	75.087
733.119	57.662
736.998	57.898
740.876	48.884
744.752	14.339
748.626	7.31
752.498	138.453
756.368	69.47
760.237	36.76
764.104	60.92
767.969	91.024
771.832	24.966
775.693	38.83
779.553	68.073
783.411	27.64
787.267	21.056
791.122	66.351
794.974	57.907
798.825	32.589
802.674	59.785
806.522	42.974
810.367	5.066
814.211	49.957
818.053	73.373
821.893	44.449
825.732	13.551
829.568	23.279
833.403	47.285
837.236	128.274
841.068	71.282
844.898	69.142
848.726	8.213
852.552	50.991
856.376	16.556
860.199	41.227
864.02	40.873
867.839	53.496
871.656	43.097
875.472	60.678
879.286	21.239
883.098	111.803
886.909	13.861
890.717	15.4
894.524	28.771
898.33	44.004
902.133	56.19
905.935	110.578
909.735	39.924
913.533	83.517
917.33	27.731
921.124	55.713
924.918	98.927
928.709	70.147
932.499	62.445
936.286	38.67
940.073	29.779
943.857	53.547
947.64	58.682
951.421	70.746
955.2	76.744
958.978	16.084
962.753	81.004
966.527	90.121
970.3	51.744
974.071	149.28
977.84	8.349
981.607	3.599
985.372	4.605
989.136	55.729
992.898	32.812
996.659	56.921
1000.42	35.933
1004.17	110.687
1007.93	31.579
1011.68	85.806
1015.43	55.126
1019.18	139.414
1022.93	148.785
1026.68	156.258
1030.42	79.884
1034.17	109.035
1037.91	47.2
1041.65	139.882
1045.39	140.374
1049.12	168.312
1052.86	211.204
1056.59	138.305
1060.33	124.714
1064.06	137.226
1067.78	433.875
1071.51	398.418
1075.23	398.229
1078.96	631.839
1082.68	1391.97
1086.4	11548.8
1090.12	33163.5
1093.83	2246.33
1097.55	703.748
1101.26	397.171
1104.97	222.983
1108.68	138.091
1112.39	83.122
1116.1	79.141
1119.8	169.997
1123.5	174.076
1127.2	183.846
1130.9	148.898
1134.6	119.911
1138.3	77.932
1141.99	33.198
1145.69	27.683
1149.38	37.443
1153.07	146.768
1156.76	95.266
1160.44	24.663
1164.13	38.282
1167.81	42.028
1171.49	32.337
1175.17	39.826
1178.85	78.558
1182.52	99.977
1186.2	113.734
1189.87	83.694
1193.54	19.206
1197.21	9.53
1200.88	67.241
1204.55	49.255
1208.21	138.5
1211.88	77.034
1215.54	121.242
1219.2	58.149
1222.86	56.737
1226.51	18.358
1230.17	51.698
1233.82	190.813
1237.47	197.981
1241.12	203.342
1244.77	143.407
1248.42	201.125
1252.06	76.972
1255.71	57.62
1259.35	62.223
1262.99	177.317
1266.63	110.402
1270.26	142.271
1273.9	200.965
1277.53	172.761
1281.16	186.202
1284.8	37.736
1288.42	26.979
1292.05	78.005
1295.68	48.921
1299.3	124.74
1302.92	127.454
1306.55	83.862
1310.16	31.076
1313.78	45.093
1317.4	9.782
1321.01	122.151
1324.62	68.095
1328.24	86.306
1331.85	131.889
1335.45	110.376
1339.06	97.886
1342.66	145.839
1346.27	119.969
1349.87	80.924
1353.47	43.895
1357.07	44.762
1360.66	125.648
1364.26	88.499
1367.85	83.65
1371.44	117.514
1375.04	74.957
1378.62	115.649
1382.21	162.781
1385.8	15.481
1389.38	80.382
1392.96	49
1396.54	35.578
1400.12	46.961
1403.7	145.661
1407.28	249.118
1410.85	305.932
1414.42	263.69
1417.99	261.649
1421.56	225.653
1425.13	97.304
1428.7	169.565
1432.26	113.016
1435.83	360.692
1439.39	932.601
1442.95	450.141
1446.51	296.807
1450.06	291.898
1453.62	209.122
1457.17	285.404
1460.73	146.646
1464.28	184.525
1467.83	191.443
1471.37	96.398
1474.92	45.55
1478.46	36.309
1482.01	203.543
1485.55	183.952
1489.09	280.488
1492.63	231.488
1496.16	227.998
1499.7	121.668
1503.23	126.346
1506.76	111.874
1510.29	63.5
1513.82	0.75
1517.35	22.709
1520.88	48.828
1524.4	0
