Measurement: Raman, 514 nm, ccw, Raman Data Processed
Mineral: Calcite
Rruff sample: R040170
Ideal chemistry: CaCO_3_
Locality: Peramea, Lerida Province, Catalonia, Spain
Source: University of Arizona Mineral Museum
Description: Pink fragment
Measured chemistry: (Ca_0.99_Mg_0.01_)CO_3_; trace amounts of Co
Pin_id: L00956
Orientation: Laser parallel to -a* (-1 0 0). Fiducial mark perpendicular to laser is parallel to c [0 0 1]
Raman shift (cm-1)	intensity
102.116	0
107.047	316.331
111.976	281.155
116.903	115.414
121.827	355.508
126.749	437.006
131.668	808.352
136.585	1576.27
141.5	3333.81
146.412	5350.47
151.321	5508.1
156.229	3454.94
161.134	1638.46
166.036	851.29
170.936	419.282
175.834	318.474
180.729	304.003
185.622	193.475
190.512	264.658
195.4	259.661
200.286	268.26
205.169	202.779
210.049	234.136
214.928	282.06
219.803	431.521
224.677	354.449
229.548	396.74
234.416	713.945
239.282	835.167
244.146	1229.23
249.007	1695.39
253.866	2276.43
258.722	3527.53
263.576	5825.48
268.427	9762.82
273.276	13772
278.123	13440.8
282.967	9225.03
287.809	5066.6
292.648	2758.73
297.485	1716.48
302.319	1205.45
307.151	783.789
311.98	655.858
316.807	466.751
321.631	412.81
326.454	246.001
331.273	273.307
336.09	132.696
340.905	85.1602
345.717	199.5
350.527	96.3066
355.334	15.8594
360.139	46.2188
364.941	63.8203
369.741	33.6514
374.538	140.042
379.333	55.4043
384.126	28.3877
388.916	34.416
393.703	60.3477
398.488	60.6728
403.271	24.3779
408.051	35.377
412.828	60.5185
417.603	61.7637
422.376	22.6904
427.146	148.634
431.914	189.882
436.679	141.248
441.442	70.5644
446.202	250.804
450.96	133.848
455.715	199.504
460.467	70.9375
465.218	193.635
469.965	219.254
474.711	218.609
479.454	200
484.194	222.562
488.932	65.3564
493.667	265.937
498.4	181.577
503.13	139.369
507.858	184.846
512.583	150.8
517.306	234.375
522.026	165.121
526.744	160.606
531.459	206.403
536.172	72.0918
540.882	69.8955
545.59	151.198
550.295	143.811
554.998	24.5752
559.698	23.6113
564.396	209.496
569.091	169.137
573.784	58.5234
578.474	165.591
583.162	134.255
587.847	226.815
592.529	92.2549
597.209	27.7012
601.887	201.752
606.562	212.013
611.235	243.041
615.905	58.9805
620.572	139.795
625.237	120.449
629.9	338.818
634.56	222.338
639.217	232.715
643.872	159.959
648.524	75.543
653.174	300.998
657.821	219.182
662.466	393.262
667.108	111.072
671.748	193.49
676.385	241.387
681.02	285.383
685.652	121.231
690.281	282.522
694.908	307.619
699.533	713.178
704.155	1651.67
708.774	2072.94
713.391	1246.01
718.005	366.906
722.617	152.672
727.226	195.838
731.833	145.742
736.437	106.1
741.039	45.3809
745.638	180.418
750.234	40.707
754.828	212.152
759.419	176.551
764.008	83.166
768.595	92.6641
773.178	170.56
777.759	243.731
782.338	20.5527
786.914	253.971
791.488	5.71875
796.059	172.375
800.627	33.0371
805.193	46.7637
809.756	143.277
814.317	26.8105
818.875	197.965
823.431	211.769
827.984	128.576
832.534	249.19
837.082	164.727
841.627	229.363
846.17	119.736
850.71	138
855.248	293.205
859.783	119.309
864.316	85.2832
868.846	306.869
873.373	125.027
877.898	105.67
882.42	105.647
886.94	180.008
891.457	242.746
895.971	187.225
900.483	200.545
904.993	106.715
909.5	142.262
914.004	95.1406
918.505	80.0566
923.004	1.87695
927.501	262.926
931.995	116.781
936.486	168.348
940.975	219.291
945.461	113.481
949.945	173.047
954.426	219.357
958.904	3.66406
963.38	137.398
967.853	97.6875
972.324	58.9766
976.792	246.977
981.258	273.195
985.72	394.154
990.181	436.398
994.639	358.434
999.094	780.475
1003.55	784.754
1008	1253.21
1012.44	1913.74
1016.89	1068.51
1021.33	463.861
1025.77	9.38867
1030.21	338.326
1034.64	56.4121
1039.07	36.0078
1043.5	260.033
1047.93	316.725
1052.35	314.119
1056.78	215.699
1061.19	761.715
1065.61	677.307
1070.02	1420.07
1074.43	4883.65
1078.84	20218.3
1083.25	34450.9
1087.65	13846.9
1092.05	2556.88
1096.45	788.076
1100.85	273.356
1105.24	190.721
1109.63	244.123
1114.02	240.777
1118.4	402.518
1122.78	323.34
1127.16	315.361
1131.54	278.352
1135.92	217.57
1140.29	8.47656
1144.66	181.535
1149.02	163.434
1153.39	217.445
1157.75	158.068
1162.11	110.045
1166.46	298.191
1170.82	102.508
1175.17	327.902
1179.52	271.207
1183.86	317.516
1188.21	191.244
1192.55	158.721
1196.89	371.24
1201.22	78.832
1205.55	289.531
1209.88	190.307
1214.21	153.203
1218.54	141.172
1222.86	265.629
1227.18	236.711
1231.5	12.2227
1235.81	286.346
1240.12	370.709
1244.43	209.004
1248.74	302.352
1253.04	29.7207
1257.34	53.1621
1261.64	205.461
1265.94	237.938
1270.23	50.2031
1274.52	116.023
1278.81	113.857
1283.1	342.385
1287.38	61.916
1291.66	182.914
1295.94	240.482
1300.21	52.0645
1304.48	162.607
1308.75	94.0957
1313.02	108.5
1317.29	299.848
1321.55	262.129
1325.81	373.592
1330.06	103.828
1334.32	295.621
1338.57	98.3457
1342.82	290.527
1347.06	237.074
1351.31	327.584
1355.55	5.48828
1359.79	213.316
1364.02	199.205
1368.26	143.891
1372.49	341.484
1376.71	271.166
1380.94	79.6856
1385.16	240.412
1389.38	48.9121
1393.6	167.363
1397.81	43.5918
1402.02	449.027
1406.23	293.377
1410.44	233.201
1414.64	460.305
1418.85	230.039
1423.04	319.613
1427.24	543.164
1431.43	850.236
1435.62	699.131
1439.81	442.695
1444	286.111
1448.18	66.3223
1452.36	434.582
1456.54	132.842
1460.71	138.393
1464.89	182.818
1469.06	30.0195
1473.22	17.125
1477.39	242.609
1481.55	265.106
1485.71	183.289
1489.86	209.269
1494.02	258.844
1498.17	274.086
1502.32	320.543
1506.46	306.293
1510.61	481.945
1514.75	286.738
1518.88	367.856
1523.02	152.707
1527.15	310.633
1531.28	322.988
1535.41	205.238
1539.53	443.586
1543.66	451.156
1547.78	341
1551.89	136.098
1556.01	279.688
1560.12	117.789
1564.23	245.805
1568.33	0.066406
