Measurement: Raman, 514 nm, ccw, Raman Data Processed
Mineral: Calcite
Rruff sample: R040170
Ideal chemistry: CaCO_3_
Locality: Peramea, Lerida Province, Catalonia, Spain
Source: University of Arizona Mineral Museum
Description: Pink fragment
Measured chemistry: (Ca_0.99_Mg_0.01_)CO_3_; trace amounts of Co
Pin_id: L00956
Orientation: Laser parallel to -a* (-1 0 0). Fiducial mark perpendicular to laser is parallel to c [0 0 1]
Raman shift (cm-1)	intensity
102.116	0
107.047	215.543
111.976	70.8042
116.903	118.677
121.827	217.343
126.749	465.293
131.668	796.522
136.585	1521.08
141.5	3378.31
146.412	5620.91
151.321	6203.84
156.229	3780.43
161.134	1785.12
166.036	673.575
170.936	438.031
175.834	204.464
180.729	101.068
185.622	139.26
190.512	193.785
195.4	207.124
200.286	140.126
205.169	182.409
210.049	139.943
214.928	277.719
219.803	258.732
224.677	238.973
229.548	469.106
234.416	689.326
239.282	955.503
244.146	1204.93
249.007	1653.22
253.866	2675.52
258.722	3890.76
263.576	6373.61
268.427	11085.1
273.276	16124.9
278.123	16325.2
282.967	10968.9
287.809	5915.91
292.648	3362.94
297.485	2050.56
302.319	1377.41
307.151	917.471
311.98	712.533
316.807	655.652
321.631	662.78
326.454	346.958
331.273	236.199
336.09	231.254
340.905	170.859
345.717	89.0547
350.527	19.8701
355.334	15.4746
360.139	100.939
364.941	76.3994
369.741	91.6562
374.538	106.279
379.333	28.1689
384.126	57.0693
388.916	24.1387
393.703	34.0469
398.488	72.4941
403.271	33.7842
408.051	27.8613
412.828	48.0254
417.603	44.5605
422.376	48.0166
427.146	18.3975
431.914	107.629
436.679	77.7519
441.442	103.377
446.202	103.876
450.96	125.906
455.715	164.114
460.467	145.817
465.218	103.057
469.965	217.124
474.711	108.916
479.454	94.8906
484.194	86.3398
488.932	107.497
493.667	168.398
498.4	177.73
503.13	110.39
507.858	135.9
512.583	156.15
517.306	183.183
522.026	232.662
526.744	292.18
531.459	0.578125
536.172	188.852
540.882	27.4512
545.59	89.3086
550.295	5.57324
554.998	129.284
559.698	2.78223
564.396	63.4883
569.091	166.406
573.784	34.7324
578.474	64.3594
583.162	27.3271
587.847	73.0391
592.529	165.462
597.209	66.7666
601.887	117.942
606.562	100.316
611.235	242.782
615.905	106.404
620.572	202.989
625.237	68.2519
629.9	210.037
634.56	227.597
639.217	88.1719
643.872	36.4473
648.524	60.7109
653.174	139.194
657.821	141.849
662.466	198.961
667.108	254.644
671.748	139.175
676.385	133.06
681.02	146.131
685.652	181.548
690.281	195.466
694.908	268.065
699.533	596.288
704.155	1759.91
708.774	2926.78
713.391	1377.74
718.005	416.556
722.617	361.177
727.226	197.887
731.833	246.513
736.437	120.357
741.039	240.04
745.638	40.9346
750.234	73.917
754.828	159.823
759.419	1.86035
764.008	359.004
768.595	18.8389
773.178	76.9795
777.759	221.353
782.338	128.031
786.914	44.5205
791.488	70.875
796.059	144.875
800.627	34.2715
805.193	133.067
809.756	63.1621
814.317	78.5879
818.875	90.6875
823.431	76.6777
827.984	244.234
832.534	248.421
837.082	6.28711
841.627	231.951
846.17	204.448
850.71	113.797
855.248	338.978
859.783	192.089
864.316	145.047
868.846	301.854
873.373	319.519
877.898	170.456
882.42	54.5254
886.94	269.082
891.457	31.0059
895.971	198.666
900.483	185.701
904.993	29.2891
909.5	142.879
914.004	92.457
918.505	33.1211
923.004	140.334
927.501	120.455
931.995	50.7559
936.486	155.295
940.975	55.9551
945.461	113.691
949.945	244.107
954.426	22.0273
958.904	117.951
963.38	12.1387
967.853	179.572
972.324	44.8887
976.792	227.076
981.258	17.666
985.72	358.31
990.181	313.891
994.639	496.519
999.094	829.289
1003.55	870.057
1008	1395.82
1012.44	1764.06
1016.89	1271.81
1021.33	609.84
1025.77	396.342
1030.21	27.3457
1034.64	157.522
1039.07	229.65
1043.5	290.32
1047.93	220.664
1052.35	196.461
1056.78	140.865
1061.19	745.611
1065.61	828.75
1070.02	1581.66
1074.43	4876.86
1078.84	22001.2
1083.25	43092.3
1087.65	14896.7
1092.05	2730.23
1096.45	853.389
1100.85	491.326
1105.24	167.773
1109.63	245.307
1114.02	6.80664
1118.4	142.861
1122.78	330.402
1127.16	184.662
1131.54	41.3613
1135.92	81.6113
1140.29	124.756
1144.66	153.545
1149.02	297.793
1153.39	238.615
1157.75	187.959
1162.11	123.394
1166.46	247.76
1170.82	113.232
1175.17	364.764
1179.52	174.148
1183.86	211.935
1188.21	50.5996
1192.55	41.2949
1196.89	66.9277
1201.22	129.607
1205.55	23.6152
1209.88	79.2227
1214.21	166.238
1218.54	184.287
1222.86	66.3477
1227.18	186.508
1231.5	164.732
1235.81	242.969
1240.12	4.78906
1244.43	109.367
1248.74	22.9219
1253.04	8.04492
1257.34	6.21484
1261.64	169.764
1265.94	31.5469
1270.23	146.273
1274.52	51.9512
1278.81	1.47461
1283.1	97.9258
1287.38	65.2559
1291.66	93.5508
1295.94	134.859
1300.21	44.3066
1304.48	76.7461
1308.75	223.158
1313.02	239.535
1317.29	386.773
1321.55	410.025
1325.81	218.562
1330.06	152.697
1334.32	81.793
1338.57	60.8477
1342.82	46.2539
1347.06	283.875
1351.31	252.715
1355.55	378.586
1359.79	162.859
1364.02	283.297
1368.26	310.701
1372.49	205.713
1376.71	20.3711
1380.94	181.695
1385.16	16.0137
1389.38	265.394
1393.6	169.022
1397.81	238.553
1402.02	415.508
1406.23	272.648
1410.44	235.209
1414.64	73.3867
1418.85	280.478
1423.04	500.025
1427.24	560.836
1431.43	1113.94
1435.62	916.664
1439.81	488.508
1444	114.762
1448.18	258.195
1452.36	307.273
1456.54	211.162
1460.71	343.199
1464.89	163.912
1469.06	98.834
1473.22	177.643
1477.39	115.019
1481.55	204.35
1485.71	444.379
1489.86	132.644
1494.02	230.287
1498.17	240.867
1502.32	213.092
1506.46	228.434
1510.61	156.19
1514.75	143.336
1518.88	196.268
1523.02	336.887
1527.15	353.371
1531.28	404.871
1535.41	302.586
1539.53	84.4922
1543.66	452.647
1547.78	262.565
1551.89	163.578
1556.01	260.609
1560.12	87.0332
1564.23	73.5644
1568.33	162.988
