Measurement: Raman, 514 nm, ccw, Raman Data Processed
Mineral: Cancrinite
Rruff sample: R050352
Ideal chemistry: (Na,Ca,[box])_8_(Al_6_Si_6_)O_24_(CO_3_,SO_4_)_2_2H_2_O
Locality: York River, quarry #2, Dungannon Township, Ontario, Canada
Source: California Institute of Technology
Description: Pink fragment
Measured chemistry: (Na_6.07_Ca_1.62_[box]_0.31_)_Σ=8_(Al_0.99_Si_1.01_O_4_)_6_((CO_3_)_0.84_[box]_0.16_)_Σ=2_·2H_2_O
Pin_id: M00367
Orientation: Laser parallel to a* (1 0 0). Fiducial mark perpendicular to laser is parallel to c [0 0 1]
Raman shift (cm-1)	intensity
170.936	0
175.834	21.8965
180.729	74.624
185.622	525.143
190.512	886.146
195.4	1194.92
200.286	1729.12
205.169	2270.57
210.049	3327.78
214.928	4765.56
219.803	5353.62
224.677	5459.88
229.548	5039.67
234.416	3892.71
239.282	2822.12
244.146	2635.39
249.007	3119.76
253.866	4205.26
258.722	6745.81
263.576	10903
268.427	16141
273.276	20062.9
278.123	16577.2
282.967	9960.09
287.809	6801.02
292.648	7140.43
297.485	7997.1
302.319	6745.42
307.151	4354.16
311.98	2348.56
316.807	1304.12
321.631	1102
326.454	1618.05
331.273	2984.9
336.09	4131.25
340.905	5595.1
345.717	7003.85
350.527	6265.03
355.334	3658.2
360.139	1209.11
364.941	44.4365
369.741	303.419
374.538	416.313
379.333	297.46
384.126	35.5918
388.916	548.112
393.703	1112.46
398.488	1662.63
403.271	2640.17
408.051	4294.79
412.828	7122.9
417.603	9301.1
422.376	7943.49
427.146	5425.81
431.914	3929.09
436.679	3074.78
441.442	2385.34
446.202	2451.92
450.96	3347.38
455.715	5577.16
460.467	7356.64
465.218	6126.88
469.965	4271.11
474.711	3894.57
479.454	4719.79
484.194	6366.76
488.932	9004.86
493.667	11805.2
498.4	12046.2
503.13	10140
507.858	7870.19
512.583	5507.92
517.306	3974.97
522.026	2385.47
526.744	1607.38
531.459	1044.85
536.172	771.569
540.882	584.953
545.59	428.961
550.295	266.51
554.998	324.595
559.698	88.209
564.396	46.3613
569.091	292.078
573.784	272.562
578.474	211.805
583.162	44.9648
587.847	29.7168
592.529	65.5996
597.209	79.6953
601.887	57.3223
606.562	31.1348
611.235	87.4844
615.905	133.49
620.572	73.9551
625.237	40.8125
629.9	89.0879
634.56	74.0332
639.217	28.1191
643.872	35.4375
648.524	52.3535
653.174	42.4961
657.821	82.6582
662.466	167.199
667.108	186.836
671.748	473.746
676.385	894.113
681.02	1086.64
685.652	1054.97
690.281	856.604
694.908	759.189
699.533	917.578
704.155	733.998
708.774	661.475
713.391	836.344
718.005	920.629
722.617	443.373
727.226	428.807
731.833	245.315
736.437	456.738
741.039	422.832
745.638	463.785
750.234	588.686
754.828	655.881
759.419	1137.7
764.008	1925.23
768.595	3219.02
773.178	3959.9
777.759	2935.42
782.338	1401.81
786.914	878.949
791.488	279.258
796.059	179.711
800.627	207.565
805.193	6.53125
809.756	253.172
814.317	88.6231
818.875	54.75
823.431	48.873
827.984	31.3984
832.534	5.18164
837.082	74.6406
841.627	140.125
846.17	31.6914
850.71	59.8926
855.248	94.291
859.783	8.29492
864.316	110.272
868.846	164.627
873.373	115.545
877.898	17.2695
882.42	51.459
886.94	243.859
891.457	58.8613
895.971	142.359
900.483	329.766
904.993	426.56
909.5	598.797
914.004	738.441
918.505	1585.49
923.004	2296.38
927.501	3287.36
931.995	3696.55
936.486	3113.82
940.975	2523.39
945.461	3281.26
949.945	4292.7
954.426	5285.32
958.904	5010.99
963.38	4263.07
967.853	4066.75
972.324	4047.94
976.792	4450.95
981.258	4674.21
985.72	4540.37
990.181	4621.73
994.639	4387.04
999.094	4105.83
1003.55	3854.18
1008	3615.61
1012.44	2886.73
1016.89	2813.92
1021.33	2419.71
1025.77	2239.46
1030.21	2309.82
1034.64	3527.89
1039.07	7118.49
1043.5	9532.79
1047.93	13229.1
1052.35	28175.5
1056.78	32355
1061.19	16450
1065.61	3859.85
1070.02	1399.58
1074.43	614.025
1078.84	866.127
1083.25	803.225
1087.65	894.883
1092.05	671.137
1096.45	579.367
1100.85	418.637
1105.24	146.914
1109.63	128.027
1114.02	34.4238
1118.4	557.449
1122.78	500.859
1127.16	550.244
1131.54	139.258
1135.92	121.723
1140.29	57.2188
1144.66	103.223
1149.02	137.633
1153.39	65.6211
1157.75	275.93
1162.11	56.0156
1166.46	35.1055
1170.82	94.3359
1175.17	228.656
1179.52	245.742
1183.86	237.812
1188.21	219.637
1192.55	352.019
1196.89	264.324
1201.22	76.5586
1205.55	219.672
1209.88	354.856
1214.21	41.0703
1218.54	54.2461
1222.86	230.164
1227.18	223.801
1231.5	51.6133
1235.81	299.727
1240.12	14.543
1244.43	234.832
1248.74	264.512
1253.04	60.7031
1257.34	29.2227
1261.64	304.383
1265.94	71.4375
1270.23	39.8438
1274.52	313.09
1278.81	180.406
1283.1	52.1836
1287.38	84.0859
1291.66	239.434
1295.94	119.004
1300.21	137.012
1304.48	260.004
1308.75	218.965
1313.02	247.129
1317.29	260.68
1321.55	75.3477
1325.81	26.1406
1330.06	366.668
1334.32	225.871
1338.57	230.344
1342.82	470.902
1347.06	118.629
1351.31	150.742
1355.55	197.309
1359.79	197.566
1364.02	51.5938
1368.26	434.391
1372.49	1182.61
1376.71	812.625
1380.94	778.269
1385.16	881.953
1389.38	413.394
1393.6	580.051
1397.81	485.981
1402.02	212.676
1406.23	468.867
1410.44	647.148
1414.64	349.828
1418.85	165.215
1423.04	398.418
1427.24	331.512
1431.43	170.356
1435.62	59.0703
1439.81	175.449
1444	349.008
1448.18	916.769
1452.36	456.113
1456.54	111.785
1460.71	209.211
1464.89	171.789
1469.06	250.32
1473.22	63.8242
1477.39	580.594
1481.55	524.125
1485.71	324.137
1489.86	143.434
1494.02	497.156
1498.17	328.207
1502.32	391.312
1506.46	160
1510.61	359.66
1514.75	417.367
1518.88	276.863
1523.02	236.102
1527.15	387.922
1531.28	22.7266
1535.41	277.731
1539.53	359.25
1543.66	360.148
1547.78	399.539
1551.89	215.961
1556.01	111.465
1560.12	310.301
1564.23	437.066
1568.33	2.26953
