Measurement: Raman, 514 nm, ccw, Raman Data Processed
Mineral: Cancrinite
Rruff sample: R050352
Ideal chemistry: (Na,Ca,[box])_8_(Al_6_Si_6_)O_24_(CO_3_,SO_4_)_2_2H_2_O
Locality: York River, quarry #2, Dungannon Township, Ontario, Canada
Source: California Institute of Technology
Description: Pink fragment
Measured chemistry: (Na_6.07_Ca_1.62_[box]_0.31_)_Σ=8_(Al_0.99_Si_1.01_O_4_)_6_((CO_3_)_0.84_[box]_0.16_)_Σ=2_·2H_2_O
Pin_id: L01694
Orientation: Laser parallel to -c* (0 0 -1). Fiducial mark perpendicular to laser is parallel to a [1 0 0]
Raman shift (cm-1)	intensity
83.602	0
88.542	1499.72
93.48	1894.65
98.416	1076.07
103.349	544.585
108.28	898.607
113.208	587.876
118.134	980.101
123.058	1224.35
127.979	997.646
132.898	705.903
137.814	384.616
142.728	330.013
147.639	13.0068
152.549	148.716
157.455	66.7744
162.359	127.857
167.261	80.6362
172.161	365.282
177.058	949.309
181.952	1519.82
186.845	2090.81
191.734	2540.54
196.622	2618.98
201.507	2044.81
206.389	1428.83
211.269	1619.04
216.147	2125.39
221.022	2802.87
225.895	3142.2
230.765	3266.76
235.633	3323.92
240.498	3327.37
245.361	3271.93
250.222	3544.39
255.08	4381.05
259.936	6430.86
264.789	8715.81
269.64	12226.9
274.488	14555.1
279.334	12763.5
284.178	8699.17
289.019	6839.94
293.857	7243.24
298.693	7767.78
303.527	6491.59
308.358	4308.35
313.187	2765.44
318.013	1817.15
322.837	1449.68
327.659	1707.08
332.478	1981.38
337.294	1825.54
342.108	1451.67
346.92	1142.75
351.729	951.728
356.535	531.566
361.34	12.7954
366.141	120.539
370.94	148.416
375.737	99.7783
380.531	69.333
385.323	80.4565
390.113	290.79
394.9	583.488
399.684	1149.59
404.466	1089.14
409.245	602.143
414.022	537.545
418.797	864.769
423.569	1699.4
428.338	3878
433.105	8177.47
437.87	14861.9
442.632	17629
447.391	11002.6
452.149	5924.34
456.903	4832.56
461.655	6036.16
466.405	6466.51
471.152	5406.27
475.897	3222.34
480.639	1882.36
485.378	1657.65
490.116	1653.2
494.85	1812.24
499.582	1564.01
504.312	1675.7
509.039	1867.07
513.764	3414.28
518.486	5915.73
523.206	7883.99
527.923	5532.78
532.638	2787.87
537.35	1458.97
542.059	913.658
546.766	586.847
551.471	238.584
556.173	168.808
560.873	156.464
565.57	102.545
570.264	52.1103
574.957	46.1148
579.646	126.58
584.333	34.4375
589.018	22.6509
593.7	7.49072
598.379	36.3359
603.056	63.7422
607.73	33.1435
612.402	2.28027
617.072	54.8076
621.739	63.0957
626.403	7.90332
631.065	69.9741
635.724	42.1201
640.381	82.3867
645.035	169.839
649.687	81.7446
654.336	131.989
658.983	29.4482
663.627	79.312
668.268	115.926
672.907	286.258
677.544	493.474
682.178	879.099
686.809	1128.47
691.438	1139.12
696.065	1418.93
700.688	1333.96
705.31	1160.31
709.929	1066.28
714.545	1383.52
719.158	1538.93
723.77	825.999
728.378	254.621
732.984	198.44
737.588	431.342
742.189	294.112
746.787	355.747
751.383	309.037
755.976	324.821
760.567	449.695
765.155	575.098
769.741	968.504
774.324	1167.05
778.904	761.57
783.482	450.209
788.058	348.922
792.631	165.567
797.201	123.041
801.769	204.553
806.334	75.0527
810.897	23.8164
815.457	1.19141
820.014	189.423
824.569	20.8721
829.122	110.288
833.671	44.582
838.219	90.4844
842.763	21.4082
847.306	45.6709
851.845	39.1895
856.382	80.0684
860.917	19.9502
865.448	48.7451
869.978	135.373
874.505	101.232
879.029	36.8652
883.55	39.7236
888.069	16.1035
892.586	6.25
897.1	18.1855
901.611	165.193
906.12	215.15
910.626	137.648
915.129	265.688
919.63	357.336
924.129	644.439
928.625	1039.15
933.118	943.425
937.609	992.102
942.097	1082.9
946.582	1457.64
951.065	1817.29
955.546	1873.58
960.023	1579.37
964.499	1524.46
968.971	1497.02
973.441	1661.27
977.909	1879.46
982.374	1899.21
986.836	2192.41
991.295	2557.77
995.753	2701.84
1000.21	2908.64
1004.66	2863.69
1009.11	2823.39
1013.55	2253.21
1018	2134.96
1022.44	2066.36
1026.88	2296.45
1031.32	2893.66
1035.75	5274.68
1040.18	12200.3
1044.61	14537.2
1049.04	23770.7
1053.46	46792.2
1057.88	49105.9
1062.3	22655.9
1066.71	6492.06
1071.13	3010.9
1075.54	1920.18
1079.94	1444.71
1084.35	1690.89
1088.75	1723.79
1093.15	2051.05
1097.55	1577.27
1101.94	1459.18
1106.34	761.567
1110.73	480.55
1115.11	503.596
1119.5	673.534
1123.88	721.362
1128.26	264.223
1132.63	276.315
1137.01	126.385
1141.38	55.4111
1145.75	186.299
1150.12	159.404
1154.48	25.5361
1158.84	23.3271
1163.2	82.124
1167.55	67.7959
1171.91	122.126
1176.26	26.1377
1180.61	33.0459
1184.95	169.943
1189.29	45.1992
1193.63	112.764
1197.97	84.5059
1202.31	152.326
1206.64	230.211
1210.97	161.014
1215.29	91.5859
1219.62	180.512
1223.94	245.162
1228.26	198.947
1232.57	45.7461
1236.89	239.051
1241.2	176.428
1245.51	296.572
1249.81	154.553
1254.12	177.342
1258.42	37.0957
1262.72	194.758
1267.01	160.217
1271.3	79.5117
1275.59	66.0879
1279.88	168.639
1284.17	7.02148
1288.45	81.5801
1292.73	78.0703
1297.01	113.191
1301.28	68.7461
1305.55	186.934
1309.82	196.647
1314.09	236.451
1318.35	11.627
1322.61	78.3106
1326.87	19.4941
1331.13	245.606
1335.38	142.75
1339.63	138.996
1343.88	9.67969
1348.12	225.904
1352.37	70.6348
1356.61	192.135
1360.85	207.838
1365.08	318.602
1369.31	797.656
1373.54	1457.06
1377.77	1715.22
1381.99	954.068
1386.22	1146.38
1390.43	495.762
1394.65	457.223
1398.87	462.924
1403.08	416.894
1407.29	721.699
1411.49	598.844
1415.69	390.176
1419.89	200.504
1424.09	73.9297
1428.29	49.0781
1432.48	152.934
1436.67	73.1602
1440.86	167.537
1445.04	379.228
1449.23	933.15
1453.4	784.281
1457.58	121.576
1461.76	265.236
1465.93	342.965
1470.1	95.9824
1474.26	158.885
1478.43	521.094
1482.59	508.049
1486.75	655.723
1490.9	539.109
1495.06	186.062
1499.21	381.455
1503.35	112.602
1507.5	623.375
1511.64	257.703
1515.78	527.08
1519.92	460.551
1524.05	379.713
1528.18	136.475
1532.31	225.533
1536.44	189.9
1540.56	261.16
1544.69	153.844
1548.8	443.461
1552.92	278.232
1557.03	258.795
1561.14	450.379
1565.25	13.541
1569.36	125.582
