Measurement: Raman, 514 nm, ccw, Raman Data Processed
Mineral: Cancrinite
Rruff sample: R050352
Ideal chemistry: (Na,Ca,[box])_8_(Al_6_Si_6_)O_24_(CO_3_,SO_4_)_2_2H_2_O
Locality: York River, quarry #2, Dungannon Township, Ontario, Canada
Source: California Institute of Technology
Description: Pink fragment
Measured chemistry: (Na_6.07_Ca_1.62_[box]_0.31_)_Σ=8_(Al_0.99_Si_1.01_O_4_)_6_((CO_3_)_0.84_[box]_0.16_)_Σ=2_·2H_2_O
Pin_id: L01694
Orientation: Laser parallel to -c* (0 0 -1). Fiducial mark perpendicular to laser is parallel to a [1 0 0]
Raman shift (cm-1)	intensity
83.602	0
88.542	1431.23
93.48	1694.82
98.416	945.852
103.349	477.172
108.28	1003.31
113.208	574.968
118.134	861.456
123.058	1153.5
127.979	840.382
132.898	554.971
137.814	505.837
142.728	918.688
147.639	137.218
152.549	54.8877
157.455	220.767
162.359	53.1099
167.261	50.5244
172.161	322.084
177.058	575.123
181.952	1314.79
186.845	1893.99
191.734	2235.67
196.622	2407.03
201.507	1940.89
206.389	1192.79
211.269	1175.86
216.147	1735.07
221.022	2373.39
225.895	2569.98
230.765	2758.04
235.633	2966.32
240.498	2883.15
245.361	2795.71
250.222	2984.15
255.08	3699.83
259.936	5534.98
264.789	7424.8
269.64	10264
274.488	12337
279.334	10929.1
284.178	7396.42
289.019	5833.84
293.857	6117.33
298.693	6549.31
303.527	5496.65
308.358	3652.51
313.187	2384.83
318.013	1589.4
322.837	1171.87
327.659	1484.21
332.478	1671.35
337.294	1551.24
342.108	1297.95
346.92	1039.58
351.729	826.06
356.535	380.354
361.34	50.4053
366.141	148.035
370.94	157.923
375.737	13.7393
380.531	44.9175
385.323	193.255
390.113	212.956
394.9	712.045
399.684	1080.57
404.466	1091.55
409.245	522.995
414.022	519.244
418.797	800.393
423.569	1582.29
428.338	3290.58
433.105	6890.63
437.87	12302.2
442.632	14743.9
447.391	9695.72
452.149	4978.47
456.903	4023.76
461.655	5007.96
466.405	5514.44
471.152	4677.57
475.897	2769.99
480.639	1619.61
485.378	1356.12
490.116	1523.52
494.85	1647.83
499.582	1564.93
504.312	1421.6
509.039	1886.66
513.764	2973.29
518.486	4874.55
523.206	6237.13
527.923	4867.71
532.638	2336.85
537.35	1188.64
542.059	727.806
546.766	359.536
551.471	302.856
556.173	288.817
560.873	80.417
565.57	74.6421
570.264	93.3579
574.957	110.568
579.646	124.247
584.333	79.3198
589.018	55.2275
593.7	119.845
598.379	12.8433
603.056	52.2349
607.73	43.5356
612.402	78.3144
617.072	98.5669
621.739	17.1592
626.403	8.50684
631.065	101.807
635.724	82.1504
640.381	201.972
645.035	101.092
649.687	116.331
654.336	55.1475
658.983	49.0068
663.627	111.633
668.268	26.8838
672.907	162.435
677.544	412.901
682.178	737.409
686.809	927.809
691.438	954.913
696.065	1134.79
700.688	1182.25
705.31	881.311
709.929	923.864
714.545	1268.96
719.158	1370.73
723.77	618.072
728.378	454.884
732.984	242.106
737.588	223.251
742.189	195.121
746.787	251.288
751.383	255.082
755.976	360.102
760.567	306.864
765.155	604.768
769.741	925.331
774.324	1073.47
778.904	638.075
783.482	377.6
788.058	110.075
792.631	226.918
797.201	139.433
801.769	23.7998
806.334	3.99707
810.897	129.886
815.457	102.426
820.014	41.0605
824.569	14.7412
829.122	55.54
833.671	126.017
838.219	39.4443
842.763	3.21973
847.306	2.11523
851.845	139.492
856.382	145.023
860.917	74.7539
865.448	134.743
869.978	39.9355
874.505	77.3643
879.029	75.9209
883.55	54.5762
888.069	54.5772
892.586	41.334
897.1	49.8603
901.611	81.4736
906.12	19.5381
910.626	230.894
915.129	303.722
919.63	494.109
924.129	520.906
928.625	792.205
933.118	974.062
937.609	758.251
942.097	921.64
946.582	1253.22
951.065	1496.53
955.546	1637.5
960.023	1355.53
964.499	1095.67
968.971	1170.38
973.441	1517.27
977.909	1591.55
982.374	1586.73
986.836	2003.56
991.295	2271.8
995.753	2435.27
1000.21	2570.31
1004.66	2632.54
1009.11	2416.02
1013.55	2100.87
1018	1924.67
1022.44	1886.88
1026.88	2031.98
1031.32	2655.99
1035.75	4600.56
1040.18	10276.7
1044.61	12605.5
1049.04	20357.5
1053.46	40114.4
1057.88	42943.6
1062.3	19832.8
1066.71	5534.4
1071.13	2697.26
1075.54	1612.11
1079.94	1439.91
1084.35	1480.19
1088.75	1757.12
1093.15	1699.38
1097.55	1438.95
1101.94	1240.59
1106.34	990.527
1110.73	592.391
1115.11	478.293
1119.5	1001.51
1123.88	969.763
1128.26	445.176
1132.63	146.888
1137.01	66.0283
1141.38	210.926
1145.75	176.758
1150.12	134.475
1154.48	73.5488
1158.84	57.0234
1163.2	16.2617
1167.55	60.6699
1171.91	8.88086
1176.26	64.4629
1180.61	16.5137
1184.95	108.971
1189.29	162.125
1193.63	102.785
1197.97	184.35
1202.31	22.1621
1206.64	56.5879
1210.97	71.0449
1215.29	148.691
1219.62	234.043
1223.94	48.5918
1228.26	50.9785
1232.57	126.178
1236.89	195.58
1241.2	137.125
1245.51	112.555
1249.81	138.816
1254.12	99.959
1258.42	210.607
1262.72	173.256
1267.01	33.5918
1271.3	167.525
1275.59	18.248
1279.88	3.35742
1284.17	144.394
1288.45	50.8301
1292.73	78.5234
1297.01	23.4688
1301.28	271.416
1305.55	182.576
1309.82	103.035
1314.09	158.902
1318.35	220.647
1322.61	273.596
1326.87	29.9277
1331.13	294.195
1335.38	123.633
1339.63	232.184
1343.88	200.922
1348.12	181.178
1352.37	179
1356.61	322.037
1360.85	390.135
1365.08	419.769
1369.31	655.812
1373.54	1414.4
1377.77	1540.72
1381.99	1092.33
1386.22	964.898
1390.43	747.875
1394.65	470.461
1398.87	751.82
1403.08	584.311
1407.29	668.025
1411.49	318.885
1415.69	544.188
1419.89	76.7949
1424.09	49.9277
1428.29	20.9707
1432.48	49.9629
1436.67	121.928
1440.86	124.576
1445.04	501.482
1449.23	829.678
1453.4	672.619
1457.58	410.258
1461.76	297.816
1465.93	254.4
1470.1	330.703
1474.26	384.748
1478.43	399.129
1482.59	792.918
1486.75	456.236
1490.9	156.463
1495.06	355.484
1499.21	359.674
1503.35	114.635
1507.5	362.981
1511.64	363.293
1515.78	388.144
1519.92	384.387
1524.05	148.359
1528.18	470.565
1532.31	271.178
1536.44	189.506
1540.56	134.443
1544.69	170.303
1548.8	192.326
1552.92	202.971
1557.03	17.5898
1561.14	156.799
1565.25	321.606
1569.36	408.731
