Measurement: Raman, 514 nm, ccw, Raman Data Processed
Mineral: Cancrinite
Rruff sample: R050352
Ideal chemistry: (Na,Ca,[box])_8_(Al_6_Si_6_)O_24_(CO_3_,SO_4_)_2_2H_2_O
Locality: York River, quarry #2, Dungannon Township, Ontario, Canada
Source: California Institute of Technology
Description: Pink fragment
Measured chemistry: (Na_6.07_Ca_1.62_[box]_0.31_)_Σ=8_(Al_0.99_Si_1.01_O_4_)_6_((CO_3_)_0.84_[box]_0.16_)_Σ=2_·2H_2_O
Pin_id: M00367
Orientation: Laser parallel to a* (1 0 0). Fiducial mark perpendicular to laser is parallel to c [0 0 1]
Raman shift (cm-1)	intensity
170.936	0
175.834	4.89062
180.729	257.472
185.622	537.267
190.512	950.339
195.4	1139.73
200.286	963.493
205.169	356.067
210.049	407.141
214.928	829.222
219.803	1269.38
224.677	1513.21
229.548	1635.22
234.416	1393.21
239.282	1383.27
244.146	1752.12
249.007	2174.3
253.866	3168.1
258.722	5204.21
263.576	7515.9
268.427	11113.6
273.276	13454.4
278.123	10722.7
282.967	6711.29
287.809	5258.2
292.648	5599.34
297.485	6079.47
302.319	5103.35
307.151	3037.9
311.98	1837.28
316.807	1001.2
321.631	786.849
326.454	893.068
331.273	1529.03
336.09	1560.56
340.905	1399.08
345.717	1446.12
350.527	1071.38
355.334	613.737
360.139	75.0322
364.941	214.4
369.741	182.356
374.538	140.147
379.333	115.695
384.126	129.505
388.916	260.886
393.703	864.604
398.488	1644.69
403.271	2623.39
408.051	4073
412.828	6537.44
417.603	8785.07
422.376	7764.7
427.146	4994.85
431.914	3340.74
436.679	2459.18
441.442	1828.4
446.202	1479.81
450.96	1466.28
455.715	1819.49
460.467	2842.24
465.218	2948.35
469.965	2740.26
474.711	3217.95
479.454	3941.22
484.194	5517.95
488.932	7894.21
493.667	10066.5
498.4	9946.4
503.13	7874.69
507.858	5847.14
512.583	4011.64
517.306	2697.02
522.026	1697.9
526.744	1214.81
531.459	820.421
536.172	412.893
540.882	433.702
545.59	240.912
550.295	162.523
554.998	307.596
559.698	146.101
564.396	110.033
569.091	111.346
573.784	71.1006
578.474	224.276
583.162	70.8135
587.847	36.3447
592.529	81.2197
597.209	72.2109
601.887	103.967
606.562	23.7178
611.235	84.1231
615.905	38.25
620.572	42.4268
625.237	31.8496
629.9	83.5879
634.56	72.5508
639.217	79.3125
643.872	45.4795
648.524	61.0566
653.174	57.1738
657.821	338.635
662.466	69.7148
667.108	134.93
671.748	263.862
676.385	543.33
681.02	921.877
685.652	1177.66
690.281	925.324
694.908	1007.88
699.533	834.162
704.155	824.883
708.774	572.657
713.391	855.572
718.005	1332.24
722.617	563.121
727.226	398.906
731.833	238.192
736.437	184.616
741.039	281.534
745.638	130.756
750.234	184.631
754.828	300.363
759.419	350.326
764.008	560.346
768.595	817.904
773.178	986.62
777.759	668.036
782.338	304.549
786.914	151.793
791.488	117.954
796.059	30.8682
800.627	42.7012
805.193	158.191
809.756	46.6982
814.317	20.8906
818.875	128.44
823.431	29.2822
827.984	94.6553
832.534	76.5019
837.082	16.0225
841.627	8.22363
846.17	19.9932
850.71	27.498
855.248	38.4053
859.783	12.1055
864.316	92.7207
868.846	4.13574
873.373	23.623
877.898	26.0059
882.42	10.8203
886.94	78.1992
891.457	33.0176
895.971	5.11621
900.483	6.42285
904.993	147.628
909.5	247.793
914.004	176.939
918.505	345.891
923.004	802.923
927.501	944.36
931.995	1265.86
936.486	1326.44
940.975	1175.2
945.461	939.51
949.945	1412.77
954.426	1575.94
958.904	1402.14
963.38	1260.72
967.853	1235.51
972.324	1315.15
976.792	1525.6
981.258	1771.81
985.72	2120.06
990.181	2103.98
994.639	2401.39
999.094	2484
1003.55	2612.89
1008	2354.31
1012.44	2529.99
1016.89	2198.71
1021.33	2134.24
1025.77	2144.36
1030.21	2571.96
1034.64	3910.46
1039.07	9308.72
1043.5	11859.5
1047.93	16837.1
1052.35	37230.3
1056.78	43741.2
1061.19	20647.7
1065.61	4954.56
1070.02	1966.11
1074.43	1163.18
1078.84	928.578
1083.25	902.924
1087.65	1022.9
1092.05	909.137
1096.45	1210.2
1100.85	673.189
1105.24	580.857
1109.63	351.453
1114.02	327.951
1118.4	517.484
1122.78	448.244
1127.16	196.016
1131.54	122.617
1135.92	5.21094
1140.29	1.14648
1144.66	24.957
1149.02	159.504
1153.39	75.1445
1157.75	56.6348
1162.11	131.699
1166.46	48.3438
1170.82	16.3633
1175.17	64.9844
1179.52	105.117
1183.86	151.059
1188.21	64.4766
1192.55	126.18
1196.89	112.072
1201.22	157.617
1205.55	140.812
1209.88	345.42
1214.21	230.414
1218.54	194.394
1222.86	95.668
1227.18	6.94531
1231.5	218.303
1235.81	40.3555
1240.12	110.242
1244.43	92.1172
1248.74	99.2676
1253.04	73.6602
1257.34	131.264
1261.64	227
1265.94	236.523
1270.23	251.525
1274.52	58.7969
1278.81	86.5254
1283.1	160.59
1287.38	88.6367
1291.66	234.984
1295.94	118.5
1300.21	52.0664
1304.48	7.97852
1308.75	122.527
1313.02	62.5117
1317.29	150.019
1321.55	20.3027
1325.81	251.693
1330.06	159.049
1334.32	335.518
1338.57	239.611
1342.82	360.842
1347.06	112.518
1351.31	117.385
1355.55	174.377
1359.79	105.619
1364.02	204.228
1368.26	397.473
1372.49	906.959
1376.71	1238.25
1380.94	736.908
1385.16	507.617
1389.38	440.779
1393.6	399.641
1397.81	464.613
1402.02	296.488
1406.23	330.635
1410.44	417.127
1414.64	138.412
1418.85	153.103
1423.04	277.84
1427.24	24.0117
1431.43	48.2891
1435.62	56.1289
1439.81	145.285
1444	289.465
1448.18	698.178
1452.36	627.723
1456.54	87.25
1460.71	344.984
1464.89	165.262
1469.06	64.5195
1473.22	102.738
1477.39	363.379
1481.55	455.574
1485.71	547.297
1489.86	452.498
1494.02	198.133
1498.17	259.102
1502.32	225.66
1506.46	283.133
1510.61	265.65
1514.75	327.453
1518.88	344.072
1523.02	421.426
1527.15	214.225
1531.28	215.049
1535.41	168.232
1539.53	359.951
1543.66	182.699
1547.78	201.812
1551.89	212.191
1556.01	163.356
1560.12	258.69
1564.23	258.232
1568.33	0.595703
