Measurement: Raman, 514 nm, ccw, Raman Data Processed
Mineral: Cancrinite
Rruff sample: R050352
Ideal chemistry: (Na,Ca,[box])_8_(Al_6_Si_6_)O_24_(CO_3_,SO_4_)_2_2H_2_O
Locality: York River, quarry #2, Dungannon Township, Ontario, Canada
Source: California Institute of Technology
Description: Pink fragment
Measured chemistry: (Na_6.07_Ca_1.62_[box]_0.31_)_Σ=8_(Al_0.99_Si_1.01_O_4_)_6_((CO_3_)_0.84_[box]_0.16_)_Σ=2_·2H_2_O
Pin_id: L01694
Orientation: Laser parallel to -c* (0 0 -1). Fiducial mark perpendicular to laser is parallel to a [1 0 0]
Raman shift (cm-1)	intensity
83.602	0
88.542	1557.82
93.48	2074.7
98.416	1136.57
103.349	669.638
108.28	1332.57
113.208	523.707
118.134	777.428
123.058	877.271
127.979	704.115
132.898	666.462
137.814	588.753
142.728	976.265
147.639	226.633
152.549	92.6489
157.455	206.714
162.359	300.502
167.261	1.72559
172.161	268.902
177.058	680.713
181.952	1148.83
186.845	1802.3
191.734	2005.02
196.622	2438.6
201.507	1956.92
206.389	1263.58
211.269	1302.86
216.147	1586.93
221.022	2342.52
225.895	2376.57
230.765	2779.06
235.633	2926.66
240.498	2781.94
245.361	2652.17
250.222	3040.97
255.08	3659.01
259.936	5235.56
264.789	7466.35
269.64	10423.5
274.488	12309.7
279.334	11199.4
284.178	7515.38
289.019	5825.66
293.857	6110.17
298.693	6500.7
303.527	5567.16
308.358	3782.59
313.187	2422.8
318.013	1481.61
322.837	1300.34
327.659	1377.06
332.478	1534.62
337.294	1516.09
342.108	1282.45
346.92	1046.73
351.729	834.838
356.535	494.763
361.34	180.458
366.141	179.681
370.94	139.423
375.737	24.4736
380.531	8.01318
385.323	106.662
390.113	370.657
394.9	660.176
399.684	955.198
404.466	1152.73
409.245	750.759
414.022	549.479
418.797	925.763
423.569	1730.81
428.338	3518.8
433.105	6792.59
437.87	12030.5
442.632	14947.7
447.391	9893.39
452.149	5328.32
456.903	4312.76
461.655	5081.12
466.405	5797.1
471.152	4906.49
475.897	2912.26
480.639	1735.78
485.378	1414.95
490.116	1481.57
494.85	1730.12
499.582	1516.25
504.312	1619.4
509.039	2019.21
513.764	3063.95
518.486	5018.95
523.206	6526.2
527.923	5082.7
532.638	2491.95
537.35	1282.52
542.059	759.901
546.766	499.916
551.471	343.515
556.173	234.621
560.873	99.2275
565.57	163.323
570.264	178.844
574.957	104.844
579.646	34.1631
584.333	23.7979
589.018	33.1895
593.7	19.6699
598.379	113.987
603.056	6.23242
607.73	12.0098
612.402	133.784
617.072	28.9531
621.739	82.6641
626.403	123.603
631.065	88.7373
635.724	142.106
640.381	141.682
645.035	199.492
649.687	41.4434
654.336	90.8936
658.983	152.125
663.627	129.07
668.268	291.104
672.907	109.377
677.544	541.905
682.178	757.374
686.809	943.388
691.438	947.864
696.065	1107.38
700.688	1106.17
705.31	1042.64
709.929	890.241
714.545	1173.19
719.158	1536.1
723.77	704.755
728.378	309.646
732.984	396.214
737.588	344.353
742.189	208.99
746.787	359.183
751.383	177.296
755.976	211.899
760.567	408.453
765.155	579.383
769.741	827.255
774.324	1158.24
778.904	879.077
783.482	406.364
788.058	295.373
792.631	35.1416
797.201	267.505
801.769	52.915
806.334	78.6807
810.897	27.0879
815.457	58.3584
820.014	16.6055
824.569	14.3213
829.122	180.678
833.671	42.2275
838.219	59.1348
842.763	11.0654
847.306	245.067
851.845	151.226
856.382	124.617
860.917	57.1719
865.448	42.3076
869.978	63.2051
874.505	98.7012
879.029	32.6807
883.55	4.49023
888.069	81.7412
892.586	74.7373
897.1	37.1504
901.611	44.706
906.12	157.69
910.626	152.559
915.129	319.008
919.63	473.024
924.129	574.873
928.625	699.425
933.118	798.961
937.609	920.919
942.097	907.981
946.582	1157.05
951.065	1661.98
955.546	1628.39
960.023	1481.65
964.499	1407.11
968.971	1364.73
973.441	1509.44
977.909	1568.02
982.374	1785.85
986.836	1923.9
991.295	2362.45
995.753	2608.45
1000.21	2836.55
1004.66	2688.68
1009.11	2647.22
1013.55	2260.7
1018	2028.12
1022.44	2156.99
1026.88	2340.65
1031.32	2828.05
1035.75	4712.56
1040.18	10250.5
1044.61	12985.2
1049.04	20249.8
1053.46	40223.8
1057.88	43591.1
1062.3	21151.8
1066.71	6183.03
1071.13	2939.61
1075.54	1838.94
1079.94	1607.62
1084.35	1496.05
1088.75	1880.05
1093.15	1736.77
1097.55	1584.53
1101.94	1263.67
1106.34	989.971
1110.73	669.656
1115.11	847.508
1119.5	1142.57
1123.88	1425.42
1128.26	670.805
1132.63	133.316
1137.01	72.7969
1141.38	179.225
1145.75	68.2188
1150.12	93.0977
1154.48	61.2676
1158.84	91.7578
1163.2	35.3809
1167.55	153.547
1171.91	120.029
1176.26	25.9004
1180.61	15.5781
1184.95	2.01758
1189.29	92.0332
1193.63	134.943
1197.97	100.469
1202.31	129.789
1206.64	201.848
1210.97	34.4629
1215.29	108.174
1219.62	263.107
1223.94	134.059
1228.26	198.164
1232.57	1.47461
1236.89	200.859
1241.2	59.4277
1245.51	187.863
1249.81	1.76367
1254.12	83.4473
1258.42	116.662
1262.72	58.3789
1267.01	153.658
1271.3	59.2285
1275.59	15.0547
1279.88	208.598
1284.17	108.43
1288.45	70.7305
1292.73	231.877
1297.01	86.0469
1301.28	244.721
1305.55	158.783
1309.82	146.525
1314.09	117.836
1318.35	170.867
1322.61	69.9316
1326.87	153.725
1331.13	145.057
1335.38	192.981
1339.63	194.002
1343.88	203.141
1348.12	435.867
1352.37	79.8438
1356.61	279.191
1360.85	35.3887
1365.08	407.582
1369.31	643.396
1373.54	1254.68
1377.77	1645.98
1381.99	801.211
1386.22	770.027
1390.43	591.336
1394.65	503.184
1398.87	628.01
1403.08	408.037
1407.29	461.695
1411.49	470
1415.69	236.748
1419.89	22.5664
1424.09	126.309
1428.29	266.359
1432.48	121.256
1436.67	133.832
1440.86	298.199
1445.04	490.93
1449.23	957.547
1453.4	834.311
1457.58	544.926
1461.76	144.24
1465.93	288.932
1470.1	386.957
1474.26	242.519
1478.43	637.371
1482.59	584.301
1486.75	610.238
1490.9	490.543
1495.06	573.066
1499.21	261.871
1503.35	355.191
1507.5	119.273
1511.64	133.418
1515.78	92.6699
1519.92	412.928
1524.05	488.139
1528.18	264.791
1532.31	199.238
1536.44	161.504
1540.56	121.793
1544.69	150.277
1548.8	201.883
1552.92	12.1523
1557.03	74.3594
1561.14	0.109375
1565.25	0.054688
1569.36	99.0469
