Measurement: Raman, 514 nm, ccw, Raman Data Processed
Mineral: Cancrinite
Rruff sample: R050352
Ideal chemistry: (Na,Ca,[box])_8_(Al_6_Si_6_)O_24_(CO_3_,SO_4_)_2_2H_2_O
Locality: York River, quarry #2, Dungannon Township, Ontario, Canada
Source: California Institute of Technology
Description: Pink fragment
Measured chemistry: (Na_6.07_Ca_1.62_[box]_0.31_)_Σ=8_(Al_0.99_Si_1.01_O_4_)_6_((CO_3_)_0.84_[box]_0.16_)_Σ=2_·2H_2_O
Pin_id: M00367
Orientation: Laser parallel to a* (1 0 0). Fiducial mark perpendicular to laser is parallel to c [0 0 1]
Raman shift (cm-1)	intensity
170.936	0
175.834	89.5127
180.729	56.168
185.622	200.856
190.512	537.852
195.4	1138.42
200.286	2475.79
205.169	4368.68
210.049	6947.04
214.928	10483
219.803	13061.7
224.677	13941.2
229.548	12980.2
234.416	11115
239.282	8770.47
244.146	7487.11
249.007	7894.13
253.866	10569.4
258.722	16030.1
263.576	25022.5
268.427	36379.6
273.276	43150.8
278.123	36773.1
282.967	22348.5
287.809	15242.5
292.648	15948.4
297.485	16788.9
302.319	15228.2
307.151	10522.5
311.98	6505.3
316.807	4232.87
321.631	3473.14
326.454	4197.59
331.273	6217.36
336.09	9307.02
340.905	14655
345.717	20332.5
350.527	18763.4
355.334	11524.1
360.139	5360.16
364.941	2037.14
369.741	314.555
374.538	285.643
379.333	697.223
384.126	563.521
388.916	173.191
393.703	438.287
398.488	1563.11
403.271	3575.35
408.051	6932.97
412.828	12110
417.603	15344.6
422.376	12405.2
427.146	7425.29
431.914	4268.09
436.679	2900.35
441.442	2245.55
446.202	2797.7
450.96	5228.49
455.715	11341.9
460.467	16693.8
465.218	13424.9
469.965	8498.04
474.711	7067.99
479.454	7929.98
484.194	11131.9
488.932	15705.9
493.667	20757
498.4	21687.2
503.13	18678.5
507.858	14108.6
512.583	10132.5
517.306	7217.86
522.026	4797.65
526.744	3134.41
531.459	1932.2
536.172	1462.48
540.882	912.904
545.59	783.166
550.295	486.207
554.998	484.098
559.698	275.773
564.396	157.693
569.091	504.123
573.784	303.059
578.474	65.2363
583.162	52.4727
587.847	93.0703
592.529	40.4805
597.209	25.7754
601.887	49.125
606.562	2.66016
611.235	0.912109
615.905	261.144
620.572	26.4414
625.237	105.447
629.9	50.0449
634.56	9.10938
639.217	186.365
643.872	74.5039
648.524	157.69
653.174	131.123
657.821	211.191
662.466	341.879
667.108	758.166
671.748	978.164
676.385	1210
681.02	1406.44
685.652	1486.64
690.281	1045.91
694.908	660.668
699.533	720.811
704.155	347.365
708.774	550.732
713.391	360.541
718.005	522.805
722.617	348.426
727.226	361.772
731.833	536.967
736.437	662.391
741.039	547.039
745.638	772.766
750.234	1200.48
754.828	1588.5
759.419	2570.15
764.008	4519.35
768.595	8201.45
773.178	10306.8
777.759	7113.67
782.338	3472.43
786.914	1670.94
791.488	962.434
796.059	621.432
800.627	564.615
805.193	144.707
809.756	148.744
814.317	16.4648
818.875	103.82
823.431	180.6
827.984	33.9141
832.534	36.7051
837.082	43.9707
841.627	89.4922
846.17	84.5625
850.71	149.617
855.248	142.695
859.783	201.164
864.316	60.498
868.846	75.2695
873.373	130.287
877.898	8.05664
882.42	85.7441
886.94	112.699
891.457	189.24
895.971	20.7031
900.483	264.893
904.993	378.115
909.5	1015.17
914.004	1476.12
918.505	2500.83
923.004	3937.13
927.501	5769.02
931.995	6602.49
936.486	5941.39
940.975	5295.49
945.461	6486.11
949.945	9590.59
954.426	11915.6
958.904	10495.8
963.38	8891.51
967.853	8374.8
972.324	8350.7
976.792	8391.27
981.258	8343.42
985.72	8778.84
990.181	8882.65
994.639	7842.41
999.094	7338.04
1003.55	6503.43
1008	5934.69
1012.44	4878.46
1016.89	4044.33
1021.33	3116.68
1025.77	2497.1
1030.21	2016.83
1034.64	2652.61
1039.07	5003.55
1043.5	6251.23
1047.93	8639.39
1052.35	17450
1056.78	18794.9
1061.19	9365.8
1065.61	2126.87
1070.02	710.146
1074.43	547.652
1078.84	281.693
1083.25	329.215
1087.65	412.856
1092.05	15.1758
1096.45	118.746
1100.85	37.4004
1105.24	122.99
1109.63	171.193
1114.02	11.9805
1118.4	368.231
1122.78	544.982
1127.16	465.691
1131.54	159.332
1135.92	202.082
1140.29	92.3984
1144.66	110.973
1149.02	241.488
1153.39	26.6758
1157.75	178.488
1162.11	179.82
1166.46	27.2812
1170.82	148.644
1175.17	315.453
1179.52	186.668
1183.86	166.965
1188.21	117.543
1192.55	283.961
1196.89	245.231
1201.22	69.8125
1205.55	227
1209.88	460.766
1214.21	389.07
1218.54	151.008
1222.86	430.375
1227.18	250.234
1231.5	455.465
1235.81	477.012
1240.12	296.059
1244.43	291.742
1248.74	100.57
1253.04	362.949
1257.34	31.8867
1261.64	518.871
1265.94	465.066
1270.23	31.1211
1274.52	26.7344
1278.81	576.055
1283.1	62.0742
1287.38	89.6211
1291.66	112.199
1295.94	300.055
1300.21	20.0039
1304.48	222.215
1308.75	135.769
1313.02	221.027
1317.29	453.195
1321.55	197.332
1325.81	132.039
1330.06	333.066
1334.32	236.43
1338.57	156.75
1342.82	324.57
1347.06	217.023
1351.31	371.883
1355.55	316.844
1359.79	310.812
1364.02	332.539
1368.26	203.992
1372.49	536.906
1376.71	332.727
1380.94	471.434
1385.16	377.902
1389.38	684.996
1393.6	644.984
1397.81	570.57
1402.02	447.82
1406.23	72.4062
1410.44	150.398
1414.64	367.133
1418.85	56.3555
1423.04	56.5391
1427.24	327.707
1431.43	98.1367
1435.62	194.391
1439.81	48.9336
1444	207.652
1448.18	253.039
1452.36	210.578
1456.54	327.152
1460.71	340.652
1464.89	234.91
1469.06	356.66
1473.22	489.184
1477.39	336.465
1481.55	154.109
1485.71	203.898
1489.86	566.992
1494.02	19.832
1498.17	326.481
1502.32	531.266
1506.46	297.641
1510.61	487.172
1514.75	217.672
1518.88	431.102
1523.02	441.16
1527.15	55.2578
1531.28	104.797
1535.41	211.981
1539.53	112.148
1543.66	369.457
1547.78	449.859
1551.89	411.535
1556.01	502.121
1560.12	493.414
1564.23	47.375
1568.33	509.426
