Measurement: Raman, 514 nm, ccw, Raman Data Processed
Mineral: Carrollite
Rruff sample: R040165
Ideal chemistry: Cu^1+^Co_2_S_4_
Locality: Katanga, Democratic Republic of the Congo
Source: University of Arizona Mineral Museum
Description: Steel gray octahedral crystals that have a tarnished exterior
Measured chemistry: (Cu_0.97_Fe_0.03_)Co_1.98_S_4_
Pin_id: M00105
Orientation: Laser parallel to -a* (-1 0 0). Fiducial mark perpendicular to laser is parallel to -c [0 0 -1]
Raman shift (cm-1)	intensity
96.621	0
101.585	835.621
106.545	5716.91
111.503	7671.19
116.458	8228.68
121.41	1440.27
126.36	695.168
131.306	503.254
136.25	881.406
141.19	289.125
146.128	82.2344
151.063	164.562
155.995	383.109
160.925	680.68
165.851	578.66
170.775	979.402
175.695	820.781
180.613	518.699
185.528	1071.52
190.44	1969.5
195.35	2121.91
200.256	2687.21
205.16	642.551
210.061	188.32
214.959	110.68
219.854	217.375
224.747	302.457
229.636	37.6055
234.523	203.559
239.407	785.465
244.288	1284.43
249.166	2317.07
254.042	3085.8
258.915	3626.37
263.784	1570.53
268.651	881.203
273.516	424.996
278.377	332.266
283.236	21.9531
288.092	40.5781
292.945	226.852
297.795	85.2578
302.642	247.504
307.487	307.727
312.329	189.059
317.168	451.211
322.004	254.441
326.838	261.723
331.668	457.008
336.496	339.297
341.321	384.473
346.144	568.551
350.963	972.641
355.78	908.078
360.594	737.434
365.405	786.84
370.214	320.766
375.019	280.25
379.822	313.797
384.622	370.59
389.42	446.727
394.215	215.074
399.006	127.398
403.795	156.254
408.582	111.969
413.365	458.359
418.146	393.93
422.924	351.66
427.7	691.746
432.472	470.164
437.242	432.715
442.009	511.613
446.774	708.809
451.535	617.316
456.294	543.242
461.05	478.672
465.804	544.535
470.554	874.75
475.302	419.309
480.047	998.285
484.79	1027.53
489.529	924.106
494.266	915.016
499.001	1143.84
503.732	1401.77
508.461	1758.32
513.187	1148.24
517.911	1693.31
522.631	1401.38
527.349	1765.61
532.065	1609.22
536.777	1432.19
541.487	2004.91
546.194	2013.17
550.898	2118.08
555.6	1907.45
560.299	2434.91
564.995	2040.83
569.689	2727.66
574.38	1962.09
579.068	1457.11
583.754	789.539
588.437	551.969
593.117	471.777
597.794	507.316
602.469	418.133
607.141	577.535
611.81	301.238
616.477	407.566
621.141	435.606
625.802	347.383
630.461	407.957
635.117	653.574
639.77	229.547
644.421	165.191
649.069	316.559
653.714	188.387
658.357	261.594
662.997	147.035
667.634	115.453
672.269	158.922
676.901	168.059
681.53	78.4609
686.157	23.8945
690.781	310.406
695.402	292.809
700.021	46.9297
704.637	232.898
709.251	78.4922
713.861	79.8281
718.469	113.387
723.075	248.828
727.678	242.461
732.278	7.73047
736.876	418.16
741.47	280.285
746.063	266.363
750.652	398.453
755.239	337.582
759.824	277.621
764.406	359.742
768.985	340.172
773.561	208.242
778.135	3.25781
782.706	198.086
787.275	26.7773
791.841	374.824
796.404	551
800.965	161.109
805.523	137.223
810.079	221.062
814.632	52.1328
819.182	416.012
823.73	93.332
828.275	250.699
832.818	311.586
837.358	422.453
841.895	200.215
846.43	276.273
850.962	229.203
855.491	26.043
860.018	57.25
864.543	17.543
869.064	207.68
873.583	86.293
878.1	397.434
882.614	147.723
887.125	23.1094
891.634	202.586
896.14	262.269
900.644	69.9102
905.145	378.941
909.644	79.6367
914.14	302.793
918.633	265.168
923.124	290.648
927.612	465.137
932.098	452.269
936.581	427.766
941.061	244.891
945.539	320.785
950.015	305.824
954.487	496.781
958.958	385.859
963.425	469.488
967.89	456.473
972.353	459.391
976.813	393.492
981.271	307.484
985.726	548.785
990.178	537.723
994.628	749.711
999.075	325.055
1003.52	572.824
1007.96	929.18
1012.4	460.691
1016.84	805.785
1021.27	492.519
1025.71	503.859
1030.13	654.68
1034.56	1013.67
1038.99	999.465
1043.41	853.762
1047.83	1052.57
1052.24	922.938
1056.66	712.879
1061.07	857.676
1065.48	1142.8
1069.89	892.41
1074.29	1043.52
1078.69	1287.11
1083.09	1181.22
1087.49	1375.93
1091.88	999.141
1096.28	1063.95
1100.66	925.356
1105.05	1009.96
1109.43	1331.41
1113.82	1092.33
1118.2	1298.69
1122.57	1515.48
1126.95	964.731
1131.32	659.199
1135.69	733.723
1140.05	558.894
1144.42	444.656
1148.78	640.18
1153.14	258.309
1157.5	522.488
1161.85	512.898
1166.2	266.594
1170.55	335.609
1174.9	405.875
1179.24	322.398
1183.58	414.156
1187.92	392.148
1192.26	259.457
1196.6	64.3594
1200.93	321.809
1205.26	106.078
1209.58	205.438
1213.91	59.9648
1218.23	485.668
1222.55	98.5156
1226.87	225.512
1231.18	4.36719
1235.49	123.269
1239.8	187.621
1244.11	27.0977
1248.41	261.672
1252.72	227.34
1257.02	62.9219
1261.32	17.7266
1265.61	41.5586
1269.9	212.961
1274.19	103.156
1278.48	154.559
1282.77	395.106
1287.05	572.695
1291.33	402.332
1295.61	402.992
1299.88	303.68
1304.15	333.637
1308.42	317.082
1312.69	286.801
1316.96	372.519
1321.22	181.215
1325.48	146.074
1329.74	437.477
1334	354.074
1338.25	256.691
1342.5	294.766
1346.75	371.367
1351	181.961
1355.24	424.555
1359.48	259.68
1363.72	328.453
1367.96	403.859
1372.19	326.516
1376.42	54.2227
1380.65	232.969
1384.88	172.055
1389.11	116.879
1393.33	279.684
1397.55	247.277
1401.76	51.4844
1405.98	249.363
1410.19	178.34
1414.4	343.461
1418.61	287.332
1422.82	522.426
1427.02	199.316
1431.22	178.93
1435.42	344.234
1439.61	229.18
1443.81	171.441
1448	301.121
1452.18	396.859
1456.37	486.723
1460.56	341.527
1464.74	351.234
1468.92	272.531
1473.09	298.211
1477.27	220.883
1481.44	47.6992
1485.61	397.891
1489.78	57.8359
1493.94	517.277
1498.1	283.211
1502.26	264.359
1506.42	475.711
1510.58	256.496
1514.73	36.8359
1518.88	424.711
1523.03	422
1527.17	177.059
1531.32	217.406
1535.46	184.906
1539.6	18.7773
1543.73	218.078
1547.87	237.656
1552	297.285
1556.13	8.75
1560.26	282.684
1564.38	28.2812
1568.5	23.4844
