Measurement: Raman, 514 nm, ccw, Raman Data Processed
Mineral: Carrollite
Rruff sample: R040165
Ideal chemistry: Cu^1+^Co_2_S_4_
Locality: Katanga, Democratic Republic of the Congo
Source: University of Arizona Mineral Museum
Description: Steel gray octahedral crystals that have a tarnished exterior
Measured chemistry: (Cu_0.97_Fe_0.03_)Co_1.98_S_4_
Pin_id: M00105
Orientation: Laser parallel to -a* (-1 0 0). Fiducial mark perpendicular to laser is parallel to -c [0 0 -1]
Raman shift (cm-1)	intensity
96.621	0
101.585	0.667969
106.545	6685.22
111.503	8500.8
116.458	9304.29
121.41	3769.55
126.36	850.012
131.306	1978.71
136.25	1101.99
141.19	220.793
146.128	126.75
151.063	751.914
155.995	190.492
160.925	429.418
165.851	1372.64
170.775	1271.97
175.695	854.93
180.613	663.371
185.528	1461.52
190.44	2481.57
195.35	3140.85
200.256	3406.95
205.16	844.738
210.061	168.371
214.959	48.2578
219.854	26.7891
224.747	91.0508
229.636	399.07
234.523	94.9531
239.407	363.578
244.288	639.527
249.166	913.019
254.042	1293.41
258.915	1119.08
263.784	676.965
268.651	253.867
273.516	313.449
278.377	346.234
283.236	101.617
288.092	36.832
292.945	43.6953
297.795	540.16
302.642	870.672
307.487	1011.95
312.329	1058.66
317.168	701.41
322.004	1026.08
326.838	806.625
331.668	1117.01
336.496	901.234
341.321	1265.28
346.144	2127.17
350.963	2824.9
355.78	3328.04
360.594	3075.95
365.405	2168.11
370.214	1324.34
375.019	722.754
379.822	485.449
384.622	426.086
389.42	244.008
394.215	448.824
399.006	390.668
403.795	500.504
408.582	329.168
413.365	326.75
418.146	590.402
422.924	702.059
427.7	243.973
432.472	325.164
437.242	707.836
442.009	789.938
446.774	565.281
451.535	369.246
456.294	303.656
461.05	1037.46
465.804	735.656
470.554	887.223
475.302	684.168
480.047	747.539
484.79	1055.24
489.529	1104.32
494.266	807.867
499.001	1257.19
503.732	1024.57
508.461	1170.78
513.187	1348.18
517.911	1304.01
522.631	1307.53
527.349	1664.87
532.065	1515.94
536.777	1642.21
541.487	1672.2
546.194	1558.83
550.898	1874.86
555.6	1965.47
560.299	2234.09
564.995	1753.02
569.689	2108.53
574.38	1891.82
579.068	1511.04
583.754	741.758
588.437	712.957
593.117	460.106
597.794	44.3398
602.469	363.324
607.141	384.488
611.81	144.078
616.477	596.547
621.141	343.426
625.802	390.242
630.461	377.414
635.117	495.875
639.77	218.094
644.421	486.027
649.069	42.3047
653.714	146.641
658.357	79.6094
662.997	15.4492
667.634	291.496
672.269	56.6797
676.901	113.856
681.53	23.5508
686.157	118.84
690.781	84.543
695.402	14.1641
700.021	121.797
704.637	205.43
709.251	91.5859
713.861	415.438
718.469	120.856
723.075	803.332
727.678	85.207
732.278	222.602
736.876	32.0547
741.47	228.859
746.063	477.543
750.652	153.242
755.239	322.938
759.824	337.754
764.406	287.691
768.985	434.664
773.561	386.273
778.135	408.547
782.706	259.727
787.275	264.898
791.841	260.469
796.404	222.203
800.965	33.3438
805.523	393.902
810.079	447.289
814.632	481.91
819.182	303.141
823.73	316.219
828.275	294.09
832.818	120.566
837.358	294.777
841.895	319.805
846.43	154.031
850.962	189.492
855.491	206.281
860.018	55.8984
864.543	154.875
869.064	420.875
873.583	169.566
878.1	129.031
882.614	173.551
887.125	146.129
891.634	322.769
896.14	140.356
900.644	356.867
905.145	5.93359
909.644	462.598
914.14	184.391
918.633	67.3281
923.124	349.754
927.612	235.84
932.098	174.289
936.581	451.316
941.061	45.2891
945.539	320.656
950.015	128.414
954.487	490.773
958.958	204.523
963.425	325.641
967.89	429.742
972.353	441.863
976.813	594.262
981.271	510.09
985.726	707.668
990.178	579.195
994.628	495
999.075	475.098
1003.52	720.93
1007.96	618.644
1012.4	439.496
1016.84	529.031
1021.27	665.207
1025.71	537.328
1030.13	783.582
1034.56	779.348
1038.99	723.289
1043.41	821.492
1047.83	770.238
1052.24	1056.52
1056.66	1159.24
1061.07	1114.95
1065.48	1076.92
1069.89	989.82
1074.29	1028.87
1078.69	1106.04
1083.09	1137.23
1087.49	853.156
1091.88	1158.47
1096.28	909.891
1100.66	989.391
1105.05	1232.18
1109.43	924.668
1113.82	980.535
1118.2	1027.81
1122.57	749.203
1126.95	913.602
1131.32	867.328
1135.69	583.211
1140.05	349.731
1144.42	285.371
1148.78	534.875
1153.14	310.539
1157.5	200.402
1161.85	92.0391
1166.2	462.082
1170.55	62.4531
1174.9	206.141
1179.24	111.121
1183.58	538.391
1187.92	30.9414
1192.26	392.738
1196.6	46.0117
1200.93	52.5312
1205.26	350.953
1209.58	142.453
1213.91	63.832
1218.23	21.3164
1222.55	27.332
1226.87	60.3984
1231.18	251.621
1235.49	311.426
1239.8	100.852
1244.11	22.2539
1248.41	48.0195
1252.72	349.391
1257.02	122.316
1261.32	402.914
1265.61	143.379
1269.9	273.898
1274.19	113.434
1278.48	115.07
1282.77	50.0078
1287.05	256.559
1291.33	342.606
1295.61	349.16
1299.88	268.543
1304.15	480.023
1308.42	362.688
1312.69	321.363
1316.96	144.074
1321.22	327.777
1325.48	270.496
1329.74	86.168
1334	367.617
1338.25	469.398
1342.5	165.606
1346.75	331.719
1351	166.25
1355.24	307.941
1359.48	193.738
1363.72	107.281
1367.96	314.379
1372.19	155.562
1376.42	300.312
1380.65	318.004
1384.88	148.727
1389.11	349.695
1393.33	403.496
1397.55	278.363
1401.76	80.793
1405.98	322.496
1410.19	23.5508
1414.4	188.738
1418.61	402.926
1422.82	473.113
1427.02	256.621
1431.22	282.188
1435.42	254.625
1439.61	451.191
1443.81	189.023
1448	125.777
1452.18	222.356
1456.37	275.574
1460.56	252.547
1464.74	395.488
1468.92	289.703
1473.09	235.723
1477.27	149.496
1481.44	188.113
1485.61	262.945
1489.78	277.062
1493.94	67.4688
1498.1	247.324
1502.26	60.2812
1506.42	231.332
1510.58	103.644
1514.73	413.918
1518.88	147.176
1523.03	264.008
1527.17	373.328
1531.32	157.269
1535.46	373.188
1539.6	376.941
1543.73	134.664
1547.87	278.43
1552	250.578
1556.13	211.578
1560.26	124.773
1564.38	293.269
1568.5	2.39844
