Measurement: Raman, 514 nm, ccw, Raman Data Processed
Mineral: Carrollite
Rruff sample: R050089
Ideal chemistry: Cu^1+^Co_2_S_4_
Locality: Kambove, Katanga, Democratic Republic of the Congo
Source: Rock Currier
Description: Steel-gray octahedral crystal associated with calcite
Measured chemistry: (Cu_0.96_Fe^2+^_0.04_)_Σ=1_Co_2.00_S_4.00_ ; the vein is pyrite: (Fe_0.99_Co_0.01_)_Σ=1_S_2.00_
Pin_id: L00215
Orientation: Laser parallel to a* (1 0 0). Fiducial mark perpendicular to laser is parallel to b [0 1 0]
Raman shift (cm-1)	intensity
95.38	0
100.344	331.387
105.305	3943.79
110.264	5467.65
115.22	12518.4
120.173	19740.1
125.123	766.836
130.07	1172.57
135.014	434.918
139.955	935.223
144.894	147.856
149.83	341.539
154.762	548.098
159.692	810.848
164.62	1356.71
169.544	1176
174.465	1167.28
179.384	866.609
184.3	1094.25
189.213	2203.31
194.123	2499.07
199.03	3066.49
203.934	1424.49
208.836	222.309
213.735	117.914
218.631	155.801
223.524	109.078
228.414	97.2031
233.302	293.207
238.186	151.594
243.068	321.59
247.947	394.164
252.823	626.727
257.697	853.945
262.567	669.688
267.435	550.121
272.3	384.418
277.162	534.098
282.021	353.156
286.878	237.965
291.732	176.133
296.583	419.832
301.431	174.648
306.276	398.383
311.119	445.461
315.958	576.832
320.795	366.793
325.629	642.637
330.461	477.32
335.289	332.812
340.115	777.109
344.938	627.211
349.759	555.137
354.576	457.742
359.391	690.137
364.203	615.734
369.012	522.844
373.818	415.559
378.622	342.602
383.423	226.57
388.221	445.844
393.016	228.68
397.809	343.641
402.598	526.449
407.386	441.18
412.17	747.754
416.951	592.207
421.73	552.594
426.506	717.07
431.279	684.656
436.05	849.5
440.818	940.742
445.583	578.383
450.345	841.18
455.105	909.633
459.861	827.922
464.615	648.602
469.367	793.664
474.115	1168.12
478.861	972.004
483.604	1227.29
488.345	1362.99
493.082	1179.11
497.817	1302.93
502.55	1469.2
507.279	1454.52
512.006	1402.26
516.73	1472.54
521.451	1648.14
526.17	1672.75
530.886	1618.65
535.599	1862.8
540.31	1682.7
545.017	2207.44
549.723	2192.72
554.425	2291.96
559.125	2386.5
563.822	2452.1
568.516	2062.77
573.207	2070.59
577.896	1471.67
582.583	1125.25
587.266	541
591.947	486.918
596.625	279.316
601.3	303.891
605.973	475.102
610.643	554.426
615.311	294.801
619.975	209.504
624.637	204.144
629.297	298.231
633.953	449.137
638.607	631.328
643.259	210.961
647.907	363.328
652.553	82.6328
657.197	690.617
661.837	98.0664
666.475	344.441
671.111	79.9648
675.743	11.5938
680.373	141.91
685.001	103.371
689.625	341.344
694.247	283
698.867	24.1602
703.483	147.055
708.097	125.523
712.709	94.3438
717.318	85.8633
721.924	389.562
726.527	396.164
731.128	6.25
735.726	2.10547
740.322	545.602
744.915	248.152
749.505	495.426
754.093	29.0977
758.678	167.449
763.26	325.797
767.84	98.0781
772.417	184.324
776.992	379.184
781.564	532.481
786.133	179.434
790.7	89.2266
795.264	270.836
799.825	159.816
804.384	155.793
808.94	182.172
813.494	219.074
818.045	275.312
822.593	179.969
827.139	195.242
831.682	545.68
836.223	416.031
840.761	183.977
845.296	32.8516
849.829	41.7344
854.359	79.207
858.887	381.758
863.412	72.0859
867.934	283.543
872.454	27.3047
876.971	215.109
881.486	87.0586
885.998	323.559
890.507	432.707
895.014	116.133
899.518	173.32
904.02	252.594
908.519	23.4375
913.016	54.5586
917.51	382.391
922.001	348.512
926.49	334.285
930.976	156.781
935.46	334.461
939.941	421.625
944.42	615.711
948.896	267.305
953.369	293.602
957.84	496.148
962.309	318.211
966.774	352
971.238	235.961
975.698	354.102
980.156	461.023
984.612	719
989.065	494.129
993.516	737.688
997.964	748.957
1002.41	645.535
1006.85	382.648
1011.29	319.703
1015.73	771.414
1020.16	500.473
1024.6	1456.03
1029.03	779.406
1033.46	764.301
1037.88	876.742
1042.3	1015.89
1046.72	964.312
1051.14	1100.6
1055.56	1124.42
1059.97	851.84
1064.38	1109.92
1068.79	1047.58
1073.19	1139.6
1077.59	1265.53
1081.99	985.019
1086.39	1288.5
1090.79	1078.46
1095.18	1158.38
1099.57	1170.19
1103.95	872.074
1108.34	1125.48
1112.72	1134.77
1117.1	1116.88
1121.48	1024.6
1125.85	858.344
1130.23	624.371
1134.6	412.707
1138.96	707.797
1143.33	597.883
1147.69	378.769
1152.05	531.852
1156.41	269.086
1160.76	361.375
1165.11	607.898
1169.46	518.731
1173.81	290.871
1178.16	332.723
1182.5	215.484
1186.84	180.504
1191.18	542.164
1195.51	321.672
1199.84	284.398
1204.17	276.402
1208.5	250.254
1212.83	277.996
1217.15	69.4883
1221.47	59.1133
1225.79	259.883
1230.1	26.7109
1234.41	46.2422
1238.73	192.051
1243.03	40.4141
1247.34	360.754
1251.64	240.711
1255.94	135.891
1260.24	157.984
1264.54	279.824
1268.83	91.3633
1273.12	78.0117
1277.41	24.7344
1281.69	85.5664
1285.98	420.371
1290.26	234.297
1294.54	360.195
1298.81	85.2969
1303.09	159.691
1307.36	627.707
1311.63	177.062
1315.89	363.371
1320.16	434.613
1324.42	378.656
1328.68	357.41
1332.93	294.32
1337.19	190.156
1341.44	268.762
1345.69	485.914
1349.94	370.91
1354.18	47.1445
1358.42	341.785
1362.66	409.527
1366.9	337.324
1371.13	207.094
1375.37	307.309
1379.6	129.141
1383.82	575.602
1388.05	399.961
1392.27	237.863
1396.49	526.312
1400.71	331.852
1404.92	84.8516
1409.14	188.207
1413.35	140.875
1417.56	261.332
1421.76	16.4375
1425.97	17.5273
1430.17	528.199
1434.37	49.2852
1438.56	321.707
1442.76	353.812
1446.95	337.562
1451.14	522.031
1455.33	233.195
1459.51	209.219
1463.69	174.07
1467.87	337.856
1472.05	299.719
1476.22	4.80859
1480.4	473.641
1484.57	474.402
1488.73	336.894
1492.9	383.769
1497.06	186.684
1501.22	143.402
1505.38	310.438
1509.54	50.7109
1513.69	214.414
1517.84	266.113
1521.99	302.066
1526.14	317.906
1530.28	301.769
1534.42	171.492
1538.56	332.781
1542.7	361.977
1546.83	428.961
1550.97	189.07
1555.1	456.316
1559.22	287.836
1563.35	192.981
1567.47	123.41
