Measurement: Raman, 514 nm, ccw, Raman Data Processed
Mineral: Carrollite
Rruff sample: R050089
Ideal chemistry: Cu^1+^Co_2_S_4_
Locality: Kambove, Katanga, Democratic Republic of the Congo
Source: Rock Currier
Description: Steel-gray octahedral crystal associated with calcite
Measured chemistry: (Cu_0.96_Fe^2+^_0.04_)_Σ=1_Co_2.00_S_4.00_ ; the vein is pyrite: (Fe_0.99_Co_0.01_)_Σ=1_S_2.00_
Pin_id: L00215
Orientation: Laser parallel to a* (1 0 0). Fiducial mark perpendicular to laser is parallel to b [0 1 0]
Raman shift (cm-1)	intensity
96.621	0
101.585	1430.57
106.545	3754.96
111.503	5208.48
116.458	18191.6
121.41	3652.55
126.36	412.863
131.306	542.867
136.25	412.117
141.19	130.039
146.128	117.492
151.063	280.773
155.995	28.1562
160.925	317.484
165.851	636.902
170.775	1171.93
175.695	796.367
180.613	787.316
185.528	1721.82
190.44	2259.93
195.35	2686.93
200.256	3566.91
205.16	1088.67
210.061	741.777
214.959	419.742
219.854	102.336
224.747	171.512
229.636	99.3438
234.523	151.969
239.407	148.984
244.288	394.434
249.166	147.269
254.042	118.164
258.915	112.316
263.784	201.125
268.651	294.269
273.516	404.25
278.377	23.875
283.236	434.418
288.092	359.269
292.945	504.762
297.795	555.785
302.642	280.82
307.487	645.59
312.329	967.488
317.168	501.602
322.004	671.133
326.838	840.231
331.668	836.629
336.496	845.312
341.321	636.34
346.144	642.816
350.963	1249.79
355.78	1392.25
360.594	1121.64
365.405	1183.48
370.214	1416.59
375.019	524.453
379.822	566.676
384.622	607.383
389.42	422.453
394.215	335.59
399.006	852.805
403.795	687.984
408.582	443.535
413.365	640.457
418.146	954.523
422.924	721.539
427.7	667.031
432.472	653.906
437.242	832.223
442.009	828.797
446.774	980.641
451.535	1305.5
456.294	1037.32
461.05	1033.16
465.804	1244.1
470.554	1015.18
475.302	1274.49
480.047	1272.04
484.79	1437.71
489.529	1523.6
494.266	1529.63
499.001	1877.82
503.732	1913.16
508.461	2076.8
513.187	2060.28
517.911	1952.57
522.631	2090.48
527.349	2445.75
532.065	2105.54
536.777	2430.36
541.487	2416.39
546.194	2706.22
550.898	2785.3
555.6	2708.25
560.299	3201.99
564.995	2885.2
569.689	2974.77
574.38	2437.98
579.068	1742.34
583.754	874.602
588.437	726.938
593.117	533.828
597.794	416.684
602.469	424.512
607.141	167.465
611.81	396.773
616.477	366.574
621.141	402.34
625.802	174.637
630.461	371.711
635.117	585.555
639.77	259.141
644.421	445.098
649.069	285.785
653.714	299.723
658.357	194.094
662.997	93.0117
667.634	93.5586
672.269	82.3281
676.901	206.5
681.53	140.215
686.157	139.082
690.781	84.7578
695.402	213.488
700.021	117.769
704.637	107.461
709.251	245.356
713.861	39.1953
718.469	117.465
723.075	72.707
727.678	114.688
732.278	45.6484
736.876	194.848
741.47	209.879
746.063	154.91
750.652	558.082
755.239	366.668
759.824	302
764.406	313.379
768.985	226.719
773.561	170.004
778.135	197.242
782.706	584.75
787.275	51.7539
791.841	421.344
796.404	447.727
800.965	303.398
805.523	608.32
810.079	318.59
814.632	441.359
819.182	71.6992
823.73	335.203
828.275	207.242
832.818	230.477
837.358	67.6758
841.895	137.719
846.43	191.516
850.962	175.32
855.491	161.582
860.018	116.891
864.543	50.1562
869.064	144.992
873.583	157.012
878.1	253.93
882.614	389.633
887.125	276.898
891.634	175.418
896.14	143.84
900.644	281.613
905.145	407.477
909.644	20.5781
914.14	195.438
918.633	394.824
923.124	242.926
927.612	376.305
932.098	514.695
936.581	414.316
941.061	284.148
945.539	204.156
950.015	152.516
954.487	333.094
958.958	314.676
963.425	520.613
967.89	563.16
972.353	315.644
976.813	564.457
981.271	571.777
985.726	575.477
990.178	350.535
994.628	530.266
999.075	643.769
1003.52	607.859
1007.96	199.906
1012.4	972.535
1016.84	544.734
1021.27	794.356
1025.71	749.051
1030.13	736.43
1034.56	860.141
1038.99	1318.38
1043.41	823.148
1047.83	845.488
1052.24	927.977
1056.66	830.453
1061.07	552.637
1065.48	857.223
1069.89	1277.24
1074.29	1151.02
1078.69	1204.91
1083.09	1341.88
1087.49	1426.98
1091.88	933.606
1096.28	943.742
1100.66	1322.14
1105.05	851.547
1109.43	1050.55
1113.82	1265.83
1118.2	1013.47
1122.57	949.723
1126.95	818.641
1131.32	530.898
1135.69	599.769
1140.05	445.828
1144.42	519.121
1148.78	471.441
1153.14	217.086
1157.5	522.828
1161.85	437.945
1166.2	273.445
1170.55	246.231
1174.9	80.2148
1179.24	188.047
1183.58	381.859
1187.92	256.551
1192.26	91.8516
1196.6	103.902
1200.93	606.004
1205.26	26.7305
1209.58	175.059
1213.91	217.203
1218.23	123.969
1222.55	211.93
1226.87	85.6602
1231.18	148.941
1235.49	130.977
1239.8	0.894531
1244.11	45.6094
1248.41	189.445
1252.72	379.363
1257.02	410.57
1261.32	63.5078
1265.61	34.4844
1269.9	157.336
1274.19	58.9297
1278.48	43.6797
1282.77	378.027
1287.05	518.215
1291.33	136.387
1295.61	182.457
1299.88	425.391
1304.15	553.621
1308.42	398.336
1312.69	16.918
1316.96	558.328
1321.22	445.894
1325.48	472.074
1329.74	71.4844
1334	95.0742
1338.25	367.066
1342.5	328.969
1346.75	361.828
1351	197.965
1355.24	528.016
1359.48	56.6328
1363.72	200.367
1367.96	623.996
1372.19	142.859
1376.42	353.512
1380.65	167.863
1384.88	7.88281
1389.11	313.047
1393.33	590.051
1397.55	273.215
1401.76	575.332
1405.98	175.812
1410.19	311.844
1414.4	688.379
1418.61	360.641
1422.82	117.652
1427.02	340.773
1431.22	453.699
1435.42	546
1439.61	313.898
1443.81	309.578
1448	117.641
1452.18	265.758
1456.37	401.754
1460.56	126.691
1464.74	570.496
1468.92	369.508
1473.09	422.699
1477.27	139.387
1481.44	201.484
1485.61	255.598
1489.78	478.707
1493.94	229.301
1498.1	308.969
1502.26	164.606
1506.42	404.656
1510.58	408.059
1514.73	313.391
1518.88	87.625
1523.03	158.547
1527.17	481.203
1531.32	247.254
1535.46	332.758
1539.6	490.25
1543.73	326.953
1547.87	351.301
1552	290.07
1556.13	429.473
1560.26	306.914
1564.38	375.09
1568.5	2.65234
