Measurement: Raman, 514 nm, ccw, Raman Data Processed
Mineral: Carrollite
Rruff sample: R040165
Ideal chemistry: Cu^1+^Co_2_S_4_
Locality: Katanga, Democratic Republic of the Congo
Source: University of Arizona Mineral Museum
Description: Steel gray octahedral crystals that have a tarnished exterior
Measured chemistry: (Cu_0.97_Fe_0.03_)Co_1.98_S_4_
Pin_id: M00105
Orientation: Laser parallel to -a* (-1 0 0). Fiducial mark perpendicular to laser is parallel to -c [0 0 -1]
Raman shift (cm-1)	intensity
96.621	0
101.585	26.4102
106.545	6228.25
111.503	7802.52
116.458	9758.39
121.41	3913.53
126.36	998.269
131.306	1884.54
136.25	1024.4
141.19	327.207
146.128	599.062
151.063	1153.25
155.995	482.832
160.925	862.641
165.851	1808.08
170.775	1459.86
175.695	1095.24
180.613	757.102
185.528	1069.56
190.44	2383.19
195.35	2765.41
200.256	2972
205.16	590.969
210.061	472.184
214.959	442.676
219.854	93.3281
224.747	57.8945
229.636	291.445
234.523	411.723
239.407	354.023
244.288	1266.14
249.166	2387.24
254.042	3301.61
258.915	3570.82
263.784	1730.61
268.651	956.332
273.516	599.461
278.377	345.297
283.236	610.164
288.092	76.1484
292.945	150.391
297.795	258.672
302.642	297.648
307.487	402.586
312.329	205.812
317.168	270.481
322.004	258.168
326.838	255.922
331.668	371.109
336.496	526.055
341.321	667.434
346.144	1172.32
350.963	1223.76
355.78	1358.81
360.594	1034.65
365.405	428.047
370.214	319.215
375.019	16.2109
379.822	12.3398
384.622	136.711
389.42	65.0469
394.215	340.832
399.006	358.977
403.795	66.4609
408.582	22.5977
413.365	350.789
418.146	307.719
422.924	409.305
427.7	307.164
432.472	317.871
437.242	100.195
442.009	419.465
446.774	490.957
451.535	409.59
456.294	449.477
461.05	625.391
465.804	365.035
470.554	577.055
475.302	601.125
480.047	461.238
484.79	763.391
489.529	1042.61
494.266	699.043
499.001	951.293
503.732	1018.7
508.461	1396.65
513.187	889.481
517.911	1252.36
522.631	1263.09
527.349	1468.45
532.065	1325.79
536.777	1407.13
541.487	1176.96
546.194	1667.56
550.898	1428.46
555.6	1822.09
560.299	1666.57
564.995	1537.16
569.689	1780.5
574.38	1513.87
579.068	935.363
583.754	695.238
588.437	310.418
593.117	230.848
597.794	667.519
602.469	179.953
607.141	178.289
611.81	334.762
616.477	505.582
621.141	183.09
625.802	157.289
630.461	339.965
635.117	615.344
639.77	674.312
644.421	261.785
649.069	259.664
653.714	232.258
658.357	634.414
662.997	200.254
667.634	180.707
672.269	64.4414
676.901	115.57
681.53	7.88672
686.157	19.0742
690.781	262.617
695.402	245.016
700.021	11.0781
704.637	259.668
709.251	168.637
713.861	194.141
718.469	201.633
723.075	132.707
727.678	232.992
732.278	335.359
736.876	206.188
741.47	189.234
746.063	67.3984
750.652	476.09
755.239	227.711
759.824	176.894
764.406	55.3398
768.985	57.5742
773.561	312.965
778.135	252.621
782.706	454.148
787.275	487.492
791.841	242.559
796.404	59.6484
800.965	404.867
805.523	526.859
810.079	325.711
814.632	203.731
819.182	382.492
823.73	112.918
828.275	201.18
832.818	506.984
837.358	367.535
841.895	59.8047
846.43	33.3867
850.962	336.871
855.491	283.074
860.018	74.0742
864.543	26.8984
869.064	104.172
873.583	60.2148
878.1	233.047
882.614	244.242
887.125	49.6445
891.634	11.8438
896.14	264.648
900.644	129.879
905.145	370.621
909.644	314.75
914.14	87.668
918.633	270.762
923.124	162.117
927.612	311.41
932.098	491.688
936.581	327.023
941.061	180.523
945.539	555.519
950.015	339.852
954.487	354.156
958.958	622.016
963.425	399.582
967.89	458.973
972.353	503.016
976.813	479.981
981.271	629.891
985.726	386.285
990.178	409.051
994.628	488.738
999.075	792.676
1003.52	783.5
1007.96	481.883
1012.4	364.516
1016.84	788.098
1021.27	592.863
1025.71	755.023
1030.13	814.055
1034.56	570.832
1038.99	938.277
1043.41	797.832
1047.83	708.496
1052.24	1061.86
1056.66	896.828
1061.07	1228.43
1065.48	873.137
1069.89	949.617
1074.29	1180.42
1078.69	1117.98
1083.09	1067.07
1087.49	980.699
1091.88	1281.61
1096.28	1011.28
1100.66	1089.46
1105.05	827.223
1109.43	1157.65
1113.82	1115.04
1118.2	1144.9
1122.57	1233.33
1126.95	646.711
1131.32	839.461
1135.69	675.648
1140.05	810.207
1144.42	666.445
1148.78	459.062
1153.14	1329.66
1157.5	231.269
1161.85	408.082
1166.2	10.9805
1170.55	494.453
1174.9	315.242
1179.24	300.863
1183.58	174.027
1187.92	171.652
1192.26	312.527
1196.6	257.34
1200.93	176.531
1205.26	444.871
1209.58	238.801
1213.91	430.922
1218.23	145.223
1222.55	544.648
1226.87	353.184
1231.18	72.8711
1235.49	53.2305
1239.8	289.289
1244.11	324.676
1248.41	118.383
1252.72	353.106
1257.02	37.0273
1261.32	99.7109
1265.61	72.5469
1269.9	318.473
1274.19	559.445
1278.48	19.5625
1282.77	402.644
1287.05	261.41
1291.33	8.17969
1295.61	147.434
1299.88	413.883
1304.15	174.742
1308.42	154.508
1312.69	214.113
1316.96	270.781
1321.22	396.578
1325.48	158.406
1329.74	277.84
1334	438.336
1338.25	353.211
1342.5	108.254
1346.75	538.043
1351	312.269
1355.24	526.305
1359.48	226.398
1363.72	384.16
1367.96	208.731
1372.19	396.508
1376.42	28.2266
1380.65	310.68
1384.88	119.137
1389.11	90.2891
1393.33	324.199
1397.55	251.289
1401.76	327.41
1405.98	46.2695
1410.19	269.07
1414.4	118.613
1418.61	18.4102
1422.82	137.117
1427.02	2.34375
1431.22	56.5039
1435.42	234.379
1439.61	308.746
1443.81	208.867
1448	201.004
1452.18	69.7969
1456.37	393.352
1460.56	194.969
1464.74	389.781
1468.92	316.707
1473.09	192.606
1477.27	104.742
1481.44	46.2812
1485.61	156.144
1489.78	98.7578
1493.94	135.879
1498.1	114.586
1502.26	227.25
1506.42	23.8594
1510.58	146.332
1514.73	115.293
1518.88	194.289
1523.03	72.5273
1527.17	64.9844
1531.32	302.012
1535.46	416.269
1539.6	162.055
1543.73	290.289
1547.87	414.859
1552	202.375
1556.13	449.758
1560.26	480.973
1564.38	306.688
1568.5	607.594
