Measurement: Raman, 514 nm, ccw, Raman Data Processed
Mineral: Carrollite
Rruff sample: R050089
Ideal chemistry: Cu^1+^Co_2_S_4_
Locality: Kambove, Katanga, Democratic Republic of the Congo
Source: Rock Currier
Description: Steel-gray octahedral crystal associated with calcite
Measured chemistry: (Cu_0.96_Fe^2+^_0.04_)_Σ=1_Co_2.00_S_4.00_ ; the vein is pyrite: (Fe_0.99_Co_0.01_)_Σ=1_S_2.00_
Pin_id: L00215
Orientation: Laser parallel to a* (1 0 0). Fiducial mark perpendicular to laser is parallel to b [0 1 0]
Raman shift (cm-1)	intensity
96.621	0
101.585	403.441
106.545	2751.02
111.503	6278.03
116.458	20346.3
121.41	2147.59
126.36	311.707
131.306	557.141
136.25	242.043
141.19	488.258
146.128	18.9844
151.063	784.867
155.995	699.856
160.925	964.25
165.851	1136.16
170.775	1302.88
175.695	1064
180.613	892.863
185.528	1484.12
190.44	2757.12
195.35	2759.72
200.256	3384.39
205.16	301.871
210.061	277.16
214.959	173.25
219.854	62.7578
224.747	43.0859
229.636	37.3711
234.523	21.0664
239.407	103.078
244.288	258.191
249.166	481.402
254.042	583.637
258.915	624.766
263.784	887.445
268.651	670.93
273.516	347.59
278.377	207.254
283.236	189.223
288.092	162.176
292.945	427.348
297.795	439.75
302.642	425.301
307.487	486.172
312.329	379.262
317.168	527.426
322.004	398.215
326.838	324.312
331.668	292.863
336.496	615.707
341.321	341.848
346.144	478.332
350.963	819.078
355.78	472.637
360.594	647.633
365.405	665.523
370.214	374.152
375.019	323.34
379.822	798.727
384.622	117.41
389.42	414.606
394.215	73.4297
399.006	566.731
403.795	362.981
408.582	401.449
413.365	250.254
418.146	451.676
422.924	418.113
427.7	737.481
432.472	904.297
437.242	774.281
442.009	531.812
446.774	733.383
451.535	920.309
456.294	810.332
461.05	946.906
465.804	1084.19
470.554	1189.36
475.302	1100.42
480.047	1217.54
484.79	1541.71
489.529	1477.92
494.266	1525.67
499.001	1781.29
503.732	1518.4
508.461	2097.43
513.187	1983.5
517.911	2013.85
522.631	2028.29
527.349	2241.56
532.065	2340.45
536.777	2148.22
541.487	2691.48
546.194	2580.71
550.898	2884.42
555.6	2879.92
560.299	2937.06
564.995	3027.27
569.689	3069.78
574.38	2349.27
579.068	1734.04
583.754	803.535
588.437	670.711
593.117	319.359
597.794	674.086
602.469	317.066
607.141	320.859
611.81	328.449
616.477	189.324
621.141	279.625
625.802	562.633
630.461	240.324
635.117	585.676
639.77	442.66
644.421	109.238
649.069	362.754
653.714	434.012
658.357	299.141
662.997	65.3203
667.634	6.44531
672.269	44.6602
676.901	138.867
681.53	33.3789
686.157	4.77344
690.781	118.184
695.402	209.309
700.021	18.7812
704.637	212.07
709.251	176.527
713.861	154.492
718.469	80.0391
723.075	193.805
727.678	2.48438
732.278	119.309
736.876	126.586
741.47	204.019
746.063	331.551
750.652	305.152
755.239	306.062
759.824	310.793
764.406	375.984
768.985	335.078
773.561	350.07
778.135	216.066
782.706	44.8242
787.275	203.004
791.841	383.102
796.404	175.672
800.965	191.129
805.523	324.254
810.079	229.172
814.632	490.137
819.182	115.93
823.73	161.703
828.275	403.535
832.818	259.578
837.358	102.598
841.895	33.5234
846.43	115.012
850.962	292.754
855.491	118.644
860.018	237.391
864.543	48.5664
869.064	211.914
873.583	60.8711
878.1	294.59
882.614	55.0742
887.125	97.4922
891.634	215.941
896.14	112.406
900.644	206.625
905.145	144.949
909.644	347.383
914.14	171.918
918.633	236.504
923.124	170.035
927.612	341.383
932.098	649.519
936.581	163.871
941.061	169.465
945.539	413.394
950.015	475.719
954.487	409.457
958.958	363.488
963.425	487.785
967.89	558.613
972.353	503.695
976.813	424.594
981.271	474.664
985.726	751.742
990.178	785.152
994.628	879.031
999.075	674.684
1003.52	803.188
1007.96	583.117
1012.4	695.535
1016.84	628.508
1021.27	526.359
1025.71	619.394
1030.13	839.484
1034.56	934.535
1038.99	791.09
1043.41	813.152
1047.83	1049.61
1052.24	836.723
1056.66	1065.64
1061.07	1243.87
1065.48	1018.14
1069.89	1037.9
1074.29	981.199
1078.69	1287.82
1083.09	1105.23
1087.49	1031.27
1091.88	1112.93
1096.28	1126.18
1100.66	1246.28
1105.05	1341.85
1109.43	720.566
1113.82	1004.29
1118.2	834.754
1122.57	913.984
1126.95	759.981
1131.32	674.012
1135.69	908.484
1140.05	617.5
1144.42	462.891
1148.78	358.445
1153.14	255.746
1157.5	552.953
1161.85	408.148
1166.2	612.328
1170.55	190.812
1174.9	339.59
1179.24	231.656
1183.58	289.992
1187.92	87.0195
1192.26	193.219
1196.6	67.3281
1200.93	260.488
1205.26	247.312
1209.58	69.0156
1213.91	148.543
1218.23	4.86328
1222.55	43.7383
1226.87	89.4023
1231.18	191.348
1235.49	56.4922
1239.8	22.4453
1244.11	21.5273
1248.41	11.5078
1252.72	81.793
1257.02	55.2031
1261.32	1.23828
1265.61	189.711
1269.9	201.773
1274.19	263.082
1278.48	17.3672
1282.77	395.371
1287.05	361.242
1291.33	50.9961
1295.61	265.746
1299.88	153.488
1304.15	474.219
1308.42	458.941
1312.69	15.6602
1316.96	422.309
1321.22	416.941
1325.48	1.32031
1329.74	180.676
1334	230.84
1338.25	482.106
1342.5	47.2891
1346.75	360.25
1351	460.055
1355.24	390.285
1359.48	183.981
1363.72	211.121
1367.96	260.184
1372.19	237.535
1376.42	330.285
1380.65	184.387
1384.88	197.988
1389.11	238.754
1393.33	571.344
1397.55	29.8281
1401.76	336.144
1405.98	304.629
1410.19	43.5469
1414.4	371.008
1418.61	260.344
1422.82	120.828
1427.02	249.484
1431.22	510.371
1435.42	203.719
1439.61	534.84
1443.81	391.879
1448	322.316
1452.18	381.394
1456.37	477.695
1460.56	138.254
1464.74	173.75
1468.92	271.59
1473.09	122.047
1477.27	354.66
1481.44	359.656
1485.61	52.4844
1489.78	197.418
1493.94	36.6797
1498.1	324.469
1502.26	47.4258
1506.42	368
1510.58	190.769
1514.73	40.4922
1518.88	2.29297
1523.03	3.55078
1527.17	203.707
1531.32	323.441
1535.46	506.938
1539.6	144.383
1543.73	323.328
1547.87	490.07
1552	220.981
1556.13	552.812
1560.26	598.84
1564.38	365.531
1568.5	683.383
