Measurement: Raman, 514 nm, ccw, Raman Data Processed
Mineral: Cassiterite
Rruff sample: R040072
Ideal chemistry: SnO_2_
Locality: Bolivia
Source: University of Arizona Mineral Museum
Description: Black fragment
Measured chemistry: Sn_0.99_O_2_
Pin_id: L00343
Orientation: Laser parallel to c* (0 0 1). Fiducial mark perpendicular to laser is parallel to a [1 0 0]
Raman shift (cm-1)	intensity
180.14	0
184.289	16.288
188.436	28.639
192.581	55.32
196.724	18.654
200.865	52.827
205.004	79.701
209.14	13.877
213.275	101.019
217.408	259.864
221.538	332.619
225.667	209.66
229.793	216.049
233.917	196.062
238.04	230.81
242.16	238.293
246.278	257.459
250.395	293.775
254.509	315.406
258.621	236.923
262.731	377.39
266.839	373.942
270.945	217.934
275.049	37.975
279.151	38.881
283.251	49.289
287.349	14.13
291.445	3.099
295.539	0.648
299.631	73.418
303.72	78.041
307.808	0.04
311.894	30.93
315.978	18.179
320.06	36.289
324.139	91.31
328.217	36.427
332.293	85.308
336.367	31.99
340.438	127.448
344.508	87.75
348.576	52.798
352.641	24.133
356.705	22.321
360.767	41.153
364.826	24.963
368.884	115.327
372.94	81.747
376.994	29.287
381.045	17.972
385.095	24.821
389.143	15.791
393.188	54.159
397.232	12.012
401.274	13.208
405.314	20.407
409.352	55.393
413.387	96.19
417.421	9.027
421.453	53.301
425.483	25.756
429.511	27.478
433.537	48.567
437.561	23.065
441.583	8.183
445.603	46.171
449.621	38.593
453.637	54.244
457.651	111.694
461.663	244.776
465.673	344.98
469.682	442.947
473.688	448
477.692	549.109
481.694	632.275
485.695	813.505
489.693	899.807
493.69	1150.16
497.684	1459.96
501.677	1229.06
505.667	980.081
509.656	892.015
513.643	813.537
517.628	599.771
521.611	345.354
525.591	243.472
529.57	317.259
533.547	596.452
537.523	802.896
541.496	953.937
545.467	787.94
549.436	779.727
553.404	725.44
557.369	494.826
561.332	432.281
565.294	427.197
569.254	391.343
573.211	340.257
577.167	243.375
581.121	264.829
585.073	397.867
589.023	425.655
592.971	489.709
596.917	703.961
600.861	1075.42
604.804	1570.11
608.744	2022
612.683	2778.09
616.619	4233.38
620.554	7121.89
624.487	13582.7
628.418	28360.7
632.347	46398.9
636.274	34147.5
640.199	16726.3
644.122	8865.42
648.044	5240.82
651.963	3409.49
655.881	2467.44
659.796	2107.68
663.71	1719.2
667.622	1459.96
671.532	1248.96
675.44	1201.16
679.347	1272.57
683.251	1312.18
687.153	1313.01
691.054	1400.03
694.953	1556.26
698.849	1315.68
702.744	743.288
706.637	451.089
710.529	314.101
714.418	384.317
718.305	486.72
722.191	431.299
726.075	328.057
729.956	223.99
733.836	209.089
737.714	239.353
741.591	294.777
745.465	223.357
749.337	189.09
753.208	286.972
757.077	509.12
760.944	897.107
764.809	1784.79
768.672	3522.18
772.533	5342.1
776.392	5821.61
780.25	4216.62
784.106	2651.85
787.96	1820.08
791.812	1346.78
795.662	1102.8
799.51	1054.74
803.357	934.561
807.201	697.219
811.044	533.81
814.885	350.346
818.724	240.937
822.562	192.578
826.397	138.264
830.231	85.991
834.062	44.75
837.892	43.538
841.72	162.348
845.547	332.179
849.371	371.023
853.194	297.878
857.015	323.738
860.834	368.599
864.651	414.456
868.466	367.305
872.279	317.143
876.091	246.964
879.901	138.765
883.709	102.541
887.515	93.289
891.32	70.004
895.122	76.316
898.923	44.771
902.722	14.063
906.519	76.02
910.314	60.874
914.108	80.336
917.899	69.218
921.689	75.666
925.477	71.858
929.264	16.002
933.048	18.162
936.831	5.864
940.612	26.518
944.391	9.798
948.168	29.006
951.944	64.961
955.717	143.779
959.489	201.427
963.259	236.19
967.028	285.471
970.794	308.659
974.559	301.753
978.322	321.75
982.083	244.648
985.842	221.445
989.6	144.14
993.356	122.732
997.11	139.218
1000.86	165.597
1004.61	183.867
1008.36	217.029
1012.11	196.08
1015.85	206.02
1019.6	202.848
1023.34	244.564
1027.08	262.394
1030.82	314.511
1034.55	303.194
1038.29	268.634
1042.02	288.477
1045.75	209.862
1049.48	134.213
1053.21	102.068
1056.93	97.126
1060.66	8.344
1064.38	66.586
1068.1	18.706
1071.82	16.871
1075.54	8.823
1079.25	8.142
1082.96	52.625
1086.67	78.104
1090.38	65.014
1094.09	67.877
1097.8	82.637
1101.5	96.318
1105.21	162.93
1108.91	182.405
1112.61	190.772
1116.31	208.047
1120	191.194
1123.7	168.243
1127.39	202.187
1131.08	181.036
1134.77	166.786
1138.45	183.444
1142.14	147.018
1145.82	110.515
1149.51	113.948
1153.19	115.311
1156.87	98.614
1160.54	62.838
1164.22	73.959
1167.89	38.045
1171.56	5.877
1175.23	52.712
1178.9	31.746
1182.57	29.985
1186.23	19.452
1189.89	64.916
1193.56	11.753
1197.22	76.926
1200.87	29.069
1204.53	34.374
1208.18	62.239
1211.84	78.97
1215.49	66.458
1219.14	112.757
1222.79	134.92
1226.43	111.93
1230.08	142.486
1233.72	121.17
1237.36	109.098
1241	139.11
1244.63	173.308
1248.27	132.81
1251.9	163.452
1255.54	177.587
1259.17	159.661
1262.8	171.396
1266.42	147.657
1270.05	134.601
1273.67	169.081
1277.3	184.408
1280.92	136.01
1284.54	144.645
1288.15	126.337
1291.77	144.144
1295.38	155.765
1298.99	139.848
1302.6	85.322
1306.21	139.355
1309.82	108.096
1313.42	93.522
1317.03	106.108
1320.63	84.614
1324.23	69.172
1327.83	37.793
1331.43	69.009
1335.02	41.482
1338.62	14.074
1342.21	18.39
1345.8	32.285
1349.39	3.692
1352.97	20.867
1356.56	13.52
1360.14	15.747
1363.72	34.343
1367.31	86.88
1370.88	59.002
1374.46	112.447
1378.04	44.466
1381.61	105.057
1385.18	42.201
1388.75	92.919
1392.32	48.23
1395.89	26.798
1399.45	12.7
1403.02	21.254
1406.58	44.735
1410.14	42.37
1413.7	0.34
1417.26	6.846
1420.81	5.342
1424.36	31.497
1427.92	6.06
1431.47	32.183
1435.02	23.913
1438.56	106.505
1442.11	51.716
1445.65	61.272
1449.19	123.468
1452.74	167.496
1456.28	145.449
1459.81	180.022
1463.35	166.49
1466.88	162.845
1470.41	152.969
1473.95	146.667
1477.48	402.266
1481	634.829
1484.53	297.758
1488.05	97.366
1491.58	55.443
1495.1	28.007
1498.62	88.218
1502.13	70.072
1505.65	146.321
1509.17	196.677
1512.68	168.993
1516.19	202.405
1519.7	136.515
