Measurement: Raman, 514 nm, ccw, Raman Data Processed
Mineral: Cassiterite
Rruff sample: R040072
Ideal chemistry: SnO_2_
Locality: Bolivia
Source: University of Arizona Mineral Museum
Description: Black fragment
Measured chemistry: Sn_0.99_O_2_
Pin_id: M00007
Orientation: Laser parallel to a* (1 0 0). Fiducial mark perpendicular to laser is parallel to c [0 0 1]
Raman shift (cm-1)	intensity
200.717	0
204.846	0.497
208.972	9.938
213.097	27.927
217.22	161.819
221.341	214.192
225.46	164.367
229.577	107.277
233.692	77.528
237.805	37.796
241.916	32.571
246.025	103.927
250.132	122.682
254.237	52.787
258.34	99.79
262.442	82.036
266.541	103.304
270.639	105.563
274.734	81.501
278.828	8.158
282.919	0.209
287.009	48.263
291.097	27.424
295.183	37.049
299.266	82.485
303.348	45.202
307.428	76.158
311.507	59.142
315.583	52.489
319.657	25.191
323.729	49.611
327.8	32.616
331.868	44.325
335.935	38.823
339.999	41.124
344.062	28.229
348.123	12.77
352.182	22.161
356.239	10.969
360.294	15.177
364.347	19.871
368.398	1.209
372.448	0.516
376.495	50.927
380.54	24.098
384.584	33.987
388.626	21.305
392.666	56.3
396.704	50.051
400.74	71.264
404.774	97.391
408.806	110.755
412.836	108.967
416.865	78.48
420.891	73.97
424.916	39.99
428.939	38.764
432.959	72.39
436.978	99.658
440.996	76.851
445.011	86.704
449.024	49.535
453.036	50.931
457.045	77.815
461.053	99.342
465.059	143.832
469.063	208.204
473.065	228.584
477.065	278.861
481.063	317.474
485.06	357.049
489.054	456.276
493.047	526.019
497.038	652.541
501.027	612.907
505.014	604.369
508.999	498.164
512.982	519.98
516.964	418.383
520.944	306.241
524.921	270.101
528.897	330.067
532.871	364.132
536.844	503.121
540.814	613.756
544.783	658.388
548.749	591.241
552.714	596.554
556.677	539.008
560.638	494.593
564.597	446.3
568.555	344.229
572.511	399.202
576.464	359.224
580.416	344.239
584.366	301.233
588.315	347.189
592.261	379.443
596.206	461.824
600.148	555.31
604.089	687.938
608.028	940.753
611.965	1233.71
615.901	1650.79
619.834	2561.99
623.766	4436.31
627.696	8774.74
631.624	17779.8
635.551	20497.8
639.475	11239.2
643.398	5614.48
647.318	3301.59
651.237	2319.15
655.155	1830.46
659.07	1545.75
662.984	1444.69
666.895	1462.96
670.805	1456.3
674.713	1460.74
678.62	1399
682.524	1354.16
686.427	1281.94
690.328	1239.86
694.227	1258.9
698.124	1154.05
702.02	810.279
705.913	630.554
709.805	556.874
713.695	482.235
717.584	472.636
721.47	460.072
725.355	386.541
729.238	324.04
733.119	283.595
736.998	269.193
740.876	247.977
744.752	209.819
748.626	128.589
752.498	178.534
756.368	140.491
760.237	82.614
764.104	24.91
767.969	23.559
771.832	22.745
775.693	50.681
779.553	43.708
783.411	11.247
787.267	29.338
791.122	36.618
794.974	35.088
798.825	27.92
802.674	11.924
806.522	11.106
810.367	20.442
814.211	9.862
818.053	55.653
821.893	35.139
825.732	25.594
829.568	6.016
833.403	15.385
837.236	42.699
841.068	55.971
844.898	85.2
848.726	141.385
852.552	158.523
856.376	148.612
860.199	172.653
864.02	176.644
867.839	133.589
871.656	103.483
875.472	112.341
879.286	98.167
883.098	69.943
886.909	49.676
890.717	27.362
894.524	2.009
898.33	6.461
902.133	30.988
905.935	3.623
909.735	21.681
913.533	6.117
917.33	8.906
921.124	33.827
924.918	7.23
928.709	46.597
932.499	25.322
936.286	40.543
940.073	26.556
943.857	63.104
947.64	55.816
951.421	88.999
955.2	90.907
958.978	79.499
962.753	72.761
966.527	103.227
970.3	123.195
974.071	190.133
977.84	176.011
981.607	131.734
985.372	70.616
989.136	34.033
992.898	91.713
996.659	104.344
1000.42	56.93
1004.17	85.463
1007.93	66.035
1011.68	85.675
1015.43	104.414
1019.18	89.222
1022.93	94.878
1026.68	105.028
1030.42	112.76
1034.17	128.606
1037.91	112.068
1041.65	107.997
1045.39	126.844
1049.12	128.681
1052.86	111.634
1056.59	33.5
1060.33	24.974
1064.06	62.438
1067.78	42.052
1071.51	28.276
1075.23	18.148
1078.96	67.254
1082.68	42.72
1086.4	23.976
1090.12	32.138
1093.83	52.647
1097.55	39.018
1101.26	37.637
1104.97	49.282
1108.68	46.963
1112.39	85.664
1116.1	54.362
1119.8	102.049
1123.5	277.721
1127.2	101.365
1130.9	90.998
1134.6	65.633
1138.3	70.256
1141.99	71.891
1145.69	41.507
1149.38	40.103
1153.07	35.665
1156.76	31.191
1160.44	18.685
1164.13	21.131
1167.81	32.524
1171.49	10.134
1175.17	1.894
1178.85	4.273
1182.52	13.619
1186.2	9.594
1189.87	8.359
1193.54	0.744
1197.21	25.868
1200.88	10.981
1204.55	7.349
1208.21	16.358
1211.88	16.895
1215.54	21.869
1219.2	33.54
1222.86	34.138
1226.51	19.804
1230.17	42.236
1233.82	55.795
1237.47	36.127
1241.12	55.466
1244.77	47.153
1248.42	72.279
1252.06	75.136
1255.71	73.149
1259.35	69.257
1262.99	91.239
1266.63	98.611
1270.26	132.374
1273.9	90.367
1277.53	118.604
1281.16	135.942
1284.8	89.057
1288.42	144.912
1292.05	148.277
1295.68	155.154
1299.3	143.225
1302.92	167.53
1306.55	165.663
1310.16	191.599
1313.78	154.331
1317.4	136.359
1321.01	122.835
1324.62	130.234
1328.24	127.548
1331.85	112.034
1335.45	113.023
1339.06	91.245
1342.66	78.338
1346.27	84.778
1349.87	67.827
1353.47	63.583
1357.07	43.414
1360.66	28.232
1364.26	55.08
1367.85	47.76
1371.44	52.133
1375.04	44.443
1378.62	60.879
1382.21	55.139
1385.8	34.387
1389.38	4.457
1392.96	0.72
1396.54	2.163
1400.12	29.533
1403.7	2.081
1407.28	18.467
1410.85	17.66
1414.42	5.588
1417.99	24.315
1421.56	19.897
1425.13	7.36
1428.7	37.754
1432.26	12.858
1435.83	19.507
1439.39	3.854
1442.95	63.074
1446.51	29.182
1450.06	54.04
1453.62	77.809
1457.17	69.378
1460.73	95.319
1464.28	76.594
1467.83	92.749
1471.37	84.944
1474.92	71.699
1478.46	75.224
1482.01	89.131
1485.55	52.346
1489.09	48.6
1492.63	37.932
1496.16	91.933
1499.7	88.219
1503.23	92.521
1506.76	96.027
1510.29	122.528
1513.82	109.305
1517.35	69.308
1520.88	63.661
1524.4	32.438
1527.92	72.175
1531.44	37.522
1534.96	0.551
