Measurement: Raman, 514 nm, ccw, Raman Data Processed
Mineral: Cassiterite
Rruff sample: R050502
Ideal chemistry: SnO_2_
Locality: Redruth, Cornwall, England
Source: California Institute of Technology
Description: Black crystals associated with colorless quartz and grey stannite.
Measured chemistry: SnO_2_
Pin_id: M00499
Orientation: Laser parallel to a* (1 0 0). Fiducial mark perpendicular to laser is parallel to -c [0 0 -1]
Raman shift (cm-1)	intensity
185.791	0
190.715	41.6875
195.636	186.306
200.554	731.04
205.469	1525.39
210.38	2399.64
215.288	4604.02
220.194	7181.62
225.096	9968.36
229.994	12762.6
234.89	14265
239.783	14077.8
244.672	11235.5
249.558	7385.97
254.441	4106.29
259.321	2453.78
264.198	1481.69
269.072	1119.23
273.943	1323.08
278.81	3736.09
283.675	6098.06
288.536	5876.39
293.395	4493.97
298.25	3386.25
303.102	2663.09
307.951	2147.7
312.797	1766.41
317.64	1557.53
322.48	1295.31
327.317	989.008
332.151	937.22
336.982	979.42
341.81	1065.07
346.634	1354.66
351.456	1403.53
356.275	1463.73
361.091	637.528
365.903	160.125
370.713	550.266
375.52	504.008
380.323	526.454
385.124	479.087
389.922	361.109
394.717	187.257
399.508	34.0298
404.297	26.6963
409.083	134.702
413.866	559.983
418.646	1003.99
423.423	1703.17
428.197	3109.35
432.968	5626.69
437.736	9043.43
442.502	9584.64
447.264	8372.98
452.024	6657.55
456.78	6132.55
461.534	6989.1
466.284	9022.26
471.032	11234.8
475.777	10836.3
480.519	7475.22
485.258	5653.96
489.995	5440.95
494.728	5536.28
499.459	5548.88
504.186	5219.59
508.911	4783.12
513.633	4382.09
518.352	4054.09
523.069	3458.55
527.782	3156.85
532.493	3176.34
537.2	3176.92
541.905	3598.22
546.608	3573.51
551.307	3697.16
556.003	4133.78
560.697	4640.88
565.388	4800.01
570.076	4656.43
574.761	4567.44
579.444	4731.27
584.124	4532.09
588.801	5023.01
593.475	5303.1
598.146	6211.41
602.815	7519.08
607.481	9282.19
612.144	11064.9
616.805	13672.5
621.462	18792.9
626.117	31590.3
630.769	50323.9
635.419	50270.1
640.066	30398.1
644.71	17121
649.351	11083.5
653.99	7961.89
658.625	5415.9
663.259	3792.46
667.889	2728.65
672.517	1989.77
677.142	1614.77
681.765	2109.2
686.384	2645.79
691.001	3200.18
695.616	3473.88
700.228	3257.09
704.837	2446.65
709.443	2568.49
714.047	3236.53
718.648	3739.73
723.246	4092.01
727.842	4101.31
732.435	4208.57
737.026	4181.37
741.614	3983.46
746.199	4008.63
750.782	3664.68
755.362	3482.58
759.94	2888.94
764.514	2454.75
769.087	2926.73
773.656	3628.77
778.224	3327.4
782.788	1935.82
787.35	895.769
791.909	343.429
796.466	192.481
801.02	221.724
805.572	422.319
810.121	641.442
814.668	582.562
819.212	429.843
823.753	23.4888
828.292	573.424
832.829	1694.2
837.362	2485.14
841.894	2175.51
846.423	947.095
850.949	409.213
855.473	133.952
859.994	122.762
864.513	227.766
869.029	188.094
873.543	173.073
878.054	300.763
882.563	146.825
887.069	164.739
891.573	118.537
896.074	161.035
900.573	115.823
905.069	22.5215
909.563	88.1567
914.055	1.64014
918.544	103.574
923.03	24.8086
927.514	89.1802
931.996	153.818
936.475	175.174
940.952	258.607
945.426	308.407
949.898	421.719
954.368	359.666
958.835	551.856
963.299	600.878
967.762	732.51
972.221	773.785
976.679	682.702
981.134	714.257
985.587	627.444
990.037	668.24
994.485	530.637
998.93	570.583
1003.37	659.096
1007.81	694.276
1012.25	693.165
1016.69	784.047
1021.12	844.271
1025.55	894.687
1029.98	920.262
1034.41	785.037
1038.83	841.927
1043.26	835.162
1047.67	683.653
1052.09	608.389
1056.51	562.06
1060.92	476.955
1065.33	469.758
1069.74	381.015
1074.14	360.34
1078.55	349.161
1082.95	390.211
1087.35	447.313
1091.74	395.804
1096.14	317.163
1100.53	369.216
1104.92	502.471
1109.31	371.957
1113.69	433.557
1118.07	505.693
1122.45	540.957
1126.83	498.506
1131.21	408.148
1135.58	366.755
1139.95	358.595
1144.32	176.67
1148.69	171.608
1153.05	109.736
1157.42	128.425
1161.78	103.454
1166.13	57.1548
1170.49	38.8789
1174.85	46.8945
1179.2	31.0542
1183.55	11.3457
1187.89	16.8569
1192.24	31.3848
1196.58	16.5176
1200.92	55.5337
1205.26	35.3428
1209.59	18.897
1213.93	37.0894
1218.26	32.1738
1222.59	90.9976
1226.91	189.567
1231.24	229.535
1235.56	191.913
1239.88	237.726
1244.2	300.996
1248.52	313.753
1252.83	375.029
1257.14	486.856
1261.45	518.295
1265.76	640.337
1270.07	737.972
1274.37	803.207
1278.67	997.213
1282.97	895.04
1287.27	669.464
1291.57	563.222
1295.86	523.808
1300.15	462.106
1304.44	387.191
1308.72	406.839
1313.01	227.821
1317.29	234.759
1321.57	152.442
1325.85	60.2744
1330.12	234.554
1334.4	116.817
1338.67	57.0625
1342.94	178.982
1347.21	111.912
1351.47	78.8975
1355.74	193.43
1360	161.516
1364.26	181.071
1368.52	223.073
1372.77	295.369
1377.03	241.15
1381.28	358.431
1385.53	268.26
1389.77	151.648
1394.02	52.6065
1398.26	84.144
1402.5	9.27246
1406.74	56.0166
1410.98	16.5903
1415.21	128.507
1419.45	135.586
1423.68	125.844
1427.91	27.8926
1432.13	26.0957
1436.36	59.1621
1440.58	50.7759
1444.8	206.305
1449.02	189.63
1453.24	262.843
1457.46	287.879
1461.67	333.727
1465.88	444.372
1470.09	364.832
1474.3	396.14
1478.5	370.677
1482.71	505.373
1486.91	543.484
1491.11	478.078
1495.3	407.588
1499.5	478.892
1503.69	530.991
1507.88	589.132
1512.08	538.406
1516.26	481.797
1520.45	546.297
1524.63	552.868
1528.81	319.894
1532.99	247.644
1537.17	309.353
1541.35	271.991
1545.52	227.783
1549.7	136.167
1553.87	155.117
1558.04	188.84
1562.2	107.145
