Measurement: Raman, 514 nm, ccw, Raman Data Processed
Mineral: Cassiterite
Rruff sample: R040072
Ideal chemistry: SnO_2_
Locality: Bolivia
Source: University of Arizona Mineral Museum
Description: Black fragment
Measured chemistry: Sn_0.99_O_2_
Pin_id: L00343
Orientation: Laser parallel to c* (0 0 1). Fiducial mark perpendicular to laser is parallel to a [1 0 0]
Raman shift (cm-1)	intensity
188.436	0
192.581	5.445
196.724	26.054
200.865	7.165
205.004	20.012
209.14	58.344
213.275	149.62
217.408	384.28
221.538	446.659
225.667	228.226
229.793	259.886
233.917	288.489
238.04	332.297
242.16	344.287
246.278	400.858
250.395	491.6
254.509	468.391
258.621	349.728
262.731	471.433
266.839	423.871
270.945	293.134
275.049	43.121
279.151	46.225
283.251	39.124
287.349	22.19
291.445	54.483
295.539	47.243
299.631	122.121
303.72	85.8
307.808	31.05
311.894	79.177
315.978	72.982
320.06	46.318
324.139	105.992
328.217	124.628
332.293	132.267
336.367	81.194
340.438	82.064
344.508	190.769
348.576	81.007
352.641	20.503
356.705	41.088
360.767	17.142
364.826	10.688
368.884	95.667
372.94	61.792
376.994	52.041
381.045	15.603
385.095	66.882
389.143	26.568
393.188	28.618
397.232	14.264
401.274	68.232
405.314	90.244
409.352	17.707
413.387	15.648
417.421	39.403
421.453	110.479
425.483	67.742
429.511	1.671
433.537	62.506
437.561	7.999
441.583	16.501
445.603	75.764
449.621	107.309
453.637	97.703
457.651	234.618
461.663	462.991
465.673	741.783
469.682	750.705
473.688	781.764
477.692	827.965
481.694	949.306
485.695	1137.75
489.693	1209.31
493.69	1589.98
497.684	1989.79
501.677	1548.68
505.667	1235.5
509.656	1206.55
513.643	1169.48
517.628	759.298
521.611	432.411
525.591	322.39
529.57	445.307
533.547	805.447
537.523	1106.4
541.496	1234.9
545.467	1034.95
549.436	1030.32
553.404	963.447
557.369	653.439
561.332	486.355
565.294	512.64
569.254	481.761
573.211	425.549
577.167	269.847
581.121	355.132
585.073	477.726
589.023	583.07
592.971	708.254
596.917	963.735
600.861	1482.52
604.804	2199.62
608.744	2824.03
612.683	3799.74
616.619	5854.77
620.554	10000.1
624.487	19027.8
628.418	39045.8
632.347	62224.2
636.274	45053
640.199	22412.2
644.122	12061.9
648.044	7085.95
651.963	4498.49
655.881	3305.51
659.796	2817.99
663.71	2368.9
667.622	1912.23
671.532	1632.93
675.44	1607.99
679.347	1628.38
683.251	1675.11
687.153	1700.19
691.054	1836.61
694.953	2103.37
698.849	1740.46
702.744	889.859
706.637	564.592
710.529	416.692
714.418	500.133
718.305	678.883
722.191	631.922
726.075	426.246
729.956	240.855
733.836	319.742
737.714	434.898
741.591	579.32
745.465	583.002
749.337	605.939
753.208	883.125
757.077	1492.72
760.944	2803.84
764.809	5233.79
768.672	9788.73
772.533	14885
776.392	15621.9
780.25	11618.8
784.106	7656.22
787.96	5159.53
791.812	3910.84
795.662	3342.25
799.51	3084.21
803.357	2681.09
807.201	2108.68
811.044	1544.19
814.885	1183.59
818.724	853.902
822.562	588.32
826.397	431.828
830.231	287.417
834.062	196.079
837.892	194.805
841.72	330.587
845.547	509.417
849.371	589.287
853.194	472.19
857.015	513.118
860.834	628.065
864.651	667.091
868.466	635.054
872.279	560.014
876.091	411.964
879.901	293.898
883.709	217.81
887.515	184.692
891.32	125.541
895.122	41.344
898.923	37.906
902.722	67.251
906.519	94.727
910.314	60.404
914.108	31.315
917.899	90.487
921.689	100.742
925.477	130.157
929.264	79.614
933.048	36.169
936.831	23.235
940.612	5.489
944.391	44.983
948.168	12.879
951.944	43.844
955.717	151.25
959.489	192.187
963.259	282.819
967.028	362.318
970.794	346.525
974.559	369.477
978.322	305.278
982.083	273.926
985.842	181.418
989.6	134.75
993.356	130.919
997.11	71.923
1000.86	185.757
1004.61	216.421
1008.36	218.913
1012.11	226.231
1015.85	216.374
1019.6	278.35
1023.34	260.244
1027.08	281.069
1030.82	381.835
1034.55	372.77
1038.29	372.205
1042.02	298.291
1045.75	248.746
1049.48	195.336
1053.21	137.781
1056.93	138.91
1060.66	57.872
1064.38	20.662
1068.1	14.442
1071.82	2.962
1075.54	8.695
1079.25	6.671
1082.96	91.932
1086.67	29.102
1090.38	72.804
1094.09	79.402
1097.8	69.806
1101.5	83.999
1105.21	134.052
1108.91	196.971
1112.61	215.741
1116.31	199.358
1120	180.814
1123.7	142.103
1127.39	206.233
1131.08	243.134
1134.77	248.948
1138.45	232.615
1142.14	190.16
1145.82	129.586
1149.51	128.912
1153.19	108.12
1156.87	114.22
1160.54	135.221
1164.22	84.089
1167.89	66.824
1171.56	102.429
1175.23	53.016
1178.9	32.453
1182.57	49.782
1186.23	72.382
1189.89	108.93
1193.56	92.907
1197.22	72.833
1200.87	70.246
1204.53	0.435
1208.18	85.991
1211.84	78.082
1215.49	121.217
1219.14	140.376
1222.79	167.882
1226.43	164.6
1230.08	185.317
1233.72	177.356
1237.36	208.356
1241	185.533
1244.63	199.156
1248.27	204.023
1251.9	219.125
1255.54	211.627
1259.17	249.708
1262.8	221.755
1266.42	217.254
1270.05	220.658
1273.67	227.706
1277.3	194.685
1280.92	198.571
1284.54	246.023
1288.15	209.384
1291.77	210.646
1295.38	235.492
1298.99	207.709
1302.6	162.388
1306.21	173.608
1309.82	176.1
1313.42	170.619
1317.03	167.563
1320.63	177.071
1324.23	149.782
1327.83	107.983
1331.43	110.665
1335.02	44.32
1338.62	20.944
1342.21	14.431
1345.8	37.615
1349.39	29.349
1352.97	24.673
1356.56	79.199
1360.14	36.243
1363.72	31.865
1367.31	9.884
1370.88	46.6
1374.46	57.407
1378.04	99.647
1381.61	104.335
1385.18	146.427
1388.75	107.967
1392.32	45.985
1395.89	5.922
1399.45	12.922
1403.02	0.347
1406.58	38.398
1410.14	60.052
1413.7	75.354
1417.26	47.115
1420.81	29.249
1424.36	39.718
1427.92	44.169
1431.47	39.841
1435.02	87.774
1438.56	99.418
1442.11	76.304
1445.65	91.291
1449.19	103.112
1452.74	191.577
1456.28	190.303
1459.81	232.798
1463.35	310.411
1466.88	241.606
1470.41	196.552
1473.95	186.572
1477.48	153.605
1481	120.576
1484.53	87.667
1488.05	53.824
1491.58	46.226
1495.1	1.834
1498.62	86.096
1502.13	99.436
1505.65	206.629
1509.17	244.087
1512.68	254.673
1516.19	245.673
1519.7	115.199
