Measurement: Raman, 514 nm, ccw, Raman Data Processed
Mineral: Cassiterite
Rruff sample: R040017
Ideal chemistry: SnO_2_
Locality: Bolivia
Source: University of Arizona Mineral Museum
Description: Dark brown short prismatic single crystals
Measured chemistry: Sn_1.00_O_2_; trace amounts of Fe
Pin_id: L00125
Orientation: Laser parallel to -a* (-1 0 0). Fiducial mark perpendicular to laser is parallel to c [0 0 1]
Raman shift (cm-1)	intensity
91.42	0
95.626	219.919
99.829	723.083
104.03	870.032
108.229	1427.55
112.426	2187.9
116.62	2580.35
120.813	2710.15
125.003	2230.66
129.191	1851.48
133.377	1693.16
137.561	1662.48
141.743	1824.93
145.922	1744.33
150.099	1606.47
154.274	2025.98
158.448	1969.19
162.618	1953.6
166.787	1885.66
170.954	2208.13
175.118	2282.65
179.28	2136.33
183.441	2325.56
187.599	2746.55
191.755	2821.96
195.908	2877.8
200.06	3400.08
204.209	3681.4
208.357	3674.44
212.502	3673.21
216.645	4550.28
220.786	4672.13
224.925	4187.75
229.062	4421.27
233.196	4669.68
237.329	4383.98
241.459	3911.85
245.587	3634.24
249.714	3182.93
253.838	2326.17
257.96	1650.29
262.079	1323.6
266.197	639.462
270.313	27.381
274.426	99.757
278.538	1388.93
282.647	2911.41
286.754	2306.65
290.859	1505.6
294.962	1089.23
299.063	725.53
303.162	400.469
307.259	236.02
311.353	270.138
315.446	125.768
319.536	27.104
323.625	45.506
327.711	57.615
331.795	2.845
335.877	75.903
339.957	15.5
344.035	79.397
348.111	40.228
352.185	125.41
356.257	106.228
360.327	43.805
364.394	216.173
368.46	279.392
372.523	203.58
376.585	124.904
380.644	98.393
384.701	157.954
388.756	2.276
392.81	139.934
396.861	118.694
400.91	115.04
404.957	152.99
409.002	343.552
413.045	369.735
417.085	326.486
421.124	317.086
425.161	472.147
429.196	537.84
433.228	551.166
437.259	681.132
441.287	952.739
445.314	965.995
449.338	964.905
453.361	1036.47
457.381	1268.71
461.4	1501.16
465.416	1597.74
469.43	1770.96
473.443	2429.1
477.453	2843.02
481.461	2584.54
485.467	2444.87
489.471	2801.39
493.474	3209.97
497.474	3469.77
501.472	3406.46
505.468	3013.35
509.462	3104.19
513.454	2986.91
517.444	2565.58
521.432	2198.77
525.418	2070.8
529.402	2140.17
533.384	2144.75
537.364	2228.82
541.343	2508.32
545.319	2786.5
549.293	2521.63
553.265	2315.01
557.235	2030.71
561.203	2018.38
565.169	1983.06
569.133	1903.76
573.095	1543.45
577.055	1484.13
581.013	1659.81
584.969	1796.49
588.923	1666.19
592.875	1572.91
596.825	1804.64
600.773	2273.41
604.72	2632.21
608.664	3037.06
612.606	3591.99
616.546	4971
620.484	7635.13
624.421	11981.4
628.355	21233.3
632.287	43693.4
636.218	58822
640.146	34660.1
644.073	16840.1
647.997	8976.4
651.92	5953.08
655.84	4548.9
659.759	3653.76
663.675	3021.48
667.59	2333.8
671.503	2174.11
675.413	2192.99
679.322	2239.22
683.229	2011.05
687.134	1897.64
691.037	2054.28
694.938	2487.95
698.837	2576.67
702.734	1817.42
706.629	1046.2
710.523	921.018
714.414	948.862
718.303	1184.73
722.191	1043.64
726.076	797.564
729.96	642.517
733.841	673.494
737.721	707.493
741.599	582.513
745.474	450.551
749.348	515.606
753.22	275.677
757.09	253.76
760.958	163.851
764.825	62.052
768.689	130.07
772.551	77.245
776.412	64.503
780.27	1.218
784.127	128.166
787.982	202.795
791.834	128.715
795.685	99.878
799.534	28.278
803.381	85.892
807.226	91.75
811.07	102.795
814.911	23.975
818.75	88.769
822.588	115.455
826.423	67.08
830.257	58.653
834.089	94.172
837.919	148.638
841.747	233.049
845.573	422.405
849.397	534.706
853.22	452.951
857.04	487.141
860.859	629.273
864.676	761.349
868.49	642.369
872.303	422.331
876.114	397.236
879.924	418.084
883.731	368.874
887.536	370.607
891.34	270.283
895.141	225.902
898.941	185.464
902.739	234.52
906.535	251.921
910.329	298.95
914.122	237.272
917.912	162.217
921.701	85.649
925.487	256.301
929.272	281.244
933.055	335.316
936.836	306.687
940.616	209.53
944.393	178.27
948.168	317.137
951.942	412.68
955.714	514.9
959.484	546.902
963.252	470.222
967.018	511.555
970.783	530.901
974.545	718.264
978.306	785.644
982.065	699.039
985.822	414.452
989.577	374.882
993.331	299.331
997.082	341.797
1000.83	502.283
1004.58	541.789
1008.33	464.74
1012.07	432.865
1015.81	331.439
1019.55	384.037
1023.29	473.659
1027.03	503.31
1030.76	556.991
1034.5	498.771
1038.23	445.292
1041.96	414.717
1045.68	399.151
1049.41	395.423
1053.13	422.958
1056.86	237.229
1060.58	247.72
1064.3	168.665
1068.01	102.989
1071.73	219.351
1075.44	219.947
1079.15	259.211
1082.86	219.957
1086.57	143.746
1090.28	66.435
1093.98	93.264
1097.68	154.213
1101.38	237.885
1105.08	263.575
1108.78	278.678
1112.47	221.431
1116.17	167.248
1119.86	216.939
1123.55	184.618
1127.24	183.337
1130.92	356.986
1134.61	290.615
1138.29	264.287
1141.97	160.981
1145.65	116.746
1149.33	70.343
1153	53.967
1156.68	138.812
1160.35	119.584
1164.02	80.427
1167.69	113.192
1171.35	18.964
1175.02	1.655
1178.68	7.938
1182.34	24.026
1186	68.285
1189.66	65.454
1193.31	80.339
1196.97	48.988
1200.62	44.808
1204.27	6.83
1207.92	60.951
1211.57	30.069
1215.21	68.748
1218.86	125.826
1222.5	107.231
1226.14	113.179
1229.78	112.823
1233.41	116.51
1237.05	12.997
1240.68	88.554
1244.31	170.995
1247.94	247.02
1251.57	160.588
1255.19	198.86
1258.82	127.331
1262.44	140.47
1266.06	104.288
1269.68	159.905
1273.3	186.238
1276.91	201.963
1280.53	188.068
1284.14	170.509
1287.75	128.466
1291.36	75.109
1294.96	113.354
1298.57	65.12
1302.17	100.518
1305.77	80.598
1309.37	105.206
1312.97	109.058
1316.57	66.801
1320.16	96.88
1323.76	27.66
1327.35	15.202
1330.94	7.217
1334.53	34.531
1338.11	17.905
1341.69	38.503
1345.28	43.694
1348.86	35.243
1352.44	23.341
1356.02	1.825
1359.59	21.754
1363.16	18.581
1366.74	43.584
1370.31	35.5
1373.88	56.022
1377.44	155.005
1381.01	123.714
1384.57	116.045
1388.13	111.957
1391.69	109.599
1395.25	23.938
1398.81	34.807
1402.37	62.991
1405.92	2.02
1409.47	17.006
1413.02	26.595
1416.57	92.455
1420.12	76.041
1423.66	73.97
1427.2	44.32
1430.75	61.966
1434.29	39.174
1437.82	47.112
1441.36	5.803
1444.9	169.261
1448.43	140.811
1451.96	170.992
1455.49	243.995
1459.02	299.347
1462.55	314.667
1466.07	305.76
1469.59	232.044
1473.11	185.982
1476.63	126.515
1480.15	124.133
1483.67	65.416
1487.18	73.521
1490.7	206.818
1494.21	178.144
1497.72	280.097
1501.23	256.597
1504.73	325.97
1508.24	286.188
1511.74	272.829
1515.24	199.55
1518.74	118.211
1522.24	85.204
1525.73	0
