Measurement: Raman, 514 nm, ccw, Raman Data Processed
Mineral: Cassiterite
Rruff sample: R040072
Ideal chemistry: SnO_2_
Locality: Bolivia
Source: University of Arizona Mineral Museum
Description: Black fragment
Measured chemistry: Sn_0.99_O_2_
Pin_id: M00007
Orientation: Laser parallel to a* (1 0 0). Fiducial mark perpendicular to laser is parallel to c [0 0 1]
Raman shift (cm-1)	intensity
214.472	0
218.594	221.496
222.714	330.213
226.832	218.36
230.948	115.202
235.063	2.588
239.175	1.528
243.286	108.514
247.394	151.176
251.501	282.477
255.605	190.444
259.708	154.701
263.808	88.943
267.907	151.959
272.004	200.759
276.099	72.255
280.192	42.508
284.283	4.4
288.372	198.244
292.459	333.323
296.544	361.212
300.627	369.048
304.709	315.097
308.788	239.223
312.865	180.923
316.941	111.85
321.015	140.749
325.086	231.433
329.156	157.628
333.224	192.874
337.29	59.827
341.354	101.57
345.416	130.03
349.476	32.121
353.534	97.898
357.591	5.421
361.645	31.724
365.698	34.112
369.748	30.235
373.797	82.697
377.844	92.585
381.889	23.295
385.932	21.574
389.973	45.198
394.012	141.537
398.049	189.985
402.084	361.849
406.118	513.616
410.15	651.319
414.179	713.191
418.207	584.206
422.233	519.674
426.257	465.58
430.279	562.632
434.299	828.056
438.318	941.397
442.334	652.417
446.349	436.83
450.361	513.447
454.372	541.162
458.381	584.805
462.388	663.735
466.394	765.764
470.397	907.142
474.398	1067.83
478.398	1126.93
482.396	1037.07
486.391	1166.37
490.385	1362.24
494.377	1780.47
498.368	2064.16
502.356	2106.23
506.342	1934.25
510.327	1799.36
514.31	1633.47
518.291	1363.74
522.27	1044.88
526.247	862.312
530.222	865.458
534.196	1089.36
538.167	1442.64
542.137	1661.73
546.105	1424.54
550.071	1214.39
554.035	1061.74
557.998	977.801
561.958	874.959
565.917	751.174
569.874	662.547
573.829	528.253
577.782	520.026
581.733	468.892
585.683	353.87
589.63	379.015
593.576	507.248
597.52	604.689
601.462	697.501
605.402	946.649
609.341	1063.1
613.277	1416.01
617.212	1739.39
621.145	2515.53
625.076	4193.6
629.006	8525.21
632.933	15181.5
636.859	13463.8
640.783	7403.8
644.705	4725.79
648.625	3524.32
652.543	3161.98
656.46	3091.2
660.375	3131.96
664.288	3353.95
668.199	3711.73
672.108	3977.17
676.016	4102.19
679.921	4242
683.825	4196.89
687.727	4351.8
691.628	4366.89
695.526	4512.28
699.423	3907.89
703.318	2637.67
707.211	1946.63
711.102	1644.75
714.992	1521.92
718.879	1462.13
722.765	1196.38
726.649	1263.65
730.532	1150.98
734.412	999.372
738.291	933.287
742.168	803.398
746.043	730.538
749.916	670.432
753.788	576.46
757.658	470.025
761.526	325.508
765.392	69.354
769.257	17.841
773.119	33.466
776.98	38.627
780.839	63.505
784.697	79.719
788.552	66.021
792.406	28.824
796.258	24.352
800.108	30.485
803.957	53.887
807.804	28.611
811.649	35.457
815.492	24.372
819.333	72.129
823.173	76.729
827.011	29.163
830.847	12.426
834.681	94.545
838.514	93.491
842.345	173.536
846.174	340.505
850.001	569.592
853.827	445.544
857.651	475.895
861.473	568.932
865.293	487.606
869.112	499.037
872.928	389.811
876.744	392.724
880.557	292.66
884.369	218.045
888.178	138.482
891.987	124.533
895.793	83.519
899.598	54.385
903.401	5.772
907.202	58.614
911.001	62.133
914.799	7.855
918.595	114.885
922.389	53.346
926.182	7.918
929.972	92.754
933.761	11.805
937.549	10.752
941.334	83.754
945.118	123.152
948.9	85.154
952.681	285.245
956.459	228.005
960.236	216.601
964.012	291.033
967.785	293.172
971.557	399.597
975.327	345.271
979.095	273.976
982.862	210.101
986.627	146.975
990.39	96.263
994.152	103.669
997.912	67.871
1001.67	51.86
1005.43	69.638
1009.18	14.825
1012.93	33.352
1016.68	44.259
1020.43	57.07
1024.18	30.644
1027.93	26.25
1031.67	35.561
1035.42	82.455
1039.16	108.539
1042.9	92.499
1046.63	86.919
1050.37	95.957
1054.11	108.099
1057.84	80.914
1061.57	98.383
1065.3	102.971
1069.03	74.75
1072.75	65.822
1076.47	45.916
1080.2	109.023
1083.92	119.145
1087.64	115.767
1091.36	98.052
1095.07	109.116
1098.79	109.891
1102.5	107.125
1106.21	164.338
1109.92	102.555
1113.62	130.717
1117.33	165.808
1121.04	310.831
1124.74	627.799
1128.44	267.712
1132.14	308.568
1135.83	285.36
1139.53	238.998
1143.22	227.514
1146.92	188.721
1150.61	109.719
1154.3	139.792
1157.98	83.516
1161.67	44.458
1165.35	28.091
1169.04	35.736
1172.72	47.622
1176.4	1.806
1180.07	55.55
1183.75	42.633
1187.42	15.243
1191.1	5.109
1194.77	24.315
1198.44	57.438
1202.1	24.762
1205.77	45.175
1209.43	41.733
1213.1	27.421
1216.76	25.957
1220.42	63.609
1224.07	169.375
1227.73	122.288
1231.38	108.21
1235.04	167.168
1238.69	131.148
1242.34	178.128
1245.99	187.095
1249.63	194.048
1253.28	192.986
1256.92	172.927
1260.56	286.88
1264.2	278.874
1267.84	305.176
1271.48	328.226
1275.11	343.309
1278.74	303.69
1282.38	338.311
1286.01	386.86
1289.63	359.808
1293.26	423.476
1296.89	414.108
1300.51	444.933
1304.13	502.794
1307.75	524.023
1311.37	490.86
1314.99	433.832
1318.6	382.109
1322.22	461.072
1325.83	389.403
1329.44	430.259
1333.05	410.89
1336.66	352.203
1340.26	297.657
1343.87	251.489
1347.47	165.067
1351.07	241.074
1354.67	250.61
1358.27	204.083
1361.86	173.475
1365.46	335.755
1369.05	293.897
1372.64	325.909
1376.23	355.825
1379.82	311.657
1383.41	321.414
1386.99	278.129
1390.57	256.849
1394.16	206.714
1397.74	134.373
1401.32	139.375
1404.89	129.417
1408.47	73.471
1412.04	3.463
1415.61	29.206
1419.18	29.529
1422.75	14.797
1426.32	46.427
1429.89	30.934
1433.45	48.334
1437.01	96.782
1440.58	43.251
1444.13	24.759
1447.69	11.49
1451.25	29.084
1454.81	105.892
1458.36	98.84
1461.91	97.968
1465.46	122.308
1469.01	57.857
1472.56	201.414
1476.1	149.927
1479.64	207.075
1483.19	119.037
1486.73	207.65
1490.27	195.291
1493.81	139.13
1497.34	141.637
1500.88	52.133
1504.41	204.707
1507.94	182.213
1511.47	121.682
1515	121.08
1518.53	105.989
1522.05	98.056
1525.57	168.946
1529.1	60.699
1532.62	60.296
1536.14	73.02
