Measurement: Raman, 514 nm, ccw, Raman Data Processed
Mineral: Cassiterite
Rruff sample: R040072
Ideal chemistry: SnO_2_
Locality: Bolivia
Source: University of Arizona Mineral Museum
Description: Black fragment
Measured chemistry: Sn_0.99_O_2_
Pin_id: M00007
Orientation: Laser parallel to a* (1 0 0). Fiducial mark perpendicular to laser is parallel to c [0 0 1]
Raman shift (cm-1)	intensity
186.94	0
191.076	68.478
195.209	276.956
199.34	140.322
203.47	198.705
207.597	283.543
211.722	278.442
215.846	480.076
219.967	537.888
224.087	437.798
228.204	331.483
232.32	230.531
236.434	152.396
240.545	122.296
244.655	58.74
248.763	8.603
252.869	109.438
256.973	56.432
261.075	75.506
265.175	150.916
269.273	225.501
273.369	169.335
277.463	69.502
281.556	95.104
285.646	59.604
289.734	50.377
293.821	246.995
297.905	402.799
301.988	376.042
306.069	306.495
310.147	158.828
314.224	4.977
318.299	37.283
322.372	32.057
326.443	55.335
330.512	49.572
334.579	19.625
338.645	10.744
342.708	35.028
346.769	63.365
350.829	32.396
354.887	60.325
358.942	61.695
362.996	115.58
367.048	142.261
371.098	273.185
375.146	194.956
379.192	290.495
383.236	377.03
387.279	318.849
391.319	373.427
395.358	235.022
399.394	243.005
403.429	318.713
407.462	344.259
411.493	384.943
415.522	403.538
419.549	225.143
423.575	285.483
427.598	208.001
431.619	383.292
435.639	430.152
439.657	305.758
443.673	183.843
447.687	304.736
451.699	254.768
455.709	233.106
459.717	289.655
463.724	427.448
467.728	678.685
471.731	1565.98
475.732	2406.76
479.731	1339.7
483.728	751.248
487.723	663.605
491.716	721.785
495.708	837.606
499.697	891.878
503.685	715.646
507.671	649.057
511.655	638.111
515.637	561.332
519.617	505.918
523.596	283.911
527.572	261.197
531.547	408.328
535.52	569.857
539.491	726.093
543.46	841.778
547.427	734.104
551.393	753.139
555.356	662.277
559.318	587.308
563.278	550.957
567.236	418.693
571.192	372.691
575.147	358.48
579.099	335.467
583.05	268.811
586.999	229.909
590.946	342.387
594.891	441.46
598.834	460.737
602.776	610.4
606.715	955.712
610.653	1105.19
614.589	1489.9
618.523	2255.11
622.456	3625.59
626.386	6923.21
630.315	14742.7
634.242	21587.9
638.167	14621.8
642.09	7312
646.012	4173.21
649.931	2794.42
653.849	2237.43
657.765	2009.24
661.679	1820.86
665.592	1753.97
669.502	1921.01
673.411	1997.57
677.318	1995.42
681.223	1902.33
685.126	1831.95
689.028	1849.84
692.927	1906.07
696.825	1806.34
700.721	1507.64
704.616	1013.97
708.508	846.333
712.399	718.826
716.288	669.163
720.175	772.63
724.06	725.112
727.944	656.603
731.825	573.093
735.705	476.647
739.584	480.801
743.46	405.069
747.334	330.587
751.207	269.938
755.078	220.058
758.947	203.972
762.815	118.754
766.68	73.768
770.544	75.125
774.406	65.367
778.267	87.031
782.125	15.484
785.982	22.577
789.837	8.462
793.69	16.113
797.542	13.177
801.391	58.661
805.239	24.036
809.085	25.337
812.93	69.17
816.772	24.233
820.613	0.876
824.452	1.766
828.29	26.115
832.125	38.772
835.959	46.758
839.791	56.374
843.621	183.798
847.45	199.037
851.277	298.946
855.102	182.537
858.925	253.986
862.746	260.236
866.566	269.343
870.384	199.329
874.2	176.224
878.015	175.003
881.828	173.659
885.639	84.223
889.448	79.638
893.256	100.878
897.061	29.959
900.865	15.866
904.668	39.561
908.468	46.047
912.267	70.379
916.064	99.014
919.86	91.793
923.653	82.593
927.445	48.938
931.236	112.101
935.024	102.766
938.811	119.703
942.596	49.436
946.379	91.479
950.161	96.795
953.94	158.434
957.719	51.657
961.495	145.832
965.27	191.925
969.043	211.107
972.814	200.04
976.583	289.747
980.351	235.699
984.117	201.771
987.882	201.141
991.644	62.907
995.405	80.947
999.165	79.363
1002.92	120.784
1006.68	74.217
1010.43	122.465
1014.18	124.787
1017.93	98.138
1021.68	141.136
1025.43	184.95
1029.18	203.116
1032.92	232.096
1036.66	206.559
1040.4	172.631
1044.14	196.051
1047.88	227.16
1051.62	178.102
1055.35	208.518
1059.08	82.717
1062.81	143.062
1066.54	142.886
1070.27	174.037
1073.99	153.583
1077.72	185.472
1081.44	221.093
1085.16	299.465
1088.88	354.489
1092.59	703.238
1096.31	1809.72
1100.02	2115.67
1103.73	833.898
1107.44	379.115
1111.15	314.811
1114.86	217.507
1118.57	186.194
1122.27	533.861
1125.97	334.555
1129.67	212.24
1133.37	202.948
1137.07	207.607
1140.76	192.181
1144.45	147.396
1148.15	75.507
1151.84	81.757
1155.53	104.996
1159.21	96.24
1162.9	35.382
1166.58	4.6
1170.26	33.767
1173.94	37.149
1177.62	4.716
1181.3	20.46
1184.97	24.572
1188.65	14.479
1192.32	25.733
1195.99	81.879
1199.66	0.636
1203.33	88.068
1206.99	65.741
1210.65	54.428
1214.32	60.028
1217.98	61.661
1221.64	62.909
1225.29	8.697
1228.95	114.954
1232.6	136.714
1236.26	113.19
1239.91	40.591
1243.56	152.844
1247.2	113.961
1250.85	172.917
1254.49	153.821
1258.13	129.563
1261.78	188.926
1265.41	216.401
1269.05	204.956
1272.69	169.01
1276.32	291.974
1279.95	196.66
1283.59	323.938
1287.21	311.335
1290.84	270.707
1294.47	291.082
1298.09	348.753
1301.72	358.371
1305.34	332.906
1308.96	338.773
1312.58	269.194
1316.19	266.228
1319.81	302.991
1323.42	268.253
1327.03	185.638
1330.64	207.029
1334.25	231.092
1337.86	208.307
1341.46	124.391
1345.07	128.414
1348.67	101.224
1352.27	99.812
1355.87	113.296
1359.46	97.084
1363.06	135.782
1366.65	88.356
1370.25	39.974
1373.84	112.263
1377.43	94.878
1381.02	94.361
1384.6	122.492
1388.18	147.652
1391.77	121.048
1395.35	60.304
1398.93	43.17
1402.51	21.08
1406.08	45.023
1409.66	11.433
1413.23	17.183
1416.8	6.186
1420.37	20.59
1423.94	14.187
1427.51	55.39
1431.08	15.365
1434.64	1.232
1438.2	81.853
1441.76	120.745
1445.32	39.283
1448.88	63.556
1452.43	111.674
1455.99	91.643
1459.54	205.007
1463.09	160.026
1466.64	174.899
1470.19	137.877
1473.74	181.732
1477.28	120.022
1480.83	107.043
1484.37	187.486
1487.91	101.346
1491.45	99.717
1494.98	42.967
1498.52	190.803
1502.05	113.568
1505.59	195.217
1509.12	115.474
1512.65	234.179
1516.17	208.312
1519.7	187.26
1523.23	168.422
1526.75	128.501
1530.27	5.043
1533.79	1.019
