Measurement: Raman, 514 nm, ccw, Raman Data Processed
Mineral: Cassiterite
Rruff sample: R060563
Ideal chemistry: SnO_2_
Locality: unknown
Source: Gemological Institute of America
Description: Dark brown fragment
Measured chemistry: Sn_1.00_O_2_
Pin_id: L01474
Orientation: Laser parallel to c* (0 0 1). Fiducial mark perpendicular to laser is parallel to a [1 0 0]
Raman shift (cm-1)	intensity
114.44	0
119.365	168.286
124.288	427.103
129.209	16.9082
134.127	92.1865
139.043	117.81
143.956	16.5762
148.867	127.856
153.775	156.474
158.681	121.361
163.585	43.1152
168.486	61.2783
173.385	51.481
178.282	0.017578
183.176	5.22461
188.067	34.9116
192.956	38.102
197.843	122.816
202.727	45.1455
207.609	42.5845
212.489	102.942
217.366	188.834
222.24	455.275
227.112	357.829
231.982	454.891
236.849	593.619
241.714	824.028
246.577	499.115
251.437	433.125
256.294	429.01
261.149	517.996
266.002	424.24
270.852	431.737
275.7	234.318
280.545	321.322
285.388	250.238
290.229	41.4204
295.067	197.181
299.902	154.894
304.735	145.112
309.566	161.219
314.394	298.601
319.22	321.381
324.043	284.157
328.864	276.762
333.682	323.849
338.498	312.962
343.311	296.822
348.122	360.82
352.931	120.124
357.737	148.577
362.54	154.465
367.341	90.7852
372.14	48.5386
376.936	295.725
381.73	286.271
386.521	282.077
391.31	282.517
396.096	281.356
400.88	311.581
405.661	401.188
410.44	429.2
415.216	361.62
419.99	411.453
424.761	318.709
429.53	473.458
434.297	400.452
439.061	369.451
443.822	369.137
448.581	466.324
453.337	432.986
458.091	464.031
462.843	697.442
467.592	949.219
472.338	1146.4
477.082	903.066
481.824	822.169
486.563	840.646
491.3	1107.47
496.034	1220.65
500.765	1054.17
505.494	770.356
510.221	664.268
514.945	372.202
519.666	7.25098
524.385	49.0713
529.102	30.1426
533.816	235.631
538.527	639.456
543.236	595.618
547.943	297.11
552.647	260.932
557.348	226.076
562.047	207.634
566.744	35.4902
571.438	60.4775
576.129	34.6055
580.818	99.0361
585.504	30.8389
590.188	321.358
594.87	474.794
599.549	925.52
604.225	1581.53
608.899	2494.82
613.57	4037.38
618.239	7098.22
622.905	14769.3
627.569	32936.8
632.23	51418.7
636.889	34910.9
641.545	14760.7
646.198	7130.95
650.849	4130.61
655.498	2771.8
660.144	2031.92
664.787	1543.87
669.428	1164.69
674.067	1120.1
678.703	1068.72
683.336	1051.55
687.967	1313.59
692.595	1489.82
697.221	1250.12
701.844	665.949
706.465	261.6
711.083	195.168
715.698	157.637
720.311	240.99
724.922	170.241
729.53	46.9355
734.135	91.7656
738.738	104.774
743.338	73.9522
747.936	159.293
752.531	237.789
757.124	509.551
761.714	1457.77
766.302	3630.19
770.887	6802.67
775.469	8126.22
780.049	5874.56
784.626	3561.93
789.201	2407.21
793.773	1836.88
798.343	1517.51
802.91	1202.4
807.475	848.47
812.037	821.108
816.596	443.707
821.153	189.261
825.707	109.762
830.259	81.2031
834.808	2.47168
839.355	57.627
843.899	172.648
848.441	343.685
852.98	327.879
857.516	437.302
862.05	387.87
866.581	508.451
871.11	475.897
875.636	287.203
880.159	273.357
884.68	113.355
889.199	109.188
893.714	6.85059
898.228	4.73438
902.738	16.2998
907.246	45.8711
911.752	68.0029
916.255	119.179
920.755	5.01465
925.253	2.67773
929.748	24.2373
934.241	77.8662
938.731	68.0459
943.218	262.019
947.703	204.207
952.186	243.364
956.665	172.127
961.142	340.071
965.617	391.29
970.089	500.141
974.558	608.88
979.025	377.385
983.489	362.644
987.951	279.654
992.41	286.407
996.866	349.897
1001.32	484.121
1005.77	241.078
1010.22	296.772
1014.67	460.22
1019.11	313.397
1023.55	390.565
1027.99	420.288
1032.42	450.668
1036.86	380.017
1041.29	404.31
1045.72	372.651
1050.14	104.986
1054.56	261.229
1058.98	186.356
1063.4	54.6113
1067.82	67.5107
1072.23	116.933
1076.64	129.761
1081.05	166.936
1085.45	260.95
1089.85	37.7891
1094.25	158.68
1098.65	215.263
1103.04	340.097
1107.43	210.452
1111.82	380.674
1116.21	273.829
1120.59	243.849
1124.97	260.738
1129.35	216.501
1133.73	242.139
1138.1	289.682
1142.47	176.23
1146.84	297.566
1151.21	111.097
1155.57	224.432
1159.93	47.667
1164.29	189.866
1168.64	149.092
1172.99	6.3584
1177.34	142.697
1181.69	105.247
1186.04	92.751
1190.38	202.898
1194.72	3.90137
1199.05	148.635
1203.39	150.091
1207.72	71.6074
1212.05	52.1435
1216.37	53.2822
1220.7	73.7158
1225.02	91.4824
1229.34	68.5625
1233.65	101.842
1237.97	104.6
1242.28	201.285
1246.59	117.915
1250.89	191.491
1255.19	139.013
1259.49	213.485
1263.79	239.908
1268.09	28.6934
1272.38	65.0254
1276.67	152.294
1280.95	8.69629
1285.24	187.843
1289.52	69.7481
1293.8	59.2959
1298.08	204.239
1302.35	194.773
1306.62	339.442
1310.89	204.274
1315.15	106.677
1319.42	138.432
1323.68	56.1387
1327.94	81.8643
1332.19	58.2676
1336.44	97.0049
1340.69	186.504
1344.94	144.921
1349.19	45.3877
1353.43	12.3682
1357.67	70.0029
1361.9	70.3164
1366.14	158.239
1370.37	47.1973
1374.6	191.122
1378.83	44.0478
1383.05	211.98
1387.27	242.913
1391.49	163.849
1395.7	94.6856
1399.92	50.6201
1404.13	88.3906
1408.34	33.0752
1412.54	55.249
1416.74	31.6689
1420.94	15.5596
1425.14	134.012
1429.34	106.761
1433.53	184.91
1437.72	136.597
1441.9	245.44
1446.09	252.651
1450.27	349.69
1454.45	313.922
1458.63	330.076
1462.8	435.552
1466.97	370.382
1471.14	470.765
1475.31	533.284
1479.47	369.956
1483.63	402.397
1487.79	453.276
1491.94	570.013
1496.09	602.93
1500.24	634.275
1504.39	675.81
1508.54	534.121
1512.68	793.271
1516.82	647.946
1520.95	813.54
1525.09	704.497
1529.22	544.884
1533.35	455.453
1537.47	482.815
1541.6	384.765
1545.72	323.051
1549.83	377.108
1553.95	242.383
1558.06	132.457
1562.17	64.7978
1566.28	155.974
1570.38	0
