Measurement: Raman, 514 nm, ccw, Raman Data Processed
Mineral: Cassiterite
Rruff sample: R050502
Ideal chemistry: SnO_2_
Locality: Redruth, Cornwall, England
Source: California Institute of Technology
Description: Black crystals associated with colorless quartz and grey stannite.
Measured chemistry: SnO_2_
Pin_id: M00088
Orientation: Laser parallel to -c* (0 0 -1). Fiducial mark perpendicular to laser is parallel to b [0 1 0]
Raman shift (cm-1)	intensity
201.19	0
206.082	8.59961
210.971	8.13477
215.858	397.535
220.742	766.639
225.624	935.499
230.503	1416.6
235.38	2560.46
240.254	2580.89
245.125	2698.09
249.994	1821.53
254.861	1801.01
259.725	1985.28
264.586	1807.9
269.445	1342.9
274.302	707.325
279.155	741.007
284.007	941.039
288.855	1212.27
293.702	1267.47
298.545	1236.26
303.386	1076.03
308.225	1042.23
313.061	768.699
317.894	649.436
322.725	608.868
327.554	444.703
332.38	327.099
337.203	160.185
342.024	379.997
346.842	532.127
351.658	664.013
356.471	471.566
361.281	9.6582
366.09	244.922
370.895	275.316
375.698	246.245
380.498	62.4014
385.296	60.8965
390.092	327.463
394.884	618.97
399.675	802.361
404.462	1566.31
409.248	2271.81
414.03	3236.57
418.81	4018.8
423.588	4851.7
428.363	5612.21
433.135	5788.16
437.905	5553.26
442.672	5860.8
447.437	7072.87
452.199	8528.51
456.959	9589.74
461.716	9835.6
466.47	9901.1
471.222	8859.25
475.972	6996.35
480.719	5203.54
485.463	4204.02
490.205	3807.33
494.944	3371.17
499.681	2999.5
504.415	2503.32
509.146	2056.16
513.875	1215.4
518.602	846.868
523.326	517.345
528.047	409.1
532.766	390.331
537.482	596.023
542.196	410.833
546.907	255.805
551.616	319.052
556.322	189.901
561.025	208.672
565.726	44.7647
570.424	45.6943
575.12	67.3555
579.813	31.416
584.504	529.755
589.192	1267.68
593.877	2327.19
598.56	3475.31
603.241	5128.03
607.919	6743.36
612.594	8731.34
617.267	12655.2
621.937	22183
626.604	36773.7
631.269	45009.5
635.932	35512.3
640.592	18872.2
645.249	10499.2
649.904	6824.43
654.556	4581.46
659.206	3133.2
663.853	2317.12
668.497	1703.37
673.139	1444.36
677.779	1274.95
682.416	1450.08
687.05	1978.43
691.682	2215.45
696.311	2574.2
700.937	2219.38
705.561	1955.12
710.183	1840.82
714.802	1771.8
719.418	2043.34
724.032	2067.78
728.643	2103.24
733.251	2208.7
737.857	2384.08
742.461	2644.35
747.062	2681.88
751.66	3095.16
756.256	3330.72
760.849	4623.64
765.44	7278.2
770.028	11548.2
774.613	12872
779.196	10422.3
783.777	6574.47
788.354	4321.82
792.93	3245.47
797.502	2530.75
802.072	2046.3
806.64	1291.98
811.205	868.92
815.767	517.817
820.327	187.616
824.884	76.9951
829.439	199.933
833.991	220.421
838.541	108.872
843.087	13.7988
847.632	140.881
852.174	189.808
856.713	274.31
861.25	440.342
865.784	438.677
870.315	519.623
874.844	332.89
879.371	130.69
883.894	123.624
888.416	7.03516
892.934	54.1309
897.45	151.888
901.964	18.5088
906.475	8.22949
910.983	11.96
915.489	13.5381
919.992	24.1094
924.493	83.9893
928.991	26.6475
933.486	47.8477
937.979	214.157
942.47	289.843
946.957	347.519
951.443	235.61
955.925	549.575
960.405	498.752
964.883	583.399
969.358	551.121
973.83	436.789
978.3	710.269
982.767	554.51
987.232	393.68
991.694	513.531
996.153	514.375
1000.61	483.377
1005.06	401.816
1009.52	556.63
1013.97	453.093
1018.41	652.412
1022.86	585.974
1027.3	637.002
1031.74	479.55
1036.17	589.524
1040.61	504.181
1045.04	556.452
1049.47	548.183
1053.89	242.002
1058.32	225.459
1062.74	205.963
1067.15	205.32
1071.57	399.236
1075.98	224.439
1080.39	179.56
1084.8	308.685
1089.21	285.232
1093.61	73.9023
1098.01	143.052
1102.41	245.81
1106.8	335.315
1111.19	182.414
1115.59	243.977
1119.97	132.871
1124.36	326.499
1128.74	339.056
1133.12	310.356
1137.5	324.82
1141.87	237.218
1146.24	255.653
1150.61	164.754
1154.98	206.077
1159.34	180.133
1163.7	48.5625
1168.06	211.03
1172.42	77.5781
1176.77	227.567
1181.12	12.4336
1185.47	24.3125
1189.82	50.0449
1194.16	64.0352
1198.5	30.1309
1202.84	169.045
1207.18	120.638
1211.51	113.292
1215.84	64.7393
1220.17	153.953
1224.5	49.0742
1228.82	11.1025
1233.14	166.375
1237.46	102.844
1241.77	12.7012
1246.09	39.4551
1250.39	15.0215
1254.7	27.1914
1259.01	83.9102
1263.31	174.81
1267.61	80.6152
1271.91	55.2236
1276.2	219.647
1280.49	59.7969
1284.78	194.077
1289.07	259.544
1293.35	165.825
1297.64	247.408
1301.91	101.732
1306.19	120.569
1310.46	204.627
1314.74	272.463
1319.01	127.232
1323.27	12.4707
1327.54	108.906
1331.8	190.769
1336.06	193.852
1340.31	96.1504
1344.57	57.4209
1348.82	138.693
1353.06	202.847
1357.31	299.775
1361.55	72.1338
1365.79	170.91
1370.03	270.826
1374.27	313.659
1378.5	211.242
1382.73	310.94
1386.96	223.35
1391.18	180.605
1395.4	212.822
1399.62	49.2031
1403.84	32.9297
1408.06	19.1221
1412.27	147.375
1416.48	81.1406
1420.69	23.8555
1424.89	71.9785
1429.09	191.361
1433.29	165.201
1437.49	202.969
1441.68	208.742
1445.87	234.33
1450.06	250.885
1454.25	221.867
1458.43	246.772
1462.62	413.078
1466.79	426.178
1470.97	476.963
1475.14	290.678
1479.31	300.441
1483.48	345
1487.65	370.871
1491.81	217.793
1495.97	262.648
1500.13	331.277
1504.29	262.676
1508.44	521.106
1512.59	418.647
1516.74	473.242
1520.88	334.822
1525.03	498.205
1529.17	343.486
1533.3	328.332
1537.44	257.002
1541.57	222.912
1545.7	93.1445
1549.83	33.2812
1553.95	247.418
1558.08	181.805
1562.19	163.541
