Measurement: Raman, 514 nm, ccw, Raman Data Processed
Mineral: Cassiterite
Rruff sample: R060563
Ideal chemistry: SnO_2_
Locality: unknown
Source: Gemological Institute of America
Description: Dark brown fragment
Measured chemistry: Sn_1.00_O_2_
Pin_id: L01330
Orientation: Laser parallel to -a* (-1 0 0). Fiducial mark perpendicular to laser is parallel to c [0 0 1]
Raman shift (cm-1)	intensity
114.44	0
119.365	70.1055
124.288	168.688
129.209	51.8024
134.127	83.2515
139.043	139.152
143.956	38.8608
148.867	28.4578
153.775	43.7535
158.681	34.9302
163.585	125.04
168.486	101.357
173.385	68.6466
178.282	19.3381
183.176	8.68555
188.067	54.0386
192.956	67.1205
197.843	57.1477
202.727	177.546
207.609	29.0648
212.489	187.74
217.366	336.283
222.24	472.498
227.112	375.334
231.982	362.993
236.849	419.735
241.714	449.604
246.577	592.147
251.437	635.064
256.294	586.885
261.149	827.556
266.002	632.169
270.852	538.107
275.7	215.258
280.545	132.261
285.388	102.726
290.229	30.6648
295.067	111.002
299.902	101.126
304.735	157.972
309.566	130.45
314.394	252.67
319.22	286.543
324.043	293.44
328.864	312.675
333.682	266.631
338.498	193.566
343.311	222.532
348.122	188.135
352.931	118.391
357.737	8.90161
362.54	27.3037
367.341	4.56494
372.14	84.9358
376.936	34.5066
381.73	34.8555
386.521	45.1631
391.31	4.02515
396.096	54.654
400.88	58.5259
405.661	129.661
410.44	206.976
415.216	242.464
419.99	293.151
424.761	375.068
429.53	830.24
434.297	1329.54
439.061	1146.01
443.822	784.724
448.581	634.55
453.337	692.303
458.091	846.392
462.843	1524.84
467.592	3302.67
472.338	5636.93
477.082	4126.62
481.824	2125.75
486.563	1867.31
491.3	2215.3
496.034	2590.8
500.765	2532.69
505.494	2187.52
510.221	1806.31
514.945	1272.45
519.666	797.652
524.385	464.096
529.102	565.06
533.816	1046.94
538.527	1321.63
543.236	1258.93
547.943	946.945
552.647	653.636
557.348	415.022
562.047	193.104
566.744	38.8862
571.438	3.375
576.129	88.5688
580.818	92.2441
585.504	20.6536
590.188	200.716
594.87	583.497
599.549	1016.18
604.225	1754.61
608.899	2879.78
613.57	4771.7
618.239	8918.43
622.905	19704.9
627.569	41077.2
632.23	55998.6
636.889	37217.2
641.545	16511
646.198	8241
650.849	5003.13
655.498	3371.21
660.144	2642.11
664.787	2138.74
669.428	2081.22
674.067	2018.48
678.703	2190.47
683.336	2421.15
687.967	2980.51
692.595	3413.56
697.221	2819.86
701.844	1510.18
706.465	822.143
711.083	622.706
715.698	707.793
720.311	691.022
724.922	527.142
729.53	319.108
734.135	325.649
738.738	251.747
743.338	157.385
747.936	114.546
752.531	43.2124
757.124	50.3633
761.714	193.405
766.302	1007.06
770.887	2191.63
775.469	2717.36
780.049	1905.41
784.626	910.787
789.201	499.743
793.773	365.884
798.343	271.324
802.91	237.245
807.475	144.316
812.037	222.448
816.596	148.374
821.153	119.38
825.707	68.4363
830.259	24.4856
834.808	84.5596
839.355	252.574
843.899	559.537
848.441	725.427
852.98	796.354
857.516	767.5
862.05	889.631
866.581	762.634
871.11	671.487
875.636	465.122
880.159	338.544
884.68	196.733
889.199	126.67
893.714	76.2786
898.228	2.59265
902.738	107.765
907.246	48.2628
911.752	36.9753
916.255	16.625
920.755	1.80212
925.253	15.9846
929.748	39.6982
934.241	26.3007
938.731	25.5395
943.218	108.964
947.703	196.449
952.186	263.585
956.665	365.159
961.142	500.094
965.617	630.572
970.089	712.73
974.558	721.276
979.025	565.323
983.489	419.865
987.951	302.897
992.41	238.411
996.866	269.397
1001.32	266.854
1005.77	301.78
1010.22	294.173
1014.67	277.031
1019.11	285.356
1023.55	344.148
1027.99	355.41
1032.42	319.33
1036.86	358.771
1041.29	306.104
1045.72	212.336
1050.14	212.791
1054.56	65.3392
1058.98	41.3552
1063.4	37.1344
1067.82	56.2832
1072.23	12.9141
1076.64	39.9875
1081.05	50.5579
1085.45	94.8658
1089.85	89.3876
1094.25	116.535
1098.65	125.331
1103.04	167.798
1107.43	213.943
1111.82	228.776
1116.21	293.304
1120.59	373.535
1124.97	420.407
1129.35	485.07
1133.73	472.462
1138.1	407.568
1142.47	361.445
1146.84	280.077
1151.21	277.481
1155.57	237.787
1159.93	155.892
1164.29	102.049
1168.64	48.3154
1172.99	71.8608
1177.34	36.6958
1181.69	73.516
1186.04	78.4065
1190.38	3.91797
1194.72	18.9894
1199.05	0.40918
1203.39	29.1676
1207.72	20.3003
1212.05	0.216187
1216.37	59.355
1220.7	74.4668
1225.02	89.1962
1229.34	100.723
1233.65	120.65
1237.97	114.591
1242.28	127.479
1246.59	218.314
1250.89	177.261
1255.19	232.835
1259.49	250.532
1263.79	254.194
1268.09	298.827
1272.38	316.434
1276.67	293.022
1280.95	296.019
1285.24	375.418
1289.52	310.834
1293.8	381.408
1298.08	347.488
1302.35	383.511
1306.62	358.805
1310.89	323.032
1315.15	208.229
1319.42	212.145
1323.68	122.961
1327.94	98.5471
1332.19	90.9465
1336.44	95.5669
1340.69	3.25024
1344.94	36.1122
1349.19	3.78992
1353.43	83.6274
1357.67	91.5411
1361.9	99.7809
1366.14	183.027
1370.37	247.969
1374.6	279.658
1378.83	330.27
1383.05	264.901
1387.27	248.56
1391.49	135.246
1395.7	96.9608
1399.92	38.7041
1404.13	36.4731
1408.34	53.7477
1412.54	45.9963
1416.74	24.2511
1420.94	8.47803
1425.14	14.4403
1429.34	28.4105
1433.53	76.0876
1437.72	85.1219
1441.9	154.955
1446.09	170.535
1450.27	187.722
1454.45	293.838
1458.63	358.149
1462.8	309.248
1466.97	442.993
1471.14	379.683
1475.31	446.645
1479.47	438.835
1483.63	477.279
1487.79	472.012
1491.94	596.46
1496.09	579.436
1500.24	687.292
1504.39	706.377
1508.54	824.655
1512.68	859.755
1516.82	813.851
1520.95	792.845
1525.09	691.811
1529.22	667.414
1533.35	560.978
1537.47	576.243
1541.6	433.134
1545.72	392.87
1549.83	270.565
1553.95	265.162
1558.06	137.211
1562.17	61.9098
1566.28	7.68665
1570.38	0
