Measurement: Raman, 514 nm, ccw, Raman Data Processed
Mineral: Cassiterite
Rruff sample: R040017
Ideal chemistry: SnO_2_
Locality: Bolivia
Source: University of Arizona Mineral Museum
Description: Dark brown short prismatic single crystals
Measured chemistry: Sn_1.00_O_2_; trace amounts of Fe
Pin_id: M00048
Orientation: Laser parallel to -c* (0 0 -1). Fiducial mark perpendicular to laser is parallel to a [1 0 0]
Raman shift (cm-1)	intensity
184.981	0
189.127	72.164
193.272	33.587
197.414	0.383
201.555	27.031
205.693	60.185
209.83	39.035
213.964	9.508
218.096	110.059
222.226	107.328
226.355	115.015
230.481	161.686
234.605	163.534
238.727	164.887
242.847	240.647
246.965	202.282
251.08	239.77
255.194	219.139
259.306	249.727
263.416	261.213
267.524	162.969
271.629	12.782
275.733	91.854
279.835	97.987
283.934	16.59
288.032	91.068
292.127	143.091
296.221	156.656
300.312	219.996
304.402	215.262
308.489	120.149
312.575	135.967
316.658	119.833
320.74	99.746
324.819	87.711
328.897	21.28
332.972	35.247
337.045	84.828
341.117	54.724
345.186	9.839
349.253	33.926
353.319	4.911
357.382	44.434
361.443	22.542
365.503	1.569
369.56	0.156
373.616	32.828
377.669	2.289
381.72	57.874
385.77	150.264
389.817	184.784
393.863	214.329
397.906	271.905
401.947	369.513
405.987	456.156
410.024	714.833
414.06	1000.54
418.093	1147.85
422.125	1185.5
426.154	1396.84
430.182	1853.7
434.208	2267.33
438.231	2647.32
442.253	3103.21
446.273	3617.16
450.29	3817.17
454.306	3559.19
458.32	3101.37
462.332	2529.58
466.341	2069.86
470.349	1614.2
474.355	1246.58
478.359	1065.96
482.361	974.473
486.361	967.02
490.359	810.553
494.356	815.197
498.35	836.791
502.342	769.906
506.332	624.068
510.321	523.488
514.307	423.29
518.292	269.376
522.274	163.735
526.255	62.947
530.233	108.251
534.21	172.644
538.185	269.129
542.158	352.706
546.129	252.377
550.098	225.152
554.065	264.047
558.03	167.054
561.993	89.207
565.954	101.532
569.913	78.055
573.871	73.747
577.826	21.544
581.78	31.435
585.731	84.419
589.681	213.499
593.629	315.674
597.575	354.945
601.519	542.31
605.461	805.77
609.401	1162.33
613.339	1467
617.275	2085.81
621.21	3203.75
625.142	5536.84
629.073	11289.1
633.001	19224.4
636.928	15269.9
640.853	7595.45
644.776	4202.16
648.697	2662.99
652.616	1832.95
656.534	1379.01
660.449	1138.17
664.362	1041.44
668.274	806.79
672.184	690.216
676.092	593.715
679.997	603.285
683.901	675.923
687.804	695.111
691.704	742.673
695.602	766.894
699.499	579.371
703.393	381.653
707.286	333.578
711.177	266.603
715.066	286.668
718.953	288.771
722.838	217.753
726.722	204.922
730.603	179.121
734.483	153.347
738.361	166.604
742.236	176.876
746.11	158.35
749.983	194.687
753.853	147.947
757.721	149.814
761.588	223.885
765.453	409.551
769.315	888.848
773.176	1389.31
777.036	1502.62
780.893	1113.08
784.748	725.897
788.602	555.146
792.454	392.551
796.303	298.962
800.151	283.823
803.998	215.206
807.842	183.415
811.685	145.508
815.525	131.63
819.364	77.549
823.201	11.405
827.036	9.197
830.869	8.104
834.701	21.506
838.531	22.038
842.358	31.709
846.184	80.517
850.008	68.675
853.831	58.761
857.651	112.775
861.47	108.718
865.287	91.583
869.102	104.371
872.915	96.077
876.726	70.701
880.536	15.242
884.343	40.693
888.149	31.96
891.953	21.768
895.756	27.736
899.556	8.11
903.355	17.235
907.152	51.746
910.947	10.417
914.74	29.241
918.531	46.769
922.321	42.631
926.109	4.641
929.895	62.951
933.679	19.487
937.461	63.896
941.242	108.171
945.021	90.367
948.798	67.541
952.573	99.513
956.346	93.387
960.118	118.143
963.888	164.313
967.656	204.71
971.422	203.972
975.186	189.442
978.949	192.144
982.71	174.333
986.469	150.462
990.226	160.541
993.982	179.565
997.735	134.4
1001.49	93.147
1005.24	100.804
1008.99	156.369
1012.73	170.906
1016.48	205.162
1020.22	172.521
1023.96	180.716
1027.7	187.707
1031.44	214.305
1035.17	202.083
1038.91	244.845
1042.64	161.355
1046.37	135.606
1050.1	106.175
1053.83	91.113
1057.55	106.261
1061.28	113.733
1065	79.885
1068.72	131.497
1072.44	101.58
1076.15	65.869
1079.87	39.136
1083.58	83.465
1087.29	86.487
1091	75.705
1094.71	87.649
1098.42	49.863
1102.12	93.775
1105.82	62.962
1109.53	69.06
1113.22	47.823
1116.92	79.649
1120.62	104.454
1124.31	58.018
1128	83.725
1131.69	57.211
1135.38	103.158
1139.07	86.636
1142.76	65.092
1146.44	57.375
1150.12	91.704
1153.8	38.042
1157.48	11.245
1161.15	32.906
1164.83	11.059
1168.5	76.391
1172.17	62.47
1175.84	13.629
1179.51	12.946
1183.18	20.88
1186.84	22.953
1190.51	6.961
1194.17	66.709
1197.83	20.044
1201.48	44.055
1205.14	53.305
1208.79	72.864
1212.45	45.617
1216.1	62.819
1219.75	25.092
1223.39	45.369
1227.04	6.626
1230.68	63.505
1234.33	78.925
1237.96	53.642
1241.6	40.148
1245.24	57.434
1248.88	33.788
1252.51	45.031
1256.14	19.141
1259.77	76.186
1263.4	79.823
1267.03	55.288
1270.65	69.534
1274.28	63.387
1277.9	59.033
1281.52	48.973
1285.14	59.728
1288.76	14.888
1292.37	52.559
1295.98	37.731
1299.6	58.772
1303.21	60.709
1306.81	14.008
1310.42	65.522
1314.03	10.028
1317.63	33.854
1321.23	33.285
1324.83	23.208
1328.43	28.876
1332.03	43.238
1335.62	71.801
1339.21	81.191
1342.81	67.369
1346.4	41.465
1349.98	32.399
1353.57	3.469
1357.16	31.23
1360.74	1.754
1364.32	58.811
1367.9	113.877
1371.48	86.861
1375.06	89.834
1378.63	96.681
1382.2	81.487
1385.78	33.164
1389.35	12.298
1392.91	7.998
1396.48	3.235
1400.05	17.146
1403.61	62.894
1407.17	42.586
1410.73	54.634
1414.29	67.835
1417.85	53.608
1421.4	38.543
1424.96	73.089
1428.51	30.506
1432.06	45.003
1435.61	23.878
1439.15	26.846
1442.7	124.675
1446.24	99.84
1449.79	116.343
1453.33	106.527
1456.87	109.491
1460.4	113.04
1463.94	145.339
1467.47	108.151
1471	64.038
1474.54	75.747
1478.06	17.813
1481.59	113.429
1485.12	119.679
1488.64	129.364
1492.16	160.455
1495.68	127.78
1499.2	97.31
1502.72	120.008
1506.24	72.059
1509.75	72.066
1513.27	127.154
1516.78	44.562
1520.29	3.649
1523.79	0
