Measurement: Raman, 514 nm, ccw, Raman Data Processed
Mineral: Cassiterite
Rruff sample: R060563
Ideal chemistry: SnO_2_
Locality: unknown
Source: Gemological Institute of America
Description: Dark brown fragment
Measured chemistry: Sn_1.00_O_2_
Pin_id: L01474
Orientation: Laser parallel to c* (0 0 1). Fiducial mark perpendicular to laser is parallel to a [1 0 0]
Raman shift (cm-1)	intensity
114.44	0
119.365	165.003
124.288	513.89
129.209	44.4512
134.127	3.56055
139.043	70.9927
143.956	20.2822
148.867	74.6162
153.775	118.733
158.681	47.5732
163.585	43.7998
168.486	17.7939
173.385	58.0361
178.282	20.4492
183.176	14.0063
188.067	1.23731
192.956	17.4868
197.843	34.1313
202.727	167.494
207.609	116.484
212.489	70.2144
217.366	325.357
222.24	401.853
227.112	419.042
231.982	462.828
236.849	616.234
241.714	811.318
246.577	358.192
251.437	470.107
256.294	430.162
261.149	671.229
266.002	632.606
270.852	477.6
275.7	313.795
280.545	252.977
285.388	241.327
290.229	181.572
295.067	192.096
299.902	292.548
304.735	246.21
309.566	291.442
314.394	212.56
319.22	384.938
324.043	459.274
328.864	353.648
333.682	347.59
338.498	329.382
343.311	371.729
348.122	432.276
352.931	257.111
357.737	275.258
362.54	259.297
367.341	208.83
372.14	242.853
376.936	263.363
381.73	421.296
386.521	412.707
391.31	470.952
396.096	371.315
400.88	420.107
405.661	581.323
410.44	449.988
415.216	446.098
419.99	387.655
424.761	338.664
429.53	391.148
434.297	427.772
439.061	428.085
443.822	421.273
448.581	324.293
453.337	345.907
458.091	420.981
462.843	726.499
467.592	1208.51
472.338	1230.93
477.082	1032.93
481.824	926.936
486.563	1016.57
491.3	1040.56
496.034	1331.85
500.765	1345.79
505.494	1022.01
510.221	644.584
514.945	409.528
519.666	112.836
524.385	63.5576
529.102	26.9526
533.816	310.811
538.527	744.924
543.236	742.382
547.943	413.184
552.647	375.321
557.348	301.793
562.047	29.6714
566.744	25.9087
571.438	66.5864
576.129	130.376
580.818	61.8755
585.504	60.688
590.188	219.508
594.87	539.978
599.549	1110.73
604.225	1771.84
608.899	2923.16
613.57	4421.74
618.239	7935.6
622.905	16514.7
627.569	36405.1
632.23	58545
636.889	40806.3
641.545	17076.2
646.198	8365.55
650.849	4957.51
655.498	3236.89
660.144	2229.64
664.787	1741.69
669.428	1380.8
674.067	1325.35
678.703	1072.12
683.336	1305.1
687.967	1493.27
692.595	1625.62
697.221	1525.15
701.844	743.898
706.465	321.144
711.083	365.322
715.698	383.239
720.311	179.304
724.922	225.447
729.53	194.842
734.135	70.6773
738.738	16.6811
743.338	50.8428
747.936	132.153
752.531	310.607
757.124	714.197
761.714	1684.14
766.302	4052.75
770.887	7647.23
775.469	9212.5
780.049	6722.21
784.626	3813.31
789.201	2633.23
793.773	1976.35
798.343	1643.63
802.91	1325.11
807.475	873.921
812.037	739.833
816.596	553.654
821.153	324.838
825.707	85.9409
830.259	134.958
834.808	93.1157
839.355	2.50732
843.899	293.964
848.441	390.375
852.98	465.06
857.516	506.08
862.05	541.226
866.581	493.317
871.11	418.25
875.636	347.013
880.159	371.532
884.68	144.936
889.199	115.147
893.714	155.159
898.228	53.9487
902.738	22.4336
907.246	88.585
911.752	68.5225
916.255	32.0986
920.755	44.4263
925.253	139.382
929.748	7.94092
934.241	83.3857
938.731	69.2773
943.218	77.8857
947.703	125.841
952.186	195.607
956.665	359.021
961.142	339.156
965.617	462.441
970.089	600.241
974.558	530.082
979.025	413.141
983.489	385.93
987.951	268.446
992.41	304.679
996.866	288.623
1001.32	318.773
1005.77	329.633
1010.22	289.819
1014.67	385.476
1019.11	375.964
1023.55	448.166
1027.99	415.084
1032.42	459.419
1036.86	450.692
1041.29	436.824
1045.72	382.797
1050.14	273.055
1054.56	223.255
1058.98	104.823
1063.4	131.651
1067.82	102.041
1072.23	12.604
1076.64	219.083
1081.05	9.479
1085.45	108.121
1089.85	185.519
1094.25	245.242
1098.65	126.887
1103.04	195.422
1107.43	221.889
1111.82	294.196
1116.21	317.685
1120.59	360.313
1124.97	348.128
1129.35	377.785
1133.73	345.288
1138.1	371.668
1142.47	272.933
1146.84	222.151
1151.21	248.297
1155.57	107.39
1159.93	166.468
1164.29	99.375
1168.64	114.134
1172.99	22.9033
1177.34	183.962
1181.69	17.063
1186.04	31.2119
1190.38	39.3462
1194.72	38.4136
1199.05	62.082
1203.39	64.9644
1207.72	118.811
1212.05	105.852
1216.37	10.7812
1220.7	165.823
1225.02	93.5303
1229.34	174.036
1233.65	234.903
1237.97	128.671
1242.28	184.278
1246.59	272.78
1250.89	169.18
1255.19	193.481
1259.49	99.6846
1263.79	294.795
1268.09	273.783
1272.38	166.701
1276.67	264.334
1280.95	236.665
1285.24	244.66
1289.52	102.471
1293.8	146.696
1298.08	215.844
1302.35	239.806
1306.62	164.039
1310.89	189.943
1315.15	117.57
1319.42	194.417
1323.68	37.1973
1327.94	55.5703
1332.19	159.268
1336.44	84.71
1340.69	57.082
1344.94	44.4004
1349.19	146.781
1353.43	15.874
1357.67	48.3057
1361.9	5.30371
1366.14	65.0439
1370.37	8.48438
1374.6	76.8906
1378.83	221.27
1383.05	216.623
1387.27	163.947
1391.49	40.752
1395.7	38.5029
1399.92	72.7002
1404.13	126.833
1408.34	17.0791
1412.54	90.0078
1416.74	78.1475
1420.94	72.5205
1425.14	64.1934
1429.34	225.204
1433.53	247.627
1437.72	322.754
1441.9	147.946
1446.09	213.653
1450.27	275.125
1454.45	310.897
1458.63	376.888
1462.8	405.809
1466.97	426.137
1471.14	492.085
1475.31	309.26
1479.47	358.622
1483.63	485.413
1487.79	399.549
1491.94	572.802
1496.09	451.242
1500.24	529.81
1504.39	688.427
1508.54	643.878
1512.68	779.187
1516.82	679.765
1520.95	742.277
1525.09	741.074
1529.22	583.411
1533.35	572.758
1537.47	557.804
1541.6	425.674
1545.72	378.949
1549.83	284.276
1553.95	284.381
1558.06	219.509
1562.17	162.723
1566.28	62.0967
1570.38	0
