Measurement: Raman, 514 nm, ccw, Raman Data Processed
Mineral: Cassiterite
Rruff sample: R040072
Ideal chemistry: SnO_2_
Locality: Bolivia
Source: University of Arizona Mineral Museum
Description: Black fragment
Measured chemistry: Sn_0.99_O_2_
Pin_id: L00343
Orientation: Laser parallel to c* (0 0 1). Fiducial mark perpendicular to laser is parallel to a [1 0 0]
Raman shift (cm-1)	intensity
189.818	0
193.963	4.215
198.105	7.251
202.245	45.536
206.383	36.791
210.519	8.966
214.653	150.018
218.785	294.607
222.915	213.868
227.042	211.562
231.168	181.741
235.292	192.95
239.413	193.779
243.533	300.093
247.651	299.369
251.766	285.759
255.88	334.703
259.991	347.671
264.101	444.912
268.208	299.474
272.313	175.406
276.417	97.469
280.518	17.071
284.617	22.747
288.715	30.961
292.81	25.008
296.903	19.564
300.994	41.645
305.083	15.75
309.17	45.375
313.256	22.695
317.339	12.167
321.42	101.078
325.499	105.287
329.576	64.424
333.651	39.543
337.724	76.054
341.795	115.799
345.864	67.364
349.931	6.694
353.996	4.911
358.059	28.46
362.12	52.477
366.179	70.801
370.236	53.346
374.291	65.104
378.344	9.047
382.395	26.132
386.444	2.424
390.491	77.045
394.537	14.339
398.58	18.51
402.621	27.552
406.66	0.428
410.697	7.429
414.732	33.562
418.765	6.453
422.797	49.555
426.826	17.208
430.853	13.762
434.878	55.659
438.902	33.94
442.923	32.196
446.942	5.518
450.96	40.784
454.975	154.123
458.989	195.159
463	335.224
467.01	449.582
471.017	620.423
475.023	648.353
479.026	662.377
483.028	758.472
487.028	982.657
491.026	1120.88
495.021	1403.09
499.015	1382.35
503.007	1148.01
506.997	1116.15
510.985	967.854
514.971	710.085
518.956	471.734
522.938	367.604
526.918	355.503
530.896	446.581
534.873	655.863
538.847	944.775
542.82	1055.81
546.79	889.181
550.759	717.541
554.726	617.246
558.69	589.432
562.653	520.712
566.614	464.089
570.573	341.119
574.53	287.454
578.485	310.542
582.438	376.842
586.39	379.362
590.339	415.577
594.287	688.515
598.232	995.668
602.176	1374.04
606.118	1721.63
610.057	2389.43
613.995	3517.43
617.931	5751.65
621.865	9418.1
625.797	17536.8
629.728	37675.8
633.656	51775
637.582	30304.5
641.507	13944.3
645.43	7365.35
649.35	4704.75
653.269	3452.47
657.186	2611.52
661.101	2013.91
665.014	1624.59
668.926	1430.53
672.835	1333.69
676.743	1358.07
680.648	1217.67
684.552	1201.48
688.454	1374.5
692.354	1772.73
696.252	1737.17
700.148	1090.82
704.042	498.658
707.935	385.716
711.825	436.002
715.714	555.493
719.601	487.171
723.486	318.035
727.369	261.08
731.25	293.31
735.129	308.715
739.007	252.29
742.882	220.033
746.756	195.939
750.628	298.005
754.498	389.347
758.366	538.949
762.232	917.787
766.096	1983.89
769.959	3987.85
773.82	5831.75
777.679	5402.99
781.536	3405.06
785.391	2107.68
789.244	1561.97
793.095	1239.73
796.945	1117.26
800.793	896.107
804.639	699.61
808.483	520.194
812.325	468.534
816.165	419.464
820.004	209.449
823.84	160.483
827.675	61.559
831.508	25.67
835.339	90.813
839.169	127.982
842.996	213.172
846.822	283.38
850.646	274.599
854.468	371.825
858.288	416.052
862.106	461.278
865.923	387.497
869.737	260.704
873.55	255.895
877.361	221.065
881.17	173.211
884.978	133.328
888.783	37.411
892.587	52.547
896.389	42.579
900.189	29.717
903.988	76.984
907.784	18.409
911.579	51.984
915.372	96.734
919.163	87.69
922.952	51.847
926.74	7.934
930.525	44.898
934.309	35.694
938.091	18.731
941.872	3.041
945.65	12.188
949.427	124.198
953.202	170.399
956.975	173.315
960.746	147.15
964.516	249.644
968.283	301.042
972.049	434.339
975.813	399.535
979.576	301.627
983.336	204.613
987.095	141.492
990.852	97.262
994.607	171.921
998.361	140.468
1002.11	239.901
1005.86	180.219
1009.61	164.421
1013.36	170.506
1017.1	247.474
1020.84	240.323
1024.59	307.082
1028.32	306.68
1032.06	310.612
1035.8	239.412
1039.53	215.947
1043.26	205.295
1046.99	208.543
1050.72	178.737
1054.45	133.421
1058.17	39.182
1061.9	30.748
1065.62	2.057
1069.34	36.421
1073.06	31.935
1076.77	60.931
1080.49	63.286
1084.2	33.367
1087.91	54.28
1091.62	29.171
1095.33	86.15
1099.04	126.009
1102.74	131.895
1106.44	138.115
1110.14	184.522
1113.84	146.824
1117.54	152.019
1121.23	241.105
1124.93	218.08
1128.62	212.949
1132.31	185.715
1136	183.381
1139.68	182.961
1143.37	124.457
1147.05	124.869
1150.73	108.204
1154.41	131.459
1158.09	88.646
1161.77	62.757
1165.44	68.815
1169.12	42.842
1172.79	22.022
1176.45	3.652
1180.12	68.037
1183.79	92.002
1187.45	82.87
1191.12	25.937
1194.78	17.807
1198.43	14.253
1202.09	9.547
1205.75	14.306
1209.4	27.058
1213.05	88.846
1216.7	131.083
1220.35	134.536
1224	68.987
1227.65	104.09
1231.29	134.877
1234.93	184.776
1238.57	185.892
1242.21	186.971
1245.85	181.747
1249.48	159.248
1253.12	207.577
1256.75	163.89
1260.38	135.459
1264.01	170.867
1267.63	161.538
1271.26	179.537
1274.88	179.09
1278.5	185.965
1282.12	173.713
1285.74	155.27
1289.36	146.408
1292.97	140.716
1296.59	178.195
1300.2	166.471
1303.81	124.039
1307.41	117.057
1311.02	171.481
1314.63	132.432
1318.23	118.779
1321.83	88.477
1325.43	84.831
1329.03	63.99
1332.62	69.845
1336.22	61.203
1339.81	80.015
1343.4	38.968
1346.99	12.499
1350.58	8.773
1354.17	6.496
1357.75	23.974
1361.34	30.817
1364.92	36.381
1368.5	79.418
1372.08	90.945
1375.65	96.031
1379.23	106.667
1382.8	110.859
1386.37	49.619
1389.94	44.96
1393.51	27.923
1397.08	34.782
1400.64	16.601
1404.2	14.139
1407.77	1.614
1411.33	31.881
1414.88	9.263
1418.44	16.005
1421.99	19.584
1425.55	26.723
1429.1	11.812
1432.65	14.564
1436.2	61.404
1439.74	70.725
1443.29	99.19
1446.83	168.917
1450.38	174.577
1453.92	247.391
1457.45	223.142
1460.99	257.42
1464.53	195.282
1468.06	168.171
1471.59	124.063
1475.12	89.967
1478.65	33.51
1482.18	32.224
1485.7	68.72
1489.23	104.389
1492.75	128.604
1496.27	122.817
1499.79	179.219
1503.31	206.297
1506.82	196.535
1510.34	143.613
1513.85	157.46
1517.36	95.827
1520.87	2.592
