Measurement: Raman, 514 nm, ccw, Raman Data Processed
Mineral: Cassiterite
Rruff sample: R050502
Ideal chemistry: SnO_2_
Locality: Redruth, Cornwall, England
Source: California Institute of Technology
Description: Black crystals associated with colorless quartz and grey stannite.
Measured chemistry: SnO_2_
Pin_id: M00499
Orientation: Laser parallel to a* (1 0 0). Fiducial mark perpendicular to laser is parallel to -c [0 0 -1]
Raman shift (cm-1)	intensity
185.791	0
190.715	1.62695
195.636	375.673
200.554	910.831
205.469	1522.06
210.38	2586.49
215.288	4276.85
220.194	6278.52
225.096	8403.13
229.994	10412.3
234.89	11255.9
239.783	10733.2
244.672	8028.08
249.558	4842.78
254.441	2756.71
259.321	1563.6
264.198	723.674
269.072	419.323
273.943	971.726
278.81	2972.99
283.675	4305.86
288.536	3604.39
293.395	2755.07
298.25	1936.64
303.102	1492.12
307.951	1249.15
312.797	826.272
317.64	662.578
322.48	640.995
327.317	530.513
332.151	511.696
336.982	557.974
341.81	747.782
346.634	1035.02
351.456	1204.14
356.275	1131.25
361.091	442.734
365.903	66.2056
370.713	247.844
375.52	286.796
380.323	165.144
385.124	229.326
389.922	288.943
394.717	291.988
399.508	300.274
404.297	277.473
409.083	77.7427
413.866	27.061
418.646	95.7549
423.423	294.588
428.197	630.645
432.968	839.83
437.736	1003.15
442.502	1053.78
447.264	1201.45
452.024	1829.02
456.78	2980.39
461.534	4309.51
466.284	5728.65
471.032	5876.35
475.777	4951.88
480.519	4305.4
485.258	4156.25
489.995	4292.86
494.728	4455.44
499.459	4377.01
504.186	4212.25
508.911	4157.8
513.633	3618.09
518.352	3438.06
523.069	3280.07
527.782	3245.39
532.493	3325.23
537.2	3387.52
541.905	3652.49
546.608	3556.47
551.307	3772.2
556.003	3927.79
560.697	4042.33
565.388	4025.73
570.076	3969.03
574.761	3662.36
579.444	3781.36
584.124	3907.17
588.801	4491.9
593.475	5507.61
598.146	6256.39
602.815	7519.33
607.481	9091.91
612.144	11089
616.805	14384.8
621.462	22213.2
626.117	38820.4
630.769	56366.3
635.419	48986.2
640.066	27829
644.71	15034.6
649.351	9632.59
653.99	6520.98
658.625	4580.12
663.259	3236.89
667.889	2373.07
672.517	1739.82
677.142	1517.67
681.765	1547.34
686.384	1652.77
691.001	2110.65
695.616	2354.02
700.228	2065.66
704.837	1735.82
709.443	2065.43
714.047	2433.38
718.648	2776.25
723.246	3076.99
727.842	3408.36
732.435	3321.92
737.026	3453.98
741.614	3439.69
746.199	3430.98
750.782	3494.2
755.362	3311.17
759.94	3156.05
764.514	3122.58
769.087	4067.24
773.656	4821.74
778.224	4004.57
782.788	2426.39
787.35	1268.96
791.909	835.875
796.466	424.38
801.02	170.974
805.572	4.03857
810.121	83.7891
814.668	170.132
819.212	275.657
823.753	306.074
828.292	299.892
832.829	236.986
837.362	238.186
841.894	65.2647
846.423	104.46
850.949	199.436
855.473	230.686
859.994	287.697
864.513	422.427
869.029	392.287
873.543	314.847
878.054	329.453
882.563	202.859
887.069	125.099
891.573	55.8721
896.074	80.6985
900.573	127.474
905.069	32.8506
909.563	46.6125
914.055	143.712
918.544	126.507
923.03	123.19
927.514	172.08
931.996	202.748
936.475	260.896
940.952	325.031
945.426	341.933
949.898	457.587
954.368	431.695
958.835	514.941
963.299	572.826
967.762	554.504
972.221	631.769
976.679	611.848
981.134	468.589
985.587	446.937
990.037	383.349
994.485	406.943
998.93	390.584
1003.37	449.841
1007.81	401.735
1012.25	421.281
1016.69	514.496
1021.12	476.872
1025.55	541.847
1029.98	516.323
1034.41	566.116
1038.83	515.841
1043.26	462.508
1047.67	300.593
1052.09	268.903
1056.51	209.519
1060.92	131.457
1065.33	70.0999
1069.74	53.2058
1074.14	115.046
1078.55	4.81885
1082.95	20.1719
1087.35	59.6352
1091.74	22.1721
1096.14	47.0068
1100.53	85.269
1104.92	161.834
1109.31	203.527
1113.69	109.023
1118.07	268.144
1122.45	204.742
1126.83	271.661
1131.21	201.526
1135.58	99.2817
1139.95	104.858
1144.32	131.319
1148.69	125.636
1153.05	82.8408
1157.42	8.19165
1161.78	40.8381
1166.13	1.14258
1170.49	7.5
1174.85	22.8306
1179.2	21.2302
1183.55	13.8547
1187.89	95.1816
1192.24	27.6414
1196.58	9.17285
1200.92	79.3218
1205.26	74.2519
1209.59	14.1138
1213.93	1.62524
1218.26	48.823
1222.59	40.4082
1226.91	6.23535
1231.24	94.3726
1235.56	121.692
1239.88	159.193
1244.2	106.875
1248.52	82.7451
1252.83	96.8135
1257.14	135.096
1261.45	118.604
1265.76	105.342
1270.07	97.314
1274.37	115.62
1278.67	115.819
1282.97	153.15
1287.27	31.1167
1291.57	104.737
1295.86	101.112
1300.15	82.5823
1304.44	61.3149
1308.72	170.939
1313.01	108.065
1317.29	16.8655
1321.57	65.4646
1325.85	115.307
1330.12	46.7212
1334.4	7.97803
1338.67	26.5757
1342.94	26.4548
1347.21	104.66
1351.47	34.071
1355.74	33.6946
1360	110.529
1364.26	104.447
1368.52	81.4431
1372.77	117.333
1377.03	123.31
1381.28	101.461
1385.53	189.794
1389.77	163.315
1394.02	77.0247
1398.26	59.9221
1402.5	28.0037
1406.74	69.2795
1410.98	35.2717
1415.21	46.5127
1419.45	8.57788
1423.68	54.9973
1427.91	29.8635
1432.13	72.3569
1436.36	67.8484
1440.58	58.0886
1444.8	127.025
1449.02	142.667
1453.24	187.055
1457.46	187.992
1461.67	219.462
1465.88	229.231
1470.09	272.322
1474.3	305.776
1478.5	287.617
1482.71	260.865
1486.91	349.068
1491.11	399.255
1495.3	314.387
1499.5	336.099
1503.69	436.389
1507.88	446.906
1512.08	528.877
1516.26	463.156
1520.45	493.602
1524.63	338.106
1528.81	369.156
1532.99	232.111
1537.17	259.961
1541.35	227.039
1545.52	134.425
1549.7	46.2078
1553.87	88.5063
1558.04	112.45
1562.2	200.103
