Measurement: Raman, 514 nm, ccw, Raman Data Processed
Mineral: Cassiterite
Rruff sample: R050502
Ideal chemistry: SnO_2_
Locality: Redruth, Cornwall, England
Source: California Institute of Technology
Description: Black crystals associated with colorless quartz and grey stannite.
Measured chemistry: SnO_2_
Pin_id: M00088
Orientation: Laser parallel to -c* (0 0 -1). Fiducial mark perpendicular to laser is parallel to b [0 1 0]
Raman shift (cm-1)	intensity
201.19	0
206.082	106.551
210.971	254.954
215.858	986.755
220.742	1272.91
225.624	2020.68
230.503	2906.32
235.38	5608.84
240.254	4319.94
245.125	3156.03
249.994	1361.91
254.861	975.035
259.725	1071.4
264.586	789.806
269.445	491.645
274.302	828.706
279.155	1101.33
284.007	1451.27
288.855	1960.68
293.702	1857.44
298.545	1764
303.386	1502.4
308.225	1326.55
313.061	1134.18
317.894	980.934
322.725	947.766
327.554	673.446
332.38	714.251
337.203	876.448
342.024	1005.27
346.842	1330.71
351.658	1222.14
356.471	581.16
361.281	97.0459
366.09	411.693
370.895	454.825
375.698	433.128
380.498	258.453
385.296	122.914
390.092	135.022
394.884	303.009
399.675	783.398
404.462	1313.8
409.248	2261.68
414.03	3135.39
418.81	4212.28
423.588	5161.57
428.363	5574.25
433.135	5380.75
437.905	5231.57
442.672	6071.82
447.437	7681.81
452.199	8902.74
456.959	8749.64
461.716	8261.54
466.47	7363.52
471.222	6196.41
475.972	4976.07
480.719	4467.2
485.463	4276.09
490.205	4014.31
494.944	3920.37
499.681	3520.16
504.415	2935.46
509.146	2382.88
513.875	1682.3
518.602	1271.76
523.326	819.266
528.047	623.064
532.766	688.172
537.482	811.962
542.196	878.38
546.907	744.947
551.616	899.121
556.322	882.992
561.025	936.925
565.726	788.129
570.424	374.673
575.12	416.954
579.813	887.683
584.504	1632.95
589.192	2889.78
593.877	4347.18
598.56	5995.15
603.241	8279.72
607.919	10398.9
612.594	13302.6
617.267	19322.1
621.937	33066.5
626.604	51571.9
631.269	51986.4
635.932	36858.9
640.592	20499.5
645.249	12342.2
649.904	8440.68
654.556	5960.96
659.206	4253.89
663.853	2990.93
668.497	2342.12
673.139	1814.84
677.779	1906.16
682.416	1960.98
687.05	2611.42
691.682	2699.19
696.311	2773.24
700.937	2493.89
705.561	2478.55
710.183	3013.22
714.802	3565.59
719.418	4007.61
724.032	4380.21
728.643	4534.31
733.251	4558.86
737.857	4653.78
742.461	4611.01
747.062	4836.56
751.66	4499.09
756.256	4175.16
760.849	4000.29
765.44	4485.83
770.028	5495.74
774.613	5434.98
779.196	4029.79
783.777	2529.22
788.354	1529.04
792.93	981.861
797.502	583.476
802.072	280.32
806.64	122.06
811.205	30.1289
815.767	135.431
820.327	231.205
824.884	304.158
829.439	317.216
833.991	242.124
838.541	191.713
843.087	50.6631
847.632	189.057
852.174	251.514
856.713	437.058
861.25	460.505
865.784	527.936
870.315	446.099
874.844	393.158
879.371	295.796
883.894	155.119
888.416	172.969
892.934	103.102
897.45	125.064
901.964	29.6111
906.475	108.518
910.983	124.531
915.489	87.9468
919.992	145.667
924.493	191.079
928.991	263.267
933.486	214.897
937.979	355.14
942.47	382.613
946.957	469.099
951.443	560.651
955.925	579.138
960.405	631.168
964.883	685.061
969.358	681.501
973.83	719.825
978.3	694.722
982.767	578.657
987.232	595.869
991.694	590.531
996.153	497.691
1000.61	522.399
1005.06	542.754
1009.52	548.769
1013.97	625.401
1018.41	635.601
1022.86	592.639
1027.3	624.037
1031.74	668.224
1036.17	604.214
1040.61	610.885
1045.04	484.988
1049.47	287.377
1053.89	246.69
1058.32	228.909
1062.74	204.195
1067.15	162.605
1071.57	107.69
1075.98	123.956
1080.39	165.95
1084.8	175.207
1089.21	135.261
1093.61	167.533
1098.01	125.603
1102.41	114.683
1106.8	154.852
1111.19	212.753
1115.59	194.084
1119.97	275.74
1124.36	344.729
1128.74	290.169
1133.12	228.052
1137.5	189.495
1141.87	133.343
1146.24	106.884
1150.61	195.002
1154.98	107.796
1159.34	35.0207
1163.7	44.6965
1168.06	53.5281
1172.42	18.6389
1176.77	0.864258
1181.12	12.8901
1185.47	61.0789
1189.82	3.73413
1194.16	55.4958
1198.5	47.7505
1202.84	63.8867
1207.18	55.5518
1211.51	28.1677
1215.84	73.04
1220.17	28.364
1224.5	24.062
1228.82	4.50439
1233.14	13.9248
1237.46	103.901
1241.77	153.07
1246.09	48.5024
1250.39	99.157
1254.7	49.7544
1259.01	149.308
1263.31	55.7913
1267.61	71.1248
1271.91	57.2307
1276.2	86.3557
1280.49	112.035
1284.78	7.95752
1289.07	26.9607
1293.35	14.822
1297.64	78.0986
1301.91	110.471
1306.19	74.7776
1310.46	101.843
1314.74	22.7749
1319.01	53.5105
1323.27	2.42798
1327.54	20.333
1331.8	11.5793
1336.06	40.9463
1340.31	87.2173
1344.57	0.144531
1348.82	39.1704
1353.06	87.4238
1357.31	81.2978
1361.55	93.7114
1365.79	208.216
1370.03	173.766
1374.27	157.231
1378.5	154.834
1382.73	229.525
1386.96	187.32
1391.18	141.879
1395.4	26.2739
1399.62	7.45752
1403.84	9.20288
1408.06	6.69092
1412.27	3.3042
1416.48	0.608643
1420.69	63.6519
1424.89	65.2822
1429.09	58.3477
1433.29	1.05859
1437.49	96.7793
1441.68	92.7771
1445.87	174.282
1450.06	202.872
1454.25	229.319
1458.43	276.596
1462.62	229.61
1466.79	369.862
1470.97	355.36
1475.14	352.134
1479.31	387.204
1483.48	431.586
1487.65	467.752
1491.81	444.346
1495.97	479.399
1500.13	500.915
1504.29	578.297
1508.44	622.421
1512.59	557.349
1516.74	549.804
1520.88	532.794
1525.03	458.357
1529.17	392.927
1533.3	407.483
1537.44	263.113
1541.57	309.996
1545.7	320.978
1549.83	223.56
1553.95	330.742
1558.08	63.812
1562.19	47.2041
