Measurement: Raman, 514 nm, ccw, Raman Data Processed
Mineral: Cassiterite
Rruff sample: R040017
Ideal chemistry: SnO_2_
Locality: Bolivia
Source: University of Arizona Mineral Museum
Description: Dark brown short prismatic single crystals
Measured chemistry: Sn_1.00_O_2_; trace amounts of Fe
Pin_id: L00125
Orientation: Laser parallel to -a* (-1 0 0). Fiducial mark perpendicular to laser is parallel to c [0 0 1]
Raman shift (cm-1)	intensity
97.027	0
101.23	227.033
105.43	596.526
109.628	1052.85
113.824	1631.53
118.018	1704.62
122.21	1692.81
126.399	1303.92
130.587	998.282
134.772	973.931
138.955	1277.1
143.136	1123.68
147.315	1027.95
151.491	1187.99
155.666	1281.2
159.838	1184.69
164.008	1356.37
168.176	1532.47
172.342	1486.05
176.506	1462.46
180.667	1765.8
184.827	1995.2
188.984	1974.97
193.139	2268.88
197.292	2588.06
201.443	2703.54
205.592	2887.94
209.739	3160.88
213.883	3399.93
218.026	3735.86
222.166	3658.43
226.304	3902.1
230.44	3930.31
234.574	3600.95
238.706	3580.68
242.836	3549.51
246.963	2945.57
251.089	2178.64
255.212	1724.45
259.333	1311.61
263.452	725.713
267.569	80.622
271.684	187.716
275.797	32.432
279.908	1528.46
284.016	2318.03
288.123	1864.21
292.227	1173.97
296.329	642.236
300.43	371.017
304.528	349.295
308.624	212.037
312.718	24.213
316.81	54.216
320.899	30.331
324.987	19.867
329.073	82.593
333.156	103.812
337.238	13.811
341.317	20.775
345.394	81.895
349.469	116.807
353.543	255.949
357.614	73.574
361.683	142.329
365.75	229.96
369.814	253.776
373.877	212.078
377.938	153.863
381.997	136.654
386.053	4.69
390.108	49.347
394.16	3.76
398.211	60.65
402.259	142.026
406.305	186.891
410.349	167.268
414.392	306.905
418.432	369.32
422.47	374.08
426.506	342.649
430.54	464.785
434.572	674.493
438.602	876.778
442.63	731.646
446.656	765.106
450.679	890.163
454.701	1085.07
458.721	1132.45
462.739	1196.27
466.754	1596.49
470.768	1875.54
474.78	2575.21
478.789	2362.51
482.797	2154.05
486.802	2438.56
490.806	2701.27
494.807	2663.24
498.807	2964.47
502.804	3061.4
506.8	3028.71
510.793	2731.98
514.784	2373.6
518.774	2231.75
522.761	2065.16
526.747	1822.13
530.73	1738.94
534.711	1785.19
538.691	2159.28
542.668	2595.09
546.643	2339.44
550.617	1995.83
554.588	2015.56
558.557	1988.42
562.525	1861.28
566.49	1602.31
570.454	1454.35
574.415	1468.36
578.374	1522.34
582.332	1467.29
586.287	1352.23
590.241	1414.17
594.192	1601.1
598.142	1837.03
602.089	2008
606.034	2255.04
609.978	2826.19
613.92	3761.44
617.859	5111.82
621.797	7239.34
625.732	11768.4
629.666	24361.1
633.598	49494.5
637.527	47655.8
641.455	23426.6
645.381	11710.3
649.305	7188.23
653.227	5105.91
657.146	3756.32
661.064	2821.11
664.98	2330.13
668.894	2262.8
672.806	2109.45
676.717	1986.83
680.625	1707.2
684.531	1803.51
688.435	1983.89
692.337	2120.33
696.238	2310.82
700.136	1981.34
704.033	1310.9
707.927	1001.47
711.82	949.075
715.71	907.699
719.599	912.344
723.486	781.009
727.371	698.695
731.254	738.399
735.135	660.121
739.014	522.86
742.891	447.614
746.766	414.38
750.639	378.157
754.511	276.941
758.38	187.729
762.247	29.52
766.113	68.699
769.977	71.018
773.838	47.924
777.698	31.058
781.556	60.717
785.412	138.492
789.266	135.501
793.118	31.796
796.968	66.328
800.817	120.105
804.663	93.115
808.508	46.322
812.35	24.323
816.191	98.906
820.03	112.431
823.867	38.905
827.702	80.33
831.535	122.704
835.366	167.026
839.195	225.297
843.023	199.515
846.848	304.681
850.672	386.793
854.493	524.852
858.313	586.857
862.131	618.809
865.947	522.706
869.762	447.549
873.574	469.337
877.384	474.07
881.193	424.749
884.999	278.373
888.804	224.943
892.607	173.458
896.408	221.921
900.207	233.331
904.005	274.724
907.8	250.142
911.594	185.54
915.385	157.99
919.175	190.897
922.963	267.87
926.749	242.488
930.533	264.85
934.316	177.623
938.096	178.936
941.875	251.213
945.652	282.587
949.427	354.29
953.2	323.283
956.971	335.35
960.74	447.576
964.508	469.81
968.273	629.053
972.037	663.303
975.799	653.565
979.559	552.838
983.318	380.124
987.074	402.423
990.829	376.734
994.581	451.062
998.332	299.405
1002.08	589.764
1005.83	512.139
1009.57	311.534
1013.32	368.947
1017.06	480.379
1020.8	435.831
1024.54	390.304
1028.27	399.925
1032.01	375.446
1035.74	418.13
1039.47	470.966
1043.2	506.684
1046.93	489.567
1050.65	379.207
1054.38	234.139
1058.1	176.271
1061.82	171.249
1065.54	134.16
1069.25	200.308
1072.97	206.897
1076.68	244.369
1080.39	129.838
1084.1	120.833
1087.81	66.14
1091.51	128.589
1095.21	245.972
1098.92	179.128
1102.62	235.342
1106.31	207.599
1110.01	165.845
1113.7	177.116
1117.4	251.353
1121.09	259.579
1124.78	254.801
1128.47	280.08
1132.15	188.321
1135.84	221.49
1139.52	122.837
1143.2	161.001
1146.88	170.181
1150.55	161.353
1154.23	151.531
1157.9	101.781
1161.57	45.953
1165.24	2.44
1168.91	22.626
1172.57	14.23
1176.24	37.422
1179.9	17.201
1183.56	126.437
1187.22	3.782
1190.88	25.642
1194.53	49.226
1198.19	9.154
1201.84	18.143
1205.49	28.14
1209.14	54.63
1212.78	63.065
1216.43	38.794
1220.07	11.778
1223.71	18.571
1227.35	148.205
1230.99	114.949
1234.62	172.494
1238.26	212.01
1241.89	191.338
1245.52	172.973
1249.15	123.692
1252.78	101.145
1256.4	87.48
1260.03	89.549
1263.65	150.973
1267.27	239.566
1270.89	150.254
1274.5	180.793
1278.12	155.341
1281.73	200.65
1285.34	101.808
1288.95	131.781
1292.56	83.82
1296.17	193.137
1299.77	190.279
1303.37	114.551
1306.97	70.537
1310.57	175.837
1314.17	62.792
1317.77	82.304
1321.36	33.953
1324.95	43.879
1328.54	99.402
1332.13	87.301
1335.72	140.125
1339.31	54.418
1342.89	89.338
1346.47	52.207
1350.05	42.701
1353.63	8.953
1357.21	42.475
1360.78	27.375
1364.36	82.343
1367.93	127.662
1371.5	167.613
1375.07	149.154
1378.63	124.357
1382.2	94.219
1385.76	61.684
1389.32	27.829
1392.88	34.78
1396.44	3.53
1400	46.097
1403.55	36.882
1407.1	68.178
1410.65	84.909
1414.2	35.201
1417.75	15.25
1421.3	12.579
1424.84	20.925
1428.38	36.764
1431.93	41.856
1435.47	3.733
1439	52.258
1442.54	127.899
1446.07	240.528
1449.61	175.593
1453.14	230.824
1456.67	227.091
1460.19	154.431
1463.72	146.814
1467.24	98.699
1470.77	196.973
1474.29	166.615
1477.81	150.98
1481.33	93.936
1484.84	147.587
1488.36	256.081
1491.87	288.641
1495.38	217.008
1498.89	90.593
1502.39	106.973
1505.9	117.738
1509.4	135.271
1512.91	161.522
1516.41	161.948
1519.91	109.706
1523.4	118.466
