Measurement: Raman, 514 nm, ccw, Raman Data Processed
Mineral: Cassiterite
Rruff sample: R060563
Ideal chemistry: SnO_2_
Locality: unknown
Source: Gemological Institute of America
Description: Dark brown fragment
Measured chemistry: Sn_1.00_O_2_
Pin_id: L01330
Orientation: Laser parallel to -a* (-1 0 0). Fiducial mark perpendicular to laser is parallel to c [0 0 1]
Raman shift (cm-1)	intensity
114.44	0
119.365	139.2
124.288	313.648
129.209	13.5862
134.127	5.83899
139.043	52.0532
143.956	62.6263
148.867	15.8735
153.775	88.9926
158.681	44.2018
163.585	46.3638
168.486	48.9885
173.385	18.6628
178.282	2.23926
183.176	6.28186
188.067	14.7674
192.956	11.222
197.843	14.886
202.727	39.8389
207.609	16.9757
212.489	142.902
217.366	372.783
222.24	455.127
227.112	373.766
231.982	372.861
236.849	360.602
241.714	388.911
246.577	522.791
251.437	523.085
256.294	562.025
261.149	490.795
266.002	512.132
270.852	517.132
275.7	273.017
280.545	210.764
285.388	140.315
290.229	147.343
295.067	160.18
299.902	139.961
304.735	226.24
309.566	146.848
314.394	164.309
319.22	225.543
324.043	267.653
328.864	241.853
333.682	223.75
338.498	246.304
343.311	214.896
348.122	158.647
352.931	81.3186
357.737	71.2615
362.54	59.2228
367.341	18.136
372.14	5.03296
376.936	6.66858
381.73	50.306
386.521	26.9145
391.31	79.3675
396.096	50.728
400.88	37.1213
405.661	26.4904
410.44	11.7153
415.216	2.11999
419.99	86.0314
424.761	42.3534
429.53	18.8434
434.297	63.9573
439.061	31.1832
443.822	12.5302
448.581	25.9835
453.337	41.6184
458.091	176.393
462.843	391.41
467.592	662.665
472.338	855.218
477.082	794.106
481.824	868.338
486.563	1113.89
491.3	1425.75
496.034	1678.93
500.765	1602.46
505.494	1372.11
510.221	1101.97
514.945	824.714
519.666	474.159
524.385	274.363
529.102	340.847
533.816	662.621
538.527	1104.15
543.236	1018.31
547.943	895.143
552.647	707.151
557.348	508.459
562.047	368.222
566.744	302.255
571.438	165.499
576.129	131.994
580.818	120.721
585.504	209.517
590.188	384.399
594.87	651.703
599.549	1066.69
604.225	1832.48
608.899	2792.9
613.57	4474.87
618.239	8051.75
622.905	16781.1
627.569	38108.2
632.23	62582.2
636.889	43482.1
641.545	18448
646.198	8795.7
650.849	5175.29
655.498	3270.69
660.144	2420.95
664.787	1797.97
669.428	1469.7
674.067	1342.06
678.703	1271.03
683.336	1331.63
687.967	1570.86
692.595	1744.97
697.221	1552.86
701.844	755.412
706.465	353.369
711.083	313.126
715.698	292.441
720.311	357.262
724.922	237.593
729.53	182.432
734.135	95.7427
738.738	73.5024
743.338	16.6968
747.936	55.6892
752.531	8.72376
757.124	34.837
761.714	211.721
766.302	1056.72
770.887	2473.51
775.469	3054.6
780.049	2173.8
784.626	1201.57
789.201	694.567
793.773	397.155
798.343	310.192
802.91	281.947
807.475	170.934
812.037	117.355
816.596	92.5819
821.153	21.8751
825.707	3.78674
830.259	45.4819
834.808	24.3595
839.355	58.6097
843.899	169.526
848.441	382.383
852.98	408.163
857.516	435.849
862.05	473.425
866.581	448.876
871.11	351.186
875.636	261.34
880.159	170.323
884.68	130.291
889.199	45.5259
893.714	40.9755
898.228	16.0477
902.738	45.4094
907.246	21.7115
911.752	31.8538
916.255	24.8732
920.755	10.6421
925.253	4.11957
929.748	7.25513
934.241	41.1666
938.731	82.1177
943.218	90.8737
947.703	163.138
952.186	194.197
956.665	251.704
961.142	287.279
965.617	414.834
970.089	506.073
974.558	505.993
979.025	456.112
983.489	372.883
987.951	278.301
992.41	238.365
996.866	196.074
1001.32	253.425
1005.77	276.419
1010.22	281.055
1014.67	326.331
1019.11	309.253
1023.55	358.847
1027.99	356.858
1032.42	392.874
1036.86	408.832
1041.29	386.605
1045.72	307.058
1050.14	205.29
1054.56	134.195
1058.98	59.3151
1063.4	51.3809
1067.82	39.9735
1072.23	4.31506
1076.64	20.8176
1081.05	37.2668
1085.45	54.2595
1089.85	67.7693
1094.25	84.9378
1098.65	98.0097
1103.04	137.968
1107.43	110.807
1111.82	176.442
1116.21	201.873
1120.59	259.105
1124.97	271.143
1129.35	205.989
1133.73	211.65
1138.1	179.13
1142.47	159.433
1146.84	140.565
1151.21	106.542
1155.57	116.828
1159.93	68.118
1164.29	54.7737
1168.64	53.463
1172.99	33.3024
1177.34	33.273
1181.69	37.3834
1186.04	5.56158
1190.38	35.3701
1194.72	28.4368
1199.05	1.23633
1203.39	6.44922
1207.72	20.658
1212.05	17.931
1216.37	44.7339
1220.7	56.5298
1225.02	99.7454
1229.34	88.7734
1233.65	130.408
1237.97	112.439
1242.28	99.1498
1246.59	114.743
1250.89	107.221
1255.19	138.587
1259.49	138.841
1263.79	139.986
1268.09	136.025
1272.38	122.959
1276.67	146.889
1280.95	113.794
1285.24	139.584
1289.52	105.822
1293.8	129.221
1298.08	130.293
1302.35	153.802
1306.62	140.203
1310.89	113.699
1315.15	91.0821
1319.42	103.323
1323.68	29.9399
1327.94	15.4711
1332.19	11.5159
1336.44	1.98358
1340.69	11.7632
1344.94	9.2417
1349.19	7.62817
1353.43	2.99713
1357.67	8.44922
1361.9	9.802
1366.14	30.0139
1370.37	47.0575
1374.6	67.0033
1378.83	103.536
1383.05	87.6679
1387.27	78.3838
1391.49	39.021
1395.7	51.6001
1399.92	4.14197
1404.13	12.3467
1408.34	21.8707
1412.54	20.5728
1416.74	0.976563
1420.94	7.52533
1425.14	51.1375
1429.34	59.9207
1433.53	72.9604
1437.72	120.374
1441.9	129.553
1446.09	147.697
1450.27	181.265
1454.45	218.265
1458.63	249.698
1462.8	244.442
1466.97	281.461
1471.14	263.775
1475.31	294.311
1479.47	307.843
1483.63	326.386
1487.79	360.807
1491.94	425.207
1496.09	429.714
1500.24	511.908
1504.39	525.034
1508.54	598.955
1512.68	653.522
1516.82	571.653
1520.95	564.128
1525.09	516.04
1529.22	466.262
1533.35	460.457
1537.47	349.904
1541.6	357.827
1545.72	263.325
1549.83	218.903
1553.95	153.99
1558.06	109.709
1562.17	62.7769
1566.28	22.6511
1570.38	0
