Measurement: Raman, 514 nm, ccw, Raman Data Processed
Mineral: Cassiterite
Rruff sample: R060563
Ideal chemistry: SnO_2_
Locality: unknown
Source: Gemological Institute of America
Description: Dark brown fragment
Measured chemistry: Sn_1.00_O_2_
Pin_id: L01330
Orientation: Laser parallel to -a* (-1 0 0). Fiducial mark perpendicular to laser is parallel to c [0 0 1]
Raman shift (cm-1)	intensity
114.44	0
119.365	97.7167
124.288	19.9176
129.209	141.576
134.127	178.508
139.043	276.551
143.956	204.724
148.867	191.111
153.775	337.396
158.681	346.646
163.585	304.265
168.486	250.726
173.385	188.969
178.282	56.0774
183.176	61.4077
188.067	0.614258
192.956	12.0195
197.843	19.4922
202.727	169.552
207.609	94.1475
212.489	242.408
217.366	744.1
222.24	881.698
227.112	769.883
231.982	812.915
236.849	852.902
241.714	1001.8
246.577	1189.79
251.437	1374.39
256.294	1405.7
261.149	1363.67
266.002	1249.15
270.852	1136.35
275.7	471.635
280.545	331.353
285.388	110.417
290.229	106.023
295.067	27.9553
299.902	217.955
304.735	263.615
309.566	249.947
314.394	282.624
319.22	455.932
324.043	558.716
328.864	489.924
333.682	519.973
338.498	511.262
343.311	511.104
348.122	349.603
352.931	98.0823
357.737	41.478
362.54	23.0325
367.341	150.736
372.14	159.881
376.936	159.453
381.73	1.35303
386.521	60.5913
391.31	251.756
396.096	184.545
400.88	360.586
405.661	484.46
410.44	781.247
415.216	880.473
419.99	883.511
424.761	1164.61
429.53	1890.81
434.297	2364.38
439.061	1844.4
443.822	1121.97
448.581	876.602
453.337	730.788
458.091	944.254
462.843	1147.01
467.592	1949.12
472.338	2709.67
477.082	2550.66
481.824	2683.19
486.563	3415.21
491.3	4671.04
496.034	6259.96
500.765	6282.15
505.494	5840.9
510.221	5065.23
514.945	4093.2
519.666	2719.33
524.385	1933.29
529.102	1894.29
533.816	2557.7
538.527	3691.4
543.236	3147.76
547.943	2029.39
552.647	1435.4
557.348	941.782
562.047	543.529
566.744	218.626
571.438	95.0606
576.129	36.187
580.818	82.2476
585.504	86.249
590.188	201.853
594.87	642.204
599.549	1137.78
604.225	1885.57
608.899	2663.54
613.57	3990.67
618.239	7053.94
622.905	15065.3
627.569	33450.9
632.23	50690.9
636.889	34339.9
641.545	16936.3
646.198	9898.21
650.849	7121.21
655.498	5810.45
660.144	5109.09
664.787	4993.52
669.428	5176.68
674.067	5451.44
678.703	6239.76
683.336	7438.6
687.967	8932.92
692.595	10533.7
697.221	9030.87
701.844	5509.41
706.465	3383.29
711.083	2996.47
715.698	3103.21
720.311	2916.82
724.922	2612.7
729.53	2411.59
734.135	2109.74
738.738	2034.01
743.338	1773.35
747.936	1555.74
752.531	1264.14
757.124	857.509
761.714	273.477
766.302	135.738
770.887	72.7466
775.469	81.6091
780.049	49.5552
784.626	69.6611
789.201	44.9114
793.773	156.749
798.343	241.505
802.91	358.615
807.475	472.968
812.037	619.428
816.596	646.326
821.153	731.642
825.707	718.35
830.259	609.428
834.808	722.857
839.355	1070.62
843.899	1577.69
848.441	2045.06
852.98	2008.72
857.516	1960.73
862.05	2087.1
866.581	1901.76
871.11	1672.09
875.636	1419.98
880.159	1101.09
884.68	805.821
889.199	596.051
893.714	451.46
898.228	294.79
902.738	162.111
907.246	124.442
911.752	80.9049
916.255	28.8707
920.755	38.702
925.253	14.291
929.748	4.80518
934.241	20.1704
938.731	130.498
943.218	249.674
947.703	406.3
952.186	570.518
956.665	721.767
961.142	915.337
965.617	1139.24
970.089	1310.47
974.558	1282.06
979.025	1014
983.489	688.314
987.951	444.003
992.41	321.082
996.866	279.559
1001.32	243.446
1005.77	187.748
1010.22	62.4644
1014.67	118.568
1019.11	75.093
1023.55	72.042
1027.99	136.432
1032.42	135.06
1036.86	92.087
1041.29	111.481
1045.72	45.3241
1050.14	22.2808
1054.56	11.1928
1058.98	3.53601
1063.4	30.3283
1067.82	8.74304
1072.23	33.5074
1076.64	75.9413
1081.05	10.7811
1085.45	65.3273
1089.85	92.6824
1094.25	131.183
1098.65	136.898
1103.04	245.787
1107.43	317.551
1111.82	342.204
1116.21	639.759
1120.59	1459.23
1124.97	1393.64
1129.35	1101.99
1133.73	1052.3
1138.1	831.081
1142.47	719.76
1146.84	592.763
1151.21	556.488
1155.57	403.253
1159.93	274.873
1164.29	174.576
1168.64	126.447
1172.99	146.172
1177.34	117.551
1181.69	135.849
1186.04	74.5419
1190.38	40.1331
1194.72	31.5797
1199.05	48.5685
1203.39	65.157
1207.72	2.63403
1212.05	79.8115
1216.37	95.1479
1220.7	213.885
1225.02	186.765
1229.34	261.797
1233.65	189.986
1237.97	343.338
1242.28	331.859
1246.59	331.552
1250.89	440.416
1255.19	502.449
1259.49	541.654
1263.79	579.035
1268.09	592.601
1272.38	559.363
1276.67	657.34
1280.95	574.527
1285.24	621.93
1289.52	639.57
1293.8	705.366
1298.08	668.671
1302.35	799.899
1306.62	751.33
1310.89	725.808
1315.15	653.118
1319.42	546.226
1323.68	437.167
1327.94	427.604
1332.19	417.829
1336.44	390.123
1340.69	365.263
1344.94	357.585
1349.19	343.089
1353.43	317.773
1357.67	467.642
1361.9	611.699
1366.14	745.946
1370.37	900.366
1374.6	981.625
1378.83	936.737
1383.05	894.822
1387.27	745.038
1391.49	531.18
1395.7	357.891
1399.92	243.518
1404.13	171.227
1408.34	44.1211
1412.54	29.0834
1416.74	26.7894
1420.94	47.537
1425.14	20.2114
1429.34	12.2592
1433.53	24.0008
1437.72	22.9409
1441.9	56.7043
1446.09	50.3543
1450.27	152.446
1454.45	201.784
1458.63	229.61
1462.8	273.666
1466.97	268.949
1471.14	281.454
1475.31	250.192
1479.47	335.212
1483.63	343.54
1487.79	387.192
1491.94	437.19
1496.09	488.026
1500.24	496.94
1504.39	530.232
1508.54	587.615
1512.68	615.644
1516.82	583.641
1520.95	479.487
1525.09	496.048
1529.22	421.123
1533.35	369.461
1537.47	318.52
1541.6	270.403
1545.72	246.333
1549.83	204.951
1553.95	191.539
1558.06	132.996
1562.17	8.48523
1566.28	46.0424
1570.38	0
