Measurement: Raman, 514 nm, ccw, Raman Data Processed
Mineral: Cassiterite
Rruff sample: R040017
Ideal chemistry: SnO_2_
Locality: Bolivia
Source: University of Arizona Mineral Museum
Description: Dark brown short prismatic single crystals
Measured chemistry: Sn_1.00_O_2_; trace amounts of Fe
Pin_id: M00048
Orientation: Laser parallel to -c* (0 0 -1). Fiducial mark perpendicular to laser is parallel to a [1 0 0]
Raman shift (cm-1)	intensity
198.795	0
202.935	97.048
207.072	49.997
211.208	38.327
215.342	44.349
219.473	103.261
223.603	122.037
227.73	98.062
231.856	151.155
235.979	250.212
240.1	246.453
244.22	464.561
248.337	397.167
252.452	329.159
256.565	358.653
260.676	262.996
264.785	441.941
268.892	238.292
272.997	16.659
277.1	97.968
281.201	29.274
285.3	118.445
289.397	164.325
293.492	200.476
297.585	235.621
301.676	236.742
305.765	216.84
309.851	197.899
313.936	120.547
318.019	123.929
322.1	119.329
326.178	194.746
330.255	122.188
334.33	97.655
338.403	56.158
342.473	67.701
346.542	122.986
350.609	23.786
354.673	44.739
358.736	1.059
362.797	19.128
366.856	68.242
370.912	11.031
374.967	20.865
379.02	13.539
383.07	118.003
387.119	192.39
391.166	213.1
395.211	213.431
399.253	339.744
403.294	422.048
407.333	626.346
411.37	920.651
415.405	1211.97
419.437	1379.05
423.468	1473.43
427.497	1917.93
431.524	2364.52
435.549	2860.63
439.572	3371.81
443.593	3957.91
447.612	4487.07
451.629	4403.28
455.644	4024.55
459.657	3436.87
463.668	2836.14
467.678	2185.61
471.685	1770.15
475.69	1460.62
479.693	1273.32
483.695	1122.07
487.694	1142.93
491.692	1076.87
495.687	1111.77
499.681	1101.48
503.672	843.018
507.662	725.209
511.65	589.787
515.636	430.605
519.619	300.481
523.601	142.209
527.581	138.643
531.559	124.167
535.535	213.793
539.509	283.525
543.482	299.362
547.452	314.308
551.42	233.365
555.386	215.534
559.351	112.818
563.313	62.238
567.274	81.874
571.233	73.749
575.189	78.791
579.144	22.042
583.097	105.244
587.048	98.655
590.997	202.191
594.944	285.854
598.89	485.642
602.833	757.555
606.774	1092.6
610.714	1444.77
614.651	1871.08
618.587	2762.57
622.521	4400.23
626.453	8170.06
630.383	16105.1
634.311	23350.2
638.237	15355.6
642.161	7791.16
646.083	4320.91
650.004	2862.84
653.922	1950.01
657.839	1526.39
661.754	1228.5
665.666	1062.7
669.577	940.591
673.487	744.611
677.394	835.745
681.299	719.989
685.202	775.34
689.104	830.548
693.004	901.354
696.901	884.2
700.797	713.167
704.691	394.89
708.583	271.825
712.473	255.845
716.362	323.945
720.248	311.914
724.133	270.167
728.016	185.491
731.897	132.884
735.776	203.343
739.653	238.865
743.528	318.445
747.401	250.125
751.273	305.091
755.143	437.964
759.01	724.025
762.876	1063.61
766.74	2031.15
770.603	3692.82
774.463	5271.03
778.322	5182.48
782.178	3689.41
786.033	2545.73
789.886	1828.79
793.737	1466.83
797.586	1245.47
801.434	1070.54
805.279	938.438
809.123	683.999
812.965	689.32
816.805	850.734
820.643	285.013
824.48	175.789
828.314	95.419
832.147	42.998
835.978	36.518
839.807	8.026
843.634	56.347
847.459	109.64
851.283	120.865
855.104	114.019
858.924	116.101
862.742	127.108
866.559	190.035
870.373	155.878
874.185	124.634
877.996	69.302
881.805	43.879
885.612	63.363
889.418	30.252
893.221	5.96
897.023	6.012
900.823	48.158
904.621	32.711
908.417	94.067
912.211	5.139
916.004	14.863
919.795	54.094
923.584	16.563
927.371	37.226
931.156	7.057
934.94	21.024
938.722	72.853
942.502	92.501
946.28	43.981
950.056	109.316
953.831	118.668
957.604	153.897
961.375	177.118
965.144	259.977
968.911	201.855
972.677	188.245
976.441	182.297
980.203	195.921
983.963	244.198
987.721	209.258
991.478	180.257
995.233	165.153
998.986	148.909
1002.74	161.511
1006.49	202.928
1010.24	227.302
1013.98	235.482
1017.73	202.811
1021.47	220.888
1025.21	212.983
1028.95	222.584
1032.68	271.232
1036.42	290.362
1040.15	243.918
1043.88	196.097
1047.62	148.519
1051.34	179.874
1055.07	226.675
1058.8	236.617
1062.52	86.057
1066.24	205.836
1069.96	85.48
1073.68	97.435
1077.39	134.29
1081.11	111.183
1084.82	79.237
1088.53	131.514
1092.24	127.398
1095.95	109.123
1099.65	46.133
1103.36	82.895
1107.06	140.918
1110.76	122.571
1114.46	81.858
1118.15	126.566
1121.85	105.76
1125.54	86.485
1129.23	74.495
1132.92	148.54
1136.61	107.434
1140.3	91.736
1143.98	105.476
1147.66	54.746
1151.35	74.369
1155.03	41.983
1158.7	56.217
1162.38	6.639
1166.05	43.792
1169.73	73.307
1173.4	64.516
1177.07	38.972
1180.73	40.966
1184.4	44.02
1188.06	9.35
1191.73	52.156
1195.39	87.896
1199.05	69.246
1202.7	77.009
1206.36	52.855
1210.01	26.642
1213.66	53.359
1217.31	52.818
1220.96	117.4
1224.61	132.591
1228.25	105.319
1231.9	132.04
1235.54	55.371
1239.18	70.799
1242.82	62.009
1246.45	52.041
1250.09	62.784
1253.72	48.683
1257.35	111.281
1260.98	83.525
1264.61	81.48
1268.24	70.023
1271.86	72.398
1275.48	10.251
1279.11	30.675
1282.73	61.737
1286.34	69.162
1289.96	67.814
1293.58	109.271
1297.19	96.569
1300.8	48.303
1304.41	17.867
1308.02	2.815
1311.62	21.135
1315.23	57.978
1318.83	67.918
1322.43	87.648
1326.03	7.106
1329.63	53.948
1333.22	45.961
1336.82	51.619
1340.41	34.719
1344	41.587
1347.59	30.086
1351.18	10.08
1354.77	23.067
1358.35	89.977
1361.93	117.426
1365.52	77.693
1369.09	65.723
1372.67	77.516
1376.25	111.13
1379.82	72.865
1383.39	21.365
1386.97	103.301
1390.54	84.51
1394.1	58.436
1397.67	70.254
1401.23	18.578
1404.8	41.095
1408.36	25.144
1411.92	43.114
1415.48	20.764
1419.03	7.517
1422.59	8.005
1426.14	31.645
1429.69	29.368
1433.24	33.457
1436.79	80.261
1440.34	121.861
1443.88	97.963
1447.42	138.034
1450.97	62.112
1454.51	131.372
1458.04	63.104
1461.58	0.145
1465.12	47.752
1468.65	95.169
1472.18	163.152
1475.71	171.117
1479.24	176.251
1482.77	156.048
1486.29	115.949
1489.82	151.347
1493.34	100.055
1496.86	82.606
1500.38	21.487
1503.89	90.564
1507.41	123.039
1510.92	81.799
1514.44	77.837
1517.95	137.631
1521.45	124.603
1524.96	106.309
