Measurement: Raman, 514 nm, ccw, Raman Data Processed
Mineral: Cassiterite
Rruff sample: R050502
Ideal chemistry: SnO_2_
Locality: Redruth, Cornwall, England
Source: California Institute of Technology
Description: Black crystals associated with colorless quartz and grey stannite.
Measured chemistry: SnO_2_
Pin_id: M00088
Orientation: Laser parallel to -c* (0 0 -1). Fiducial mark perpendicular to laser is parallel to b [0 1 0]
Raman shift (cm-1)	intensity
196.296	0
201.19	70.0024
206.082	24.227
210.971	240.373
215.858	411.266
220.742	709.342
225.624	1083.52
230.503	1368.8
235.38	2582.24
240.254	2465.29
245.125	3401.51
249.994	1706.03
254.861	923.858
259.725	1307.64
264.586	744.165
269.445	572.781
274.302	563.769
279.155	651.218
284.007	1084.78
288.855	1311.26
293.702	1085.51
298.545	900.492
303.386	961.673
308.225	735.482
313.061	603.32
317.894	379.578
322.725	454.927
327.554	365.346
332.38	456.958
337.203	336.875
342.024	364.237
346.842	579.359
351.658	517.995
356.471	382.848
361.281	77.0117
366.09	287.418
370.895	273.407
375.698	155.066
380.498	53.8232
385.296	260.714
390.092	451.568
394.884	721.761
399.675	977.524
404.462	1490.04
409.248	2292.44
414.03	3132.87
418.81	4158.42
423.588	5100.03
428.363	5970.24
433.135	6053.88
437.905	6007.18
442.672	6196.73
447.437	7155.04
452.199	8452.13
456.959	8850.02
461.716	8333.72
466.47	7620.26
471.222	6962.67
475.972	5519.97
480.719	4129.18
485.463	3504.31
490.205	3139.19
494.944	2954.83
499.681	2555.24
504.415	2162.26
509.146	1570.26
513.875	1108.62
518.602	670.852
523.326	363.603
528.047	190.207
532.766	366.548
537.482	454.443
542.196	473.656
546.907	435.665
551.616	166.242
556.322	356.624
561.025	288.928
565.726	90.0142
570.424	121.412
575.12	99.5396
579.813	25.6943
584.504	438.405
589.192	1033.64
593.877	2026.4
598.56	3069.68
603.241	4621.48
607.919	6607.8
612.594	8665.67
617.267	12856.1
621.937	22499.3
626.604	36686.4
631.269	45373.4
635.932	38026.4
640.592	20340.3
645.249	11236.2
649.904	6991.78
654.556	4711.64
659.206	3526.49
663.853	2627.8
668.497	2048.98
673.139	1758.82
677.779	1520.53
682.416	1679.95
687.05	1934.73
691.682	2091.79
696.311	1995.5
700.937	1687.34
705.561	1331.89
710.183	1626.1
714.802	1682.15
719.418	1976.89
724.032	2141.77
728.643	2169.12
733.251	2157.03
737.857	2140.32
742.461	2250.35
747.062	2383.37
751.66	2366.48
756.256	2367.53
760.849	2469.33
765.44	3522.38
770.028	4832.32
774.613	6056.09
779.196	5286.71
783.777	3380.07
788.354	2169.51
792.93	1627.85
797.502	1076.35
802.072	861.617
806.64	628.284
811.205	377.58
815.767	202.364
820.327	65.2529
824.884	127.707
829.439	147.011
833.991	136.831
838.541	96.2771
843.087	36.0105
847.632	173.624
852.174	245.722
856.713	347.71
861.25	328.234
865.784	453.459
870.315	433.874
874.844	357.518
879.371	300.361
883.894	107.373
888.416	38.4568
892.934	69.3828
897.45	14.8948
901.964	3.33521
906.475	2.51636
910.983	53.4404
915.489	3.39087
919.992	30.4822
924.493	95.5012
928.991	60.6716
933.486	144.631
937.979	206.007
942.47	309.953
946.957	305.857
951.443	388.433
955.925	419.21
960.405	546.836
964.883	610.352
969.358	634.173
973.83	679.804
978.3	618.883
982.767	522.84
987.232	492.95
991.694	466.042
996.153	478.122
1000.61	483.188
1005.06	561.286
1009.52	471.638
1013.97	498.085
1018.41	546.404
1022.86	583.343
1027.3	601.144
1031.74	641.817
1036.17	512.579
1040.61	383.4
1045.04	393.107
1049.47	319.291
1053.89	275.154
1058.32	170.243
1062.74	217.808
1067.15	178.223
1071.57	108.724
1075.98	155.47
1080.39	155.137
1084.8	156.599
1089.21	119.394
1093.61	129.138
1098.01	171.611
1102.41	160.559
1106.8	206.69
1111.19	210.576
1115.59	229.019
1119.97	207.004
1124.36	339.808
1128.74	219.858
1133.12	200.51
1137.5	201.84
1141.87	179.793
1146.24	102.436
1150.61	117.818
1154.98	104.892
1159.34	70.8037
1163.7	21.6843
1168.06	47.7661
1172.42	19.1863
1176.77	62.7903
1181.12	8.49243
1185.47	11.0483
1189.82	33.7996
1194.16	42.2275
1198.5	9.0813
1202.84	9.94336
1207.18	23.7124
1211.51	55.4592
1215.84	24.356
1220.17	51.9641
1224.5	81.4368
1228.82	14.231
1233.14	102.42
1237.46	47.6497
1241.77	88.8596
1246.09	65.8164
1250.39	40.8362
1254.7	120.761
1259.01	35.5938
1263.31	78.3506
1267.61	97.3904
1271.91	80.333
1276.2	9.45727
1280.49	139.765
1284.78	111.883
1289.07	106.852
1293.35	61.0962
1297.64	43.5796
1301.91	67.3638
1306.19	56.4253
1310.46	107.319
1314.74	44.2602
1319.01	90.0764
1323.27	45.6082
1327.54	26.2483
1331.8	39.0042
1336.06	64.656
1340.31	68.6128
1344.57	2.23267
1348.82	20.1316
1353.06	69.9734
1357.31	45.9609
1361.55	97.8997
1365.79	120.898
1370.03	110.867
1374.27	155.614
1378.5	190.325
1382.73	125.76
1386.96	118.458
1391.18	30.1929
1395.4	38.9456
1399.62	48.7205
1403.84	47.5969
1408.06	2.84204
1412.27	5.99536
1416.48	3.01685
1420.69	25.8662
1424.89	41.5418
1429.09	14.0388
1433.29	42.956
1437.49	92.7029
1441.68	40.7146
1445.87	125.305
1450.06	139.814
1454.25	245.006
1458.43	304.976
1462.62	289.213
1466.79	279.63
1470.97	272.181
1475.14	306.909
1479.31	335.851
1483.48	392.023
1487.65	350.467
1491.81	429.237
1495.97	434.229
1500.13	457.876
1504.29	492.004
1508.44	523.349
1512.59	467.758
1516.74	516.322
1520.88	468.884
1525.03	418.362
1529.17	448.698
1533.3	360.25
1537.44	240.703
1541.57	254.845
1545.7	212.593
1549.83	242.538
1553.95	230.328
1558.08	45.0054
1562.19	4.69897
