Measurement: Raman, 514 nm, ccw, Raman Data Processed
Mineral: Cassiterite
Rruff sample: R060563
Ideal chemistry: SnO_2_
Locality: unknown
Source: Gemological Institute of America
Description: Dark brown fragment
Measured chemistry: Sn_1.00_O_2_
Pin_id: L01474
Orientation: Laser parallel to c* (0 0 1). Fiducial mark perpendicular to laser is parallel to a [1 0 0]
Raman shift (cm-1)	intensity
114.44	0
119.365	199.725
124.288	263.706
129.209	1.91504
134.127	69.0815
139.043	147.125
143.956	172.792
148.867	101.162
153.775	187.307
158.681	166.212
163.585	79.7393
168.486	88.1294
173.385	1.53467
178.282	25.0689
183.176	74.6436
188.067	53.9536
192.956	102.004
197.843	69.8062
202.727	123.079
207.609	9.11475
212.489	82.2378
217.366	334.022
222.24	467.065
227.112	446.385
231.982	513.402
236.849	666.192
241.714	1016.75
246.577	496.071
251.437	396.671
256.294	457.561
261.149	592.636
266.002	571.178
270.852	312.147
275.7	237.894
280.545	339.617
285.388	208.406
290.229	155.003
295.067	162.144
299.902	357.292
304.735	316.393
309.566	318.498
314.394	201.729
319.22	320.53
324.043	466.415
328.864	358.386
333.682	516.95
338.498	431.832
343.311	455.31
348.122	307.287
352.931	370.661
357.737	263.623
362.54	271.794
367.341	188.013
372.14	331.445
376.936	327.364
381.73	300.421
386.521	430.674
391.31	375.989
396.096	455.74
400.88	456.905
405.661	436.786
410.44	481.365
415.216	434.641
419.99	353.359
424.761	249.277
429.53	310.084
434.297	366.999
439.061	489.614
443.822	459.879
448.581	490.252
453.337	497.094
458.091	561.369
462.843	975.092
467.592	1493.29
472.338	1488.35
477.082	1167.15
481.824	893.673
486.563	1051.62
491.3	1252.94
496.034	1374.63
500.765	1241.68
505.494	909.111
510.221	763.913
514.945	421.092
519.666	61.647
524.385	139.564
529.102	100.897
533.816	270.519
538.527	593.509
543.236	619.866
547.943	461.587
552.647	354.669
557.348	162.112
562.047	52.9097
566.744	54.9565
571.438	10.7612
576.129	198.645
580.818	99.0606
585.504	39.084
590.188	149.309
594.87	532.827
599.549	1119.67
604.225	1936.84
608.899	2810.32
613.57	4563.13
618.239	8271.24
622.905	17376.7
627.569	38061.4
632.23	57686.6
636.889	38776.4
641.545	16561.7
646.198	8055.74
650.849	4779.47
655.498	3163.75
660.144	2234.37
664.787	1546.48
669.428	1352.66
674.067	1162.42
678.703	1232.49
683.336	1224.82
687.967	1529.4
692.595	1663.24
697.221	1509.32
701.844	554.64
706.465	295.288
711.083	148.071
715.698	298.338
720.311	160.968
724.922	92.7671
729.53	243.566
734.135	124.562
738.738	101.803
743.338	276.278
747.936	361.98
752.531	582.898
757.124	1247.7
761.714	2836.75
766.302	6700.68
770.887	12373.2
775.469	14462
780.049	10889.4
784.626	7029.73
789.201	4223.53
793.773	3093.76
798.343	2601.46
802.91	2079.56
807.475	1668.01
812.037	1184.51
816.596	816.496
821.153	1074.24
825.707	203.898
830.259	121.498
834.808	122.493
839.355	168.493
843.899	301.904
848.441	432.375
852.98	489.022
857.516	616.991
862.05	523.159
866.581	543.294
871.11	584.283
875.636	475.115
880.159	333.782
884.68	293.273
889.199	74.5806
893.714	19.6836
898.228	76.5454
902.738	34.8193
907.246	53.7334
911.752	64.4106
916.255	102.039
920.755	22.5791
925.253	4.94531
929.748	44.7998
934.241	2.16065
938.731	19.8984
943.218	114.109
947.703	102.406
952.186	140.084
956.665	371.604
961.142	357.856
965.617	356.298
970.089	547.724
974.558	569.359
979.025	492.616
983.489	345.451
987.951	355.481
992.41	322.203
996.866	332.107
1001.32	358.688
1005.77	240.947
1010.22	464.881
1014.67	390.492
1019.11	446.931
1023.55	411.106
1027.99	417.772
1032.42	410.91
1036.86	425.424
1041.29	367.752
1045.72	320.817
1050.14	354.617
1054.56	74.9922
1058.98	193.322
1063.4	178.34
1067.82	169.878
1072.23	136.002
1076.64	226.91
1081.05	44.5723
1085.45	181.513
1089.85	140.184
1094.25	59.8721
1098.65	206.256
1103.04	101.514
1107.43	76.6133
1111.82	218.531
1116.21	231.274
1120.59	381.848
1124.97	343.256
1129.35	336.618
1133.73	151.707
1138.1	257.641
1142.47	92.4326
1146.84	133.118
1151.21	117.715
1155.57	203.22
1159.93	105.612
1164.29	60.9228
1168.64	99.0928
1172.99	127.325
1177.34	183.724
1181.69	66.0625
1186.04	80.6123
1190.38	59.6982
1194.72	9.60059
1199.05	16.1699
1203.39	86.1533
1207.72	102.005
1212.05	143.736
1216.37	164.355
1220.7	90.4853
1225.02	128.393
1229.34	226.507
1233.65	180.476
1237.97	163.87
1242.28	103.381
1246.59	129.848
1250.89	160.216
1255.19	48.4863
1259.49	201.661
1263.79	173.743
1268.09	279.737
1272.38	120.364
1276.67	82.5977
1280.95	240
1285.24	177.622
1289.52	62.6299
1293.8	182.573
1298.08	216.527
1302.35	237.128
1306.62	51.6484
1310.89	144.924
1315.15	8.26172
1319.42	181.486
1323.68	95.4033
1327.94	153.834
1332.19	22.6318
1336.44	53.4199
1340.69	0.152344
1344.94	58.874
1349.19	62.706
1353.43	25.3242
1357.67	74.0176
1361.9	80.6016
1366.14	56.999
1370.37	121.293
1374.6	94.5606
1378.83	240.81
1383.05	176.927
1387.27	152.139
1391.49	78.3447
1395.7	38.5781
1399.92	63.8477
1404.13	114.14
1408.34	35.5185
1412.54	124.918
1416.74	49.502
1420.94	81.3603
1425.14	68.542
1429.34	206.163
1433.53	146.797
1437.72	265.501
1441.9	272.231
1446.09	324.804
1450.27	497.417
1454.45	380.594
1458.63	417.899
1462.8	390.712
1466.97	478.161
1471.14	487.637
1475.31	471.323
1479.47	502.175
1483.63	511.218
1487.79	457.873
1491.94	571.79
1496.09	461.614
1500.24	735.704
1504.39	565.828
1508.54	904.656
1512.68	768.482
1516.82	879.038
1520.95	782.091
1525.09	592.962
1529.22	740.686
1533.35	562.744
1537.47	534.919
1541.6	407.482
1545.72	316.641
1549.83	355.246
1553.95	401.157
1558.06	240.193
1562.17	136.815
1566.28	128.441
1570.38	0
