Measurement: Raman, 514 nm, ccw, Raman Data Processed
Mineral: Cassiterite
Rruff sample: R040017
Ideal chemistry: SnO_2_
Locality: Bolivia
Source: University of Arizona Mineral Museum
Description: Dark brown short prismatic single crystals
Measured chemistry: Sn_1.00_O_2_; trace amounts of Fe
Pin_id: M00048
Orientation: Laser parallel to -c* (0 0 -1). Fiducial mark perpendicular to laser is parallel to a [1 0 0]
Raman shift (cm-1)	intensity
180.832	0
184.981	11.421
189.127	57.085
193.272	11.585
197.414	106.593
201.555	64.862
205.693	92.024
209.83	58.781
213.964	12.642
218.096	84.151
222.226	163.963
226.355	143.665
230.481	125.114
234.605	150.719
238.727	227.667
242.847	311.351
246.965	349.762
251.08	249.934
255.194	321.936
259.306	338.185
263.416	346.661
267.524	273.628
271.629	88.695
275.733	58.579
279.835	107.17
283.934	76.308
288.032	172.852
292.127	230.375
296.221	171.885
300.312	152.386
304.402	245.604
308.489	141.44
312.575	100.294
316.658	127.188
320.74	150.126
324.819	113.117
328.897	95.094
332.972	110.369
337.045	58.898
341.117	57.5
345.186	72.681
349.253	77.291
353.319	22.591
357.382	20.496
361.443	17.93
365.503	11.314
369.56	54.862
373.616	31.185
377.669	16.072
381.72	57.605
385.77	167.243
389.817	220.934
393.863	224.644
397.906	327.377
401.947	461.053
405.987	620.932
410.024	737.751
414.06	1239.59
418.093	1442.38
422.125	1588.82
426.154	1734.59
430.182	2259.12
434.208	2791.88
438.231	3311.71
442.253	3955.61
446.273	4482.56
450.29	4815.59
454.306	4580.69
458.32	3952.87
462.332	3194.13
466.341	2560.25
470.349	2133.88
474.355	1683.37
478.359	1343.88
482.361	1199.41
486.361	1236.97
490.359	1164.58
494.356	1018.21
498.35	1116.74
502.342	999.349
506.332	838.101
510.321	697.482
514.307	527.853
518.292	404.905
522.274	211.571
526.255	109.884
530.233	128.83
534.21	171.429
538.185	317.14
542.158	466.962
546.129	314.897
550.098	190.947
554.065	295.119
558.03	256.414
561.993	166.859
565.954	111.512
569.913	47.405
573.871	28.977
577.826	52.778
581.78	17.155
585.731	98.655
589.681	133.277
593.629	329.021
597.575	458.887
601.519	634.875
605.461	973.985
609.401	1438.22
613.339	1898.59
617.275	2557.14
621.21	3810.86
625.142	6495.74
629.073	13211.8
633.001	24038
636.928	21084.4
640.853	10681
644.776	5553.79
648.697	3531.68
652.616	2466.73
656.534	1906.97
660.449	1501.4
664.362	1155.97
668.274	1085.67
672.184	979.488
676.092	834.407
679.997	767.422
683.901	876.532
687.804	828.734
691.704	988.45
695.602	1024.95
699.499	831.802
703.393	551.318
707.286	393.27
711.177	348.966
715.066	315.715
718.953	326.525
722.838	277.393
726.722	276.316
730.603	294.291
734.483	182.315
738.361	211.384
742.236	234.614
746.11	220.909
749.983	243.635
753.853	203.701
757.721	340.98
761.588	449.576
765.453	785.513
769.315	1625.47
773.176	2685.2
777.036	3002.99
780.893	2322.29
784.748	1463.51
788.602	1132.87
792.454	802.01
796.303	704.803
800.151	607.712
803.998	442.543
807.842	385.056
811.685	342.094
815.525	289.131
819.364	147.066
823.201	52.949
827.036	30.775
830.869	3.533
834.701	15.789
838.531	56.208
842.358	0.78
846.184	22.536
850.008	59.771
853.831	78.926
857.651	142.997
861.47	102.981
865.287	93.877
869.102	50.68
872.915	141.388
876.726	100.001
880.536	67.513
884.343	16.92
888.149	35.79
891.953	39.676
895.756	27.763
899.556	1.038
903.355	23.518
907.152	30.217
910.947	76.144
914.74	26.33
918.531	19.267
922.321	34.686
926.109	29.958
929.895	16.068
933.679	12.001
937.461	28.786
941.242	2.468
945.021	127.011
948.798	109.509
952.573	114.128
956.346	140.251
960.118	172.466
963.888	170.344
967.656	210.63
971.422	284.83
975.186	306.959
978.949	247.645
982.71	228.716
986.469	180.923
990.226	181.914
993.982	164.819
997.735	224.562
1001.49	218.178
1005.24	185.67
1008.99	179.036
1012.73	213.532
1016.48	255.534
1020.22	279.271
1023.96	242.696
1027.7	235.85
1031.44	269.948
1035.17	205.692
1038.91	336.451
1042.64	301.553
1046.37	250.798
1050.1	235.284
1053.83	120.674
1057.55	99.823
1061.28	136.555
1065	117.982
1068.72	98.553
1072.44	104.068
1076.15	94.135
1079.87	75.901
1083.58	65.891
1087.29	101.436
1091	70.572
1094.71	100.716
1098.42	126.91
1102.12	136.768
1105.82	110.536
1109.53	89.433
1113.22	75.171
1116.92	152.898
1120.62	123.363
1124.31	190.05
1128	149.325
1131.69	99.615
1135.38	88.9
1139.07	97.05
1142.76	53.111
1146.44	90.242
1150.12	121.24
1153.8	98.087
1157.48	58.672
1161.15	67.326
1164.83	10.669
1168.5	47.561
1172.17	33.486
1175.84	60.146
1179.51	63.99
1183.18	38.753
1186.84	111.237
1190.51	33.851
1194.17	13.234
1197.83	34.245
1201.48	53.404
1205.14	58.323
1208.79	33.413
1212.45	53.026
1216.1	64.582
1219.75	118.11
1223.39	52.66
1227.04	38.172
1230.68	79.445
1234.33	112.43
1237.96	118.37
1241.6	104.679
1245.24	85.835
1248.88	101.869
1252.51	106.706
1256.14	66.614
1259.77	59.202
1263.4	62.875
1267.03	60.835
1270.65	89.829
1274.28	121.314
1277.9	76.221
1281.52	44.077
1285.14	74.771
1288.76	48.754
1292.37	54.241
1295.98	25.845
1299.6	30.29
1303.21	101.263
1306.81	96.742
1310.42	99.2
1314.03	51.316
1317.63	20.506
1321.23	38.186
1324.83	22.777
1328.43	49.778
1332.03	62.165
1335.62	77.366
1339.21	94.217
1342.81	37.388
1346.4	92.829
1349.98	3.617
1353.57	48.999
1357.16	31.181
1360.74	36.293
1364.32	50.302
1367.9	102.07
1371.48	112.439
1375.06	146.735
1378.63	154.75
1382.2	88.719
1385.78	111.075
1389.35	49.641
1392.91	12.975
1396.48	31.965
1400.05	23.479
1403.61	45.738
1407.17	14.846
1410.73	52.662
1414.29	106.573
1417.85	17.689
1421.4	29.306
1424.96	49.95
1428.51	28.47
1432.06	10.079
1435.61	75.517
1439.15	16.875
1442.7	123.429
1446.24	105.891
1449.79	177.618
1453.33	178.817
1456.87	141.898
1460.4	133.896
1463.94	196.493
1467.47	130.043
1471	91.747
1474.54	87.529
1478.06	22.049
1481.59	96.401
1485.12	153.176
1488.64	109.85
1492.16	105.053
1495.68	161.947
1499.2	139.107
1502.72	181.695
1506.24	125.595
1509.75	174.531
1513.27	166.571
1516.78	95.536
1520.29	55.521
1523.79	8.215
1527.3	0
