Measurement: Raman, 514 nm, ccw, Raman Data Processed
Mineral: Cassiterite
Rruff sample: R040017
Ideal chemistry: SnO_2_
Locality: Bolivia
Source: University of Arizona Mineral Museum
Description: Dark brown short prismatic single crystals
Measured chemistry: Sn_1.00_O_2_; trace amounts of Fe
Pin_id: L00125
Orientation: Laser parallel to -a* (-1 0 0). Fiducial mark perpendicular to laser is parallel to c [0 0 1]
Raman shift (cm-1)	intensity
115.016	0
119.195	161.371
123.372	279.741
127.546	58.07
131.719	71.208
135.89	242.779
140.059	433.818
144.225	539.243
148.39	840.587
152.553	955.146
156.714	1163.62
160.872	1456.8
165.029	1752.53
169.184	2001.4
173.336	2459.41
177.487	2989.47
181.636	3487
185.782	4120.86
189.927	4455.92
194.07	5537.1
198.21	6009.83
202.349	6501.69
206.486	6930.52
210.621	7439.08
214.753	8240.01
218.884	8878.46
223.013	9276.31
227.14	9550.43
231.264	9378.95
235.387	9027.1
239.508	8755.35
243.627	8011
247.744	6823.96
251.859	5460.64
255.972	4087.53
260.083	2731.4
264.192	1208.81
268.299	774.084
272.404	208.69
276.507	1848.68
280.608	5266.33
284.707	5550.31
288.804	3979.9
292.899	2537.71
296.993	1588.3
301.084	1026.37
305.173	669.408
309.261	307.714
313.346	178.096
317.43	116.39
321.511	27.387
325.591	16.91
329.669	118.828
333.744	56.248
337.818	88.402
341.89	134.333
345.96	160.107
350.028	119.669
354.094	150.885
358.158	182.931
362.22	134.001
366.28	141.166
370.338	125.367
374.394	51.709
378.449	221.562
382.501	238.214
386.552	403.077
390.6	568.64
394.647	671.287
398.692	817.143
402.734	1045.26
406.775	1174.73
410.814	1449.31
414.851	1695.9
418.886	1906.8
422.92	1991.22
426.951	2429.81
430.98	2901.84
435.008	3324.22
439.033	3407.71
443.057	3298.76
447.079	3337.09
451.099	3650.67
455.116	3935.79
459.132	4160.94
463.147	4459.97
467.159	4916.94
471.169	5915.15
475.177	7304.8
479.184	6688.59
483.189	6643.85
487.191	7129.27
491.192	7506.67
495.191	7893.83
499.188	8157.79
503.183	8058.41
507.176	7621.13
511.168	7190.81
515.157	6938.4
519.145	6076.84
523.131	5372.13
527.114	4916.02
531.096	4792.33
535.076	4985.88
539.055	5328.4
543.031	5284.31
547.005	4633.9
550.978	4206.86
554.949	4120.64
558.917	3727.29
562.884	3400.18
566.849	3248.6
570.813	3059.64
574.774	2870.92
578.733	2564.14
582.691	2383.2
586.647	2441.12
590.601	2436.05
594.553	2553.64
598.503	2659.71
602.451	3041.72
606.397	3565.66
610.342	3933.53
614.285	4451.81
618.226	5450.59
622.165	7337.42
626.102	12117.4
630.037	23117.3
633.971	32822.3
637.902	24261.2
641.832	13948.7
645.76	8706.62
649.686	6556.52
653.61	5236.51
657.533	4405.14
661.453	3888.43
665.372	3580.39
669.289	3377.39
673.204	3304.36
677.117	3534.44
681.029	3815.97
684.938	4293.16
688.846	4975.99
692.752	5633.61
696.656	5781.77
700.559	4500.37
704.459	2799.36
708.358	2100.69
712.254	1849.35
716.149	1975.3
720.043	2027.53
723.934	1833.99
727.823	1743.67
731.711	1612.5
735.597	1441.47
739.481	1334.59
743.363	1221.86
747.244	1057.27
751.123	855.803
754.999	686.455
758.874	428.219
762.748	161.128
766.619	95.979
770.489	238.608
774.357	223.211
778.223	252.835
782.087	226.502
785.949	152.108
789.81	21.307
793.669	61.354
797.526	70.074
801.381	34.851
805.234	13.349
809.086	9.709
812.936	24.641
816.784	27.771
820.63	12.78
824.475	21.655
828.318	71.402
832.158	12.028
835.998	73.435
839.835	200.739
843.671	448.957
847.504	750.077
851.337	977.09
855.167	857.987
858.995	939.763
862.822	1026.41
866.647	925.925
870.47	901.302
874.292	769.54
878.111	795.649
881.929	607.648
885.745	489.508
889.559	370.226
893.372	395.711
897.183	280.136
900.992	238.485
904.799	228.736
908.605	261.874
912.408	249.448
916.211	320.419
920.011	337.891
923.809	249.731
927.606	284.201
931.401	238.467
935.194	196.675
938.986	201.498
942.776	273.663
946.564	410.392
950.35	445.108
954.134	499.244
957.917	484.629
961.698	770.593
965.477	760.116
969.255	863.042
973.031	957.555
976.805	905.677
980.577	652.391
984.348	561.995
988.117	321.653
991.884	310.968
995.649	179.279
999.413	153.565
1003.17	82.83
1006.93	84.074
1010.69	146.299
1014.45	154.509
1018.21	146.705
1021.96	88.89
1025.71	67.787
1029.46	2.916
1033.21	83.894
1036.95	165.818
1040.7	142.849
1044.44	69.418
1048.18	39.601
1051.92	70.863
1055.66	17.134
1059.4	35.898
1063.13	91.153
1066.86	51.325
1070.6	36.902
1074.33	0.511
1078.05	11.681
1081.78	9.414
1085.5	0.291
1089.22	93.464
1092.95	85.488
1096.66	86.573
1100.38	16.326
1104.1	71.773
1107.81	138.92
1111.52	112.213
1115.23	183.666
1118.94	214.249
1122.65	333.908
1126.36	312.675
1130.06	437.529
1133.76	468.518
1137.46	415.662
1141.16	404.927
1144.86	361.293
1148.55	259.751
1152.25	247.262
1155.94	209.812
1159.63	144.135
1163.32	102.011
1167.01	25.651
1170.69	96.322
1174.38	70.003
1178.06	17.642
1181.74	31.249
1185.42	7.155
1189.09	45.423
1192.77	0.927
1196.44	61.425
1200.11	19.862
1203.78	17.04
1207.45	24.755
1211.12	35.608
1214.79	44.611
1218.45	38.049
1222.11	161.754
1225.77	124.048
1229.43	155.684
1233.09	175.932
1236.74	175.99
1240.39	187.49
1244.05	186.944
1247.7	229.782
1251.35	255.248
1254.99	332.701
1258.64	371.135
1262.28	350.575
1265.92	377.837
1269.57	373.163
1273.2	397.392
1276.84	341.342
1280.48	407.664
1284.11	340.202
1287.74	490.405
1291.37	457.482
1295	442.567
1298.63	441.596
1302.26	482.583
1305.88	402.228
1309.5	414.231
1313.12	313.616
1316.74	284.978
1320.36	204.967
1323.97	304.726
1327.59	291.546
1331.2	234.183
1334.81	211.877
1338.42	249.112
1342.03	171.18
1345.64	219.859
1349.24	91.799
1352.84	174.034
1356.44	214.531
1360.04	267.239
1363.64	294.478
1367.24	383.625
1370.83	498.964
1374.43	592.356
1378.02	514.239
1381.61	513.794
1385.2	441.576
1388.78	441.315
1392.37	336.986
1395.95	313.562
1399.53	253.948
1403.11	177.013
1406.69	78.555
1410.27	109.654
1413.85	10.503
1417.42	2.127
1420.99	12.449
1424.56	40.087
1428.13	59.798
1431.7	26.468
1435.26	64.167
1438.83	16.041
1442.39	159.539
1445.95	135.347
1449.51	173.467
1453.07	110.858
1456.63	90.185
1460.18	174.431
1463.73	158.871
1467.29	198.878
1470.84	147.069
1474.38	245.243
1477.93	152.818
1481.47	182.066
1485.02	132.704
1488.56	113.778
1492.1	161.914
1495.64	107.716
1499.18	61.865
1502.71	58.417
1506.25	86.693
1509.78	27.622
1513.31	122.409
1516.84	151.943
1520.37	0
