Measurement: Raman, 514 nm, ccw, Raman Data Processed
Mineral: Cassiterite
Rruff sample: R050502
Ideal chemistry: SnO_2_
Locality: Redruth, Cornwall, England
Source: California Institute of Technology
Description: Black crystals associated with colorless quartz and grey stannite.
Measured chemistry: SnO_2_
Pin_id: M00499
Orientation: Laser parallel to a* (1 0 0). Fiducial mark perpendicular to laser is parallel to -c [0 0 -1]
Raman shift (cm-1)	intensity
185.791	0
190.715	55.6348
195.636	381.594
200.554	1720.4
205.469	3084.2
210.38	5683.92
215.288	9139.56
220.194	13801.5
225.096	18958.3
229.994	23920.9
234.89	27015.7
239.783	26544.8
244.672	20949.4
249.558	14211.1
254.441	8476.13
259.321	5189.97
264.198	3851.66
269.072	3118.41
273.943	4019.01
278.81	8973.31
283.675	13576.2
288.536	12130.8
293.395	9016.33
298.25	6574.42
303.102	5177.01
307.951	4101.26
312.797	3348.21
317.64	2694.04
322.48	2210.43
327.317	1664.96
332.151	1403.54
336.982	1172.84
341.81	1300.58
346.634	1400.72
351.456	1367.04
356.275	1405.91
361.091	288.915
365.903	764.565
370.713	1087.03
375.52	1046.95
380.323	946.223
385.124	846.508
389.922	358.006
394.717	94.7022
399.508	224.222
404.297	486.179
409.083	1165.85
413.866	1862.25
418.646	2480.12
423.423	3478.87
428.197	6012.68
432.968	10818.7
437.736	17343
442.502	21525.1
447.264	22360.4
452.024	18275.7
456.78	14364.2
461.534	13926.5
466.284	15033.3
471.032	16661.6
475.777	15103.7
480.519	11265
485.258	9818.73
489.995	9902.51
494.728	9982.11
499.459	9949.24
504.186	9305.72
508.911	8947.63
513.633	8656.59
518.352	7606.03
523.069	7074.94
527.782	6060.3
532.493	5757.67
537.2	5554.63
541.905	6286.36
546.608	6218.28
551.307	6853.33
556.003	7649.16
560.697	8973.14
565.388	9884.46
570.076	10136.6
574.761	10683.1
579.444	10953.3
584.124	10479.4
588.801	9573.34
593.475	8970.6
598.146	9665.92
602.815	11450.8
607.481	13972.3
612.144	15745.5
616.805	16130.6
621.462	17565.8
626.117	22902.2
630.769	32645
635.419	33655.5
640.066	24926.9
644.71	18778.1
649.351	15955.7
653.99	13079
658.625	10738.2
663.259	8477.66
667.889	6494.57
672.517	5309.48
677.142	5025.58
681.765	6266.31
686.384	7878.03
691.001	9355.01
695.616	9409.79
700.228	8104.06
704.837	6740.7
709.443	6470.62
714.047	7102.73
718.648	7854.95
723.246	7601.53
727.842	7400.6
732.435	7098.12
737.026	6619.05
741.614	5878.74
746.199	5023.98
750.782	4503.06
755.362	3514.59
759.94	2367.09
764.514	1344.55
769.087	555.06
773.656	213.422
778.224	283.076
782.788	504.233
787.35	506.987
791.909	28.0918
796.466	128.551
801.02	226.981
805.572	594.382
810.121	770.916
814.668	353.298
819.212	337.919
823.753	1960.43
828.292	4835.87
832.829	9618.31
837.362	12670.1
841.894	9823.34
846.423	4606.02
850.949	1678.65
855.473	244.09
859.994	179.312
864.513	142.562
869.029	21.333
873.543	366.131
878.054	445.546
882.563	556.154
887.069	696.998
891.573	657.952
896.074	909.893
900.573	697.699
905.069	449.1
909.563	219.974
914.055	45.3984
918.544	149.574
923.03	6.625
927.514	120.491
931.996	89.2744
936.475	261.653
940.952	397.438
945.426	462.56
949.898	547.777
954.368	754.887
958.835	769.023
963.299	902.203
967.762	1070.6
972.221	1271.29
976.679	1114.28
981.134	1088.59
985.587	921.144
990.037	852.855
994.485	981.406
998.93	941.75
1003.37	968.359
1007.81	974.563
1012.25	1120.94
1016.69	1372.5
1021.12	1368.85
1025.55	1464.03
1029.98	1575.09
1034.41	1599.11
1038.83	1443.91
1043.26	1548.88
1047.67	1466.65
1052.09	1605.86
1056.51	1563.35
1060.92	1414.37
1065.33	1443.11
1069.74	1257.62
1074.14	1286.87
1078.55	1242.31
1082.95	1249.38
1087.35	1210.69
1091.74	1272.37
1096.14	1309.45
1100.53	1232.96
1104.92	1264.45
1109.31	1086.26
1113.69	1122.23
1118.07	1524.99
1122.45	1545.55
1126.83	1201.98
1131.21	934.34
1135.58	774.578
1139.95	599.799
1144.32	541.039
1148.69	443.172
1153.05	395.193
1157.42	223.182
1161.78	119.223
1166.13	193.389
1170.49	58.9258
1174.85	91.5606
1179.2	18.4854
1183.55	16.3691
1187.89	25.96
1192.24	59.1318
1196.58	56.1348
1200.92	50.4258
1205.26	16.5537
1209.59	1.19824
1213.93	191.027
1218.26	84.8857
1222.59	142.739
1226.91	211.564
1231.24	248.315
1235.56	336.008
1239.88	381.207
1244.2	536.362
1248.52	601.158
1252.83	905.135
1257.14	1110.33
1261.45	1366.72
1265.76	1755.27
1270.07	1948.54
1274.37	2466.83
1278.67	2804.55
1282.97	2743.64
1287.27	2133.66
1291.57	1652.42
1295.86	1053.47
1300.15	1067.79
1304.44	854.512
1308.72	764.544
1313.01	491.241
1317.29	457.034
1321.57	321.188
1325.85	200.393
1330.12	128.003
1334.4	229.658
1338.67	385.263
1342.94	252.633
1347.21	260.381
1351.47	145.17
1355.74	307.006
1360	443.898
1364.26	372.849
1368.52	272.863
1372.77	246.94
1377.03	365.049
1381.28	214.085
1385.53	101.141
1389.77	140.266
1394.02	285.475
1398.26	166.783
1402.5	62.2129
1406.74	15.3613
1410.98	45.3594
1415.21	7.55859
1419.45	167.978
1423.68	0.564453
1427.91	33.2119
1432.13	2.42578
1436.36	22.9531
1440.58	7.74121
1444.8	132.077
1449.02	64.5273
1453.24	231.508
1457.46	255.976
1461.67	381.834
1465.88	366.067
1470.09	389.661
1474.3	222.598
1478.5	343.87
1482.71	349.451
1486.91	251.298
1491.11	336.151
1495.3	195.283
1499.5	332.112
1503.69	299.192
1507.88	281.132
1512.08	146.601
1516.26	304.106
1520.45	134.669
1524.63	159.339
1528.81	269.204
1532.99	110.512
1537.17	79.6924
1541.35	124.493
1545.52	69.0996
1549.7	6.60547
1553.87	179.289
1558.04	139.659
1562.2	65.2881
