Measurement: Raman, 514 nm, ccw, Raman Data Processed
Mineral: Catapleiite
Rruff sample: R060198
Ideal chemistry: Na_2_ZrSi_3_O_9_2H_2_O
Locality: Mont Saint-Hilaire, Rouville County, Quebec, Canada
Source: Royal Ontario Museum
Description: Tan colored pseudohexagonal tabular crystals
Measured chemistry: (Na_1.92_Ca_0.04_[box]_0.04_)_Σ=2_Zr_1.00_Si_3.00_O_9_·2H_2_O
Pin_id: L01561
Orientation: Laser parallel to b* (0 1 0). Fiducial mark perpendicular to laser is parallel to c [0 0 1]
Raman shift (cm-1)	intensity
95.948	0
100.883	20.5732
105.815	438.289
110.744	1240.53
115.671	1371.22
120.596	1411.49
125.519	1510
130.439	1920.5
135.356	2301.95
140.271	2831.31
145.184	3453.09
150.094	3981.16
155.002	4192.42
159.908	3956.07
164.811	3417.42
169.711	2649.33
174.61	2130.31
179.505	1462.81
184.399	1411.66
189.29	1413.35
194.178	1748.29
199.064	2096.28
203.948	2444.3
208.829	2185.88
213.708	1805.34
218.585	1046.39
223.459	637.463
228.33	250.058
233.199	37.2685
238.066	78.9014
242.93	270.364
247.792	112.798
252.651	126.411
257.508	44.8198
262.363	6.40869
267.215	0.568848
272.064	77.9858
276.912	112.171
281.756	301.043
286.598	756.275
291.438	1410.99
296.276	1612.52
301.111	1627.19
305.943	1204.24
310.773	1056.45
315.601	1011.59
320.426	901.465
325.248	879.509
330.068	725.652
334.886	518.815
339.701	312.587
344.514	179.613
349.324	437.777
354.132	355.71
358.938	641.21
363.741	1763.52
368.541	949.415
373.339	760.061
378.135	778.406
382.928	610.729
387.718	539.855
392.506	520.411
397.292	432.152
402.075	660.747
406.856	1335.7
411.634	2616.26
416.41	5501.47
421.183	10225.4
425.954	14901.7
430.722	14541.8
435.488	9487.67
440.251	5427.54
445.012	3212.45
449.77	1868.41
454.526	1192.46
459.28	657.665
464.03	575.109
468.779	301.878
473.525	84.0147
478.268	177.564
483.009	89.7808
487.747	25.6748
492.483	18.4932
497.217	98.7847
501.948	234.458
506.676	417.234
511.402	837.151
516.125	1267.31
520.846	1919.91
525.565	2200.21
530.281	2207.15
534.994	2178.97
539.705	2227.3
544.413	2325.75
549.119	2865.04
553.822	4038.26
558.523	6751.5
563.222	11543.2
567.917	17559.3
572.611	19296
577.302	13996.6
581.99	7165.58
586.676	3303.84
591.359	1786.37
596.04	949.722
600.718	788.23
605.394	907.518
610.067	1497.02
614.737	3061.71
619.406	7003.66
624.071	14095.4
628.734	17975.6
633.395	12256.9
638.053	5492.15
642.708	2290.78
647.361	1142.83
652.012	617.93
656.66	260.663
661.305	256
665.948	122.253
670.588	46.8018
675.226	141.38
679.861	18.8877
684.494	160.256
689.124	122.043
693.752	34.0044
698.377	61.9224
702.999	6.06592
707.619	110.198
712.237	253.588
716.852	383.271
721.464	694.238
726.074	879.479
730.681	1251.98
735.286	1445.73
739.888	1307.72
744.488	877.949
749.085	550.394
753.68	211.056
758.272	74.9062
762.861	3.16846
767.448	16.4082
772.033	136.731
776.614	0.070801
781.194	107.516
785.77	55.1211
790.345	59.9253
794.916	145.426
799.485	25.2671
804.052	46.7134
808.616	116.319
813.177	51.4224
817.736	123.452
822.292	340.033
826.846	425.036
831.397	640.535
835.945	812.416
840.491	621.199
845.035	582.855
849.576	477.929
854.114	516.756
858.65	470.153
863.183	454.146
867.713	534.762
872.241	534.026
876.767	509.966
881.29	628.608
885.81	748.982
890.328	929.114
894.843	1173.3
899.356	1676.28
903.866	2830.52
908.373	4838.33
912.878	7237.43
917.38	10881.9
921.88	20108.1
926.377	37304.7
930.872	51277.8
935.364	45694.4
939.853	28905.5
944.34	17107.1
948.824	11120.2
953.306	5851.34
957.785	3069.41
962.261	1822.17
966.735	1271.12
971.207	961.466
975.675	1165.19
980.141	1471.7
984.605	1883.83
989.066	3412.49
993.524	6641.03
997.98	11482.1
1002.43	15498.9
1006.88	15746.3
1011.33	12880.4
1015.78	9343.2
1020.22	5791.73
1024.66	3487.98
1029.1	2168.99
1033.53	1574.85
1037.97	1368.79
1042.4	918.02
1046.82	697.723
1051.25	420.862
1055.67	284.432
1060.09	205.573
1064.51	304.016
1068.92	270.899
1073.33	595.544
1077.74	1063.77
1082.15	1930.52
1086.55	2858.13
1090.95	2960.99
1095.35	1736.64
1099.75	803.605
1104.14	475.752
1108.53	192.897
1112.92	24.9717
1117.31	200.697
1121.69	477.267
1126.07	396.018
1130.45	181.496
1134.82	78.9316
1139.19	250.706
1143.57	274.886
1147.93	166.673
1152.3	175.588
1156.66	111.54
1161.02	180.19
1165.38	81.3076
1169.73	95.5259
1174.08	137.184
1178.43	40.2217
1182.78	56.4702
1187.12	14.0308
1191.46	88.8066
1195.8	42.5537
1200.14	110.447
1204.47	151.938
1208.8	27.0957
1213.13	12.127
1217.46	79.79
1221.78	18.6587
1226.1	57.7227
1230.42	32.602
1234.73	104.253
1239.04	118.211
1243.35	161.308
1247.66	109.082
1251.97	144.489
1256.27	79.5474
1260.57	232.239
1264.86	275.578
1269.16	134.535
1273.45	316.527
1277.74	132.244
1282.03	295.362
1286.31	261.916
1290.59	175.133
1294.87	269.772
1299.14	353.937
1303.42	199.961
1307.69	290.831
1311.95	319.546
1316.22	214.495
1320.48	260.957
1324.74	292.512
1329	364.437
1333.26	408.504
1337.51	410.602
1341.76	503.696
1346	577.047
1350.25	604.503
1354.49	667.055
1358.73	1081.53
1362.96	1167.2
1367.2	765.412
1371.43	486.048
1375.66	355.848
1379.88	478.017
1384.11	387.276
1388.33	641.451
1392.54	809.673
1396.76	977.602
1400.97	526.396
1405.18	231.594
1409.39	17.2139
1413.59	2.86133
1417.8	3.72754
1421.99	3.12207
1426.19	105.967
1430.38	102.257
1434.58	195.126
1438.77	252.484
1442.95	247.22
1447.13	291.261
1451.32	208.454
1455.49	345.588
1459.67	425.652
1463.84	331.928
1468.01	321.925
1472.18	334.435
1476.35	451.698
1480.51	308.727
1484.67	354.496
1488.83	306.093
1492.98	250.173
1497.13	163.594
1501.28	100.484
1505.43	182.542
1509.57	37.249
1513.71	121.891
1517.85	110.806
1521.99	97.6123
1526.12	255.892
1530.25	314.483
1534.38	182.083
1538.5	83.3418
1542.62	281.024
1546.74	484.227
1550.86	586.227
1554.98	306.541
1559.09	116.03
1563.2	193.267
1567.31	26.0215
