Measurement: Raman, 514 nm, ccw, Raman Data Processed
Mineral: Catapleiite
Rruff sample: R040005
Ideal chemistry: Na_2_ZrSi_3_O_9_2H_2_O
Locality: Langesundsfjord Eikaholmen Vestfold, Norway
Source: University of Arizona Mineral Museum
Description: Brown thin tabular crystal
Measured chemistry: (Na_1.28_Ca_0.36_[box]_0.36_)_Σ=2_Zr_1.00_Si_3.00_O_9_·2H_2_O
Pin_id: L00558
Orientation: Laser parallel to a* (1 0 0). Fiducial mark perpendicular to laser is parallel to -b [0 -1 0]
Raman shift (cm-1)	intensity
168.486	0
173.385	3.73047
178.282	292.621
183.176	582.426
188.067	1027.21
192.956	1411.07
197.843	1792.58
202.727	1870.09
207.609	2036.31
212.489	2234.38
217.366	1859.56
222.24	1485.91
227.112	1035.91
231.982	1022.7
236.849	657.379
241.714	671.836
246.577	531.656
251.437	481.871
256.294	259.082
261.149	371.746
266.002	165.305
270.852	322.891
275.7	189.449
280.545	59.1133
285.388	120.082
290.229	85.9336
295.067	141.269
299.902	286.477
304.735	307.277
309.566	111.402
314.394	308.231
319.22	630.457
324.043	543.398
328.864	609.801
333.682	563.109
338.498	654.121
343.311	707.457
348.122	705.777
352.931	1016.72
357.737	918.711
362.54	1200.32
367.341	971.207
372.14	1129.43
376.936	1103.21
381.73	924.391
386.521	939.938
391.31	1004.58
396.096	1230.37
400.88	1455.12
405.661	1511.82
410.44	1604.42
415.216	1816.22
419.99	2389.11
424.761	3262.05
429.53	4414.45
434.297	5507.66
439.061	6578.19
443.822	5997.21
448.581	4295.22
453.337	2873.32
458.091	1936.11
462.843	1441.62
467.592	884.266
472.338	853.844
477.082	924.606
481.824	305.715
486.563	467.293
491.3	398.023
496.034	390.531
500.765	154.863
505.494	287.07
510.221	328.211
514.945	543.418
519.666	734.809
524.385	713.441
529.102	532.82
533.816	50.0156
538.527	130.301
543.236	192.234
547.943	352.148
552.647	25.4414
557.348	57.5898
562.047	99.9453
566.744	158.773
571.438	718.711
576.129	835.387
580.818	695.168
585.504	321.766
590.188	462.902
594.87	510.566
599.549	389.418
604.225	953.207
608.899	1286.48
613.57	1394.27
618.239	2352.62
622.905	3664.41
627.569	5810.21
632.23	8212.56
636.889	6403.56
641.545	3362.77
646.198	1876.61
650.849	529.305
655.498	567.246
660.144	305.984
664.787	98.7773
669.428	209.125
674.067	12.4102
678.703	181.344
683.336	50.6328
687.967	116.644
692.595	152.512
697.221	195.648
701.844	58.7656
706.465	215.445
711.083	231.168
715.698	228.945
720.311	36.1562
724.922	108.535
729.53	130.969
734.135	328.766
738.738	296.84
743.338	148.918
747.936	435.176
752.531	382.734
757.124	255.438
761.714	127.336
766.302	272.93
770.887	178.832
775.469	113.93
780.049	201.84
784.626	336.641
789.201	154.363
793.773	395.019
798.343	447.613
802.91	439.215
807.475	102.289
812.037	193.027
816.596	45.3828
821.153	25.2227
825.707	191.688
830.259	33.5625
834.808	112.934
839.355	125.121
843.899	287.516
848.441	45.3477
852.98	28.5
857.516	144.031
862.05	321.414
866.581	159.766
871.11	166.781
875.636	139.195
880.159	223.07
884.68	315.09
889.199	38.8711
893.714	57.5977
898.228	208.379
902.738	91.7461
907.246	257.703
911.752	425.793
916.255	243.113
920.755	332.398
925.253	774.668
929.748	1140.94
934.241	975.227
938.731	1253.33
943.218	940.953
947.703	892.727
952.186	876.004
956.665	557.473
961.142	914.383
965.617	878.434
970.089	1478.12
974.558	2549.97
979.025	3929.12
983.489	6098.55
987.951	9593.56
992.41	13428.5
996.866	16651.7
1001.32	17392
1005.77	15419.9
1010.22	12302.5
1014.67	9133.38
1019.11	6629.49
1023.55	4688.91
1027.99	3526.88
1032.42	2549.93
1036.86	2033.84
1041.29	1993.39
1045.72	2147.1
1050.14	1775.65
1054.56	1682.02
1058.98	1413.3
1063.4	1536.26
1067.82	1683.52
1072.23	1999.81
1076.64	3401.47
1081.05	5762.85
1085.45	8800.13
1089.85	9793.94
1094.25	8460.85
1098.65	6285.79
1103.04	3980.42
1107.43	2555.82
1111.82	1539.55
1116.21	952.93
1120.59	829.981
1124.97	518.148
1129.35	443.973
1133.73	212.945
1138.1	305.762
1142.47	536.383
1146.84	256.91
1151.21	558.336
1155.57	536.07
1159.93	232.289
1164.29	464.289
1168.64	598.387
1172.99	289.523
1177.34	477.414
1181.69	400.738
1186.04	51.6641
1190.38	180.156
1194.72	484.742
1199.05	24.9648
1203.39	295.906
1207.72	114.879
1212.05	83.9414
1216.37	74.6484
1220.7	86.9062
1225.02	402.988
1229.34	52.3438
1233.65	52.8242
1237.97	69.3516
1242.28	81.9141
1246.59	216.543
1250.89	58.2227
1255.19	40.2383
1259.49	249.254
1263.79	397.023
1268.09	161.188
1272.38	36.0586
1276.67	163.812
1280.95	325.719
1285.24	161.969
1289.52	105.543
1293.8	72.3633
1298.08	25.207
1302.35	94.5352
1306.62	379.438
1310.89	262.644
1315.15	342.375
1319.42	358.656
1323.68	97.4336
1327.94	687.523
1332.19	432.18
1336.44	448.438
1340.69	599.394
1344.94	293.106
1349.19	410.371
1353.43	362.93
1357.67	493.359
1361.9	602.641
1366.14	541.039
1370.37	307.277
1374.6	443.953
1378.83	509.254
1383.05	749.648
1387.27	398.367
1391.49	130.723
1395.7	299.141
1399.92	397.816
1404.13	479.738
1408.34	252.027
1412.54	51.1641
1416.74	588.539
1420.94	9.34375
1425.14	169
1429.34	187.129
1433.53	274.047
1437.72	278.742
1441.9	413.398
1446.09	265.141
1450.27	500.094
1454.45	472.102
1458.63	405.914
1462.8	211.086
1466.97	390.637
1471.14	232.234
1475.31	73.8789
1479.47	267.293
1483.63	516.418
1487.79	170.027
1491.94	74.4844
1496.09	367.113
1500.24	282.359
1504.39	198.969
1508.54	114.754
1512.68	469.688
1516.82	291.582
1520.95	120.172
1525.09	267.383
1529.22	152.09
1533.35	29.9648
1537.47	109.859
1541.6	379.293
1545.72	370.832
1549.83	98.3438
1553.95	147.254
1558.06	72.9062
1562.17	180.66
1566.28	237.453
1570.38	1.48828
