Measurement: Raman, 514 nm, ccw, Raman Data Processed
Mineral: Catapleiite
Rruff sample: R040005
Ideal chemistry: Na_2_ZrSi_3_O_9_2H_2_O
Locality: Langesundsfjord Eikaholmen Vestfold, Norway
Source: University of Arizona Mineral Museum
Description: Brown thin tabular crystal
Measured chemistry: (Na_1.28_Ca_0.36_[box]_0.36_)_Σ=2_Zr_1.00_Si_3.00_O_9_·2H_2_O
Pin_id: L01591
Orientation: Laser parallel to b* (0 1 0). Fiducial mark perpendicular to laser is parallel to -c [0 0 -1]
Raman shift (cm-1)	intensity
120.596	0
125.519	65.5137
130.439	339.299
135.356	238.269
140.271	690.291
145.184	859.258
150.094	1189.21
155.002	1072.27
159.908	1057.55
164.811	1453.77
169.711	1444.17
174.61	1832.4
179.505	2261.34
184.399	2473.55
189.29	3314.17
194.178	3946.16
199.064	5016.74
203.948	5684.14
208.829	5862.81
213.708	5768.09
218.585	4542.24
223.459	3153.78
228.33	2108.58
233.199	1427
238.066	936.481
242.93	726.564
247.792	472.332
252.651	456.922
257.508	508.016
262.363	47.082
267.215	141.44
272.064	169.051
276.912	188.125
281.756	109.559
286.598	186.356
291.438	56.5312
296.276	281.426
301.111	443.779
305.943	565.594
310.773	928.369
315.601	1183.11
320.426	1216.41
325.248	1260.69
330.068	1244.81
334.886	1312.33
339.701	1225.87
344.514	1309.42
349.324	1406.17
354.132	1724.94
358.938	1935.75
363.741	2089.36
368.541	2023.16
373.339	2000.23
378.135	1872.59
382.928	1837.07
387.718	1884.17
392.506	2184.06
397.292	2342.56
402.075	2628.83
406.856	3157.39
411.634	3807.49
416.41	4736.38
421.183	6485.73
425.954	9019.52
430.722	11012.2
435.488	11174.2
440.251	10265.6
445.012	8182.2
449.77	5626.84
454.526	3539.14
459.28	2475.69
464.03	1629.94
468.779	1194.87
473.525	1055.29
478.268	853.969
483.009	465.961
487.747	475.756
492.483	448.481
497.217	455.188
501.948	751.125
506.676	912.264
511.402	992.664
516.125	1455.2
520.846	1573.94
525.565	1269.19
530.281	1053.54
534.994	670.969
539.705	269.016
544.413	384.881
549.119	116.172
553.822	205.361
558.523	297.75
563.222	584.338
567.917	829.838
572.611	1385.44
577.302	1386.24
581.99	1189.31
586.676	819.346
591.359	712.107
596.04	715.967
600.718	1028.24
605.394	1227.32
610.067	1875.44
614.737	2846.65
619.406	4897.81
624.071	8465.54
628.734	12904.8
633.395	13212.5
638.053	8314.09
642.708	3752.1
647.361	1659.75
652.012	845.639
656.66	299.227
661.305	237.578
665.948	83.9277
670.588	199.486
675.226	9.21289
679.861	12.0156
684.494	332.373
689.124	2.21875
693.752	109.568
698.377	152.91
702.999	52.2051
707.619	153.691
712.237	1.01562
716.852	118.168
721.464	123.252
726.074	310.111
730.681	159.371
735.286	71.3496
739.888	290.902
744.488	157.869
749.085	446.99
753.68	121.43
758.272	309.914
762.861	204.418
767.448	95.1172
772.033	229.199
776.614	130.639
781.194	180.201
785.77	172.844
790.345	54.6953
794.916	44.0684
799.485	18.2676
804.052	166.08
808.616	90.0117
813.177	144.658
817.736	270.086
822.292	22.5293
826.846	270.297
831.397	219.908
835.945	227.141
840.491	157.34
845.035	146.883
849.576	169.027
854.114	6.0293
858.65	9.5293
863.183	52.5684
867.713	68.2676
872.241	106.084
876.767	87.0938
881.29	38.9648
885.81	166.785
890.328	32.5059
894.843	57.8262
899.356	264.621
903.866	332.385
908.373	767.356
912.878	866.408
917.38	1045.54
921.88	1647.59
926.377	2062.4
930.872	2687.81
935.364	2886.58
939.853	2651.18
944.34	2292.65
948.824	1765.96
953.306	1508.68
957.785	1444.22
962.261	1686.24
966.735	2218.95
971.207	3299.82
975.675	5259.63
980.141	8187.27
984.605	14009.1
989.066	21451.6
993.524	30251.6
997.98	37589.6
1002.43	38390.5
1006.88	34034.2
1011.33	26834.5
1015.78	22741.9
1020.22	13763.4
1024.66	9980.61
1029.1	7225.47
1033.53	5843.97
1037.97	5256.3
1042.4	4879.77
1046.82	4626.48
1051.25	4097.6
1055.67	3488.39
1060.09	3277.86
1064.51	3259.52
1068.92	3726.24
1073.33	5389.48
1077.74	8492.43
1082.15	13733.9
1086.55	19274
1090.95	19666.8
1095.35	15177.6
1099.75	9956.64
1104.14	6245.2
1108.53	3910.75
1112.92	2697.1
1117.31	2049.23
1121.69	2191.78
1126.07	1295.69
1130.45	695.051
1134.82	474.539
1139.19	725.613
1143.57	581.457
1147.93	687.342
1152.3	567.551
1156.66	726.477
1161.02	511.188
1165.38	478.846
1169.73	629.551
1174.08	780.037
1178.43	404.279
1182.78	522.67
1187.12	250.894
1191.46	80.4531
1195.8	15.8105
1200.14	33.957
1204.47	93.4609
1208.8	102.34
1213.13	4.49219
1217.46	113.711
1221.78	63.666
1226.1	92.5273
1230.42	155.826
1234.73	90.4238
1239.04	150.783
1243.35	80.8555
1247.66	112.529
1251.97	9.59375
1256.27	83.9961
1260.57	183.228
1264.86	53.7852
1269.16	95.6231
1273.45	67.043
1277.74	22.918
1282.03	253.955
1286.31	83.2519
1290.59	71.8457
1294.87	237
1299.14	245.918
1303.42	255.857
1307.69	226.135
1311.95	172.658
1316.22	363.85
1320.48	308.728
1324.74	140.371
1329	385.055
1333.26	325.853
1337.51	118.072
1341.76	210.096
1346	197.316
1350.25	341.361
1354.49	437.809
1358.73	157.838
1362.96	467.652
1367.2	338.551
1371.43	522.719
1375.66	353.393
1379.88	364.438
1384.11	281.387
1388.33	161.631
1392.54	123.449
1396.76	314.932
1400.97	121.502
1405.18	240.041
1409.39	218.258
1413.59	228.881
1417.8	405.496
1421.99	312.644
1426.19	318.981
1430.38	6.16992
1434.58	326.174
1438.77	455.922
1442.95	243.941
1447.13	471.516
1451.32	309.258
1455.49	349.016
1459.67	216.701
1463.84	319.615
1468.01	294.51
1472.18	448.973
1476.35	478.156
1480.51	390.746
1484.67	169.047
1488.83	344.912
1492.98	302.262
1497.13	123.428
1501.28	18.459
1505.43	122.963
1509.57	226.719
1513.71	31.6523
1517.85	184.453
1521.99	399.029
1526.12	79.9512
1530.25	118.019
1534.38	121.1
1538.5	352.148
1542.62	262.662
1546.74	73.8535
1550.86	421.113
1554.98	328.6
1559.09	196.113
1563.2	249.207
1567.31	135.037
1571.41	0
