Measurement: Raman, 514 nm, ccw, Raman Data Processed
Mineral: Catapleiite
Rruff sample: R060198
Ideal chemistry: Na_2_ZrSi_3_O_9_2H_2_O
Locality: Mont Saint-Hilaire, Rouville County, Quebec, Canada
Source: Royal Ontario Museum
Description: Tan colored pseudohexagonal tabular crystals
Measured chemistry: (Na_1.92_Ca_0.04_[box]_0.04_)_Σ=2_Zr_1.00_Si_3.00_O_9_·2H_2_O
Pin_id: L01561
Orientation: Laser parallel to b* (0 1 0). Fiducial mark perpendicular to laser is parallel to c [0 0 1]
Raman shift (cm-1)	intensity
95.948	0
100.883	111.621
105.815	496.56
110.744	1276.14
115.671	1458.11
120.596	1451.1
125.519	1678.98
130.439	1958.28
135.356	2117.06
140.271	2915.39
145.184	3498.31
150.094	4114.67
155.002	4654.37
159.908	4335.3
164.811	3628.71
169.711	2640.75
174.61	2084.53
179.505	1489.54
184.399	1355.39
189.29	1434.41
194.178	1769.97
199.064	2254.28
203.948	2807.64
208.829	2471.68
213.708	2060.73
218.585	1379.64
223.459	867.993
228.33	380.338
233.199	239.972
238.066	4.51318
242.93	62.1855
247.792	236.392
252.651	125.29
257.508	38.6221
262.363	259.978
267.215	151.855
272.064	128.185
276.912	86.9546
281.756	417.02
286.598	996.663
291.438	1606.86
296.276	1772.93
301.111	1380.15
305.943	1230.81
310.773	985.5
315.601	823.358
320.426	735.4
325.248	721.337
330.068	596.754
334.886	511.701
339.701	404.207
344.514	167.359
349.324	206.162
354.132	352.711
358.938	713.676
363.741	862.719
368.541	958.505
373.339	875.529
378.135	814.384
382.928	772.967
387.718	563.794
392.506	529.945
397.292	433.894
402.075	699.425
406.856	1309.9
411.634	2859.49
416.41	5579.25
421.183	10639.9
425.954	14609.4
430.722	13434.5
435.488	8850.07
440.251	4870.57
445.012	2995.08
449.77	1884.64
454.526	1065.28
459.28	681.031
464.03	503.978
468.779	347.209
473.525	81.7744
478.268	70.5542
483.009	37.2461
487.747	30.4346
492.483	69.8369
497.217	32.4233
501.948	70.3516
506.676	417.56
511.402	759.718
516.125	1271.95
520.846	1756.33
525.565	1974.86
530.281	2184.66
534.994	2182.32
539.705	2108.09
544.413	2234.86
549.119	2815.24
553.822	4172.71
558.523	6746.76
563.222	11507.9
567.917	16925.9
572.611	17379
577.302	12111.4
581.99	6277
586.676	3023.9
591.359	1543.05
596.04	909.429
600.718	695.021
605.394	900.81
610.067	1393.77
614.737	2862.89
619.406	6771.73
624.071	13937.4
628.734	16371.8
633.395	10741.3
638.053	4769.9
642.708	2114.83
647.361	960.805
652.012	496.443
656.66	254.429
661.305	289.127
665.948	121.861
670.588	35.6802
675.226	51.0996
679.861	109.221
684.494	123.29
689.124	101.59
693.752	1.74072
698.377	23.854
702.999	43.8452
707.619	208.178
712.237	241.401
716.852	371.961
721.464	684.669
726.074	882.69
730.681	1411.95
735.286	1601.45
739.888	1313.18
744.488	917.124
749.085	597.278
753.68	307.637
758.272	171.188
762.861	69.8955
767.448	114.539
772.033	38.8242
776.614	124.252
781.194	76.9912
785.77	42.1191
790.345	72.1162
794.916	64.1626
799.485	59.2358
804.052	23.1763
808.616	82.2358
813.177	20.2129
817.736	130.408
822.292	219.275
826.846	411.553
831.397	691.745
835.945	733.114
840.491	632.765
845.035	446.446
849.576	475.662
854.114	442.448
858.65	482.832
863.183	353.84
867.713	502.502
872.241	455.843
876.767	491.894
881.29	674.682
885.81	799.238
890.328	888.589
894.843	1207.04
899.356	1733.13
903.866	2867.88
908.373	5003.54
912.878	7479.13
917.38	11540.1
921.88	21345.1
926.377	38597.4
930.872	52520.1
935.364	46938
939.853	29507.9
944.34	18191.7
948.824	11905.2
953.306	6429.7
957.785	3288.62
962.261	2037.49
966.735	1401.15
971.207	1095.74
975.675	1216.34
980.141	1483.92
984.605	2312.33
989.066	3890.45
993.524	7607.26
997.98	13163.8
1002.43	17430
1006.88	17730
1011.33	14663.7
1015.78	10436.2
1020.22	6770.44
1024.66	4150.45
1029.1	2582.26
1033.53	1935.89
1037.97	1590.6
1042.4	1247.78
1046.82	928.374
1051.25	603.548
1055.67	282.807
1060.09	346.024
1064.51	169.425
1068.92	445.954
1073.33	577.035
1077.74	954.671
1082.15	1722.87
1086.55	2803.51
1090.95	2712.1
1095.35	1688.03
1099.75	953.192
1104.14	259.433
1108.53	213.348
1112.92	148.852
1117.31	256.251
1121.69	437.275
1126.07	416.727
1130.45	276.394
1134.82	229.637
1139.19	294.91
1143.57	259.192
1147.93	238.461
1152.3	205.037
1156.66	205.968
1161.02	148.205
1165.38	120.109
1169.73	152.591
1174.08	106.144
1178.43	24.1191
1182.78	5.63965
1187.12	31.291
1191.46	106.124
1195.8	83.3311
1200.14	76.6943
1204.47	6.98633
1208.8	82.8301
1213.13	59.124
1217.46	29.249
1221.78	78.2334
1226.1	3.01269
1230.42	71.6328
1234.73	34.4951
1239.04	81.3916
1243.35	164.001
1247.66	195.861
1251.97	195.363
1256.27	143.526
1260.57	149.301
1264.86	225.358
1269.16	273.688
1273.45	232.286
1277.74	294.478
1282.03	233.763
1286.31	121.574
1290.59	421.472
1294.87	219.196
1299.14	261.768
1303.42	315.199
1307.69	380.534
1311.95	247.952
1316.22	284.292
1320.48	270.256
1324.74	289.742
1329	378.919
1333.26	383.04
1337.51	436.166
1341.76	617.357
1346	617.806
1350.25	601.648
1354.49	823.195
1358.73	1063.31
1362.96	1162.94
1367.2	785.448
1371.43	585.975
1375.66	326.137
1379.88	432.828
1384.11	298.912
1388.33	608.492
1392.54	968.453
1396.76	1081.92
1400.97	711.773
1405.18	155.715
1409.39	116.498
1413.59	17.293
1417.8	26.1396
1421.99	109.001
1426.19	99.5713
1430.38	273.067
1434.58	92.6211
1438.77	292.336
1442.95	305.799
1447.13	339.287
1451.32	428.771
1455.49	385.989
1459.67	324.572
1463.84	383.849
1468.01	431.578
1472.18	430.922
1476.35	446.359
1480.51	333.507
1484.67	232.411
1488.83	321.635
1492.98	277.301
1497.13	72.0176
1501.28	146.62
1505.43	122.368
1509.57	153.542
1513.71	167.393
1517.85	50.2529
1521.99	174.051
1526.12	144.134
1530.25	58.9443
1534.38	125.022
1538.5	100.189
1542.62	244.405
1546.74	505.472
1550.86	277.907
1554.98	157.249
1559.09	105.554
1563.2	133.167
1567.31	71.4971
