Measurement: Raman, 514 nm, ccw, Raman Data Processed
Mineral: Catapleiite
Rruff sample: R060208
Ideal chemistry: Na_2_ZrSi_3_O_9_2H_2_O
Locality: Mont Saint-Hilaire, Rouville County, Quebec, Canada
Source: Royal Ontario Museum
Description: Colorless transparent thin tabular pseudohexagonal crystal
Measured chemistry: Na_2.00_Zr_1.00_Si_3.00_O_9_Â·2H_2_O
Pin_id: M01705
Orientation: Laser parallel to a* (1 0 0). Fiducial mark perpendicular to laser is parallel to -b [0 -1 0]
Raman shift (cm-1)	intensity
122.148	0
127.081	162.786
132.011	345.376
136.938	711.599
141.864	916.959
146.786	1337.54
151.706	1589.29
156.624	1897.57
161.539	2033.76
166.451	1744.85
171.361	1341.47
176.269	1154.4
181.173	1244.89
186.076	1425
190.975	1916.2
195.873	2427.92
200.767	3047.05
205.659	3217.6
210.549	3084.44
215.436	2602.89
220.321	1536.32
225.203	865.385
230.082	436.326
234.959	342.017
239.833	9.35547
244.705	51.3779
249.574	160.086
254.441	71.5625
259.305	1.22266
264.167	62.9736
269.026	58.8818
273.882	173.453
278.736	28.1699
283.588	349.847
288.436	720.834
293.283	734.632
298.126	755.043
302.968	658.79
307.806	479.457
312.642	656.997
317.476	598.778
322.307	499.118
327.135	370.898
331.961	304.292
336.784	48.1641
341.605	11.5264
346.423	23.417
351.239	235.287
356.052	357.958
360.863	647.599
365.671	582.196
370.476	476.748
375.279	535.128
380.079	500.722
384.877	404.649
389.672	443.087
394.465	531.3
399.255	491.421
404.042	789.359
408.827	1679.62
413.609	3009.35
418.389	5957.4
423.166	10776.4
427.941	14364.7
432.713	11961.1
437.483	6758.33
442.25	3616.5
447.014	2107.59
451.776	1576.65
456.535	800.703
461.292	429.792
466.046	478.941
470.797	370.088
475.546	371.934
480.293	10.834
485.037	199.922
489.778	151.875
494.517	84.3984
499.253	213.672
503.986	402.58
508.717	544.979
513.446	1396.94
518.171	1991.51
522.895	2276.22
527.615	2158.96
532.334	2154.8
537.049	2075.23
541.762	1854.3
546.472	2280.64
551.18	2667.69
555.885	3801.71
560.588	6090.93
565.288	10238
569.986	14641.6
574.681	14457.7
579.373	9349.78
584.063	4565.31
588.75	2283.91
593.435	1332.18
598.117	832.356
602.796	768.156
607.473	1044.99
612.147	2088.86
616.819	3836.03
621.488	8269.52
626.155	13971
630.819	14106.1
635.48	7240.05
640.139	2967.05
644.795	1534.57
649.449	853.652
654.1	354.227
658.748	222.842
663.394	288.713
668.037	196.065
672.678	202.356
677.316	33.2188
681.952	3.66211
686.585	97.1777
691.215	91.0332
695.843	84.1269
700.468	166.779
705.09	2.61328
709.711	145.732
714.328	5.50391
718.943	343.41
723.555	326.641
728.165	690.184
732.772	695.029
737.376	766.172
741.978	718.641
746.577	285.35
751.174	153.33
755.768	218.522
760.36	75.8203
764.949	15.2188
769.535	55.7402
774.119	4.38672
778.7	180.773
783.279	44.959
787.855	17.0508
792.428	129.934
796.999	283.629
801.567	68.6191
806.133	130.898
810.696	139.272
815.256	180.877
819.814	74.1543
824.369	7.69922
828.922	316.334
833.472	301.398
838.019	33.8809
842.564	5.54492
847.107	139.918
851.646	366.801
856.183	298.992
860.718	192.988
865.25	207.555
869.779	223.713
874.306	353.453
878.83	343.799
883.351	217.768
887.87	237.09
892.386	417.697
896.9	378.412
901.411	653.234
905.92	1234.72
910.426	1943.29
914.929	3052.89
919.43	6002.35
923.928	11745.9
928.423	20476.2
932.916	24134.9
937.407	16732.5
941.894	8671.28
946.38	4758.22
950.862	2939.32
955.342	1566.33
959.819	1067.86
964.294	763.494
968.766	917.664
973.236	963.519
977.703	1662.56
982.167	2716.1
986.629	4791.37
991.088	9478.57
995.544	17204
999.998	25209.6
1004.45	27884.5
1008.9	24327.7
1013.34	18778.4
1017.79	12571.6
1022.23	6972.06
1026.67	4263.54
1031.1	2973.67
1035.54	2515.24
1039.97	2451.8
1044.39	1803.35
1048.82	984.582
1053.24	824.15
1057.66	638.266
1062.08	342.623
1066.49	443.227
1070.91	650.891
1075.32	1152.8
1079.72	1738.7
1084.13	2840.85
1088.53	3642.78
1092.93	2913.29
1097.33	1616.65
1101.72	781.098
1106.11	399.592
1110.5	192.863
1114.89	169.467
1119.27	251.799
1123.65	164.715
1128.03	34.9648
1132.4	25.4902
1136.78	226.191
1141.15	8
1145.52	18.8945
1149.88	110.178
1154.24	359.352
1158.61	0.457031
1162.96	22.2305
1167.32	130.578
1171.67	101.328
1176.02	20.752
1180.37	110.455
1184.71	34.9824
1189.05	26.6367
1193.39	37.9336
1197.73	128.897
1202.06	148.441
1206.4	12.6152
1210.72	275.049
1215.05	120.656
1219.37	147.803
1223.7	3.50391
1228.01	49.0781
1232.33	29.3613
1236.64	139.883
1240.95	187.633
1245.26	212.717
1249.57	220.162
1253.87	237.67
1258.17	245.025
1262.47	101.994
1266.76	275.1
1271.06	1.66211
1275.35	191.039
1279.63	138.295
1283.92	22.9844
1288.2	240.99
1292.48	56.0059
1296.76	193.539
1301.03	1.93945
1305.3	123.119
1309.57	280.887
1313.84	357.254
1318.1	388.014
1322.36	249.871
1326.62	413.981
1330.88	509.512
1335.13	52.2578
1339.38	317.324
1343.63	259.352
1347.87	402.523
1352.12	206.254
1356.36	39.3398
1360.59	153.539
1364.83	163.793
1369.06	134.004
1373.29	263.715
1377.52	127.461
1381.74	58.3867
1385.96	99.1172
1390.18	454.742
1394.4	107.445
1398.62	258.086
1402.83	294.496
1407.04	317.324
1411.24	359.148
1415.45	213.144
1419.65	164.305
1423.85	441.938
1428.04	440.031
1432.23	326.703
1436.43	156.34
1440.61	342.312
1444.8	276.746
1448.98	313.762
1453.16	195.84
1457.34	280.184
1461.52	291.312
1465.69	321.769
1469.86	413.363
1474.03	418.309
1478.19	587.633
1482.35	733.188
1486.51	215.152
1490.67	401.981
1494.82	207.555
1498.97	460.16
1503.12	312.578
1507.27	107.231
1511.41	282.863
1515.55	17.5508
1519.69	182.231
1523.83	416.828
1527.96	199.734
1532.09	78.7031
1536.22	115.324
1540.35	218.941
1544.47	242.043
1548.59	286.527
1552.71	198.602
1556.82	145.34
1560.93	13.4883
