Measurement: Raman, 514 nm, ccw, Raman Data Processed
Mineral: Catapleiite
Rruff sample: R060198
Ideal chemistry: Na_2_ZrSi_3_O_9_2H_2_O
Locality: Mont Saint-Hilaire, Rouville County, Quebec, Canada
Source: Royal Ontario Museum
Description: Tan colored pseudohexagonal tabular crystals
Measured chemistry: (Na_1.92_Ca_0.04_[box]_0.04_)_Σ=2_Zr_1.00_Si_3.00_O_9_·2H_2_O
Pin_id: L00755
Orientation: Laser parallel to -a* (-1 0 0). Fiducial mark perpendicular to laser is parallel to -b [0 -1 0]
Raman shift (cm-1)	intensity
95.948	0
100.883	68.2036
105.815	316.756
110.744	623.371
115.671	764.183
120.596	346.917
125.519	285.482
130.439	556.127
135.356	740.732
140.271	1079.4
145.184	1331.54
150.094	1472.48
155.002	1543.19
159.908	1576.65
164.811	1744.99
169.711	1891.9
174.61	1954.35
179.505	2396.65
184.399	2960.16
189.29	3986.72
194.178	5284.33
199.064	6474.01
203.948	7147.26
208.829	6761.06
213.708	5536.48
218.585	3714.53
223.459	2211.94
228.33	1184.61
233.199	675.298
238.066	267.072
242.93	131.26
247.792	160.196
252.651	71.8555
257.508	125.894
262.363	43.3633
267.215	45.0986
272.064	136.1
276.912	155.046
281.756	111.862
286.598	18.5039
291.438	109.186
296.276	208.257
301.111	177.923
305.943	76.3101
310.773	39.5073
315.601	150.555
320.426	251.226
325.248	485.529
330.068	426.744
334.886	367.524
339.701	300.119
344.514	386.879
349.324	493.956
354.132	780.406
358.938	1182.42
363.741	1230.08
368.541	1007.4
373.339	800.459
378.135	592.367
382.928	584.279
387.718	486.772
392.506	539.677
397.292	490.691
402.075	540.417
406.856	832.122
411.634	1445.03
416.41	2283.61
421.183	4062.37
425.954	5932.65
430.722	5645.82
435.488	3623.13
440.251	2033.23
445.012	1319.52
449.77	684.599
454.526	501.366
459.28	341.625
464.03	225.382
468.779	183.425
473.525	202.1
478.268	198.39
483.009	262.652
487.747	166.3
492.483	223.607
497.217	331.567
501.948	583.809
506.676	752.268
511.402	1190.36
516.125	1684.19
520.846	2155.28
525.565	1894.06
530.281	1458.25
534.994	1047.19
539.705	775.283
544.413	645.314
549.119	587.386
553.822	772.332
558.523	1380.62
563.222	2406.67
567.917	3582.47
572.611	3784.8
577.302	2427.03
581.99	1026.8
586.676	488.699
591.359	80.4438
596.04	104.212
600.718	36.9648
605.394	107.668
610.067	304.29
614.737	825.049
619.406	2040.29
624.071	4283.29
628.734	6085.02
633.395	3784.79
638.053	1500.88
642.708	549.893
647.361	158.932
652.012	176.524
656.66	72.1997
661.305	24.7705
665.948	14.2315
670.588	100.855
675.226	26.9731
679.861	43.5664
684.494	135.228
689.124	140.373
693.752	127.99
698.377	97.0278
702.999	69.3867
707.619	116.101
712.237	141.211
716.852	183.727
721.464	175.665
726.074	271.022
730.681	318.799
735.286	360.081
739.888	362.456
744.488	273.328
749.085	200.777
753.68	101.683
758.272	9.1416
762.861	26.6382
767.448	72.9429
772.033	85.582
776.614	64.563
781.194	9.63281
785.77	23.73
790.345	62.4502
794.916	147.852
799.485	5.5957
804.052	3.61865
808.616	136.009
813.177	55.831
817.736	60.6333
822.292	182.533
826.846	308.745
831.397	514.964
835.945	650.471
840.491	709.219
845.035	466.327
849.576	497.179
854.114	308.162
858.65	211.335
863.183	91.2227
867.713	69.1362
872.241	27.0493
876.767	20.3164
881.29	63.3442
885.81	74.9634
890.328	75.1103
894.843	163.917
899.356	428.76
903.866	1011.02
908.373	1929.32
912.878	2287.37
917.38	3079.59
921.88	5328.46
926.377	8865.25
930.872	11503.3
935.364	10418.8
939.853	7331.9
944.34	5826.82
948.824	4138.38
953.306	2270.57
957.785	1379.75
962.261	1284.77
966.735	1155.45
971.207	1461.86
975.675	2089.95
980.141	3395.68
984.605	5572.03
989.066	10243
993.524	20138.6
997.98	33026.8
1002.43	42097.6
1006.88	40895.6
1011.33	32777.5
1015.78	22940.2
1020.22	15729.2
1024.66	8431.56
1029.1	5738.47
1033.53	4423.25
1037.97	3862.16
1042.4	3322.25
1046.82	2282.49
1051.25	1621.73
1055.67	1290.96
1060.09	994.167
1064.51	1077.18
1068.92	1004.89
1073.33	1553.96
1077.74	2288.41
1082.15	3689.9
1086.55	5647.37
1090.95	5792.82
1095.35	3956.83
1099.75	2235.78
1104.14	1211.02
1108.53	796.138
1112.92	432.022
1117.31	395.851
1121.69	375.978
1126.07	380.546
1130.45	371.655
1134.82	145.475
1139.19	266.9
1143.57	133.341
1147.93	174.012
1152.3	152.273
1156.66	110.891
1161.02	178.881
1165.38	85.3125
1169.73	46.0049
1174.08	69.8603
1178.43	118.82
1182.78	32.1416
1187.12	3.0166
1191.46	48.873
1195.8	125.17
1200.14	11.0225
1204.47	65.6074
1208.8	60.0254
1213.13	25.0566
1217.46	34.5469
1221.78	87.25
1226.1	117.276
1230.42	34.4268
1234.73	0.259766
1239.04	171.869
1243.35	128.199
1247.66	98.3516
1251.97	140.278
1256.27	123.976
1260.57	203.435
1264.86	249.655
1269.16	226.686
1273.45	94.4248
1277.74	293.836
1282.03	352.16
1286.31	251.676
1290.59	409.022
1294.87	365.198
1299.14	410.16
1303.42	270.377
1307.69	278.034
1311.95	283.648
1316.22	241.716
1320.48	305.118
1324.74	162.602
1329	380.284
1333.26	294.624
1337.51	242.239
1341.76	386.97
1346	481.541
1350.25	429.129
1354.49	573.181
1358.73	891.35
1362.96	1001.86
1367.2	718.494
1371.43	396.011
1375.66	404.1
1379.88	336.45
1384.11	435.251
1388.33	507.279
1392.54	766.474
1396.76	880.082
1400.97	293.865
1405.18	72.8926
1409.39	65.8594
1413.59	30.6406
1417.8	36.4658
1421.99	97.585
1426.19	97.8799
1430.38	177.963
1434.58	240.183
1438.77	157.888
1442.95	339.445
1447.13	301.319
1451.32	235.537
1455.49	189.826
1459.67	308.68
1463.84	333.969
1468.01	377.59
1472.18	311.108
1476.35	181.477
1480.51	297.698
1484.67	258.624
1488.83	355.288
1492.98	180.631
1497.13	179.851
1501.28	179.536
1505.43	149.206
1509.57	37.0664
1513.71	126.875
1517.85	5.98926
1521.99	124.077
1526.12	52.7559
1530.25	121.824
1534.38	66.167
1538.5	208.453
1542.62	265.455
1546.74	294.894
1550.86	290.146
1554.98	208.651
1559.09	53.4209
1563.2	115.028
1567.31	85.8623
