Measurement: Raman, 514 nm, ccw, Raman Data Processed
Mineral: Catapleiite
Rruff sample: R040005
Ideal chemistry: Na_2_ZrSi_3_O_9_2H_2_O
Locality: Langesundsfjord Eikaholmen Vestfold, Norway
Source: University of Arizona Mineral Museum
Description: Brown thin tabular crystal
Measured chemistry: (Na_1.28_Ca_0.36_[box]_0.36_)_Σ=2_Zr_1.00_Si_3.00_O_9_·2H_2_O
Pin_id: L00558
Orientation: Laser parallel to a* (1 0 0). Fiducial mark perpendicular to laser is parallel to -b [0 -1 0]
Raman shift (cm-1)	intensity
151.321	0
156.229	83.4082
161.134	371.33
166.036	477.42
170.936	752.648
175.834	1085.93
180.729	1769.37
185.622	2158.8
190.512	2883.61
195.4	3669.47
200.286	4570.19
205.169	5215.49
210.049	5769.83
214.928	5631.89
219.803	4632.82
224.677	3091.31
229.548	2036.94
234.416	1435.63
239.282	1141.98
244.146	620.871
249.007	768.418
253.866	272.443
258.722	625.326
263.576	229.316
268.427	138.252
273.276	23.8164
278.123	145.006
282.967	117.387
287.809	150.131
292.648	22.8047
297.485	68.0547
302.319	326.457
307.151	472.852
311.98	487.006
316.807	560.666
321.631	750.428
326.454	890.211
331.273	816.75
336.09	1022.54
340.905	849.992
345.717	937.635
350.527	1126.66
355.334	1411.66
360.139	1362.62
364.941	1461.93
369.741	1346.83
374.538	1094.51
379.333	1014.71
384.126	862.096
388.916	884.84
393.703	973.424
398.488	928.518
403.271	859.434
408.051	985.725
412.828	878.621
417.603	1221.4
422.376	1737.49
427.146	1864.52
431.914	2381.93
436.679	3314.03
441.442	3566.23
446.202	3234.28
450.96	2200.45
455.715	1165.82
460.467	662.18
465.218	751.764
469.965	281.268
474.711	238.734
479.454	233.629
484.194	128.307
488.932	213.523
493.667	248.315
498.4	478.617
503.13	520.814
507.858	849.662
512.583	1102.34
517.306	1519.88
522.026	1399.2
526.744	1093.16
531.459	916.039
536.172	672.375
540.882	334.691
545.59	453.787
550.295	368.215
554.998	425.596
559.698	625.479
564.396	1302.56
569.091	1947.49
573.784	2619.33
578.474	2350.43
583.162	1638.74
587.847	881.717
592.529	624.965
597.209	272.068
601.887	379.9
606.562	397.353
611.235	497.453
615.905	861.232
620.572	1517.62
625.237	2645.23
629.9	4317
634.56	5240.18
639.217	3047.2
643.872	1583.89
648.524	588.742
653.174	345.1
657.821	173.496
662.466	33.8828
667.108	97.1758
671.748	41.8477
676.385	171.754
681.02	130.135
685.652	68.6758
690.281	70.9473
694.908	197.199
699.533	61.5977
704.155	31.1973
708.774	27.0508
713.391	249.547
718.005	68.9863
722.617	338.266
727.226	344.676
731.833	581.133
736.437	316.766
741.039	705.918
745.638	381.062
750.234	344.394
754.828	366.832
759.419	259.801
764.008	235.731
768.595	333.66
773.178	383.484
777.759	434.59
782.338	46.6484
786.914	121.773
791.488	508.031
796.059	353.449
800.627	55.5664
805.193	245.918
809.756	174.289
814.317	139.512
818.875	304.684
823.431	206.281
827.984	374.195
832.534	42.9375
837.082	22.1445
841.627	35.3594
846.17	55.2812
850.71	76.9531
855.248	73.9648
859.783	52.5938
864.316	3.08984
868.846	174.906
873.373	78.2461
877.898	90.3477
882.42	46.0391
886.94	60.7539
891.457	140.578
895.971	334.555
900.483	359.738
904.993	733.141
909.5	1354.82
914.004	1451.84
918.505	1818.7
923.004	2188.39
927.501	3245.52
931.995	3974.22
936.486	4217.43
940.975	3883.27
945.461	3140.86
949.945	2275.98
954.426	1821.98
958.904	1747.13
963.38	1975.44
967.853	2470.88
972.324	3434.59
976.792	4999.16
981.258	7851.07
985.72	11873.8
990.181	17594.5
994.639	22752.5
999.094	26148.1
1003.55	25314.6
1008	21201.6
1012.44	16182
1016.89	12185.4
1021.33	8412.62
1025.77	6260.3
1030.21	4579.09
1034.64	3571.5
1039.07	3069.58
1043.5	2923.93
1047.93	2601.38
1052.35	2485.51
1056.78	1841.14
1061.19	1394.99
1065.61	1319.37
1070.02	1212.36
1074.43	1153.78
1078.84	1797.53
1083.25	2773.6
1087.65	3763.99
1092.05	3476.61
1096.45	2959.71
1100.85	2003.39
1105.24	1198.08
1109.63	605.133
1114.02	405.848
1118.4	384.547
1122.78	260.262
1127.16	21.7539
1131.54	296.488
1135.92	145.691
1140.29	225.934
1144.66	339.156
1149.02	23.0508
1153.39	241.5
1157.75	375.012
1162.11	137.328
1166.46	247.25
1170.82	290.031
1175.17	378.106
1179.52	245.156
1183.86	213.887
1188.21	381.285
1192.55	385.231
1196.89	133.121
1201.22	20.1055
1205.55	84.7344
1209.88	285.242
1214.21	10.3672
1218.54	158.039
1222.86	53.9297
1227.18	224.016
1231.5	159.492
1235.81	51.3789
1240.12	134.992
1244.43	154.742
1248.74	27.6367
1253.04	263.137
1257.34	94.2266
1261.64	187.918
1265.94	332.652
1270.23	180.109
1274.52	184.305
1278.81	22.1328
1283.1	145.348
1287.38	154.887
1291.66	109.941
1295.94	162.109
1300.21	63.1797
1304.48	331.348
1308.75	287.586
1313.02	197.902
1317.29	431.164
1321.55	310.254
1325.81	1.05078
1330.06	281.336
1334.32	316.894
1338.57	185.074
1342.82	453.629
1347.06	234.106
1351.31	523.981
1355.55	479.684
1359.79	358.332
1364.02	295.789
1368.26	368.043
1372.49	275.719
1376.71	200.309
1380.94	97.1367
1385.16	315.875
1389.38	385.227
1393.6	339.945
1397.81	224.801
1402.02	263.84
1406.23	336.195
1410.44	213.293
1414.64	303.094
1418.85	195.234
1423.04	379.496
1427.24	517.406
1431.43	21.8359
1435.62	286.293
1439.81	268.758
1444	310.93
1448.18	326.773
1452.36	507.836
1456.54	382.203
1460.71	522.594
1464.89	345.836
1469.06	274.09
1473.22	344.277
1477.39	382.043
1481.55	229.305
1485.71	359.898
1489.86	389.234
1494.02	151.047
1498.17	210.262
1502.32	242.836
1506.46	385.055
1510.61	339.34
1514.75	376.746
1518.88	633.863
1523.02	226.176
1527.15	340.785
1531.28	115.852
1535.41	366.695
1539.53	392.473
1543.66	128.68
1547.78	118.559
1551.89	280.859
1556.01	487.66
1560.12	475.984
1564.23	467.152
1568.33	90.7812
