Measurement: Raman, 514 nm, ccw, Raman Data Processed
Mineral: Catapleiite
Rruff sample: R040005
Ideal chemistry: Na_2_ZrSi_3_O_9_2H_2_O
Locality: Langesundsfjord Eikaholmen Vestfold, Norway
Source: University of Arizona Mineral Museum
Description: Brown thin tabular crystal
Measured chemistry: (Na_1.28_Ca_0.36_[box]_0.36_)_Σ=2_Zr_1.00_Si_3.00_O_9_·2H_2_O
Pin_id: L01206
Orientation: Laser parallel to c* (0 0 1). Fiducial mark perpendicular to laser is parallel to a [1 0 0]
Raman shift (cm-1)	intensity
120.596	0
125.519	166.617
130.439	419.457
135.356	463.758
140.271	1201.97
145.184	1100.94
150.094	1298.93
155.002	1266.63
159.908	1556.88
164.811	1296.99
169.711	941.356
174.61	935.01
179.505	836.908
184.399	942.648
189.29	1150.58
194.178	1307.3
199.064	1116.74
203.948	1377.52
208.829	1327.85
213.708	1456.3
218.585	1261.74
223.459	617.049
228.33	481.16
233.199	402.975
238.066	486.35
242.93	237.254
247.792	38.6582
252.651	68.5449
257.508	85.0664
262.363	40.25
267.215	138.959
272.064	18.8047
276.912	77.9453
281.756	37.4727
286.598	196.09
291.438	68.7734
296.276	401.047
301.111	325.738
305.943	301.768
310.773	372.959
315.601	248.254
320.426	549.703
325.248	484.35
330.068	531.227
334.886	335.232
339.701	641.158
344.514	452.691
349.324	598.672
354.132	371.367
358.938	392.102
363.741	421.728
368.541	661.582
373.339	345.621
378.135	355.519
382.928	289.578
387.718	442.06
392.506	193.053
397.292	300.432
402.075	556.037
406.856	476.332
411.634	804.914
416.41	785.764
421.183	1012.32
425.954	1631.81
430.722	2415.95
435.488	2812.44
440.251	3188.99
445.012	2681.38
449.77	1893.11
454.526	1439.18
459.28	645.562
464.03	541.268
468.779	555.285
473.525	260.606
478.268	204.982
483.009	61.1328
487.747	210.404
492.483	287.121
497.217	48.8457
501.948	71.543
506.676	165.016
511.402	301.916
516.125	460.137
520.846	451.615
525.565	649.543
530.281	591.039
534.994	649.996
539.705	740.564
544.413	539.227
549.119	986.871
553.822	1023.47
558.523	1366.5
563.222	2423.45
567.917	3464.28
572.611	4798.27
577.302	5124.69
581.99	3888.03
586.676	2399.09
591.359	1609.16
596.04	1047.09
600.718	630.867
605.394	486.469
610.067	581.875
614.737	1042.07
619.406	1492.06
624.071	2537.98
628.734	4547.84
633.395	5733.66
638.053	4301.09
642.708	2164.44
647.361	1010.59
652.012	751.906
656.66	133.281
661.305	119.543
665.948	70.2695
670.588	36.7422
675.226	27.3789
679.861	51.0469
684.494	96.5625
689.124	57.8555
693.752	39.7461
698.377	148.449
702.999	62.1328
707.619	75.5117
712.237	18.0156
716.852	102.289
721.464	123.234
726.074	242.004
730.681	465.887
735.286	468.156
739.888	524.869
744.488	529.491
749.085	473.621
753.68	423.613
758.272	336.035
762.861	65.8867
767.448	105.941
772.033	74.2539
776.614	254.977
781.194	232.164
785.77	391.742
790.345	191.652
794.916	172.926
799.485	35.6758
804.052	39.4727
808.616	227.387
813.177	244.949
817.736	138.09
822.292	254.359
826.846	100.953
831.397	151.644
835.945	209.043
840.491	81.2734
845.035	219.09
849.576	150.644
854.114	67.7383
858.65	117.141
863.183	236.148
867.713	57.6367
872.241	61.9844
876.767	214.207
881.29	120.328
885.81	90.3633
890.328	49.3477
894.843	222.289
899.356	812.633
903.866	907.055
908.373	1554.02
912.878	2256.95
917.38	2868.09
921.88	3723.61
926.377	5220.71
930.872	6969.47
935.364	7466.66
939.853	7100.91
944.34	5163.66
948.824	3563.28
953.306	2040.75
957.785	1357.75
962.261	802.293
966.735	695.25
971.207	737.363
975.675	1577.38
980.141	1869.81
984.605	2768.7
989.066	4496.59
993.524	5911.43
997.98	7207.92
1002.43	7326.52
1006.88	6449.12
1011.33	5231.19
1015.78	3413.88
1020.22	2411.27
1024.66	2086.23
1029.1	1354.74
1033.53	946.297
1037.97	901.742
1042.4	936.082
1046.82	648.438
1051.25	595.953
1055.67	467.129
1060.09	152.746
1064.51	337.871
1068.92	358.269
1073.33	256.113
1077.74	241.508
1082.15	563.184
1086.55	966.148
1090.95	786.481
1095.35	609.574
1099.75	477.703
1104.14	57.0039
1108.53	185.492
1112.92	125.977
1117.31	23.7031
1121.69	308.773
1126.07	320.316
1130.45	85.1484
1134.82	283.949
1139.19	252.066
1143.57	250.613
1147.93	248.266
1152.3	165.848
1156.66	427.922
1161.02	120.664
1165.38	226.367
1169.73	4.48438
1174.08	282.531
1178.43	362.617
1182.78	146.102
1187.12	398
1191.46	140.738
1195.8	219.621
1200.14	267.434
1204.47	74.8516
1208.8	65.8789
1213.13	152.644
1217.46	530.59
1221.78	36.7734
1226.1	90.6875
1230.42	233.59
1234.73	307.016
1239.04	418.035
1243.35	360.805
1247.66	464.984
1251.97	305.418
1256.27	18.8477
1260.57	108.734
1264.86	498.602
1269.16	145.449
1273.45	231.688
1277.74	180.883
1282.03	66.8672
1286.31	202.102
1290.59	272.519
1294.87	279.609
1299.14	400.547
1303.42	53.6133
1307.69	181.637
1311.95	442.777
1316.22	85.3633
1320.48	362.543
1324.74	81.2422
1329	363.625
1333.26	262.504
1337.51	151.848
1341.76	103.074
1346	422.926
1350.25	350.16
1354.49	426.059
1358.73	318.781
1362.96	344.234
1367.2	545.418
1371.43	61.3164
1375.66	213.383
1379.88	456.352
1384.11	233.363
1388.33	271.949
1392.54	446.418
1396.76	352.363
1400.97	373.207
1405.18	435.551
1409.39	34.6992
1413.59	73.9688
1417.8	273.617
1421.99	198.945
1426.19	128.984
1430.38	268.57
1434.58	492.527
1438.77	506.262
1442.95	337.09
1447.13	231.555
1451.32	231.09
1455.49	432.363
1459.67	298.188
1463.84	356.359
1468.01	222.805
1472.18	553.129
1476.35	350.863
1480.51	320.918
1484.67	275.352
1488.83	424.543
1492.98	582.352
1497.13	456.18
1501.28	262.414
1505.43	202.086
1509.57	521.18
1513.71	225.801
1517.85	414.016
1521.99	547.898
1526.12	450.422
1530.25	514.481
1534.38	246.606
1538.5	523.527
1542.62	357.324
1546.74	312.684
1550.86	444.5
1554.98	505.859
1559.09	320.398
1563.2	248.535
1567.31	4.76953
1571.41	0
