Measurement: Raman, 514 nm, ccw, Raman Data Processed
Mineral: Catapleiite
Rruff sample: R060198
Ideal chemistry: Na_2_ZrSi_3_O_9_2H_2_O
Locality: Mont Saint-Hilaire, Rouville County, Quebec, Canada
Source: Royal Ontario Museum
Description: Tan colored pseudohexagonal tabular crystals
Measured chemistry: (Na_1.92_Ca_0.04_[box]_0.04_)_Σ=2_Zr_1.00_Si_3.00_O_9_·2H_2_O
Pin_id: L01747
Orientation: Laser parallel to c* (0 0 1). Fiducial mark perpendicular to laser is parallel to a [1 0 0]
Raman shift (cm-1)	intensity
95.948	0
100.883	127.644
105.815	450.078
110.744	1977.9
115.671	1574.63
120.596	1190.38
125.519	1184.07
130.439	1671.29
135.356	2219.32
140.271	3180.42
145.184	3403.16
150.094	3824.59
155.002	4071.88
159.908	3973.18
164.811	3697.51
169.711	2811.44
174.61	1961.71
179.505	1818.64
184.399	1736.95
189.29	2192.53
194.178	2608.93
199.064	3305.68
203.948	3982.81
208.829	3212.11
213.708	2770.62
218.585	2035.54
223.459	1252.9
228.33	796.239
233.199	468.199
238.066	483.482
242.93	233.644
247.792	103.248
252.651	55.5166
257.508	159.036
262.363	123.025
267.215	93.7041
272.064	199.269
276.912	151.217
281.756	84.2432
286.598	373.47
291.438	795.242
296.276	1002.62
301.111	918.783
305.943	639.875
310.773	613.994
315.601	386.232
320.426	455.275
325.248	255.244
330.068	195.024
334.886	244.824
339.701	138.665
344.514	135.394
349.324	214.817
354.132	430.386
358.938	458.685
363.741	847.265
368.541	700.679
373.339	736.781
378.135	715.776
382.928	606.701
387.718	508.473
392.506	581.298
397.292	489.835
402.075	593.078
406.856	1018.72
411.634	1847.81
416.41	3659.11
421.183	6867.08
425.954	11334.6
430.722	13305
435.488	9000
440.251	4910.8
445.012	2908.41
449.77	1716.82
454.526	1109.07
459.28	749.145
464.03	426.076
468.779	327.831
473.525	171.536
478.268	1.58887
483.009	3.81152
487.747	71.8047
492.483	81.8789
497.217	22.6582
501.948	16.0156
506.676	161.192
511.402	434.123
516.125	722.79
520.846	1437.95
525.565	1506.79
530.281	1408.29
534.994	1452.67
539.705	1362.75
544.413	1527.74
549.119	1700.99
553.822	2700.5
558.523	4718.95
563.222	8499.23
567.917	13139.9
572.611	14886.2
577.302	11162.5
581.99	5526.11
586.676	2476.23
591.359	1067.12
596.04	290.123
600.718	313.072
605.394	445.538
610.067	689.964
614.737	1530.44
619.406	3637.12
624.071	8061.64
628.734	14471.2
633.395	11776.1
638.053	4738.45
642.708	2010.56
647.361	764.606
652.012	389.597
656.66	272.708
661.305	239.916
665.948	249.034
670.588	270.043
675.226	159.206
679.861	237.355
684.494	364.533
689.124	305.516
693.752	185.034
698.377	270.234
702.999	116.368
707.619	218.347
712.237	202.239
716.852	274.081
721.464	509.9
726.074	755.712
730.681	944.519
735.286	1400.33
739.888	1052.15
744.488	732.98
749.085	506.835
753.68	157.722
758.272	33.585
762.861	0.938477
767.448	114.197
772.033	207.627
776.614	133.122
781.194	104.049
785.77	36.2441
790.345	122.701
794.916	84.6582
799.485	0.387695
804.052	74.6348
808.616	98.3301
813.177	191.721
817.736	392.312
822.292	455.847
826.846	999.84
831.397	1393.29
835.945	1612.29
840.491	1251.99
845.035	963.52
849.576	1001.76
854.114	897.031
858.65	401.549
863.183	511.961
867.713	460.31
872.241	397.64
876.767	583.991
881.29	593.412
885.81	399.942
890.328	540.181
894.843	785.873
899.356	1464.25
903.866	3453.7
908.373	6201.46
912.878	8142.58
917.38	10444.4
921.88	17156.4
926.377	28413.8
930.872	40797.2
935.364	42641.9
939.853	31327.2
944.34	21722.2
948.824	15098.9
953.306	7594.27
957.785	3920.39
962.261	2327.19
966.735	1406.46
971.207	1365.07
975.675	1711.99
980.141	2192.29
984.605	2917.62
989.066	4960.8
993.524	9664.01
997.98	16958.5
1002.43	23256.4
1006.88	24122.5
1011.33	19849.1
1015.78	14078
1020.22	9363.24
1024.66	5685.87
1029.1	3903.98
1033.53	2810.88
1037.97	2321.14
1042.4	2037.81
1046.82	1570.33
1051.25	1151.77
1055.67	1005.33
1060.09	600.277
1064.51	674.215
1068.92	671.916
1073.33	754.528
1077.74	1104.65
1082.15	1846.53
1086.55	3073.81
1090.95	3027.73
1095.35	2271.3
1099.75	1254.52
1104.14	721.68
1108.53	428.378
1112.92	316.341
1117.31	590.262
1121.69	996.971
1126.07	998.438
1130.45	630.627
1134.82	454.506
1139.19	229.739
1143.57	577.191
1147.93	479.21
1152.3	655.227
1156.66	353.198
1161.02	428.029
1165.38	345.003
1169.73	235.836
1174.08	216.037
1178.43	214.554
1182.78	42.3428
1187.12	0.71582
1191.46	88.7412
1195.8	22.7822
1200.14	197.185
1204.47	116.32
1208.8	200.725
1213.13	69.3965
1217.46	174.303
1221.78	163.554
1226.1	39.0127
1230.42	59.8955
1234.73	87.416
1239.04	135.552
1243.35	223.285
1247.66	392.635
1251.97	556.6
1256.27	333.096
1260.57	510.266
1264.86	650.906
1269.16	537.049
1273.45	550.676
1277.74	449.769
1282.03	743.688
1286.31	501.736
1290.59	669.654
1294.87	960.644
1299.14	984.495
1303.42	787.473
1307.69	719.534
1311.95	819.357
1316.22	716.691
1320.48	638.889
1324.74	743.405
1329	689.304
1333.26	960.462
1337.51	1171.12
1341.76	1342.76
1346	1287.27
1350.25	1328.79
1354.49	1574.39
1358.73	2226.11
1362.96	2715.23
1367.2	2120.9
1371.43	1302.18
1375.66	901.168
1379.88	1080.85
1384.11	1141.29
1388.33	1553.15
1392.54	2385.29
1396.76	2402.16
1400.97	1294.76
1405.18	533.645
1409.39	109.859
1413.59	27.9697
1417.8	119.806
1421.99	61.2402
1426.19	338.192
1430.38	161.84
1434.58	286.761
1438.77	446.466
1442.95	432.192
1447.13	728.188
1451.32	527.406
1455.49	406.701
1459.67	532.459
1463.84	824.794
1468.01	622.348
1472.18	618.544
1476.35	630.326
1480.51	448.731
1484.67	445.877
1488.83	429.845
1492.98	430.375
1497.13	337.437
1501.28	179.013
1505.43	224.097
1509.57	312.854
1513.71	153.849
1517.85	164.892
1521.99	269.1
1526.12	67.7432
1530.25	33.8145
1534.38	23.8594
1538.5	107.25
1542.62	382.289
1546.74	556.981
1550.86	506.035
1554.98	443.373
1559.09	240.977
1563.2	70.4883
1567.31	107.062
