Measurement: Raman, 514 nm, ccw, Raman Data Processed
Mineral: Catapleiite
Rruff sample: R040005
Ideal chemistry: Na_2_ZrSi_3_O_9_2H_2_O
Locality: Langesundsfjord Eikaholmen Vestfold, Norway
Source: University of Arizona Mineral Museum
Description: Brown thin tabular crystal
Measured chemistry: (Na_1.28_Ca_0.36_[box]_0.36_)_Σ=2_Zr_1.00_Si_3.00_O_9_·2H_2_O
Pin_id: L01591
Orientation: Laser parallel to b* (0 1 0). Fiducial mark perpendicular to laser is parallel to -c [0 0 -1]
Raman shift (cm-1)	intensity
120.596	0
125.519	21.498
130.439	200.865
135.356	765.049
140.271	1517.35
145.184	2005.56
150.094	2611.44
155.002	2788.19
159.908	2600.44
164.811	2359.41
169.711	1913.42
174.61	1421.15
179.505	1529.44
184.399	1415.82
189.29	1533.26
194.178	2454.54
199.064	3073.84
203.948	3505.22
208.829	3389.18
213.708	3293.45
218.585	2648.35
223.459	1751.03
228.33	1315.88
233.199	1100.12
238.066	1049.72
242.93	388.609
247.792	462.016
252.651	117.998
257.508	124.334
262.363	184.332
267.215	252.539
272.064	129.234
276.912	328.053
281.756	298.09
286.598	347.449
291.438	732.865
296.276	1282.27
301.111	1842.81
305.943	1703
310.773	1733.13
315.601	1987.67
320.426	1775.33
325.248	1833.44
330.068	1582.91
334.886	1426.39
339.701	1488.87
344.514	1312.5
349.324	1488.13
354.132	1503.71
358.938	1539.46
363.741	1784.38
368.541	1905.47
373.339	1649.84
378.135	1760.84
382.928	2005.18
387.718	1780.32
392.506	1727.76
397.292	1962.25
402.075	2033.61
406.856	2402.38
411.634	3094.62
416.41	4159.65
421.183	5761.68
425.954	8070.06
430.722	10351
435.488	11032.7
440.251	10539.7
445.012	8571.91
449.77	6076.37
454.526	4297.14
459.28	2922.3
464.03	1965.9
468.779	1592
473.525	1269.64
478.268	1131.89
483.009	848.838
487.747	617.607
492.483	658.332
497.217	708.113
501.948	917.205
506.676	1100.37
511.402	1659.42
516.125	2291.06
520.846	2399.25
525.565	2758.09
530.281	2873.2
534.994	2836.71
539.705	2561.59
544.413	2711.29
549.119	3245.87
553.822	4185.34
558.523	5944.15
563.222	9505.63
567.917	14189
572.611	18418.6
577.302	17631.8
581.99	12710.1
586.676	7643.27
591.359	4710.85
596.04	3103.87
600.718	2644.29
605.394	2603.07
610.067	2603.2
614.737	3838.63
619.406	5965.34
624.071	10284.3
628.734	17042.5
633.395	18401.8
638.053	11955.6
642.708	6120.64
647.361	2733.63
652.012	1440.79
656.66	892.1
661.305	306.914
665.948	237.582
670.588	43.6094
675.226	96.5938
679.861	40.0254
684.494	178.432
689.124	8.4375
693.752	89.1777
698.377	75.3027
702.999	53.6582
707.619	32.6484
712.237	145.543
716.852	69.1445
721.464	235.289
726.074	669.606
730.681	745.615
735.286	1043.23
739.888	997.99
744.488	1021.87
749.085	803.869
753.68	859.969
758.272	337.174
762.861	339.475
767.448	469.647
772.033	55.3711
776.614	6.7168
781.194	166.574
785.77	119.477
790.345	74.6816
794.916	34.4492
799.485	209.25
804.052	78.5859
808.616	34.9824
813.177	104.402
817.736	199.932
822.292	67.7812
826.846	70.8633
831.397	3.39258
835.945	81.0781
840.491	138.264
845.035	168.766
849.576	126.76
854.114	106.574
858.65	207.871
863.183	246.934
867.713	157.748
872.241	197.389
876.767	399.924
881.29	474.377
885.81	386.787
890.328	802.199
894.843	1038.65
899.356	1867.73
903.866	3090.9
908.373	4896.6
912.878	6659.71
917.38	8136.4
921.88	11668
926.377	16803.5
930.872	21405.9
935.364	22411.9
939.853	18875
944.34	14059.4
948.824	8856.53
953.306	5380.7
957.785	3855.83
962.261	2726.56
966.735	2704.52
971.207	3346.71
975.675	4843.43
980.141	6828.89
984.605	10873
989.066	16188.9
993.524	22183
997.98	27774.2
1002.43	28607.4
1006.88	25347.1
1011.33	19996
1015.78	14804.2
1020.22	10728.7
1024.66	7472.46
1029.1	5635.61
1033.53	4322.05
1037.97	3605.41
1042.4	3668
1046.82	3050.29
1051.25	2498.95
1055.67	2065.84
1060.09	1508.85
1064.51	1030.51
1068.92	1047.25
1073.33	825.883
1077.74	1461.32
1082.15	1889.24
1086.55	2789.54
1090.95	2742.4
1095.35	2034.82
1099.75	1196.24
1104.14	721.865
1108.53	351.43
1112.92	114.508
1117.31	600.127
1121.69	1313.45
1126.07	592.582
1130.45	213.838
1134.82	274.551
1139.19	42.9258
1143.57	102.705
1147.93	325.115
1152.3	98.5391
1156.66	57.6465
1161.02	85.9883
1165.38	206.332
1169.73	187.17
1174.08	179.115
1178.43	47.709
1182.78	19.6211
1187.12	104.422
1191.46	2.0293
1195.8	137.369
1200.14	7.73828
1204.47	53.7695
1208.8	167.414
1213.13	94.7637
1217.46	9.62891
1221.78	64.7402
1226.1	6.44141
1230.42	13.041
1234.73	12.0469
1239.04	122.938
1243.35	119.17
1247.66	209.166
1251.97	41.5508
1256.27	146.184
1260.57	93.1758
1264.86	113.977
1269.16	163.713
1273.45	48.4023
1277.74	27.666
1282.03	19.0254
1286.31	160.639
1290.59	266.873
1294.87	119.688
1299.14	183.932
1303.42	185.33
1307.69	43.166
1311.95	131.348
1316.22	372.609
1320.48	408.353
1324.74	321.83
1329	323.672
1333.26	416.289
1337.51	522.209
1341.76	345.519
1346	269.662
1350.25	402.576
1354.49	326.051
1358.73	458.519
1362.96	449.607
1367.2	207.449
1371.43	352.055
1375.66	403.818
1379.88	468.228
1384.11	366.371
1388.33	351.447
1392.54	199.365
1396.76	332.037
1400.97	336.57
1405.18	292.555
1409.39	282.231
1413.59	276.463
1417.8	67.0566
1421.99	226.834
1426.19	308.51
1430.38	206.217
1434.58	133.383
1438.77	190.848
1442.95	393.945
1447.13	326.217
1451.32	208.522
1455.49	278.565
1459.67	302.639
1463.84	277.633
1468.01	334.432
1472.18	351.922
1476.35	150.435
1480.51	400.611
1484.67	97.4316
1488.83	303.127
1492.98	263.971
1497.13	174.623
1501.28	447.799
1505.43	393.394
1509.57	210.184
1513.71	297.098
1517.85	124.258
1521.99	123.51
1526.12	264.082
1530.25	316.801
1534.38	395.111
1538.5	202.582
1542.62	240.26
1546.74	79.291
1550.86	306.715
1554.98	347.527
1559.09	221.043
1563.2	19.8242
1567.31	529.211
1571.41	0
