Measurement: Raman, 514 nm, ccw, Raman Data Processed
Mineral: Catapleiite
Rruff sample: R060208
Ideal chemistry: Na_2_ZrSi_3_O_9_2H_2_O
Locality: Mont Saint-Hilaire, Rouville County, Quebec, Canada
Source: Royal Ontario Museum
Description: Colorless transparent thin tabular pseudohexagonal crystal
Measured chemistry: Na_2.00_Zr_1.00_Si_3.00_O_9_Â·2H_2_O
Pin_id: M01568
Orientation: Laser parallel to b* (0 1 0). Fiducial mark perpendicular to laser is parallel to c [0 0 1]
Raman shift (cm-1)	intensity
101.156	0
106.099	669.604
111.04	1537.96
115.978	1934.43
120.914	2064.78
125.848	2203.6
130.779	2340.7
135.707	1911.16
140.633	1547.66
145.556	1142.31
150.476	874.492
155.395	906.392
160.31	777.188
165.223	826.137
170.134	1056.84
175.042	1022
179.947	1213.17
184.85	1559.63
189.751	2077.86
194.649	2630.37
199.544	3172.28
204.437	3416.92
209.327	3412.23
214.215	3008.65
219.1	2031.94
223.982	1182.28
228.862	709.172
233.74	436.785
238.615	110.432
243.487	37.8525
248.357	4.39356
253.224	26.0127
258.089	53.9609
262.951	51.1128
267.811	145.644
272.668	137.29
277.523	179.91
282.375	176.119
287.224	103.034
292.071	62.8403
296.916	30.1977
301.758	95.137
306.597	202.342
311.434	359.095
316.268	523.566
321.099	755.693
325.928	882.15
330.755	802.807
335.579	535.873
340.4	476.085
345.219	329.473
350.035	411.473
354.849	582.878
359.66	824.8
364.469	965.242
369.275	949.207
374.078	644.706
378.879	689.779
383.678	611.443
388.473	710.064
393.267	858.273
398.057	1012.84
402.845	1500.52
407.631	2202.41
412.414	3385.83
417.194	5912.6
421.972	10225.6
426.748	15245.9
431.52	14849.3
436.29	8983.17
441.058	4794.4
445.823	2736.3
450.586	1637.33
455.345	1056.67
460.103	796.417
464.858	458.824
469.61	413.929
474.359	386.773
479.106	240.432
483.851	194.996
488.593	214.912
493.332	213.267
498.069	180.944
502.803	218.665
507.535	361.425
512.264	598.46
516.99	793.875
521.714	858.481
526.435	834.144
531.154	514.645
535.87	423.688
540.584	281.09
545.295	160.628
550.004	202.769
554.709	183.753
559.413	236.794
564.113	384.392
568.812	649.575
573.507	663.028
578.2	333.849
582.891	109.943
587.578	146.547
592.264	213.796
596.946	302.288
601.626	551.599
606.304	851.057
610.979	1397.06
615.651	2625.75
620.321	5313.47
624.988	9968.06
629.653	13069.8
634.315	7996.9
638.974	3204.02
643.631	1368.39
648.285	660.013
652.937	331.738
657.586	277.769
662.233	171.945
666.877	135.902
671.518	76.5229
676.157	64.687
680.793	125.139
685.427	48.5757
690.058	20.729
694.686	46.3369
699.312	33.5405
703.935	20.8955
708.556	23.2256
713.174	9.00488
717.789	15.3418
722.402	4.26611
727.013	24.7622
731.62	48.8726
736.225	83.5972
740.828	135.953
745.428	57.1338
750.025	47.5195
754.62	15.0727
759.212	2.80713
763.802	68.1699
768.389	29.7192
772.973	85.7593
777.555	30.8438
782.134	53.8852
786.711	64.7647
791.285	62.9136
795.856	1.99902
800.425	56.2051
804.992	1.10986
809.555	81.2051
814.116	73.3721
818.675	21.2339
823.231	39.4673
827.784	78.104
832.335	89.1269
836.883	56.626
841.428	159.798
845.971	109.159
850.512	192.382
855.049	192.762
859.584	130.6
864.117	125.344
868.647	134.294
873.174	79.8921
877.699	49.3784
882.221	29.7739
886.741	57.4761
891.258	36.144
895.772	68.2852
900.284	51.7017
904.793	35.8613
909.3	3.0581
913.803	10.417
918.305	306.424
922.804	469.292
927.3	1024.16
931.793	1646.35
936.284	1426.28
940.773	870.377
945.258	546.327
949.742	474.772
954.222	377.127
958.7	310.813
963.176	447.83
967.648	583.128
972.119	949.858
976.586	1452.85
981.051	2377.25
985.513	4336.98
989.973	8444.07
994.43	16147.6
998.885	26177.5
1003.34	31683.7
1007.79	29411.4
1012.23	23703.5
1016.68	16601
1021.12	9918.92
1025.56	5756.08
1029.99	3843.85
1034.43	3221.9
1038.86	3042.28
1043.29	2710.24
1047.71	1914.99
1052.14	1458.31
1056.56	1486.24
1060.98	1591.23
1065.39	2112.85
1069.8	3056.81
1074.21	5010.02
1078.62	8540.06
1083.03	15061.1
1087.43	22274.7
1091.83	21714.9
1096.23	13880.5
1100.62	7565.79
1105.01	4352.22
1109.4	2717.1
1113.79	1739.02
1118.17	1113.72
1122.56	779.813
1126.93	680.858
1131.31	452.691
1135.69	402.347
1140.06	229.064
1144.42	258.048
1148.79	121.987
1153.15	138.016
1157.52	83.1953
1161.87	15.9175
1166.23	88.8823
1170.58	97.9106
1174.93	47.2944
1179.28	176.203
1183.63	122.058
1187.97	102.793
1192.31	25.2188
1196.65	8.56396
1200.98	16.3648
1205.31	81.001
1209.64	65.5664
1213.97	47.5933
1218.29	31.3364
1222.62	16.7368
1226.93	11.3452
1231.25	36.2725
1235.57	69.7339
1239.88	32.8379
1244.18	56.8579
1248.49	24.4526
1252.8	49.978
1257.1	43.3252
1261.39	31.6055
1265.69	28.0391
1269.98	34.6377
1274.27	6.52979
1278.56	68.9858
1282.85	40.8032
1287.13	53.999
1291.41	21.1514
1295.69	26.6069
1299.96	69.9209
1304.23	39.7983
1308.5	22.0898
1312.77	64.0952
1317.03	62.8423
1321.3	1.9165
1325.56	78.2144
1329.81	130.973
1334.07	12.3838
1338.32	37.9966
1342.57	118.164
1346.81	180.59
1351.06	74.8862
1355.3	101.997
1359.54	158.527
1363.77	30.0381
1368	105.59
1372.23	169.477
1376.46	101.905
1380.69	145.37
1384.91	87.1025
1389.13	105.034
1393.35	27.2686
1397.56	129.571
1401.77	74.4429
1405.98	156.098
1410.19	49.398
1414.39	120.157
1418.6	237.334
1422.8	219.364
1426.99	147.001
1431.19	80.8687
1435.38	66.7271
1439.57	176.635
1443.75	250.625
1447.94	236.12
1452.12	221.716
1456.3	256.638
1460.47	314.14
1464.64	207.53
1468.82	195.492
1472.98	120.457
1477.15	248.013
1481.31	135.96
1485.47	176.415
1489.63	167.648
1493.78	190.607
1497.94	185.645
1502.09	66.0347
1506.23	122.457
1510.38	159.082
1514.52	89.7544
1518.66	60.626
1522.8	180.939
1526.93	171.06
1531.06	220.222
1535.19	23.8296
1539.32	19.8086
1543.44	148.804
1547.56	191.601
1551.68	114.735
1555.79	76.5791
1559.91	264.145
