Measurement: Raman, 514 nm, ccw, Raman Data Processed
Mineral: Catapleiite
Rruff sample: R060208
Ideal chemistry: Na_2_ZrSi_3_O_9_2H_2_O
Locality: Mont Saint-Hilaire, Rouville County, Quebec, Canada
Source: Royal Ontario Museum
Description: Colorless transparent thin tabular pseudohexagonal crystal
Measured chemistry: Na_2.00_Zr_1.00_Si_3.00_O_9_Â·2H_2_O
Pin_id: M01705
Orientation: Laser parallel to a* (1 0 0). Fiducial mark perpendicular to laser is parallel to -b [0 -1 0]
Raman shift (cm-1)	intensity
97.446	0
102.392	451.839
107.335	1938.36
112.275	2940.41
117.213	3394.03
122.148	3436.83
127.081	3348.41
132.011	3490.64
136.938	2829.54
141.864	2250.8
146.786	2143.62
151.706	1946.15
156.624	1860.65
161.539	1743.09
166.451	1962.42
171.361	2035.19
176.269	2170.47
181.173	2583.39
186.076	2784.31
190.975	3698.86
195.873	4659.77
200.767	5143.85
205.659	5153.63
210.549	5054.55
215.436	4218.52
220.321	2551.43
225.203	1661.28
230.082	909.537
234.959	495.978
239.833	361.536
244.705	331.78
249.574	224.202
254.441	16.0938
259.305	83.2197
264.167	72.2793
269.026	69.5586
273.882	271.118
278.736	213.277
283.588	312.553
288.436	162.422
293.283	112.189
298.126	14.165
302.968	35.168
307.806	121.903
312.642	152.363
317.476	368.315
322.307	623.808
327.135	905.839
331.961	651.519
336.784	394.102
341.605	258.906
346.423	188.162
351.239	316.854
356.052	665.691
360.863	812.13
365.671	947.43
370.476	668.856
375.279	486.007
380.079	378.571
384.877	406.002
389.672	598.334
394.465	768.371
399.255	1005.35
404.042	1436.2
408.827	2389.85
413.609	3875.43
418.389	6906.45
423.166	11892.4
427.941	16415.4
432.713	13253.3
437.483	7268.49
442.25	3687.81
447.014	2064.21
451.776	1170.14
456.535	800.743
461.292	493.6
466.046	251.205
470.797	386.57
475.546	273.74
480.293	62.751
485.037	93.7314
489.778	86.1641
494.517	39.2676
499.253	234.108
503.986	360.938
508.717	499.809
513.446	764.722
518.171	1265.85
522.895	1225.14
527.615	868.869
532.334	570.712
537.049	495.344
541.762	182.068
546.472	146.856
551.18	115.776
555.885	287.684
560.588	492.485
565.288	891.086
569.986	989.455
574.681	909.05
579.373	512.229
584.063	338.139
588.75	294.027
593.435	298.648
598.117	449.585
602.796	630.898
607.473	1091.9
612.147	1739.81
616.819	3377.07
621.488	6922.44
626.155	12141.2
630.819	12370.1
635.48	5829.03
640.139	2374.22
644.795	1137.09
649.449	647.091
654.1	292.531
658.748	186.106
663.394	161.21
668.037	67.1934
672.678	105.712
677.316	140.424
681.952	74.8477
686.585	153.06
691.215	118.312
695.843	109.878
700.468	41.3584
705.09	54.5449
709.711	22.9814
714.328	6.24707
718.943	296.249
723.555	72.665
728.165	222.71
732.772	314.076
737.376	292.159
741.978	162.945
746.577	226.54
751.174	29.5586
755.768	162.356
760.36	177.24
764.949	49.9629
769.535	211.699
774.119	118.019
778.7	366.912
783.279	170.887
787.855	19.8359
792.428	118.256
796.999	16.1582
801.567	60.5371
806.133	26.1875
810.696	36.9004
815.256	93.8164
819.814	200.062
824.369	42.5527
828.922	300.272
833.472	124.488
838.019	126.703
842.564	158.16
847.107	54.3594
851.646	193.588
856.183	197.631
860.718	192.041
865.25	143.857
869.779	40.6719
874.306	188.516
878.83	121.062
883.351	19.3828
887.87	144.322
892.386	112.686
896.9	11.4844
901.411	37.3125
905.92	127.455
910.426	63.2891
914.929	260.059
919.43	648.238
923.928	1100.61
928.423	2171.07
932.916	2682.8
937.407	1984.36
941.894	1348.53
946.38	888.84
950.862	608.195
955.342	439.731
959.819	465.732
964.294	669.512
968.766	999.219
973.236	1454.67
977.703	2368.03
982.167	3825.96
986.629	6805.22
991.088	13362.9
995.544	24218.9
999.998	35619.2
1004.45	38556.4
1008.9	34280.9
1013.34	26315.1
1017.79	17406.2
1022.23	9772.84
1026.67	6254.8
1031.1	4147.17
1035.54	4011.96
1039.97	3922.49
1044.39	2765.3
1048.82	1964.08
1053.24	1539.8
1057.66	1479.16
1062.08	1860.54
1066.49	2334.66
1070.91	3781.34
1075.32	5823.58
1079.72	10570.1
1084.13	18739.5
1088.53	24264.7
1092.93	19545.3
1097.33	11530.7
1101.72	6260.22
1106.11	3720.03
1110.5	2413.36
1114.89	1573.62
1119.27	1084.01
1123.65	735.254
1128.03	665.16
1132.4	413.338
1136.78	417.51
1141.15	273.623
1145.52	484.023
1149.88	182.869
1154.24	198.234
1158.61	108.971
1162.96	223.188
1167.32	24.7168
1171.67	35.9434
1176.02	189.68
1180.37	283.162
1184.71	154.553
1189.05	7.60156
1193.39	243.453
1197.73	97.0586
1202.06	71.3242
1206.4	89.7754
1210.72	73.0293
1215.05	47.1211
1219.37	109.502
1223.7	90.7539
1228.01	154.965
1232.33	173.949
1236.64	63.3828
1240.95	79.7266
1245.26	186.197
1249.57	107.492
1253.87	258.34
1258.17	55.8027
1262.47	72.8965
1266.76	9.89648
1271.06	217.697
1275.35	106.455
1279.63	151.926
1283.92	21.5566
1288.2	83.8144
1292.48	225.676
1296.76	242.922
1301.03	163.346
1305.3	177.516
1309.57	53.0488
1313.84	253.109
1318.1	245.732
1322.36	440.106
1326.62	131.836
1330.88	431.109
1335.13	439.82
1339.38	342.361
1343.63	285.682
1347.87	338.098
1352.12	164.863
1356.36	181.178
1360.59	169.078
1364.83	46.3281
1369.06	407.541
1373.29	204.81
1377.52	375.391
1381.74	55.5996
1385.96	396.389
1390.18	243.93
1394.4	188.76
1398.62	228.356
1402.83	248.066
1407.04	223.633
1411.24	104.932
1415.45	77.1777
1419.65	142.982
1423.85	206.193
1428.04	39.9375
1432.23	203.639
1436.43	266.617
1440.61	285.477
1444.8	322.842
1448.98	218.852
1453.16	355.838
1457.34	321.465
1461.52	562.088
1465.69	196.227
1469.86	532.219
1474.03	496.674
1478.19	377.978
1482.35	382.291
1486.51	237.062
1490.67	468.744
1494.82	252.518
1498.97	335.272
1503.12	166.15
1507.27	228.359
1511.41	118.809
1515.55	156.672
1519.69	131.988
1523.83	508.977
1527.96	107.965
1532.09	377.633
1536.22	97.7891
1540.35	315.734
1544.47	95.6758
1548.59	226.144
1552.71	157.82
1556.82	118.106
1560.93	75.3164
