Measurement: Raman, 514 nm, ccw, Raman Data Processed
Mineral: Catapleiite
Rruff sample: R040005
Ideal chemistry: Na_2_ZrSi_3_O_9_2H_2_O
Locality: Langesundsfjord Eikaholmen Vestfold, Norway
Source: University of Arizona Mineral Museum
Description: Brown thin tabular crystal
Measured chemistry: (Na_1.28_Ca_0.36_[box]_0.36_)_Σ=2_Zr_1.00_Si_3.00_O_9_·2H_2_O
Pin_id: L01206
Orientation: Laser parallel to c* (0 0 1). Fiducial mark perpendicular to laser is parallel to a [1 0 0]
Raman shift (cm-1)	intensity
120.596	0
125.519	49.2402
130.439	337.412
135.356	974.373
140.271	2585.34
145.184	2382.68
150.094	1345.79
155.002	1270.89
159.908	1108.57
164.811	1158.82
169.711	877.031
174.61	663.609
179.505	792.144
184.399	625.115
189.29	900.481
194.178	768.896
199.064	1074.66
203.948	914
208.829	903.481
213.708	1148.02
218.585	901.893
223.459	734.975
228.33	575.182
233.199	144.588
238.066	344.481
242.93	319.045
247.792	27.7949
252.651	258.17
257.508	157.164
262.363	27.4121
267.215	42.9473
272.064	26.1562
276.912	69.8848
281.756	54.5
286.598	194.424
291.438	242.728
296.276	192.836
301.111	310.74
305.943	385.268
310.773	432.207
315.601	406.498
320.426	495.152
325.248	493.182
330.068	417.578
334.886	468.107
339.701	299.644
344.514	310.188
349.324	236.873
354.132	363.721
358.938	82.0586
363.741	312.502
368.541	201.678
373.339	420.244
378.135	444.188
382.928	220.877
387.718	318.352
392.506	466.631
397.292	431.83
402.075	376.066
406.856	372.147
411.634	517.295
416.41	504.99
421.183	940.725
425.954	1276.69
430.722	1711.12
435.488	2186.24
440.251	2280.4
445.012	2124.07
449.77	1627.62
454.526	1021.61
459.28	475.856
464.03	292.324
468.779	272.404
473.525	231.916
478.268	442.019
483.009	88.7363
487.747	29.5117
492.483	62.1797
497.217	25.7188
501.948	14.291
506.676	336.482
511.402	341.85
516.125	524.422
520.846	453.24
525.565	561.934
530.281	594.812
534.994	482.603
539.705	490.574
544.413	458.793
549.119	452.977
553.822	543.938
558.523	1059.52
563.222	1607.73
567.917	2554.17
572.611	3315.18
577.302	3855.35
581.99	2900.91
586.676	2289.79
591.359	1269.59
596.04	850.816
600.718	641.418
605.394	709.875
610.067	792.144
614.737	859.231
619.406	1224.08
624.071	2143.47
628.734	3366.03
633.395	4240.04
638.053	3547.51
642.708	1952.48
647.361	844.566
652.012	599.57
656.66	337.258
661.305	25.2695
665.948	141.879
670.588	12.5586
675.226	30.1367
679.861	195.719
684.494	146.203
689.124	58.1016
693.752	120.129
698.377	164.668
702.999	34.375
707.619	336.894
712.237	175.684
716.852	37.6484
721.464	57.0156
726.074	348.027
730.681	414.578
735.286	606.664
739.888	655.461
744.488	382.859
749.085	357.727
753.68	405.938
758.272	279.676
762.861	341.012
767.448	532.969
772.033	217.598
776.614	398.062
781.194	17.082
785.77	242.543
790.345	427.508
794.916	160.984
799.485	250.461
804.052	25.6836
808.616	377.695
813.177	142.246
817.736	52.4375
822.292	18.4336
826.846	104.715
831.397	253.871
835.945	153.047
840.491	78.9023
845.035	30.793
849.576	80.3477
854.114	32.7891
858.65	236.199
863.183	186.348
867.713	185.363
872.241	219.344
876.767	1.98438
881.29	346.258
885.81	139.391
890.328	255.402
894.843	306.383
899.356	452.367
903.866	1017.45
908.373	1511.59
912.878	1961.34
917.38	2132.51
921.88	2633.84
926.377	4097.18
930.872	5023.32
935.364	5506.48
939.853	5173.54
944.34	3722
948.824	2629.79
953.306	1540.37
957.785	827.57
962.261	1043.66
966.735	931.121
971.207	844.141
975.675	1061.15
980.141	1437.7
984.605	2238.1
989.066	3266.11
993.524	4420.63
997.98	5291.32
1002.43	5447.32
1006.88	4840.44
1011.33	3735.57
1015.78	2884.62
1020.22	1910.75
1024.66	1668.25
1029.1	1022.23
1033.53	769.523
1037.97	660.531
1042.4	653.887
1046.82	426.769
1051.25	449.035
1055.67	507.785
1060.09	89
1064.51	123.516
1068.92	245.504
1073.33	90.0234
1077.74	358.938
1082.15	492.141
1086.55	603.711
1090.95	771.578
1095.35	550.062
1099.75	316.949
1104.14	238.934
1108.53	317.418
1112.92	128.641
1117.31	369.828
1121.69	353.168
1126.07	277.676
1130.45	187.828
1134.82	344.859
1139.19	163.051
1143.57	232
1147.93	12.8359
1152.3	297.629
1156.66	77.7109
1161.02	74.8203
1165.38	223.324
1169.73	256.391
1174.08	192.703
1178.43	51.832
1182.78	50.9727
1187.12	455.254
1191.46	215.289
1195.8	63.0781
1200.14	28.1719
1204.47	316.172
1208.8	262.676
1213.13	211.652
1217.46	184.84
1221.78	262.902
1226.1	267.922
1230.42	332.652
1234.73	388.215
1239.04	158.598
1243.35	53.9883
1247.66	255.715
1251.97	66.3711
1256.27	62.5898
1260.57	272.668
1264.86	167.852
1269.16	179.07
1273.45	56.8867
1277.74	269.582
1282.03	38.5508
1286.31	19.3555
1290.59	232.633
1294.87	209.641
1299.14	208.656
1303.42	221.531
1307.69	173.668
1311.95	279.539
1316.22	229.902
1320.48	379.926
1324.74	164.656
1329	183.699
1333.26	364.367
1337.51	258.746
1341.76	239.863
1346	339.609
1350.25	386.059
1354.49	238.652
1358.73	260.391
1362.96	360.367
1367.2	511.137
1371.43	494.625
1375.66	97.9336
1379.88	483.109
1384.11	106.203
1388.33	204.934
1392.54	283.504
1396.76	463.941
1400.97	72.9141
1405.18	8.18359
1409.39	375.144
1413.59	129.609
1417.8	111.277
1421.99	173.91
1426.19	257.625
1430.38	420.594
1434.58	498.758
1438.77	328.953
1442.95	138.344
1447.13	345.144
1451.32	128.797
1455.49	445.426
1459.67	232.098
1463.84	179.227
1468.01	610.106
1472.18	238.555
1476.35	240.227
1480.51	513.238
1484.67	341.481
1488.83	346.387
1492.98	379.754
1497.13	494.289
1501.28	52.6328
1505.43	457.578
1509.57	350.797
1513.71	308.621
1517.85	207.008
1521.99	469.684
1526.12	164.254
1530.25	490.281
1534.38	113.488
1538.5	519.652
1542.62	392.785
1546.74	157.93
1550.86	416.973
1554.98	138.914
1559.09	113.246
1563.2	421.906
1567.31	237.703
1571.41	0
