Measurement: Raman, 514 nm, ccw, Raman Data Processed
Mineral: Catapleiite
Rruff sample: R060198
Ideal chemistry: Na_2_ZrSi_3_O_9_2H_2_O
Locality: Mont Saint-Hilaire, Rouville County, Quebec, Canada
Source: Royal Ontario Museum
Description: Tan colored pseudohexagonal tabular crystals
Measured chemistry: (Na_1.92_Ca_0.04_[box]_0.04_)_Σ=2_Zr_1.00_Si_3.00_O_9_·2H_2_O
Pin_id: L00755
Orientation: Laser parallel to -a* (-1 0 0). Fiducial mark perpendicular to laser is parallel to -b [0 -1 0]
Raman shift (cm-1)	intensity
95.948	0
100.883	167.612
105.815	965.402
110.744	1949.82
115.671	2422.51
120.596	1732.41
125.519	1503.17
130.439	1790.86
135.356	1708.55
140.271	2285.45
145.184	1972.04
150.094	1787.02
155.002	1708.76
159.908	1567.91
164.811	1666.06
169.711	1774.28
174.61	2141.09
179.505	2598.95
184.399	3434.92
189.29	4617.8
194.178	5961.52
199.064	6935.96
203.948	8002.23
208.829	7516.79
213.708	6478.34
218.585	4073.75
223.459	2755.38
228.33	1377.77
233.199	680.32
238.066	250.01
242.93	2.89648
247.792	89.083
252.651	19.8677
257.508	152.006
262.363	76.3843
267.215	14.4243
272.064	275.979
276.912	261.83
281.756	147.146
286.598	127.928
291.438	131.787
296.276	141.277
301.111	213.882
305.943	190.883
310.773	341.505
315.601	487.813
320.426	679.33
325.248	867.462
330.068	860.15
334.886	715.932
339.701	601.562
344.514	632.817
349.324	809.472
354.132	1163.46
358.938	1614.55
363.741	1843.22
368.541	1503.28
373.339	1284.01
378.135	1022.08
382.928	958.85
387.718	980.665
392.506	1096.66
397.292	1214.29
402.075	1429.18
406.856	2182.1
411.634	3268.13
416.41	5370.66
421.183	9465.55
425.954	14874.5
430.722	14329.4
435.488	8521.89
440.251	4801.53
445.012	2783.16
449.77	1650.71
454.526	1066.33
459.28	648.029
464.03	474.294
468.779	319.237
473.525	262.922
478.268	220.693
483.009	281.692
487.747	309.189
492.483	268.893
497.217	213.195
501.948	599.104
506.676	690.734
511.402	1315.91
516.125	1891.29
520.846	2209.11
525.565	1906.75
530.281	1358.81
534.994	901.03
539.705	549.902
544.413	436.264
549.119	391.378
553.822	428.718
558.523	861.112
563.222	1566.41
567.917	2492.68
572.611	2747.95
577.302	1807.9
581.99	602.578
586.676	167.174
591.359	18.9351
596.04	70.6504
600.718	199.254
605.394	466.852
610.067	1036.92
614.737	2178.29
619.406	4499.02
624.071	9450.59
628.734	13909.1
633.395	8218.47
638.053	3240.53
642.708	1294.32
647.361	631.116
652.012	266.161
656.66	140.954
661.305	86.2964
665.948	20.5991
670.588	79.6973
675.226	110.642
679.861	141.971
684.494	112.107
689.124	33.5938
693.752	48.4111
698.377	112.505
702.999	72.5606
707.619	62.7285
712.237	208.065
716.852	217.653
721.464	242.495
726.074	230.584
730.681	335.792
735.286	333.904
739.888	246.725
744.488	289.196
749.085	24.8262
753.68	97.7227
758.272	15.7441
762.861	7.83887
767.448	166.9
772.033	128.883
776.614	73.6523
781.194	256.602
785.77	28.0176
790.345	20.0381
794.916	81.3769
799.485	29.5537
804.052	3.11914
808.616	86.9609
813.177	46.1397
817.736	83.0791
822.292	218.429
826.846	330.71
831.397	642.958
835.945	980.888
840.491	800.739
845.035	646.664
849.576	522.932
854.114	296.2
858.65	230.924
863.183	182.689
867.713	71.3037
872.241	203.765
876.767	89.0742
881.29	20.7227
885.81	9.84766
890.328	56.5537
894.843	125.282
899.356	240.499
903.866	944.354
908.373	2040.72
912.878	2772.51
917.38	3018.69
921.88	5239.78
926.377	8590.9
930.872	11565.5
935.364	10654
939.853	7606.66
944.34	6203.72
948.824	4978.21
953.306	2575.07
957.785	1434.1
962.261	1303.07
966.735	1512.09
971.207	1876.99
975.675	2612.94
980.141	4257.87
984.605	7122.83
989.066	13113.7
993.524	25130.4
997.98	42540.1
1002.43	53691.6
1006.88	52801
1011.33	43717.4
1015.78	30533.1
1020.22	18878.8
1024.66	11223.1
1029.1	7353.54
1033.53	5876.33
1037.97	5401.42
1042.4	4527.04
1046.82	3165.21
1051.25	2547.19
1055.67	2007
1060.09	2024.44
1064.51	2269.29
1068.92	2907.73
1073.33	4142.7
1077.74	7028.27
1082.15	13023
1086.55	19220.8
1090.95	19846.9
1095.35	13285.8
1099.75	7507.29
1104.14	4377.58
1108.53	2659.33
1112.92	1793.42
1117.31	1313.21
1121.69	1325.83
1126.07	954.512
1130.45	655.375
1134.82	460.663
1139.19	367.541
1143.57	236.136
1147.93	351.63
1152.3	161.552
1156.66	236.269
1161.02	110.991
1165.38	92.3506
1169.73	35.3652
1174.08	189.81
1178.43	173.496
1182.78	72.9004
1187.12	31.2861
1191.46	10.3242
1195.8	57.9766
1200.14	73.833
1204.47	51.7705
1208.8	60.4062
1213.13	53.9775
1217.46	159.575
1221.78	28.8535
1226.1	5.87695
1230.42	109.287
1234.73	47.4844
1239.04	25.4258
1243.35	163.856
1247.66	99.8301
1251.97	72.4844
1256.27	106.794
1260.57	152.754
1264.86	269.363
1269.16	194.602
1273.45	233.451
1277.74	306.84
1282.03	293.125
1286.31	319.342
1290.59	308.414
1294.87	523.224
1299.14	467.115
1303.42	386.512
1307.69	241.425
1311.95	245.892
1316.22	338.239
1320.48	378.66
1324.74	328.782
1329	301.201
1333.26	368.282
1337.51	442.652
1341.76	560.898
1346	564.816
1350.25	550.42
1354.49	708.529
1358.73	1023.91
1362.96	1160.74
1367.2	887.177
1371.43	511.353
1375.66	381.452
1379.88	430.787
1384.11	421.037
1388.33	582.631
1392.54	954.133
1396.76	1034.43
1400.97	494.978
1405.18	306.825
1409.39	87.4853
1413.59	80.6006
1417.8	41.5703
1421.99	157.429
1426.19	134.419
1430.38	231.677
1434.58	249.824
1438.77	343.396
1442.95	409.455
1447.13	479.09
1451.32	335.666
1455.49	388.518
1459.67	387.424
1463.84	406.087
1468.01	547.681
1472.18	227.961
1476.35	260.129
1480.51	560.986
1484.67	359.515
1488.83	455.82
1492.98	203.642
1497.13	144.481
1501.28	65.5215
1505.43	219.506
1509.57	148.131
1513.71	134.041
1517.85	96.3564
1521.99	44.0195
1526.12	115.18
1530.25	154.927
1534.38	97.5068
1538.5	64.5684
1542.62	452.94
1546.74	521.646
1550.86	292.201
1554.98	388.657
1559.09	170.906
1563.2	61.4922
1567.31	657.54
