Measurement: Raman, 514 nm, ccw, Raman Data Processed
Mineral: Catapleiite
Rruff sample: R060198
Ideal chemistry: Na_2_ZrSi_3_O_9_2H_2_O
Locality: Mont Saint-Hilaire, Rouville County, Quebec, Canada
Source: Royal Ontario Museum
Description: Tan colored pseudohexagonal tabular crystals
Measured chemistry: (Na_1.92_Ca_0.04_[box]_0.04_)_Σ=2_Zr_1.00_Si_3.00_O_9_·2H_2_O
Pin_id: L00848
Orientation: Laser parallel to (1 0 1). Fiducial mark perpendicular to laser is parallel to b [0 1 0]
Raman shift (cm-1)	intensity
95.948	0
100.883	8.33398
105.815	657.29
110.744	793.496
115.671	1217.16
120.596	1048.1
125.519	1017.74
130.439	1467.26
135.356	1958.82
140.271	2418.56
145.184	2968.68
150.094	3644.05
155.002	3951.94
159.908	3817.73
164.811	3238.27
169.711	2500.2
174.61	2250.12
179.505	2122.17
184.399	2301.69
189.29	2654.39
194.178	3453.08
199.064	4120.66
203.948	4730.11
208.829	4073.34
213.708	3281.71
218.585	2167.55
223.459	1027.96
228.33	629.019
233.199	236.138
238.066	119.117
242.93	27.7485
247.792	149.275
252.651	190.906
257.508	42.7602
262.363	23.0088
267.215	140.632
272.064	142.825
276.912	13.46
281.756	433.675
286.598	754.566
291.438	1275.05
296.276	1253.41
301.111	1082.96
305.943	897.925
310.773	882.395
315.601	649.684
320.426	553.305
325.248	676.056
330.068	532.523
334.886	380.679
339.701	230.113
344.514	295.035
349.324	282.562
354.132	541.73
358.938	954.599
363.741	985.159
368.541	988.357
373.339	834.808
378.135	773.226
382.928	616.943
387.718	516.238
392.506	552.626
397.292	565.965
402.075	811.025
406.856	1480.29
411.634	2841.97
416.41	5633.37
421.183	10247
425.954	13630.8
430.722	11588.5
435.488	7081.45
440.251	4145.36
445.012	2305.23
449.77	1532.09
454.526	951.959
459.28	670.879
464.03	330.728
468.779	204.86
473.525	48.0938
478.268	87.3584
483.009	15.7373
487.747	113.987
492.483	83.0625
497.217	234.264
501.948	249.942
506.676	574.542
511.402	1156.24
516.125	1782.78
520.846	2095.8
525.565	2170.12
530.281	2119.57
534.994	1727.69
539.705	1679.92
544.413	1970.34
549.119	2538.64
553.822	3760.26
558.523	6824.1
563.222	11018.5
567.917	14796.2
572.611	14083.9
577.302	8852.9
581.99	4466.15
586.676	2059.62
591.359	1104.29
596.04	675.135
600.718	615.15
605.394	795.318
610.067	1389.46
614.737	2958.04
619.406	6929.61
624.071	13344.5
628.734	14554.7
633.395	8425.73
638.053	3491.6
642.708	1538.32
647.361	645.258
652.012	230.823
656.66	221.398
661.305	25.7031
665.948	109.589
670.588	1.99707
675.226	16.3408
679.861	16.7812
684.494	112.342
689.124	25.0879
693.752	110.81
698.377	144.797
702.999	82.9424
707.619	95.2686
712.237	199.833
716.852	403.665
721.464	690.755
726.074	870.094
730.681	1293.67
735.286	1343.47
739.888	1076.49
744.488	626.722
749.085	426.154
753.68	215.782
758.272	76.5762
762.861	80.4814
767.448	65.6992
772.033	55.3242
776.614	16.498
781.194	126.365
785.77	110.374
790.345	37.5391
794.916	113.516
799.485	12.9678
804.052	59.584
808.616	39.8848
813.177	25.2432
817.736	91.1318
822.292	75.0273
826.846	198.367
831.397	508.405
835.945	553.099
840.491	321.961
845.035	197.965
849.576	268.973
854.114	331.132
858.65	166.825
863.183	142.082
867.713	150.928
872.241	328.392
876.767	267.499
881.29	260.278
885.81	492.758
890.328	563.966
894.843	676.144
899.356	1234.54
903.866	2170.69
908.373	4304.54
912.878	6448.35
917.38	10373.9
921.88	19183.2
926.377	34103.3
930.872	43924.2
935.364	36183.5
939.853	21738.3
944.34	13630.1
948.824	8869.34
953.306	4488.51
957.785	2403.26
962.261	1516.91
966.735	1340.75
971.207	1151.47
975.675	1682.92
980.141	2608.95
984.605	4256.56
989.066	8035.79
993.524	15476.6
997.98	25357.1
1002.43	31891.3
1006.88	30483
1011.33	24218.5
1015.78	17004.3
1020.22	10415.5
1024.66	6413.11
1029.1	4110.39
1033.53	3202.45
1037.97	2933.42
1042.4	2186.43
1046.82	1663.5
1051.25	1013.81
1055.67	874.021
1060.09	676.305
1064.51	636.191
1068.92	727.758
1073.33	801.122
1077.74	1581.2
1082.15	2756.46
1086.55	3629.01
1090.95	3277.52
1095.35	2247.14
1099.75	1218.62
1104.14	615.151
1108.53	458.569
1112.92	137.692
1117.31	519.541
1121.69	1253.97
1126.07	819.372
1130.45	270.171
1134.82	169.12
1139.19	129.417
1143.57	226.134
1147.93	196.328
1152.3	147.919
1156.66	167.517
1161.02	48.3193
1165.38	173.06
1169.73	100.207
1174.08	77.6211
1178.43	54.2842
1182.78	37.9522
1187.12	30.0078
1191.46	72.6621
1195.8	54.4004
1200.14	86.0879
1204.47	33.8291
1208.8	136.773
1213.13	0.030273
1217.46	1.16113
1221.78	80.8994
1226.1	22.1221
1230.42	104.355
1234.73	103.314
1239.04	59.6807
1243.35	154.803
1247.66	39.6592
1251.97	150.184
1256.27	72.3887
1260.57	136.226
1264.86	223.723
1269.16	115.869
1273.45	155.643
1277.74	139.037
1282.03	240.798
1286.31	103.6
1290.59	145.666
1294.87	363.898
1299.14	239.705
1303.42	205.578
1307.69	251.654
1311.95	350.897
1316.22	166.135
1320.48	332.572
1324.74	249.981
1329	258.281
1333.26	303.377
1337.51	345.107
1341.76	475.921
1346	417.046
1350.25	617.48
1354.49	716.166
1358.73	1024.86
1362.96	1052.57
1367.2	673.278
1371.43	354.15
1375.66	396.185
1379.88	406.144
1384.11	369.68
1388.33	429.262
1392.54	781.329
1396.76	980.901
1400.97	420.117
1405.18	178.099
1409.39	199.721
1413.59	44.6348
1417.8	54.7207
1421.99	219.56
1426.19	239.283
1430.38	221.022
1434.58	246.574
1438.77	241.714
1442.95	383.481
1447.13	320.705
1451.32	241.138
1455.49	280.99
1459.67	343.209
1463.84	330.655
1468.01	305.829
1472.18	429.985
1476.35	339.888
1480.51	157.628
1484.67	157.151
1488.83	344.446
1492.98	286.808
1497.13	100.173
1501.28	182.546
1505.43	256.772
1509.57	236.097
1513.71	72.3135
1517.85	148.012
1521.99	195.914
1526.12	108.518
1530.25	9.0752
1534.38	73.7637
1538.5	318.459
1542.62	612.807
1546.74	393.062
1550.86	399.346
1554.98	283.363
1559.09	49.7363
1563.2	123.045
1567.31	296.375
