Measurement: Raman, 514 nm, ccw, Raman Data Processed
Mineral: Catapleiite
Rruff sample: R060208
Ideal chemistry: Na_2_ZrSi_3_O_9_2H_2_O
Locality: Mont Saint-Hilaire, Rouville County, Quebec, Canada
Source: Royal Ontario Museum
Description: Colorless transparent thin tabular pseudohexagonal crystal
Measured chemistry: Na_2.00_Zr_1.00_Si_3.00_O_9_Â·2H_2_O
Pin_id: M00973
Orientation: Laser parallel to (-1 0 -1). Fiducial mark perpendicular to laser is parallel to -b [0 -1 0]
Raman shift (cm-1)	intensity
112.949	0
117.891	159.049
122.83	208.338
127.767	377.105
132.7	747.05
137.631	934.616
142.56	1086.6
147.485	1403.55
152.408	1919.85
157.328	2255.79
162.246	2395.34
167.16	2478.94
172.073	2968.35
176.982	3160.44
181.888	3768.86
186.792	4409.7
191.694	5602.83
196.592	7565.11
201.488	8934.83
206.381	9755.65
211.271	9860.64
216.159	8420.13
221.044	5443.93
225.926	3208.75
230.806	1702.28
235.683	1014.03
240.557	419.88
245.429	178.911
250.298	50.1914
255.164	37.6553
260.027	195.624
264.888	5.68848
269.746	63.4522
274.601	239.067
279.454	261.869
284.304	129.481
289.151	105.017
293.996	339.193
298.838	363.178
303.677	271.521
308.514	281.867
313.348	400.486
318.179	349.644
323.008	393.542
327.834	471.177
332.657	420.092
337.478	347.938
342.295	323.783
347.111	353.101
351.923	602.422
356.733	1043.51
361.54	1518.33
366.345	1600.94
371.147	1168.38
375.946	981.618
380.743	748.71
385.537	683.702
390.328	611.207
395.116	607.289
399.902	633.871
404.686	807.395
409.466	1292.03
414.244	2121.24
419.019	3777.02
423.792	6872.35
428.562	9933.25
433.329	9037.84
438.094	5513.76
442.856	3045.5
447.616	1874.68
452.372	1164.13
457.126	728.667
461.878	596.789
466.627	492.646
471.373	367.887
476.116	425.117
480.857	332.941
485.596	371.966
490.331	489.803
495.064	467.881
499.795	725.356
504.522	1019.21
509.247	1500.46
513.97	2057.21
518.69	2940.49
523.407	3310.22
528.121	2968.34
532.833	2294.18
537.543	1866.76
542.249	1522.63
546.953	1283.75
551.655	1329.77
556.354	1607.05
561.05	2627.3
565.743	4580.96
570.434	6768.66
575.123	7704.38
579.808	5232.28
584.491	2440.29
589.172	1208.22
593.85	599.203
598.525	384.238
603.197	482.293
607.868	562.35
612.535	962.385
617.2	2131.93
621.862	4503.43
626.522	8508.19
631.178	10020.9
635.833	5475.74
640.485	2226.82
645.134	964.663
649.78	430.018
654.424	225.311
659.066	119.105
663.704	19.1892
668.341	7.00439
672.974	45.5408
677.605	2.14062
682.234	30.0696
686.859	18.2173
691.483	34.0098
696.103	59.5784
700.721	85.76
705.337	13.2065
709.949	48.4021
714.56	41.5207
719.167	101.557
723.772	220.971
728.375	262.773
732.975	495.958
737.572	462.521
742.167	397.483
746.759	262.79
751.349	145.465
755.936	67.4951
760.52	52.8486
765.102	61.4463
769.681	7.09351
774.258	27.2261
778.832	10.5952
783.404	60.8906
787.973	63.2317
792.539	6.80737
797.103	44.5842
801.665	18.8289
806.223	59.8611
810.779	49.7759
815.333	28.2615
819.884	2.64429
824.433	31.4646
828.979	29.8311
833.522	31.3867
838.063	93.2173
842.601	11.1128
847.137	14.1733
851.67	86.4946
856.2	35.3398
860.729	29.7334
865.254	119.874
869.777	116.78
874.297	87.4775
878.815	61.9863
883.33	104.329
887.843	175.531
892.353	240.767
896.861	285.159
901.366	529.305
905.869	634.87
910.369	949.665
914.866	1660.33
919.361	3126.94
923.854	6276.02
928.344	11397.8
932.831	15341.2
937.316	11839.8
941.798	6209.59
946.278	3506.71
950.755	2464.99
955.23	1675.97
959.702	1250.76
964.171	1359.17
968.638	1612.56
973.103	2156.94
977.565	3094.93
982.025	5088.52
986.482	8532
990.936	16113
995.388	30449.6
999.837	47597.7
1004.28	55521.3
1008.73	51899.5
1013.17	40949.3
1017.61	27526.6
1022.05	15773.6
1026.48	9095.18
1030.91	6188.81
1035.34	5232.1
1039.77	4754.76
1044.19	3549.3
1048.62	2376.48
1053.03	1714.38
1057.45	1279.61
1061.87	1043.17
1066.28	1141.34
1070.69	1274.94
1075.09	1990.12
1079.5	3145.5
1083.9	5335.54
1088.3	7302.06
1092.69	6523.56
1097.09	3904.51
1101.48	2017.67
1105.87	1233.41
1110.26	698.258
1114.64	427.115
1119.02	409.868
1123.4	209.348
1127.78	212.525
1132.15	217.087
1136.53	193.575
1140.89	132.137
1145.26	76.0244
1149.63	40.3462
1153.99	71.7065
1158.35	54.5898
1162.7	47.2632
1167.06	0.35498
1171.41	21.9605
1175.76	66.4385
1180.11	73.4893
1184.45	30.3911
1188.79	44.3457
1193.13	16.5991
1197.47	57.7769
1201.81	41.5405
1206.14	26.3164
1210.47	27.6177
1214.79	39.7441
1219.12	48.5361
1223.44	0.279785
1227.76	53.1528
1232.08	53.9175
1236.39	0.161133
1240.7	54.3706
1245.02	56.9331
1249.32	22.1387
1253.63	61.8706
1257.93	70.2725
1262.23	151.426
1266.53	82.3447
1270.82	0.471191
1275.12	78.6792
1279.41	135.327
1283.69	75.8076
1287.98	53.9102
1292.26	128.462
1296.54	166.541
1300.82	159.877
1305.1	93.5679
1309.37	172.62
1313.64	121.267
1317.91	27.0796
1322.17	90.4629
1326.44	153.23
1330.7	83.6597
1334.96	131.459
1339.21	118.689
1343.47	148.029
1347.72	106.08
1351.97	102.873
1356.21	42.376
1360.46	79.5381
1364.7	73.6377
1368.94	78.5596
1373.17	88.2773
1377.41	85.3486
1381.64	98.688
1385.87	139.127
1390.1	90.7481
1394.32	118.503
1398.54	123.445
1402.76	73.1362
1406.98	111.265
1411.19	121.28
1415.41	23.2339
1419.62	45.1748
1423.82	175.731
1428.03	78.8843
1432.23	75.9307
1436.43	186.637
1440.63	170.695
1444.82	222.062
1449.02	271.351
1453.21	198.78
1457.4	216.287
1461.58	156.243
1465.77	226.904
1469.95	124.747
1474.12	104.451
1478.3	158.831
1482.47	32.1792
1486.64	110.937
1490.81	120.348
1494.98	164.091
1499.14	20.6948
1503.31	104.352
1507.47	130.255
1511.62	34.206
1515.78	76.4927
1519.93	78.9292
1524.08	5.40674
1528.23	71.8091
1532.37	0.416504
1536.51	6.72363
1540.65	48.1768
1544.79	101.198
1548.93	40.2983
1553.06	118.927
1557.19	85.2168
1561.32	11.4531
