Measurement: Raman, 514 nm, ccw, Raman Data Processed
Mineral: Catapleiite
Rruff sample: R040005
Ideal chemistry: Na_2_ZrSi_3_O_9_2H_2_O
Locality: Langesundsfjord Eikaholmen Vestfold, Norway
Source: University of Arizona Mineral Museum
Description: Brown thin tabular crystal
Measured chemistry: (Na_1.28_Ca_0.36_[box]_0.36_)_Σ=2_Zr_1.00_Si_3.00_O_9_·2H_2_O
Pin_id: L01206
Orientation: Laser parallel to c* (0 0 1). Fiducial mark perpendicular to laser is parallel to a [1 0 0]
Raman shift (cm-1)	intensity
120.596	0
125.519	199.066
130.439	364.018
135.356	1117.3
140.271	3157.58
145.184	2863.29
150.094	1802.96
155.002	1370.84
159.908	1304.42
164.811	1030.05
169.711	1023.87
174.61	1017.44
179.505	840.328
184.399	887.934
189.29	620.668
194.178	837.016
199.064	1041.17
203.948	1372.32
208.829	1133.84
213.708	1222.43
218.585	990.566
223.459	707.117
228.33	664.992
233.199	395.451
238.066	420.17
242.93	223.074
247.792	67.4258
252.651	108.908
257.508	21.8711
262.363	103.941
267.215	62.582
272.064	102.748
276.912	38.8672
281.756	70.9883
286.598	103.111
291.438	16.7812
296.276	236.719
301.111	359.182
305.943	348.414
310.773	241.147
315.601	368.305
320.426	331.9
325.248	349.934
330.068	366.391
334.886	397.967
339.701	333.445
344.514	259.957
349.324	327.852
354.132	491.309
358.938	158.398
363.741	358.572
368.541	546.068
373.339	358.002
378.135	402.356
382.928	345.125
387.718	343.338
392.506	142.07
397.292	212.379
402.075	210.822
406.856	242.023
411.634	301.578
416.41	574.125
421.183	916.082
425.954	1160.69
430.722	1634.18
435.488	2037.92
440.251	2263.55
445.012	2237.96
449.77	1620.67
454.526	986.666
459.28	643.93
464.03	294.451
468.779	106.223
473.525	77.2344
478.268	0.441406
483.009	12.2695
487.747	40.9375
492.483	129.402
497.217	2.94531
501.948	286.766
506.676	240.602
511.402	282.109
516.125	210.352
520.846	423.781
525.565	384.707
530.281	318.059
534.994	479.473
539.705	497.43
544.413	595.43
549.119	501.609
553.822	446.336
558.523	1080.18
563.222	1513.75
567.917	2761.78
572.611	3609.55
577.302	3821.09
581.99	2979.48
586.676	2148.34
591.359	1261.73
596.04	837.457
600.718	628.035
605.394	569.426
610.067	591.648
614.737	894.961
619.406	1090.04
624.071	2010.67
628.734	3390.62
633.395	4288.76
638.053	3605.52
642.708	2146.26
647.361	956.5
652.012	460.019
656.66	298.934
661.305	55.332
665.948	125.242
670.588	87.1289
675.226	14.8672
679.861	10.8906
684.494	108.18
689.124	92.8164
693.752	31.5117
698.377	95.3438
702.999	152.949
707.619	31.6055
712.237	159.406
716.852	178.336
721.464	195.269
726.074	101.301
730.681	500.031
735.286	380.309
739.888	342.246
744.488	527.551
749.085	294.543
753.68	209.113
758.272	267.176
762.861	356.84
767.448	19.8242
772.033	346.832
776.614	149.016
781.194	85.7461
785.77	88.0391
790.345	197.809
794.916	295.113
799.485	37.5547
804.052	55.2969
808.616	197.477
813.177	42.4766
817.736	285.754
822.292	212.144
826.846	48.6562
831.397	204.644
835.945	21.3867
840.491	57.2578
845.035	282.285
849.576	118.836
854.114	83.6953
858.65	1.4375
863.183	64.7656
867.713	237.426
872.241	75.7891
876.767	278.019
881.29	156.164
885.81	71.8555
890.328	129.621
894.843	315.004
899.356	246.445
903.866	922.16
908.373	1350.94
912.878	1882.9
917.38	2193.76
921.88	2809.86
926.377	4321.13
930.872	5407.09
935.364	6223.81
939.853	5876.43
944.34	4402.18
948.824	2838.25
953.306	1708.72
957.785	894.379
962.261	714.273
966.735	793.188
971.207	928.141
975.675	857.797
980.141	1580.62
984.605	2501.97
989.066	3544.51
993.524	4682.51
997.98	5715.59
1002.43	5926.51
1006.88	5177.27
1011.33	4001.46
1015.78	3002.01
1020.22	1965.82
1024.66	1509.09
1029.1	1111.9
1033.53	827.106
1037.97	648.059
1042.4	677.371
1046.82	519.953
1051.25	679.598
1055.67	448.09
1060.09	377.992
1064.51	418.363
1068.92	338.238
1073.33	108.621
1077.74	441.887
1082.15	449.957
1086.55	837.516
1090.95	786.598
1095.35	540.094
1099.75	475.957
1104.14	325.168
1108.53	136.742
1112.92	125.477
1117.31	37.5234
1121.69	408.242
1126.07	296.75
1130.45	62.8047
1134.82	187.856
1139.19	284.254
1143.57	194.086
1147.93	441.711
1152.3	73.5938
1156.66	19.4414
1161.02	163.926
1165.38	79.6914
1169.73	335.461
1174.08	144.648
1178.43	347.625
1182.78	175.902
1187.12	394.121
1191.46	102.367
1195.8	113.445
1200.14	35.7227
1204.47	127
1208.8	457.176
1213.13	70.2773
1217.46	205.328
1221.78	184.34
1226.1	271.508
1230.42	248.5
1234.73	307.496
1239.04	47.7617
1243.35	49.1602
1247.66	68.6641
1251.97	225.715
1256.27	230.227
1260.57	205.945
1264.86	110.176
1269.16	18.0156
1273.45	142.606
1277.74	40.0898
1282.03	48.1797
1286.31	252.473
1290.59	208.922
1294.87	155.824
1299.14	6.07812
1303.42	159.731
1307.69	91.2422
1311.95	126.457
1316.22	266.641
1320.48	107.269
1324.74	1103.38
1329	393.848
1333.26	301.156
1337.51	523.871
1341.76	542
1346	614.805
1350.25	65.4414
1354.49	77.9141
1358.73	505.242
1362.96	504.441
1367.2	356.375
1371.43	409.238
1375.66	651.008
1379.88	339.219
1384.11	240.836
1388.33	226.109
1392.54	174.562
1396.76	158.684
1400.97	222.191
1405.18	562.867
1409.39	270.969
1413.59	191.465
1417.8	511.715
1421.99	339.762
1426.19	316.894
1430.38	21.3203
1434.58	239.816
1438.77	194.879
1442.95	373.508
1447.13	186.336
1451.32	396.582
1455.49	66.4688
1459.67	171.25
1463.84	361.57
1468.01	104.586
1472.18	573.715
1476.35	140.289
1480.51	479.578
1484.67	498.418
1488.83	351.117
1492.98	469.914
1497.13	203.324
1501.28	287.043
1505.43	546.086
1509.57	476.148
1513.71	455.035
1517.85	76.5703
1521.99	324.633
1526.12	511.727
1530.25	284.773
1534.38	394.496
1538.5	675.828
1542.62	473
1546.74	354.453
1550.86	233.871
1554.98	621.203
1559.09	266.922
1563.2	334.297
1567.31	172.309
1571.41	0
