Measurement: Raman, 514 nm, ccw, Raman Data Processed
Mineral: Catapleiite
Rruff sample: R060208
Ideal chemistry: Na_2_ZrSi_3_O_9_2H_2_O
Locality: Mont Saint-Hilaire, Rouville County, Quebec, Canada
Source: Royal Ontario Museum
Description: Colorless transparent thin tabular pseudohexagonal crystal
Measured chemistry: Na_2.00_Zr_1.00_Si_3.00_O_9_Â·2H_2_O
Pin_id: M01705
Orientation: Laser parallel to a* (1 0 0). Fiducial mark perpendicular to laser is parallel to -b [0 -1 0]
Raman shift (cm-1)	intensity
122.148	0
127.081	65.6523
132.011	267.697
136.938	344.932
141.864	462.993
146.786	699.302
151.706	960.158
156.624	1110.17
161.539	1235.74
166.451	1294.99
171.361	1560.41
176.269	1980.78
181.173	2161.76
186.076	2699.89
190.975	3614.71
195.873	4659.89
200.767	5615.49
205.659	5689.11
210.549	5844.58
215.436	4523.55
220.321	2895.97
225.203	1784.19
230.082	898.695
234.959	495.772
239.833	327.626
244.705	60.9033
249.574	111.643
254.441	98.8857
259.305	143.481
264.167	60.3447
269.026	178.398
273.882	140.327
278.736	229.907
283.588	48.5684
288.436	47.3272
293.283	252.595
298.126	194.145
302.968	46.8984
307.806	23.6895
312.642	185.078
317.476	220.15
322.307	408.126
327.135	382.177
331.961	377.174
336.784	182.129
341.605	179.901
346.423	295.225
351.239	466.397
356.052	569.773
360.863	748.904
365.671	907.78
370.476	636.532
375.279	375.174
380.079	429.656
384.877	502.047
389.672	290.659
394.465	470.477
399.255	484.868
404.042	659.107
408.827	1045.22
413.609	1637.97
418.389	3158.59
423.166	5400.82
427.941	7196.87
432.713	5989.25
437.483	3392.09
442.25	1894.33
447.014	1061.91
451.776	692.852
456.535	452.856
461.292	285.978
466.046	126.879
470.797	122.688
475.546	218.426
480.293	189.359
485.037	225.959
489.778	291.949
494.517	284.755
499.253	385.741
503.986	604.904
508.717	1006.21
513.446	1405.8
518.171	1862.72
522.895	1858.51
527.615	1473.73
532.334	1223.99
537.049	951.392
541.762	687.899
546.472	858.832
551.18	858.977
555.885	1122.86
560.588	1714.65
565.288	2860.64
569.986	4059.94
574.681	3960.85
579.373	2540.69
584.063	1255.34
588.75	518.88
593.435	311.188
598.117	292.933
602.796	268.639
607.473	589.213
612.147	928.806
616.819	1728.02
621.488	3607.14
626.155	6059.88
630.819	6304.96
635.48	3237.37
640.139	1283.86
644.795	615.951
649.449	245.179
654.1	95.9316
658.748	57.4004
663.394	87.8682
668.037	74.1504
672.678	26.8467
677.316	47.8213
681.952	106.748
686.585	10.749
691.215	51.8789
695.843	152.319
700.468	126.963
705.09	87.4316
709.711	162.273
714.328	175.995
718.943	16.4541
723.555	117.277
728.165	71.5254
732.772	253.218
737.376	488.063
741.978	383.741
746.577	347.06
751.174	156.311
755.768	181.134
760.36	79.3516
764.949	83.0205
769.535	74.9326
774.119	0.211914
778.7	12.6904
783.279	18.4541
787.855	1.50391
792.428	18.459
796.999	149.416
801.567	102.093
806.133	15.5146
810.696	64.5967
815.256	85.8252
819.814	80.9453
824.369	255.84
828.922	55.6865
833.472	97.9277
838.019	6.68066
842.564	162.62
847.107	11.7656
851.646	181.07
856.183	151.503
860.718	279.988
865.25	1.08203
869.779	6.79688
874.306	2.24512
878.83	89.3682
883.351	82.2041
887.87	58.4238
892.386	24.1191
896.9	3.88672
901.411	162.891
905.92	445.029
910.426	556.943
914.929	1017.88
919.43	1934.53
923.928	3938.45
928.423	6683.68
932.916	8014.02
937.407	5680.99
941.894	2953.14
946.38	1871.71
950.862	1406.77
955.342	830.219
959.819	501.678
964.294	883.518
968.766	1020.82
973.236	1606.76
977.703	2253.99
982.167	3937.72
986.629	7003.37
991.088	13359.4
995.544	24049.7
999.998	34368.2
1004.45	37227.1
1008.9	32355.5
1013.34	24660.9
1017.79	16291
1022.23	9489.49
1026.67	5601.8
1031.1	4133.71
1035.54	3748.69
1039.97	3457.27
1044.39	2671.41
1048.82	1613.98
1053.24	1242.82
1057.66	876.154
1062.08	1082.85
1066.49	1004.08
1070.91	1265.69
1075.32	2014.95
1079.72	3457.1
1084.13	5609.06
1088.53	7169.39
1092.93	5812.96
1097.33	3391.78
1101.72	1795.1
1106.11	1095.48
1110.5	589.227
1114.89	417.744
1119.27	364.783
1123.65	252.924
1128.03	330.305
1132.4	388.836
1136.78	225.41
1141.15	379.223
1145.52	481.58
1149.88	211.697
1154.24	30.9668
1158.61	228.019
1162.96	212.039
1167.32	255.305
1171.67	2.1875
1176.02	140.93
1180.37	180.902
1184.71	62.1191
1189.05	54.9863
1193.39	201.949
1197.73	277.516
1202.06	24.2871
1206.4	56.3965
1210.72	76.8047
1215.05	28.1445
1219.37	114.621
1223.7	129.984
1228.01	133.15
1232.33	106.371
1236.64	137.168
1240.95	11.7734
1245.26	6.45508
1249.57	226.641
1253.87	216.74
1258.17	202.461
1262.47	49.9453
1266.76	292.041
1271.06	6.72656
1275.35	333.705
1279.63	254.471
1283.92	125.676
1288.2	222.338
1292.48	50.623
1296.76	27.7227
1301.03	83.2598
1305.3	38.498
1309.57	295.289
1313.84	135.828
1318.1	269.394
1322.36	147.508
1326.62	28.4473
1330.88	274.887
1335.13	23.0508
1339.38	53.9727
1343.63	479.805
1347.87	132.978
1352.12	98.1094
1356.36	72.0625
1360.59	303.668
1364.83	190.209
1369.06	55.1602
1373.29	60.1816
1377.52	54.002
1381.74	147.84
1385.96	219.119
1390.18	282.945
1394.4	133.471
1398.62	128.207
1402.83	43.3086
1407.04	204.326
1411.24	111.283
1415.45	265.441
1419.65	108.316
1423.85	236.527
1428.04	253.963
1432.23	149.836
1436.43	361.277
1440.61	33.6914
1444.8	99.9473
1448.98	137.193
1453.16	163.647
1457.34	297.453
1461.52	234.397
1465.69	279.039
1469.86	154.297
1474.03	255.123
1478.19	192.494
1482.35	367.793
1486.51	87.7832
1490.67	228.654
1494.82	333.688
1498.97	211.242
1503.12	126.879
1507.27	28.1582
1511.41	158.164
1515.55	23.5312
1519.69	189.961
1523.83	204.676
1527.96	78.2988
1532.09	311.978
1536.22	124.947
1540.35	110.334
1544.47	92.6445
1548.59	243.594
1552.71	66.5156
1556.82	361.051
1560.93	132.006
