Measurement: Raman, 514 nm, ccw, Raman Data Processed
Mineral: Catapleiite
Rruff sample: R060198
Ideal chemistry: Na_2_ZrSi_3_O_9_2H_2_O
Locality: Mont Saint-Hilaire, Rouville County, Quebec, Canada
Source: Royal Ontario Museum
Description: Tan colored pseudohexagonal tabular crystals
Measured chemistry: (Na_1.92_Ca_0.04_[box]_0.04_)_Σ=2_Zr_1.00_Si_3.00_O_9_·2H_2_O
Pin_id: L01747
Orientation: Laser parallel to c* (0 0 1). Fiducial mark perpendicular to laser is parallel to a [1 0 0]
Raman shift (cm-1)	intensity
95.948	0
100.883	244.852
105.815	645.116
110.744	2067.13
115.671	1839.11
120.596	1256.07
125.519	1058.04
130.439	1440.13
135.356	1720.16
140.271	2652.27
145.184	3012.06
150.094	3790.4
155.002	4131.72
159.908	4042.11
164.811	3774.47
169.711	2821.56
174.61	2244.76
179.505	1797.15
184.399	1766.81
189.29	2337.83
194.178	2858.13
199.064	3422.77
203.948	4097.74
208.829	3450.8
213.708	3172.6
218.585	2183.11
223.459	1346.06
228.33	783.561
233.199	267.446
238.066	220.598
242.93	113.448
247.792	135.196
252.651	121.511
257.508	131.728
262.363	131.683
267.215	169.384
272.064	278.783
276.912	195.179
281.756	13.4419
286.598	344.665
291.438	646.174
296.276	1230.17
301.111	1122.86
305.943	840.392
310.773	698.875
315.601	543.39
320.426	572.717
325.248	470.691
330.068	368.329
334.886	266.796
339.701	185.423
344.514	72.5264
349.324	72.5933
354.132	344.452
358.938	552.875
363.741	800.038
368.541	780.782
373.339	575.22
378.135	563.532
382.928	471.454
387.718	470.46
392.506	435.198
397.292	482.457
402.075	574.523
406.856	1042.56
411.634	1905.42
416.41	3420.67
421.183	6425.05
425.954	11371.1
430.722	13733.5
435.488	9356.87
440.251	5021.45
445.012	2960.86
449.77	1828.13
454.526	1186.26
459.28	687.264
464.03	480.175
468.779	252.03
473.525	109.858
478.268	43.1836
483.009	108.953
487.747	95.6162
492.483	46.5967
497.217	82.5371
501.948	231.782
506.676	170.999
511.402	533.233
516.125	916.119
520.846	1505.19
525.565	1766.77
530.281	1529.48
534.994	1463.8
539.705	1403.95
544.413	1368.25
549.119	1747.42
553.822	2342.27
558.523	4043.87
563.222	7449.92
567.917	11831.4
572.611	14734.5
577.302	11438.8
581.99	5834.13
586.676	2828.31
591.359	1311.32
596.04	644.154
600.718	731.785
605.394	421.201
610.067	599.386
614.737	1586.33
619.406	3534.09
624.071	7679
628.734	14135.1
633.395	11760.8
638.053	4897.33
642.708	2008.99
647.361	917.656
652.012	532.125
656.66	259.202
661.305	223.825
665.948	190.682
670.588	115.556
675.226	152.394
679.861	173.233
684.494	157.119
689.124	211.075
693.752	208.113
698.377	82.1748
702.999	4.01269
707.619	202.414
712.237	205.788
716.852	391.099
721.464	545.415
726.074	767.76
730.681	1008.13
735.286	1339.64
739.888	1165.98
744.488	856.467
749.085	457.996
753.68	249.579
758.272	50.1865
762.861	95.3311
767.448	144.763
772.033	145.718
776.614	135.014
781.194	93.9727
785.77	247.018
790.345	106.731
794.916	136.269
799.485	154.288
804.052	109.919
808.616	157.178
813.177	153.085
817.736	328.132
822.292	394.884
826.846	642.611
831.397	1058.24
835.945	1267.59
840.491	1062.55
845.035	913.701
849.576	781.219
854.114	679.511
858.65	496.134
863.183	466.615
867.713	482.993
872.241	445.312
876.767	463.609
881.29	448.929
885.81	626.311
890.328	708.788
894.843	740.391
899.356	1315.97
903.866	2326.23
908.373	4901.12
912.878	7437.85
917.38	9120.64
921.88	15576.4
926.377	27488.8
930.872	41992.4
935.364	43290.4
939.853	29645.9
944.34	18936.3
948.824	13758.3
953.306	6991.88
957.785	3256.84
962.261	1931.15
966.735	1452.9
971.207	1373.17
975.675	1791.04
980.141	2291.32
984.605	3071.82
989.066	5364.55
993.524	10480.5
997.98	18424.6
1002.43	25010
1006.88	25699.7
1011.33	21029.5
1015.78	15296.7
1020.22	9793.35
1024.66	6094.78
1029.1	3963.8
1033.53	2776.29
1037.97	2509.7
1042.4	2105.28
1046.82	1677.16
1051.25	1212.17
1055.67	967.893
1060.09	745.07
1064.51	610.377
1068.92	500.32
1073.33	800.186
1077.74	1085.45
1082.15	1836.09
1086.55	2930.55
1090.95	3208.34
1095.35	2190.75
1099.75	1238.75
1104.14	650.737
1108.53	413.46
1112.92	345.385
1117.31	465.888
1121.69	1088.51
1126.07	886.822
1130.45	538.8
1134.82	371.411
1139.19	218.625
1143.57	242.406
1147.93	192.726
1152.3	302.593
1156.66	149.142
1161.02	306.629
1165.38	159.846
1169.73	244.645
1174.08	159.831
1178.43	248.299
1182.78	63.0273
1187.12	98.9121
1191.46	112.257
1195.8	210.746
1200.14	109.939
1204.47	90.9551
1208.8	132.982
1213.13	114.166
1217.46	27.4912
1221.78	8.37695
1226.1	126.441
1230.42	57.706
1234.73	153.925
1239.04	188.424
1243.35	305.456
1247.66	225.111
1251.97	393.37
1256.27	440.2
1260.57	461.618
1264.86	539.634
1269.16	527.232
1273.45	524.29
1277.74	471.959
1282.03	495.04
1286.31	622.18
1290.59	676.114
1294.87	816.517
1299.14	692.977
1303.42	747.741
1307.69	653.078
1311.95	534.794
1316.22	730.718
1320.48	534.742
1324.74	578.114
1329	653.336
1333.26	920.971
1337.51	948.132
1341.76	1029.13
1346	1004.66
1350.25	1000.79
1354.49	1242.27
1358.73	1719.17
1362.96	2076.14
1367.2	1587.68
1371.43	954.051
1375.66	690.872
1379.88	636.563
1384.11	686.235
1388.33	1003.56
1392.54	1558.78
1396.76	1784.9
1400.97	1046.76
1405.18	400.794
1409.39	176.674
1413.59	80.5811
1417.8	39.2109
1421.99	103.124
1426.19	103.568
1430.38	309.771
1434.58	101.706
1438.77	481.456
1442.95	507.224
1447.13	631.473
1451.32	359.562
1455.49	362.245
1459.67	425.005
1463.84	494.379
1468.01	511.526
1472.18	453.879
1476.35	474.397
1480.51	521.258
1484.67	402.047
1488.83	197.329
1492.98	244.859
1497.13	282.159
1501.28	234.667
1505.43	179.735
1509.57	183.895
1513.71	109.368
1517.85	20.124
1521.99	24.5518
1526.12	63.6084
1530.25	8.52832
1534.38	81.4316
1538.5	191.674
1542.62	381.692
1546.74	651.425
1550.86	342.222
1554.98	364.749
1559.09	11.1904
1563.2	40.7295
1567.31	16.1875
