Measurement: Raman, 514 nm, ccw, Raman Data Processed
Mineral: Catapleiite
Rruff sample: R060208
Ideal chemistry: Na_2_ZrSi_3_O_9_2H_2_O
Locality: Mont Saint-Hilaire, Rouville County, Quebec, Canada
Source: Royal Ontario Museum
Description: Colorless transparent thin tabular pseudohexagonal crystal
Measured chemistry: Na_2.00_Zr_1.00_Si_3.00_O_9_Â·2H_2_O
Pin_id: M01569
Orientation: Laser parallel to -c* (0 0 -1). Fiducial mark perpendicular to laser is parallel to a [1 0 0]
Raman shift (cm-1)	intensity
120.914	0
125.848	35.29
130.779	461.221
135.707	869.115
140.633	1261.99
145.556	1838.13
150.476	2484.36
155.395	2927.5
160.31	3370.8
165.223	2736.74
170.134	1811.66
175.042	1145.24
179.947	754.176
184.85	722.043
189.751	825.035
194.649	1112.35
199.544	1414.2
204.437	1574.85
209.327	1645.35
214.215	1541.89
219.1	1003.55
223.982	468.663
228.862	262.459
233.74	9.78857
238.615	89.5874
243.487	110.492
248.357	160.87
253.224	118.645
258.089	9.3169
262.951	18.3784
267.811	62.6728
272.668	89.5342
277.523	119.796
282.375	374.595
287.224	842.854
292.071	1573.94
296.916	2040.69
301.758	1845.59
306.597	1554.18
311.434	1493.77
316.268	1287.9
321.099	1130.83
325.928	1068.2
330.755	819.305
335.579	617.827
340.4	524.524
345.219	277.574
350.035	404.765
354.849	357.763
359.66	554.563
364.469	918.179
369.275	878.602
374.078	926.628
378.879	842.002
383.678	657.792
388.473	602.071
393.267	423.733
398.057	389.159
402.845	694.233
407.631	1012.51
412.414	1916.74
417.194	4080.43
421.972	7374.47
426.748	12649.6
431.52	13647.1
436.29	8732.57
441.058	4807.72
445.823	2803.63
450.586	1807.38
455.345	1012
460.103	720.571
464.858	449.114
469.61	495.686
474.359	355.375
479.106	220.282
483.851	188.475
488.593	65.8857
493.332	114.464
498.069	143.341
502.803	266.111
507.535	472.878
512.264	748.411
516.99	1200.85
521.714	1622.31
526.435	1784.98
531.154	1663.25
535.87	1728.18
540.584	1852.55
545.295	1720.22
550.004	2045.81
554.709	2868.03
559.413	4284.28
564.113	7507.48
568.812	11989.1
573.507	15549.2
578.2	12008.4
582.891	6305.75
587.578	3028.36
592.264	1608.18
596.946	933.233
601.626	758.493
606.304	823.954
610.979	1204.61
615.651	2404.44
620.321	5122.44
624.988	10522
629.653	15861.7
634.315	10191.8
638.974	4243.53
643.631	1935.94
648.285	992.469
652.937	555.918
657.586	260.258
662.233	193.387
666.877	40.0474
671.518	64.6675
676.157	15.9902
680.793	23.4409
685.427	70.4346
690.058	79.7817
694.686	55.2476
699.312	60.5864
703.935	7.84229
708.556	48.8008
713.174	273.494
717.789	280.35
722.402	573.766
727.013	782.731
731.62	1166.24
736.225	1502.28
740.828	1325.84
745.428	887.925
750.025	594.514
754.62	347.604
759.212	151.992
763.802	144.259
768.389	97.1231
772.973	59.7676
777.555	14.9898
782.134	1.04492
786.711	71.145
791.285	78.6807
795.856	12.6148
800.425	5.64502
804.992	44.5781
809.555	24.2612
814.116	114.211
818.675	100.775
823.231	56.5283
827.784	104.84
832.335	180.412
836.883	230.674
841.428	245.929
845.971	197.208
850.512	189.361
855.049	271.772
859.584	318.903
864.117	332.794
868.647	244.422
873.174	402.775
877.699	443.796
882.221	561.773
886.741	562.417
891.258	745.844
895.772	1016.07
900.284	1509.71
904.793	1981.99
909.3	3094.9
913.803	4811.03
918.305	8542.86
922.804	17284.4
927.3	33273.1
931.793	49608.3
936.284	44185.8
940.773	23247
945.258	11618.6
949.742	7382.81
954.222	4044.29
958.7	2075.98
963.176	1336.22
967.648	1012.93
972.119	787.226
976.586	800.984
981.051	1032.3
985.513	1404.07
989.973	2969.08
994.43	5651.55
998.885	9232.25
1003.34	11776.8
1007.79	11209.2
1012.23	9190.28
1016.68	6425.66
1021.12	3868.4
1025.56	2043.52
1029.99	1318.95
1034.43	891.693
1038.86	943.576
1043.29	841.09
1047.71	399.465
1052.14	192.307
1056.56	88.874
1060.98	141.851
1065.39	71.6231
1069.8	191.997
1074.21	453.998
1078.62	781.225
1083.03	1599.14
1087.43	2684.12
1091.83	2410.35
1096.23	1370.73
1100.62	679.685
1105.01	384.813
1109.4	56.2998
1113.79	26.9766
1118.17	125.066
1122.56	3.10352
1126.93	57.9766
1131.31	19.0908
1135.69	31.5684
1140.06	125.645
1144.42	172.483
1148.79	149.109
1153.15	133.286
1157.52	92.5586
1161.87	22.4336
1166.23	89.3799
1170.58	14.5166
1174.93	181.236
1179.28	1.81641
1183.63	149.011
1187.97	204.588
1192.31	12.1387
1196.65	52.5391
1200.98	21.9561
1205.31	28.9141
1209.64	128.316
1213.97	1.74121
1218.29	92.7129
1222.62	18.0381
1226.93	13.4727
1231.25	83.2744
1235.57	126.733
1239.88	154.307
1244.18	144.474
1248.49	49.7383
1252.8	132.254
1257.1	42.6875
1261.39	42.1191
1265.69	2.07617
1269.98	51.8838
1274.27	115.083
1278.56	107.941
1282.85	45.4365
1287.13	124.557
1291.41	53.4502
1295.69	207.772
1299.96	38.2236
1304.23	118.528
1308.5	189.696
1312.77	83.3008
1317.03	106.386
1321.3	212.403
1325.56	40.998
1329.81	21.3174
1334.07	156.332
1338.32	148.474
1342.57	152.131
1346.81	193.752
1351.06	293.818
1355.3	165.844
1359.54	156.56
1363.77	189.097
1368	120.446
1372.23	208.776
1376.46	98.9346
1380.69	279.164
1384.91	6.87793
1389.13	187.86
1393.35	167.45
1397.56	190.776
1401.77	160.08
1405.98	145.298
1410.19	187.273
1414.39	128.595
1418.6	199.334
1422.8	75.0156
1426.99	263.304
1431.19	186.986
1435.38	145.887
1439.57	363.538
1443.75	242.56
1447.94	269.575
1452.12	233.773
1456.3	251.217
1460.47	227.251
1464.64	285.204
1468.82	395.777
1472.98	255.815
1477.15	230.793
1481.31	282.759
1485.47	296.006
1489.63	213.688
1493.78	43.8887
1497.94	135.609
1502.09	90.3652
1506.23	153.697
1510.38	35.5674
1514.52	107.547
1518.66	82.5869
1522.8	216.308
1526.93	157.514
1531.06	47.7529
1535.19	94.4893
1539.32	190.947
1543.44	100.877
1547.56	6.78809
1551.68	194.112
1555.79	52.1816
1559.91	43.2002
