Measurement: Raman, 514 nm, ccw, Raman Data Processed
Mineral: Catapleiite
Rruff sample: R060198
Ideal chemistry: Na_2_ZrSi_3_O_9_2H_2_O
Locality: Mont Saint-Hilaire, Rouville County, Quebec, Canada
Source: Royal Ontario Museum
Description: Tan colored pseudohexagonal tabular crystals
Measured chemistry: (Na_1.92_Ca_0.04_[box]_0.04_)_Σ=2_Zr_1.00_Si_3.00_O_9_·2H_2_O
Pin_id: L01747
Orientation: Laser parallel to c* (0 0 1). Fiducial mark perpendicular to laser is parallel to a [1 0 0]
Raman shift (cm-1)	intensity
95.948	0
100.883	135.682
105.815	1135.01
110.744	3129.95
115.671	2718.77
120.596	1464.32
125.519	1281.01
130.439	1808.78
135.356	2047.62
140.271	2908.78
145.184	3507.22
150.094	4228.91
155.002	4178.52
159.908	4178.41
164.811	3991.45
169.711	3146.09
174.61	2291.51
179.505	2239.63
184.399	2188.38
189.29	2803.04
194.178	3321.36
199.064	4245.3
203.948	4758.54
208.829	3694.98
213.708	3321.21
218.585	2330.77
223.459	1531.87
228.33	860.624
233.199	578.678
238.066	304.992
242.93	102.226
247.792	77.6269
252.651	15.8486
257.508	87.4609
262.363	280.375
267.215	139.452
272.064	290.447
276.912	55.5498
281.756	83.0449
286.598	189.203
291.438	605
296.276	875.442
301.111	869.698
305.943	519.437
310.773	516.024
315.601	333.234
320.426	375.379
325.248	286.112
330.068	281.463
334.886	91.2891
339.701	52.333
344.514	37.6826
349.324	16.7412
354.132	278.993
358.938	465.275
363.741	651.127
368.541	458.063
373.339	592.589
378.135	389.983
382.928	390.279
387.718	320.361
392.506	314.597
397.292	309.594
402.075	435.731
406.856	891.873
411.634	1696.09
416.41	3302.36
421.183	6359.29
425.954	10474
430.722	12431.9
435.488	8768.34
440.251	4763.63
445.012	2644.89
449.77	1628.74
454.526	996.59
459.28	714.323
464.03	334.866
468.779	253.05
473.525	218.09
478.268	9.56152
483.009	90.9785
487.747	65.2588
492.483	54.75
497.217	39.3545
501.948	105.179
506.676	238.944
511.402	502.823
516.125	1001.71
520.846	1440.36
525.565	1615.48
530.281	1549.3
534.994	1294.21
539.705	1203.9
544.413	1418
549.119	1561.9
553.822	2449.66
558.523	4275.18
563.222	7528.66
567.917	11460.5
572.611	13762.3
577.302	10646.2
581.99	5634.2
586.676	2539.78
591.359	1295.27
596.04	666.659
600.718	627.924
605.394	638.052
610.067	1038.14
614.737	1994.67
619.406	4105.06
624.071	8115.18
628.734	14152
633.395	11295.9
638.053	5215.37
642.708	2598.46
647.361	1511.56
652.012	1162.61
656.66	934.23
661.305	767.768
665.948	751.901
670.588	618.519
675.226	470.257
679.861	498.264
684.494	398.4
689.124	510.647
693.752	453.979
698.377	206.369
702.999	270.725
707.619	308.986
712.237	343.16
716.852	290.276
721.464	459.344
726.074	725.388
730.681	1108.41
735.286	1079.98
739.888	974.371
744.488	689.314
749.085	264.661
753.68	250.092
758.272	51.3291
762.861	170.782
767.448	127.842
772.033	165.76
776.614	89.5283
781.194	180.94
785.77	235.999
790.345	189.096
794.916	99.7832
799.485	93.4697
804.052	343.336
808.616	33.7246
813.177	211.282
817.736	386.568
822.292	445.181
826.846	957.162
831.397	1274.56
835.945	1791.75
840.491	1385.59
845.035	1353.11
849.576	1037.66
854.114	850.288
858.65	579
863.183	568.447
867.713	581.639
872.241	575.616
876.767	520.424
881.29	496.103
885.81	555.265
890.328	518.064
894.843	796.274
899.356	1390.05
903.866	2712.46
908.373	5518.31
912.878	8231.6
917.38	9732.8
921.88	15976.4
926.377	26162.5
930.872	38230.8
935.364	39204.3
939.853	28034.9
944.34	19560.1
948.824	15023.3
953.306	7723.14
957.785	3682.31
962.261	2293.81
966.735	1666.73
971.207	1498.86
975.675	1850.39
980.141	2650.59
984.605	3315.23
989.066	5744.04
993.524	11032
997.98	19354.2
1002.43	26496.6
1006.88	26596.3
1011.33	22015.1
1015.78	15653.3
1020.22	9968.66
1024.66	6229.35
1029.1	4423.56
1033.53	3095.66
1037.97	2640.94
1042.4	2307.55
1046.82	1727.38
1051.25	1160.21
1055.67	1050.14
1060.09	801.672
1064.51	510.223
1068.92	908.496
1073.33	855.572
1077.74	1140.28
1082.15	1906.26
1086.55	3042.36
1090.95	3228.06
1095.35	2239.12
1099.75	1120.08
1104.14	620.104
1108.53	377.705
1112.92	221.799
1117.31	350.31
1121.69	621.594
1126.07	490.619
1130.45	379.356
1134.82	369.769
1139.19	419.832
1143.57	385.512
1147.93	237.773
1152.3	525.586
1156.66	248.025
1161.02	265.67
1165.38	156.33
1169.73	174.691
1174.08	405.467
1178.43	150.562
1182.78	30.0762
1187.12	37.3516
1191.46	163.818
1195.8	162.82
1200.14	180.357
1204.47	183.453
1208.8	161.857
1213.13	43.5723
1217.46	16.709
1221.78	114.824
1226.1	68.6699
1230.42	226.352
1234.73	71.5938
1239.04	333.531
1243.35	276.156
1247.66	319.428
1251.97	443.312
1256.27	407.809
1260.57	391.91
1264.86	625.566
1269.16	516.746
1273.45	629.43
1277.74	700.606
1282.03	691.043
1286.31	950.951
1290.59	812.979
1294.87	901.107
1299.14	893.981
1303.42	1062
1307.69	709.51
1311.95	677.457
1316.22	781.598
1320.48	739.82
1324.74	875.973
1329	906.348
1333.26	1145.32
1337.51	1204.89
1341.76	1295.74
1346	1468.33
1350.25	1311.81
1354.49	1687.9
1358.73	2544.45
1362.96	2749.96
1367.2	2133.2
1371.43	1311.81
1375.66	980.516
1379.88	1092.23
1384.11	1022.26
1388.33	1428.83
1392.54	1998.29
1396.76	2476.38
1400.97	1341.45
1405.18	443.904
1409.39	148.106
1413.59	140.514
1417.8	14.9785
1421.99	54.7773
1426.19	200.42
1430.38	313.174
1434.58	116.562
1438.77	363.641
1442.95	590.443
1447.13	721.031
1451.32	691.691
1455.49	383.037
1459.67	532.744
1463.84	833.297
1468.01	794.254
1472.18	502.709
1476.35	537.719
1480.51	496.875
1484.67	340.49
1488.83	434.463
1492.98	392.361
1497.13	200.725
1501.28	152.873
1505.43	219.248
1509.57	213.369
1513.71	196.514
1517.85	181.019
1521.99	317.519
1526.12	181.266
1530.25	62.2461
1534.38	10.7422
1538.5	227.188
1542.62	307.519
1546.74	616.029
1550.86	520.088
1554.98	413.699
1559.09	292.643
1563.2	14.0469
1567.31	69.8652
