Measurement: Raman, 514 nm, ccw, Raman Data Processed
Mineral: Catapleiite
Rruff sample: R060208
Ideal chemistry: Na_2_ZrSi_3_O_9_2H_2_O
Locality: Mont Saint-Hilaire, Rouville County, Quebec, Canada
Source: Royal Ontario Museum
Description: Colorless transparent thin tabular pseudohexagonal crystal
Measured chemistry: Na_2.00_Zr_1.00_Si_3.00_O_9_Â·2H_2_O
Pin_id: M01568
Orientation: Laser parallel to b* (0 1 0). Fiducial mark perpendicular to laser is parallel to c [0 0 1]
Raman shift (cm-1)	intensity
113.51	0
118.447	31.1553
123.381	301.164
128.313	643.898
133.243	1045.66
138.17	1306.96
143.095	1571.66
148.016	2152.45
152.936	2657.58
157.853	2833.22
162.767	2733.85
167.679	2216.33
172.588	1705.41
177.495	1357.14
182.399	1583.47
187.301	1919.55
192.2	2552.3
197.097	3056.31
201.991	3706.15
206.882	3534.68
211.771	3249.57
216.657	2547.1
221.541	1631.74
226.423	818.074
231.301	416.298
236.178	86.5376
241.051	12.1411
245.923	60.9605
250.791	212.494
255.657	130.889
260.521	55.4473
265.382	169.938
270.24	204.454
275.096	77.5977
279.949	36.4692
284.8	339.44
289.648	833.306
294.494	1253.98
299.337	1277.83
304.177	1063.48
309.015	913.312
313.851	937.8
318.684	826.296
323.514	695.22
328.342	632.394
333.167	535.169
337.99	221.577
342.81	157.885
347.628	214.912
352.443	311.739
357.255	484.872
362.065	766.914
366.872	878.296
371.677	867.548
376.479	690.036
381.279	779.53
386.076	713.848
390.87	720.863
395.662	677.274
400.452	884.656
405.239	1372.5
410.023	2492.03
414.805	4877.17
419.584	9393.92
424.36	15638.4
429.134	19535.5
433.906	15735
438.675	8901.61
443.441	4865.15
448.205	2973.68
452.966	1991.26
457.724	1210.94
462.481	940.774
467.234	720.79
471.985	506.069
476.733	436.394
481.479	359.565
486.222	147.344
490.963	217.353
495.701	297.675
500.436	466.903
505.169	673.303
509.9	1276.87
514.627	1921.54
519.353	2470.43
524.075	2868.4
528.795	2845.79
533.513	2805.17
538.228	2791.25
542.94	2736.68
547.65	2886.22
552.357	3766.87
557.061	5593.26
561.763	9301.63
566.463	15232.7
571.16	20433.3
575.854	19356.8
580.546	11790.5
585.235	5703.71
589.921	2855.28
594.605	1703.22
599.287	1164.52
603.965	1230.16
608.642	1590.13
613.315	2842.41
617.986	6024.15
622.655	12633.8
627.321	18966.2
631.984	17893.5
636.645	8619.74
641.303	3706.15
645.959	1726.63
650.612	1033.98
655.262	556.101
659.91	270.138
664.555	177.57
669.198	158.812
673.838	27.3262
678.475	19.7778
683.11	40.2573
687.742	3.125
692.372	133.172
696.999	72.208
701.624	98.4356
706.246	35.7876
710.865	53.9238
715.482	142.963
720.096	213.383
724.708	482.166
729.317	723.297
733.923	1106.77
738.527	969.555
743.128	759.653
747.727	481.049
752.323	262.731
756.916	193.684
761.507	57.1157
766.096	61.9619
770.681	95.9575
775.264	13.3721
779.845	34.3457
784.423	64.0698
788.998	56.6631
793.571	102.118
798.141	1.56836
802.709	10.2544
807.274	2.59033
811.836	39.5752
816.396	112.084
820.953	121.275
825.508	295.656
830.06	258.798
834.609	289.619
839.156	136.053
843.7	205.134
848.242	202.354
852.781	241.748
857.317	294.687
861.851	362.229
866.382	349.35
870.911	317.072
875.437	311.42
879.96	306.416
884.481	471.082
888.999	570.443
893.515	702.348
898.028	936.8
902.539	1195.69
907.047	1799.08
911.552	2768.92
916.054	4892.22
920.555	9066
925.052	17935.3
929.547	29608.6
934.039	32359.4
938.529	21239.7
943.016	10522.4
947.5	6251.11
951.982	3663.11
956.462	2098.96
960.938	1390.14
965.412	1187.47
969.884	1228.22
974.353	1673.68
978.819	2446.82
983.283	3910.58
987.744	7207.9
992.202	14399.6
996.658	24896.9
1001.11	33689.8
1005.56	34889.3
1010.01	29575.4
1014.46	22162.9
1018.9	14393
1023.34	8189.62
1027.78	4867.84
1032.21	3682.89
1036.64	3338.88
1041.07	2941.79
1045.5	2093.4
1049.92	1268.99
1054.35	799.361
1058.77	568.918
1063.18	500.524
1067.6	506.769
1072.01	746.515
1076.42	1216.02
1080.83	2153.46
1085.23	3585.39
1089.63	4058.01
1094.03	3051.3
1098.42	1681.5
1102.82	797.394
1107.21	331.685
1111.6	72.793
1115.98	80.4785
1120.37	16.648
1124.75	6.88721
1129.12	137.016
1133.5	86.3272
1137.87	216.715
1142.24	139.836
1146.61	207.916
1150.97	185.352
1155.34	48.9131
1159.69	35.8945
1164.05	49.501
1168.41	56.4653
1172.76	70.2793
1177.11	23.2656
1181.45	16.8384
1185.8	82.8447
1190.14	50.7549
1194.48	98.0884
1198.81	171.191
1203.15	15.3252
1207.48	62.1167
1211.81	92.7578
1216.13	24.1636
1220.45	44.8672
1224.78	27.709
1229.09	44.7398
1233.41	98.894
1237.72	10.022
1242.03	12.6284
1246.34	16.2026
1250.64	96.4839
1254.94	121.954
1259.24	3.83496
1263.54	171.782
1267.84	96.0518
1272.13	156.017
1276.42	99.6577
1280.7	88.1265
1284.99	210.095
1289.27	162.455
1293.55	182.62
1297.82	64.3735
1302.1	103.076
1306.37	165.984
1310.64	214.992
1314.9	226.334
1319.16	158.33
1323.43	154.109
1327.68	159.325
1331.94	220.172
1336.19	46.7134
1340.44	145.416
1344.69	262.11
1348.93	106.698
1353.18	93.0644
1357.42	166.07
1361.65	127.39
1365.89	168.922
1370.12	174.949
1374.35	93.0264
1378.58	55.4014
1382.8	132.763
1387.02	105.71
1391.24	165.002
1395.45	95.2295
1399.67	121.852
1403.88	92.3945
1408.09	180.558
1412.29	35.8535
1416.5	70.3359
1420.7	89.1318
1424.89	137.31
1429.09	181.034
1433.28	249.074
1437.47	198.076
1441.66	247.068
1445.85	379.102
1450.03	398.111
1454.21	451.585
1458.38	410.147
1462.56	221.631
1466.73	275.7
1470.9	295.152
1475.07	354.95
1479.23	286.502
1483.39	195.895
1487.55	239.274
1491.71	59.3916
1495.86	7.09277
1500.01	127.772
1504.16	167.35
1508.31	86.9522
1512.45	8.06934
1516.59	127.541
1520.73	103.877
1524.86	52.3623
1528.99	94.7148
1533.12	160.685
1537.25	104.412
1541.38	196.083
1545.5	32.3906
1549.62	112.392
1553.74	26.873
1557.85	200.678
1561.96	0
