Measurement: Raman, 514 nm, ccw, Raman Data Processed
Mineral: Catapleiite
Rruff sample: R060198
Ideal chemistry: Na_2_ZrSi_3_O_9_2H_2_O
Locality: Mont Saint-Hilaire, Rouville County, Quebec, Canada
Source: Royal Ontario Museum
Description: Tan colored pseudohexagonal tabular crystals
Measured chemistry: (Na_1.92_Ca_0.04_[box]_0.04_)_Σ=2_Zr_1.00_Si_3.00_O_9_·2H_2_O
Pin_id: L00755
Orientation: Laser parallel to -a* (-1 0 0). Fiducial mark perpendicular to laser is parallel to -b [0 -1 0]
Raman shift (cm-1)	intensity
95.948	0
100.883	125.975
105.815	473.073
110.744	1190.21
115.671	1493.12
120.596	1187.44
125.519	1389.88
130.439	1734.32
135.356	2218.83
140.271	2905.71
145.184	3543.18
150.094	4363.15
155.002	4887.54
159.908	4747.68
164.811	4257.3
169.711	3273.02
174.61	2530.2
179.505	2128.22
184.399	2146.24
189.29	2412.27
194.178	3034.3
199.064	3743.04
203.948	4024.53
208.829	3509.37
213.708	2832.01
218.585	1871
223.459	953.26
228.33	401.244
233.199	135.863
238.066	98.8066
242.93	123.848
247.792	190.183
252.651	70.1807
257.508	27.3135
262.363	68.3223
267.215	80.8144
272.064	196.749
276.912	43.2158
281.756	223.206
286.598	662.5
291.438	1332.61
296.276	1526.9
301.111	1478.76
305.943	1174.53
310.773	1031.13
315.601	774.552
320.426	646.747
325.248	646.023
330.068	592.193
334.886	354.445
339.701	151.582
344.514	220.207
349.324	328.35
354.132	489.065
358.938	764.443
363.741	874.477
368.541	1073.12
373.339	1007.99
378.135	864.969
382.928	736.296
387.718	823.614
392.506	938.596
397.292	823.939
402.075	1286.59
406.856	2342.01
411.634	4171.69
416.41	8234.77
421.183	15040.6
425.954	23261.6
430.722	21335.8
435.488	13161.1
440.251	7198.44
445.012	4092.77
449.77	2676.18
454.526	1815.71
459.28	1229.4
464.03	823.317
468.779	540.576
473.525	407.144
478.268	174.118
483.009	114.136
487.747	115.812
492.483	65.5127
497.217	104.272
501.948	285.214
506.676	508.928
511.402	1012.12
516.125	1706.49
520.846	2370.33
525.565	2666.82
530.281	2727.94
534.994	2726.72
539.705	2624.9
544.413	3106.07
549.119	3870.44
553.822	6264.81
558.523	11052
563.222	20120.9
567.917	27869.7
572.611	25968.9
577.302	16280.2
581.99	8011.16
586.676	3783.47
591.359	2067.09
596.04	1423.02
600.718	1030.21
605.394	1347.65
610.067	1906.31
614.737	3962.34
619.406	8564.26
624.071	18565.9
628.734	26767.8
633.395	16047.6
638.053	6325.14
642.708	2572.74
647.361	1380.44
652.012	625.636
656.66	305.884
661.305	269.588
665.948	202.142
670.588	67.3926
675.226	116.056
679.861	22.6699
684.494	79.0537
689.124	92.5781
693.752	64.2129
698.377	24.2188
702.999	10.9658
707.619	113.893
712.237	125.509
716.852	394.066
721.464	502.571
726.074	919.011
730.681	1434.37
735.286	1415.37
739.888	1207.8
744.488	851.841
749.085	374.758
753.68	198.532
758.272	49.9795
762.861	71.6953
767.448	15.667
772.033	107.682
776.614	180.056
781.194	208.866
785.77	189.058
790.345	3.1543
794.916	154.404
799.485	92.2305
804.052	71.9238
808.616	39.3496
813.177	128.782
817.736	211.123
822.292	322.892
826.846	704.401
831.397	1096.31
835.945	1224.78
840.491	1059.62
845.035	1036.92
849.576	1006.14
854.114	915.483
858.65	585.495
863.183	526.933
867.713	479.832
872.241	405.232
876.767	409.172
881.29	704.499
885.81	672.827
890.328	815.065
894.843	1008.83
899.356	1593.57
903.866	2736.59
908.373	4798.44
912.878	7337.73
917.38	10526.8
921.88	18728.8
926.377	32755.9
930.872	45390.8
935.364	42134.5
939.853	27489.2
944.34	17364.7
948.824	11363
953.306	5754.15
957.785	3236.59
962.261	2136.08
966.735	1448.47
971.207	1615.85
975.675	2014.48
980.141	3164.8
984.605	5191.35
989.066	9628.8
993.524	18571.2
997.98	31819.4
1002.43	41277.6
1006.88	41173.8
1011.33	33123
1015.78	23290.1
1020.22	14627.2
1024.66	9032.43
1029.1	5946.78
1033.53	4199.65
1037.97	3799.72
1042.4	2955.63
1046.82	2189.67
1051.25	1680.82
1055.67	1196.15
1060.09	902.404
1064.51	944.256
1068.92	845.305
1073.33	994.244
1077.74	1558.43
1082.15	2795.37
1086.55	4282.58
1090.95	4280.3
1095.35	2911.52
1099.75	1455.05
1104.14	734.92
1108.53	278.457
1112.92	178.328
1117.31	204.391
1121.69	721.574
1126.07	482.334
1130.45	174.637
1134.82	308.461
1139.19	180.779
1143.57	330.56
1147.93	339.781
1152.3	218.459
1156.66	206.217
1161.02	42.9434
1165.38	144.402
1169.73	241.109
1174.08	56.0312
1178.43	85.7246
1182.78	24.25
1187.12	72.3555
1191.46	25.7227
1195.8	180.668
1200.14	72.1641
1204.47	13.377
1208.8	116.83
1213.13	45.9746
1217.46	177.279
1221.78	59.2266
1226.1	57.9629
1230.42	123.188
1234.73	165.008
1239.04	145.4
1243.35	65.1406
1247.66	175.422
1251.97	185.287
1256.27	266.713
1260.57	324.684
1264.86	411.123
1269.16	280.213
1273.45	314.766
1277.74	416.932
1282.03	603.949
1286.31	314.184
1290.59	567.965
1294.87	775.189
1299.14	728.59
1303.42	712.34
1307.69	506.852
1311.95	513.938
1316.22	491.023
1320.48	506.102
1324.74	443.322
1329	581.236
1333.26	500.41
1337.51	722.793
1341.76	714.852
1346	777.773
1350.25	742.894
1354.49	1056.67
1358.73	1416.93
1362.96	1637.87
1367.2	1213.32
1371.43	687.273
1375.66	717.49
1379.88	681.137
1384.11	533.268
1388.33	858.057
1392.54	1066.88
1396.76	1378.68
1400.97	689.115
1405.18	360.481
1409.39	68.3516
1413.59	1.26562
1417.8	62.4082
1421.99	8.44141
1426.19	182.857
1430.38	301.846
1434.58	206.137
1438.77	293.273
1442.95	568.094
1447.13	575.617
1451.32	321.6
1455.49	426.449
1459.67	603.215
1463.84	530.982
1468.01	584.68
1472.18	487.232
1476.35	485.586
1480.51	535.637
1484.67	481.398
1488.83	358.56
1492.98	492.812
1497.13	154.281
1501.28	176.516
1505.43	203.268
1509.57	132.115
1513.71	319.176
1517.85	80.3633
1521.99	83.4688
1526.12	74.957
1530.25	140.725
1534.38	317.609
1538.5	336.992
1542.62	821.498
1546.74	687.769
1550.86	344.904
1554.98	352.529
1559.09	150.715
1563.2	263.371
1567.31	164.475
