Measurement: Raman, 514 nm, ccw, Raman Data Processed
Mineral: Catapleiite
Rruff sample: R040005
Ideal chemistry: Na_2_ZrSi_3_O_9_2H_2_O
Locality: Langesundsfjord Eikaholmen Vestfold, Norway
Source: University of Arizona Mineral Museum
Description: Brown thin tabular crystal
Measured chemistry: (Na_1.28_Ca_0.36_[box]_0.36_)_Σ=2_Zr_1.00_Si_3.00_O_9_·2H_2_O
Pin_id: L01591
Orientation: Laser parallel to b* (0 1 0). Fiducial mark perpendicular to laser is parallel to -c [0 0 -1]
Raman shift (cm-1)	intensity
120.596	0
125.519	15.2695
130.439	147.367
135.356	457.84
140.271	891.949
145.184	993.031
150.094	1556.12
155.002	1656.86
159.908	1974.25
164.811	2255.35
169.711	2436.07
174.61	2936.19
179.505	3417.14
184.399	4123.92
189.29	5092.1
194.178	6305.31
199.064	7618.83
203.948	8578.92
208.829	9270.41
213.708	8786.12
218.585	6624.92
223.459	4514.08
228.33	2909.71
233.199	1973.08
238.066	1451.67
242.93	809.127
247.792	511.558
252.651	347.075
257.508	325.773
262.363	294.412
267.215	52.6914
272.064	235.357
276.912	249.182
281.756	322.451
286.598	225.797
291.438	69.3672
296.276	277.625
301.111	462.201
305.943	657.065
310.773	728.615
315.601	866.791
320.426	1003.01
325.248	944.609
330.068	884.793
334.886	823.357
339.701	979.815
344.514	1016.4
349.324	1237.56
354.132	1283.45
358.938	1710.87
363.741	1596.13
368.541	1598.32
373.339	1424.44
378.135	1161.5
382.928	1063.53
387.718	1017.32
392.506	1106.37
397.292	1210.6
402.075	1213.73
406.856	1528.71
411.634	1687.79
416.41	1893.12
421.183	2958.77
425.954	3858.39
430.722	5084.73
435.488	5472.72
440.251	5220.49
445.012	4338.26
449.77	3143.19
454.526	2070.15
459.28	1211.18
464.03	795.908
468.779	733.643
473.525	433.272
478.268	357.082
483.009	385.969
487.747	317.004
492.483	457.301
497.217	621.971
501.948	796.955
506.676	1239.29
511.402	1838.97
516.125	2241.99
520.846	2403.38
525.565	2322.46
530.281	1905.81
534.994	1397.12
539.705	886.602
544.413	1008.77
549.119	731.699
553.822	814.061
558.523	1339.84
563.222	2078.28
567.917	3596.8
572.611	4487.56
577.302	4440.57
581.99	3322.95
586.676	1894.64
591.359	1338.64
596.04	882.371
600.718	693.045
605.394	648.602
610.067	992.043
614.737	1395.37
619.406	2300.53
624.071	4357.52
628.734	7177.41
633.395	7765.43
638.053	5240.77
642.708	2444.64
647.361	1094.37
652.012	444.01
656.66	358.182
661.305	227.553
665.948	45.7754
670.588	158.084
675.226	38.0508
679.861	19.125
684.494	62.8984
689.124	14.3906
693.752	96.1875
698.377	165.248
702.999	133.934
707.619	78.0078
712.237	23.1367
716.852	83.4141
721.464	270.902
726.074	266.17
730.681	342.016
735.286	311.869
739.888	488.156
744.488	351.92
749.085	500.119
753.68	269.248
758.272	158.666
762.861	210.391
767.448	212.389
772.033	120.592
776.614	151.025
781.194	99.7812
785.77	42.8086
790.345	120.106
794.916	124.693
799.485	39.5352
804.052	148.643
808.616	55.1875
813.177	31.7168
817.736	143.066
822.292	42.5977
826.846	27.6855
831.397	9.68945
835.945	57.416
840.491	96.3106
845.035	19.2812
849.576	97.2969
854.114	15.9395
858.65	184.967
863.183	50.0332
867.713	53.6621
872.241	72.6309
876.767	23.7168
881.29	15.9824
885.81	123.408
890.328	379.047
894.843	367.978
899.356	682.242
903.866	1127.76
908.373	1878.3
912.878	2405.78
917.38	3131.68
921.88	4213.37
926.377	6039.32
930.872	7689.95
935.364	8331.63
939.853	7351.5
944.34	5461.27
948.824	3907.93
953.306	2791.43
957.785	2406.23
962.261	2399.48
966.735	2963.59
971.207	4164.44
975.675	6163.31
980.141	9356.07
984.605	15100
989.066	22928.5
993.524	32353.9
997.98	39857.9
1002.43	41434
1006.88	36795.5
1011.33	29373.9
1015.78	21561.4
1020.22	14866.9
1024.66	10556.8
1029.1	7969.18
1033.53	6282.61
1037.97	5658.29
1042.4	4908.34
1046.82	4565.55
1051.25	3996.04
1055.67	3028.73
1060.09	2375.87
1064.51	2039.4
1068.92	1851.76
1073.33	2154.44
1077.74	2880.05
1082.15	4436.01
1086.55	5974.1
1090.95	6505.48
1095.35	5063.71
1099.75	3406.22
1104.14	2259.05
1108.53	1295.02
1112.92	913.545
1117.31	724.248
1121.69	1030.37
1126.07	823.723
1130.45	412.769
1134.82	341.283
1139.19	307.277
1143.57	329.541
1147.93	207.553
1152.3	206.268
1156.66	385.906
1161.02	196.772
1165.38	136.773
1169.73	249.435
1174.08	419.893
1178.43	235.166
1182.78	255.836
1187.12	168.691
1191.46	112.924
1195.8	152.391
1200.14	158.441
1204.47	59.4961
1208.8	28.9609
1213.13	33.2852
1217.46	21.666
1221.78	10.8613
1226.1	139.66
1230.42	121.051
1234.73	106.883
1239.04	98.9512
1243.35	69.0332
1247.66	187.885
1251.97	5.51367
1256.27	41.9746
1260.57	37.4238
1264.86	238.74
1269.16	145.391
1273.45	81.1133
1277.74	45.2754
1282.03	238.047
1286.31	68.332
1290.59	69.6523
1294.87	179.736
1299.14	103.318
1303.42	225.027
1307.69	151.209
1311.95	348.529
1316.22	208.106
1320.48	335.402
1324.74	255.842
1329	292.512
1333.26	268.752
1337.51	386.467
1341.76	203.611
1346	182.891
1350.25	141.166
1354.49	292.56
1358.73	131.137
1362.96	322.871
1367.2	167.281
1371.43	72.8613
1375.66	235.412
1379.88	134.111
1384.11	281.725
1388.33	211.836
1392.54	344.18
1396.76	137.275
1400.97	268.211
1405.18	299.461
1409.39	175.666
1413.59	154.734
1417.8	140.168
1421.99	222.168
1426.19	204.801
1430.38	6.20703
1434.58	204.19
1438.77	62.2871
1442.95	154.666
1447.13	273.588
1451.32	347.947
1455.49	29.2148
1459.67	27.1133
1463.84	289.17
1468.01	314.764
1472.18	117.178
1476.35	273.578
1480.51	133.045
1484.67	235.51
1488.83	303.984
1492.98	389.647
1497.13	46.084
1501.28	156.014
1505.43	174.588
1509.57	95.5527
1513.71	220.963
1517.85	185.022
1521.99	116.613
1526.12	85.4453
1530.25	187.178
1534.38	24.7793
1538.5	62.2246
1542.62	137.955
1546.74	313.144
1550.86	181.594
1554.98	197.16
1559.09	274.148
1563.2	12.0098
1567.31	31.5488
1571.41	0
