Measurement: Raman, 514 nm, ccw, Raman Data Processed
Mineral: Catapleiite
Rruff sample: R060208
Ideal chemistry: Na_2_ZrSi_3_O_9_2H_2_O
Locality: Mont Saint-Hilaire, Rouville County, Quebec, Canada
Source: Royal Ontario Museum
Description: Colorless transparent thin tabular pseudohexagonal crystal
Measured chemistry: Na_2.00_Zr_1.00_Si_3.00_O_9_Â·2H_2_O
Pin_id: M00973
Orientation: Laser parallel to (-1 0 -1). Fiducial mark perpendicular to laser is parallel to -b [0 -1 0]
Raman shift (cm-1)	intensity
99.345	0
104.294	340.55
109.241	1650.62
114.185	2289.59
119.126	2563.44
124.064	2767.03
129	3006.82
133.933	2736.52
138.864	2453.44
143.791	2017.57
148.716	1895.96
153.638	1912.49
158.558	1878.74
163.475	2077.59
168.389	2374.02
173.3	2795.44
178.209	3264.76
183.115	3782.4
188.018	4523.08
192.918	5654.39
197.816	7109.77
202.711	7947.44
207.604	8238.49
212.494	7902.18
217.381	6163.13
222.265	3737.73
227.147	2044.45
232.026	1151.19
236.902	626.988
241.775	318.888
246.646	156.225
251.514	4.4917
256.38	107.512
261.243	115.675
266.103	45.5898
270.96	173.025
275.815	302.133
280.667	247.921
285.516	175.689
290.363	159.505
295.207	39.6011
300.048	41.6233
304.887	88.9031
309.723	169.371
314.556	297.347
319.387	562.058
324.215	778.616
329.04	914.008
333.862	792.226
338.682	583.285
343.5	394.09
348.314	545.776
353.126	711.403
357.935	1239.55
362.742	1589.26
367.546	1491.56
372.347	1093.46
377.145	887.975
381.941	737.136
386.735	793.965
391.525	869.495
396.313	1036.52
401.098	1390.31
405.881	2002.5
410.661	2911.22
415.438	4833.11
420.213	8723.88
424.985	14516.1
429.754	18857.7
434.521	14712.1
439.285	8215.1
444.046	4341.59
448.805	2499.2
453.561	1571.73
458.315	1039.73
463.065	719.367
467.813	601.744
472.559	475.893
477.302	381.891
482.042	265.884
486.78	323.954
491.515	362.176
496.247	490.615
500.977	608.25
505.704	746.203
510.428	1206.4
515.15	1689.96
519.869	2315.97
524.586	2337.31
529.3	1762.12
534.011	1126.46
538.719	636.455
543.425	406.787
548.129	396.856
552.83	290.062
557.528	421.673
562.223	697.537
566.916	1185.16
571.607	1726.93
576.294	1528.33
580.979	775.827
585.662	330.186
590.341	188.01
595.019	189.655
599.693	395.295
604.365	720.02
609.035	1269.36
613.701	2112.6
618.366	4236.81
623.027	8507.05
627.686	14672.8
632.342	14066.1
636.996	6433.42
641.647	2462.26
646.296	1072.85
650.942	537.974
655.585	244.447
660.226	135.963
664.864	108.247
669.499	62.4348
674.132	24.8435
678.763	36.0659
683.39	4.19482
688.015	72.6333
692.638	9.03955
697.258	50.3018
701.875	108.989
706.49	117.493
711.102	48.387
715.712	5.73291
720.319	96.4077
724.923	36.4766
729.525	56.9512
734.124	111.835
738.721	181.13
743.315	124.165
747.907	89.0574
752.496	122.872
757.082	39.6919
761.666	18.6538
766.247	57.6638
770.826	45.7444
775.402	47.9097
779.975	65.8835
784.546	17.8189
789.115	51.7476
793.681	15.9578
798.244	9.43677
802.804	23.8914
807.363	83.1333
811.918	19.1912
816.471	22.2871
821.022	36.9968
825.569	64.5107
830.115	24.6357
834.657	25.5073
839.198	137.538
843.735	185.848
848.27	130.703
852.803	169.683
857.333	140.171
861.86	118.192
866.385	11.2163
870.907	41.5493
875.427	1.43652
879.944	0.760742
884.459	27.4404
888.971	34.2139
893.481	7.78613
897.988	33.5742
902.492	91.2271
906.994	60.8389
911.493	180.243
915.99	438.488
920.485	878.066
924.976	1818.91
929.466	3280.78
933.952	3873.84
938.436	2685.62
942.918	1493.23
947.397	1090.9
951.874	844.23
956.348	618.233
960.819	785.172
965.288	1026.2
969.755	1425.97
974.219	2082.05
978.68	3478.76
983.139	5546.05
987.595	9915.88
992.049	19210.3
996.501	35070.4
1000.95	51182
1005.4	55885.1
1009.84	50460.8
1014.28	38650.8
1018.72	24957
1023.16	14224.3
1027.59	8396.37
1032.02	5952.34
1036.45	5212.7
1040.88	4724.09
1045.3	3590.24
1049.72	2522.24
1054.14	2099.14
1058.56	1969.16
1062.97	2295.31
1067.38	2945.59
1071.79	4297.35
1076.19	7080.06
1080.6	12157.5
1085	20760.2
1089.4	25757.4
1093.79	20397.4
1098.19	11840.5
1102.58	6532.1
1106.97	3780.86
1111.35	2421.14
1115.74	1603.9
1120.12	1050.89
1124.5	786.882
1128.87	687.973
1133.25	555.391
1137.62	428.611
1141.99	379.199
1146.35	256.147
1150.72	178.948
1155.08	57.8921
1159.44	68.1523
1163.79	76.5356
1168.15	95.2803
1172.5	3.45117
1176.85	56.2139
1181.19	135.959
1185.54	16.4429
1189.88	41.227
1194.22	104.918
1198.55	18.4541
1202.89	48.331
1207.22	63.8838
1211.55	26.939
1215.88	3.42188
1220.2	8.55225
1224.52	64.7905
1228.84	41.6934
1233.16	31.9443
1237.47	25.7715
1241.78	74.2168
1246.09	18.2969
1250.4	32.4556
1254.7	0.517578
1259.01	13.8755
1263.31	87.4297
1267.6	51.062
1271.9	40.3062
1276.19	27.3823
1280.48	52.206
1284.77	12.2842
1289.05	37.5957
1293.33	59.1416
1297.61	72.7007
1301.89	103.268
1306.16	81.9028
1310.44	156.673
1314.71	103.83
1318.97	106.822
1323.24	72.1113
1327.5	46.2022
1331.76	160.653
1336.02	74.1069
1340.28	112.687
1344.53	99.8975
1348.78	173.377
1353.03	142.077
1357.27	129.891
1361.52	151.943
1365.76	153.056
1370	116.765
1374.23	159.238
1378.47	170.018
1382.7	66.3892
1386.93	139.41
1391.15	152.037
1395.38	117.856
1399.6	56.1284
1403.82	109.616
1408.03	90.3027
1412.25	101.347
1416.46	43.7295
1420.67	116.897
1424.88	95.3887
1429.08	168.424
1433.28	197.105
1437.48	99.9155
1441.68	112.949
1445.87	174.715
1450.07	195.872
1454.26	256.686
1458.44	309.271
1462.63	234.937
1466.81	208.746
1470.99	253.066
1475.17	162.377
1479.34	216.159
1483.52	89.7944
1487.69	148.854
1491.86	184.484
1496.02	115.772
1500.19	38.1065
1504.35	14.9458
1508.51	91.9268
1512.66	70.1377
1516.82	48.1782
1520.97	168.262
1525.12	68.895
1529.26	119.17
1533.41	57.7891
1537.55	62.6626
1541.69	128.678
1545.83	109.444
1549.96	76.9453
1554.09	48.1099
1558.22	21.3252
1562.35	0
