Measurement: Raman, 514 nm, ccw, Raman Data Processed
Mineral: Catapleiite
Rruff sample: R040005
Ideal chemistry: Na_2_ZrSi_3_O_9_2H_2_O
Locality: Langesundsfjord Eikaholmen Vestfold, Norway
Source: University of Arizona Mineral Museum
Description: Brown thin tabular crystal
Measured chemistry: (Na_1.28_Ca_0.36_[box]_0.36_)_Σ=2_Zr_1.00_Si_3.00_O_9_·2H_2_O
Pin_id: L00558
Orientation: Laser parallel to a* (1 0 0). Fiducial mark perpendicular to laser is parallel to -b [0 -1 0]
Raman shift (cm-1)	intensity
186.845	0
191.734	272.199
196.622	650.855
201.507	1138.25
206.389	1326.23
211.269	1332.65
216.147	1341.16
221.022	783.16
225.895	748.249
230.765	612.649
235.633	767.61
240.498	657.351
245.361	384.385
250.222	47.6134
255.08	83.1569
259.936	347.771
264.789	30.2934
269.64	270.016
274.488	80.3089
279.334	140.643
284.178	70.4725
289.019	50.2006
293.857	234.211
298.693	626.604
303.527	734.909
308.358	986.114
313.187	909.772
318.013	905.424
322.837	862.524
327.659	1128.29
332.478	876.19
337.294	1014.99
342.108	943.12
346.92	981.786
351.729	767.649
356.535	933.442
361.34	954.904
366.141	1188.07
370.94	1275.12
375.737	1277.34
380.531	1311.36
385.323	1157.25
390.113	1057.14
394.9	998.795
399.684	929.423
404.466	884.496
409.245	1009.4
414.022	1276.13
418.797	1711.5
423.569	2172.78
428.338	3128.54
433.105	4416.05
437.87	5744.76
442.632	5806.9
447.391	4473.82
452.149	3151.18
456.903	1812.97
461.655	1209.27
466.405	808.071
471.152	500.374
475.897	245.156
480.639	182.182
485.378	74.3888
490.116	44.6773
494.85	7.9566
499.582	34.3325
504.312	295.818
509.039	218.253
513.764	364.056
518.486	726.488
523.206	749.659
527.923	981.15
532.638	1031.76
537.35	918.857
542.059	1009.4
546.766	1221.84
551.471	1559.85
556.173	2174.51
560.873	3450.19
565.57	5413.4
570.264	8229.43
574.957	10420.3
579.646	9231.2
584.333	6109.73
589.018	3539.72
593.7	1979.88
598.379	1697.05
603.056	1468.43
607.73	1124.83
612.402	1263.22
617.072	2585.62
621.739	3561.88
626.403	6748.56
631.065	10159.6
635.724	9970.47
640.381	6018.86
645.035	2850.73
649.687	1287.12
654.336	694.902
658.983	224.006
663.627	185.841
668.268	19.7764
672.907	20.7909
677.544	95.2321
682.178	22.8424
686.809	88.7498
691.438	77.7037
696.065	19.5111
700.688	66.7402
705.31	75.7793
709.929	16.055
714.545	19.6649
719.158	37.398
723.77	360.094
728.378	531.04
732.984	610.842
737.588	732.692
742.189	628.14
746.787	870.099
751.383	324.769
755.976	604.784
760.567	751.355
765.155	330.486
769.741	462.265
774.324	220.872
778.904	427.236
783.482	138.248
788.058	342.915
792.631	263.232
797.201	126.049
801.769	306.394
806.334	290.719
810.897	188.328
815.457	106.923
820.014	427.918
824.569	280.068
829.122	12.2111
833.671	13.7957
838.219	41.9272
842.763	150.726
847.306	35.1544
851.845	53.9193
856.382	212.22
860.917	116.649
865.448	0.28598
869.978	93.416
874.505	9.74971
879.029	123.412
883.55	206.281
888.069	199.844
892.586	545.085
897.1	816.146
901.611	1382.93
906.12	2350.72
910.626	3245.4
915.129	3992.04
919.63	4635.67
924.129	6160.64
928.625	8504.31
933.118	10218.2
937.609	10684.4
942.097	9329.56
946.582	6140.35
951.065	3979.64
955.546	2406.45
960.023	1961.56
964.499	1575.67
968.971	1795.73
973.441	2456.36
977.909	3173.79
982.374	4829.92
986.836	7301.78
991.295	10381.2
995.753	13349.8
1000.21	14725.5
1004.66	13839
1009.11	11414.6
1013.55	8968.88
1018	6343.43
1022.44	4332.02
1026.88	3144.52
1031.32	2316.54
1035.75	1805.51
1040.18	1402.95
1044.61	1532.99
1049.04	1157.28
1053.46	1138.66
1057.88	594.596
1062.3	485.87
1066.71	176.599
1071.13	291.664
1075.54	156.554
1079.94	524.521
1084.35	698.382
1088.75	1094.4
1093.15	923.783
1097.55	724.958
1101.94	315.642
1106.34	218.826
1110.73	256.604
1115.11	100.631
1119.5	181.281
1123.88	147.774
1128.26	56.7967
1132.63	86.1655
1137.01	68.6692
1141.38	86.751
1145.75	191.432
1150.12	166.993
1154.48	208.388
1158.84	241.544
1163.2	312.28
1167.55	328.978
1171.91	154.385
1176.26	28.7643
1180.61	242.423
1184.95	247.146
1189.29	145.568
1193.63	213.523
1197.97	227.466
1202.31	23.3247
1206.64	435
1210.97	29.7468
1215.29	166.724
1219.62	38.3135
1223.94	192.981
1228.26	109.985
1232.57	108.209
1236.89	274.014
1241.2	28.3745
1245.51	285.198
1249.81	103.227
1254.12	3.54951
1258.42	25.5805
1262.72	4.7891
1267.01	15.9756
1271.3	40.0532
1275.59	27.2065
1279.88	115.762
1284.17	76.4296
1288.45	21.09
1292.73	83.4469
1297.01	66.0063
1301.28	280.232
1305.55	32.1162
1309.82	45.6609
1314.09	104.409
1318.35	506.419
1322.61	333.889
1326.87	314.046
1331.13	199.005
1335.38	413.192
1339.63	270.936
1343.88	258.028
1348.12	207.102
1352.37	336.01
1356.61	141.343
1360.85	280.695
1365.08	369.406
1369.31	183.499
1373.54	570.904
1377.77	343.906
1381.99	357.834
1386.22	507.837
1390.43	192.554
1394.65	268.497
1398.87	33.7647
1403.08	280.666
1407.29	128.926
1411.49	308.437
1415.69	317.861
1419.89	410.951
1424.09	175.128
1428.29	394.099
1432.48	32.7585
1436.67	43.0357
1440.86	341.1
1445.04	203.134
1449.23	179.793
1453.4	271.454
1457.58	236.776
1461.76	233.549
1465.93	206.459
1470.1	214.453
1474.26	278.683
1478.43	24.5514
1482.59	277.082
1486.75	249.63
1490.9	347.966
1495.06	283.835
1499.21	58.9684
1503.35	272.288
1507.5	196.989
1511.64	49.7241
1515.78	498.032
1519.92	124.596
1524.05	56.8991
1528.18	42.726
1532.31	261.2
1536.44	308.596
1540.56	292.773
1544.69	339.001
1548.8	246.497
1552.92	11.773
1557.03	289.79
1561.14	24.4957
1565.25	294.972
1569.36	0.131508
