Measurement: Raman, 514 nm, ccw, Raman Data Processed
Mineral: Catapleiite
Rruff sample: R060208
Ideal chemistry: Na_2_ZrSi_3_O_9_2H_2_O
Locality: Mont Saint-Hilaire, Rouville County, Quebec, Canada
Source: Royal Ontario Museum
Description: Colorless transparent thin tabular pseudohexagonal crystal
Measured chemistry: Na_2.00_Zr_1.00_Si_3.00_O_9_Â·2H_2_O
Pin_id: M01569
Orientation: Laser parallel to -c* (0 0 -1). Fiducial mark perpendicular to laser is parallel to a [1 0 0]
Raman shift (cm-1)	intensity
120.914	0
125.848	100.439
130.779	406.576
135.707	770.119
140.633	1268.82
145.556	1678.21
150.476	2208.05
155.395	2705.34
160.31	2994.4
165.223	2771.23
170.134	1929.22
175.042	1217.77
179.947	771.065
184.85	873.06
189.751	1014.48
194.649	1192.46
199.544	1722.3
204.437	1932.3
209.327	2025.71
214.215	1933.97
219.1	1402.25
223.982	726.974
228.862	434.495
233.74	124.654
238.615	23.2102
243.487	98.634
248.357	105.841
253.224	141.624
258.089	15.0151
262.951	70.6052
267.811	78.1013
272.668	104.916
277.523	99.9419
282.375	307.187
287.224	756.02
292.071	1386.91
296.916	1680.73
301.758	1590.1
306.597	1370.52
311.434	1309.18
316.268	1191.58
321.099	1060.08
325.928	997.098
330.755	848.485
335.579	553.213
340.4	305.129
345.219	276.425
350.035	192.777
354.849	259.937
359.66	504.933
364.469	826.781
369.275	911.48
374.078	881.231
378.879	774.556
383.678	714.131
388.473	601.586
393.267	523.498
398.057	472.823
402.845	525.245
407.631	905.738
412.414	1843.94
417.194	3645.44
421.972	7010.1
426.748	11541.6
431.52	12612.7
436.29	8209.56
441.058	4562.18
445.823	2625.61
450.586	1635.92
455.345	1044.15
460.103	704.345
464.858	423.546
469.61	419.793
474.359	312.152
479.106	205.724
483.851	120.807
488.593	160.232
493.332	62.415
498.069	159.937
502.803	238.28
507.535	364.497
512.264	826.366
516.99	1179.88
521.714	1558.34
526.435	1777.76
531.154	1754.58
535.87	1685.07
540.584	1538.86
545.295	1748.66
550.004	1893.41
554.709	2613.18
559.413	3922.74
564.113	6617.99
568.812	11060.5
573.507	13941.1
578.2	10738.2
582.891	5543.55
587.578	2648.11
592.264	1472.9
596.946	844.921
601.626	671.153
606.304	742.589
610.979	1129.22
615.651	2198.04
620.321	4948.03
624.988	9688.98
629.653	14371.5
634.315	9565.03
638.974	3909.46
643.631	1759.71
648.285	777.885
652.937	423.182
657.586	278.844
662.233	87.5815
666.877	3.39746
671.518	26.459
676.157	3.11694
680.793	50.4038
685.427	3.64966
690.058	85.2988
694.686	87.937
699.312	53.5752
703.935	11.0681
708.556	1.66846
713.174	180.875
717.789	270.643
722.402	507.007
727.013	750.96
731.62	1026.49
736.225	1382.6
740.828	1362.27
745.428	888.493
750.025	536.267
754.62	283.583
759.212	64.4356
763.802	123.8
768.389	44.6555
772.973	22.9439
777.555	25.4575
782.134	54.1868
786.711	13.0798
791.285	29.3235
795.856	62.6743
800.425	20.2947
804.992	32.9214
809.555	2.59131
814.116	17.7583
818.675	56.8052
823.231	61.5823
827.784	157.551
832.335	80.2905
836.883	93.4758
841.428	121.161
845.971	150.984
850.512	118.676
855.049	241.45
859.584	293.033
864.117	239.384
868.647	266.485
873.174	298.351
877.699	329.995
882.221	472.432
886.741	595.678
891.258	698.748
895.772	973.438
900.284	1231.64
904.793	1879.74
909.3	2669.46
913.803	4427.29
918.305	7711.93
922.804	15565.9
927.3	30052.8
931.793	46285.4
936.284	41345.7
940.773	21662.3
945.258	10805.9
949.742	6883.95
954.222	3808.06
958.7	1960.76
963.176	1192.9
967.648	850.645
972.119	773.941
976.586	863.764
981.051	1114.1
985.513	1735.92
989.973	3200.25
994.43	6065.44
998.885	10475
1003.34	13748.9
1007.79	13512
1012.23	10980.5
1016.68	7889.38
1021.12	4820.62
1025.56	2652.57
1029.99	1598.48
1034.43	1302.73
1038.86	1156.27
1043.29	976.766
1047.71	609.737
1052.14	298.706
1056.56	180.891
1060.98	115.011
1065.39	105.232
1069.8	275.848
1074.21	408.437
1078.62	799.799
1083.03	1578.69
1087.43	2494.96
1091.83	2430.07
1096.23	1467.52
1100.62	680.929
1105.01	283.336
1109.4	120.247
1113.79	28.1465
1118.17	24.6128
1122.56	18.001
1126.93	3.26562
1131.31	67.8237
1135.69	86.4409
1140.06	112.361
1144.42	97.2925
1148.79	111.725
1153.15	74.2978
1157.52	55.1489
1161.87	95.9976
1166.23	28.9233
1170.58	70.3608
1174.93	2.07178
1179.28	60.4395
1183.63	9.98633
1187.97	62.4336
1192.31	46.4907
1196.65	47.8682
1200.98	66.2407
1205.31	2.58447
1209.64	40.8013
1213.97	10.5786
1218.29	63.7412
1222.62	11.9053
1226.93	53.6069
1231.25	26.1748
1235.57	16.2769
1239.88	68.8301
1244.18	16.8872
1248.49	67.519
1252.8	89.5239
1257.1	15.1655
1261.39	49.501
1265.69	28.186
1269.98	64.6055
1274.27	112.14
1278.56	11.5967
1282.85	72.9316
1287.13	165.351
1291.41	81.9043
1295.69	53.521
1299.96	99.5278
1304.23	150.76
1308.5	135.792
1312.77	173.692
1317.03	74.5635
1321.3	168.337
1325.56	114.631
1329.81	84.5757
1334.07	38.5083
1338.32	109.102
1342.57	147.698
1346.81	34.456
1351.06	80.2305
1355.3	191.623
1359.54	83.0796
1363.77	4.18652
1368	35.5532
1372.23	87.3398
1376.46	114.011
1380.69	15.522
1384.91	76.6426
1389.13	95.4141
1393.35	47.3257
1397.56	19.5806
1401.77	52.2651
1405.98	50.4815
1410.19	43.7598
1414.39	38.6992
1418.6	56.9995
1422.8	115.012
1426.99	121.127
1431.19	145.319
1435.38	96.6274
1439.57	270.377
1443.75	157.206
1447.94	197.512
1452.12	211.924
1456.3	274.046
1460.47	193.867
1464.64	148.272
1468.82	139.948
1472.98	157.965
1477.15	160.445
1481.31	155.124
1485.47	107.015
1489.63	107.168
1493.78	135.185
1497.94	56.6445
1502.09	36.9468
1506.23	37.3565
1510.38	3.9331
1514.52	50.5371
1518.66	57.2324
1522.8	4.68506
1526.93	5.3125
1531.06	149.106
1535.19	47.4512
1539.32	21.3862
1543.44	109.325
1547.56	104.65
1551.68	112.2
1555.79	27.1968
1559.91	89.8535
