Measurement: Raman, 514 nm, ccw, Raman Data Processed
Mineral: Catapleiite
Rruff sample: R060198
Ideal chemistry: Na_2_ZrSi_3_O_9_2H_2_O
Locality: Mont Saint-Hilaire, Rouville County, Quebec, Canada
Source: Royal Ontario Museum
Description: Tan colored pseudohexagonal tabular crystals
Measured chemistry: (Na_1.92_Ca_0.04_[box]_0.04_)_Σ=2_Zr_1.00_Si_3.00_O_9_·2H_2_O
Pin_id: L00848
Orientation: Laser parallel to (1 0 1). Fiducial mark perpendicular to laser is parallel to b [0 1 0]
Raman shift (cm-1)	intensity
95.948	0
100.883	4.40039
105.815	626.349
110.744	1020.88
115.671	1336.84
120.596	1101.32
125.519	1272.18
130.439	1860.88
135.356	2503.76
140.271	2807.15
145.184	2976.47
150.094	3706.71
155.002	3975.86
159.908	3966.68
164.811	3537.94
169.711	2824.22
174.61	2394.82
179.505	2174.63
184.399	2314.1
189.29	2522.95
194.178	3153.98
199.064	3893.88
203.948	4447.81
208.829	4021.44
213.708	3214.19
218.585	2165.69
223.459	1082.19
228.33	564.508
233.199	378.262
238.066	149.022
242.93	120.799
247.792	229.674
252.651	113.918
257.508	105.786
262.363	18.5142
267.215	89.3418
272.064	119.617
276.912	37.3374
281.756	236.732
286.598	679.559
291.438	1271.09
296.276	1506.59
301.111	1080.36
305.943	959.632
310.773	819.536
315.601	713.375
320.426	644.33
325.248	797.768
330.068	573.398
334.886	419.179
339.701	282.869
344.514	104.27
349.324	380.967
354.132	411.279
358.938	746.226
363.741	950.355
368.541	876.074
373.339	744.306
378.135	722.773
382.928	657.938
387.718	631.832
392.506	501.931
397.292	535.467
402.075	729.598
406.856	1224.04
411.634	2514.19
416.41	4954.98
421.183	9240.58
425.954	13834.1
430.722	12614.2
435.488	7959.55
440.251	4565.89
445.012	2552.27
449.77	1469.71
454.526	1071.25
459.28	587.917
464.03	402.78
468.779	224.92
473.525	169.386
478.268	142.024
483.009	72.8223
487.747	14.5185
492.483	65.793
497.217	210.741
501.948	434.882
506.676	620.708
511.402	1158.36
516.125	1643.01
520.846	2115.65
525.565	2297.54
530.281	2283.76
534.994	2225.98
539.705	2152.05
544.413	2188.05
549.119	2628.51
553.822	3839.79
558.523	6385.33
563.222	10661.6
567.917	15428
572.611	15675.9
577.302	10560.6
581.99	5520.49
586.676	2741.92
591.359	1394.42
596.04	894.146
600.718	697.072
605.394	806.183
610.067	1584.46
614.737	2858.89
619.406	6145.83
624.071	12976.1
628.734	16129.3
633.395	10122.8
638.053	4287.2
642.708	1980.08
647.361	966.154
652.012	355.32
656.66	225.98
661.305	270.884
665.948	317.393
670.588	78.8252
675.226	99.1484
679.861	42.1631
684.494	36.457
689.124	76.9004
693.752	51.6826
698.377	127.66
702.999	45.002
707.619	38.2324
712.237	183.639
716.852	425.386
721.464	590.462
726.074	868.851
730.681	1320.55
735.286	1475.53
739.888	1241.81
744.488	808.354
749.085	423.169
753.68	145.244
758.272	172.032
762.861	18.9375
767.448	20.6191
772.033	70.6885
776.614	30.5205
781.194	3.54102
785.77	17.0596
790.345	151.001
794.916	70.8926
799.485	92.7168
804.052	60.5244
808.616	157.304
813.177	15.7764
817.736	36.0684
822.292	130.253
826.846	132.032
831.397	229.026
835.945	298.709
840.491	178.769
845.035	380.729
849.576	230.484
854.114	279.786
858.65	155.657
863.183	325.123
867.713	237.208
872.241	235.932
876.767	274.513
881.29	348.166
885.81	582.204
890.328	619.883
894.843	789.952
899.356	1384.24
903.866	1933.01
908.373	3292.09
912.878	5386.51
917.38	9097.48
921.88	17311.3
926.377	31809
930.872	43852.7
935.364	38941.5
939.853	23850.6
944.34	13694.7
948.824	8267.8
953.306	4494.72
957.785	2479.61
962.261	1782.9
966.735	1250.71
971.207	1308.2
975.675	1535.67
980.141	2346.02
984.605	3787.93
989.066	6802.34
993.524	13250.4
997.98	22362
1002.43	28311.2
1006.88	27905.9
1011.33	22694.2
1015.78	15824.2
1020.22	9909.79
1024.66	5854.04
1029.1	3801.66
1033.53	2640.53
1037.97	2356.06
1042.4	1825.8
1046.82	1236.11
1051.25	785.405
1055.67	551.811
1060.09	429.304
1064.51	405.777
1068.92	489.058
1073.33	709.558
1077.74	1115.1
1082.15	2058.91
1086.55	2976.48
1090.95	2945.75
1095.35	1854.78
1099.75	881.531
1104.14	424.697
1108.53	116.47
1112.92	161.694
1117.31	88.4219
1121.69	380.283
1126.07	164.047
1130.45	57.6143
1134.82	94.1289
1139.19	170.435
1143.57	125.113
1147.93	196.711
1152.3	132.651
1156.66	73.2559
1161.02	49.3125
1165.38	44.3047
1169.73	67.9658
1174.08	57.5762
1178.43	20.7539
1182.78	42.7266
1187.12	14.2734
1191.46	101.315
1195.8	6.03906
1200.14	15.5488
1204.47	17.0439
1208.8	64.9795
1213.13	23.4727
1217.46	68.5293
1221.78	9.97363
1226.1	26.1201
1230.42	94.8643
1234.73	14.3252
1239.04	75.2773
1243.35	240.623
1247.66	141.87
1251.97	82.9141
1256.27	280.418
1260.57	60.3574
1264.86	21.6729
1269.16	100.541
1273.45	166.83
1277.74	83.0518
1282.03	213.895
1286.31	143.273
1290.59	247.621
1294.87	290.625
1299.14	257.229
1303.42	149.941
1307.69	128.882
1311.95	97.1592
1316.22	93.2705
1320.48	181.481
1324.74	355.073
1329	219.357
1333.26	333.647
1337.51	224.624
1341.76	423.485
1346	246.707
1350.25	368.098
1354.49	355.761
1358.73	540.89
1362.96	573.018
1367.2	406.185
1371.43	107.189
1375.66	104.732
1379.88	198.001
1384.11	129.144
1388.33	253.67
1392.54	188.933
1396.76	369.504
1400.97	354.328
1405.18	148.763
1409.39	28.6475
1413.59	66.3545
1417.8	164.844
1421.99	150.006
1426.19	130.953
1430.38	107.634
1434.58	194.144
1438.77	39.8994
1442.95	235.641
1447.13	239.734
1451.32	250.69
1455.49	215.18
1459.67	167.998
1463.84	219.668
1468.01	214.029
1472.18	206.014
1476.35	297.184
1480.51	243.428
1484.67	126.363
1488.83	79.6152
1492.98	135.059
1497.13	142.951
1501.28	9.77734
1505.43	77.0332
1509.57	171.211
1513.71	83.5371
1517.85	91.75
1521.99	108.789
1526.12	241.691
1530.25	161.926
1534.38	74.8086
1538.5	97.7578
1542.62	662.256
1546.74	525.912
1550.86	431.869
1554.98	468.068
1559.09	21.1445
1563.2	304.996
1567.31	83.3691
