Measurement: Raman, 514 nm, ccw, Raman Data Processed
Mineral: Catapleiite
Rruff sample: R060198
Ideal chemistry: Na_2_ZrSi_3_O_9_2H_2_O
Locality: Mont Saint-Hilaire, Rouville County, Quebec, Canada
Source: Royal Ontario Museum
Description: Tan colored pseudohexagonal tabular crystals
Measured chemistry: (Na_1.92_Ca_0.04_[box]_0.04_)_Σ=2_Zr_1.00_Si_3.00_O_9_·2H_2_O
Pin_id: L01561
Orientation: Laser parallel to b* (0 1 0). Fiducial mark perpendicular to laser is parallel to c [0 0 1]
Raman shift (cm-1)	intensity
95.948	0
100.883	20.4336
105.815	497.74
110.744	1419.28
115.671	1362.54
120.596	1129.23
125.519	1026.49
130.439	1446.85
135.356	2025.88
140.271	2807.74
145.184	3448.09
150.094	4286.89
155.002	4545.94
159.908	4047.38
164.811	3363.98
169.711	2648.76
174.61	1982.08
179.505	1511.98
184.399	1263.42
189.29	1459.89
194.178	1717.63
199.064	2049.78
203.948	2387.59
208.829	2008.54
213.708	1695.87
218.585	1102.35
223.459	575.991
228.33	240.986
233.199	1.90137
238.066	94.8852
242.93	107.137
247.792	271.023
252.651	106.03
257.508	47.5566
262.363	42.978
267.215	79.9819
272.064	69.7681
276.912	164.339
281.756	438.863
286.598	979.095
291.438	1526.12
296.276	1741.33
301.111	1699.13
305.943	1633.8
310.773	1430.81
315.601	1254.28
320.426	1152.79
325.248	976.886
330.068	725.799
334.886	407.002
339.701	323.368
344.514	267.227
349.324	140.4
354.132	311.019
358.938	518.175
363.741	651.89
368.541	761.306
373.339	857.702
378.135	792.051
382.928	712.207
387.718	707.289
392.506	709.765
397.292	815.516
402.075	1190.04
406.856	1994.72
411.634	3493.76
416.41	7065.86
421.183	13219.2
425.954	18932.2
430.722	17594.7
435.488	11646
440.251	6694.3
445.012	3926.47
449.77	2522.6
454.526	1550.75
459.28	1159.98
464.03	750.39
468.779	428.082
473.525	394.116
478.268	209.469
483.009	172.663
487.747	125.667
492.483	135.876
497.217	43.3638
501.948	277.429
506.676	643.221
511.402	904.183
516.125	1396.47
520.846	1986.44
525.565	2335.24
530.281	2190.98
534.994	2264.73
539.705	2320.71
544.413	2507.86
549.119	3260.26
553.822	4582.47
558.523	8165.92
563.222	13828.2
567.917	19884.8
572.611	20507.2
577.302	14353.9
581.99	7629.93
586.676	3723.36
591.359	1848.16
596.04	1122.3
600.718	969.75
605.394	981.558
610.067	1815.63
614.737	3435.98
619.406	7954.19
624.071	16446.7
628.734	19391.9
633.395	12721.5
638.053	5645.14
642.708	2406.63
647.361	1019.59
652.012	467.381
656.66	273.248
661.305	165.92
665.948	61.6221
670.588	34.9727
675.226	56.2163
679.861	28.7749
684.494	32.2798
689.124	60.4995
693.752	89.0967
698.377	12.0659
702.999	52.249
707.619	91.5093
712.237	215.455
716.852	351.668
721.464	738.136
726.074	1109.84
730.681	1531.94
735.286	1641.92
739.888	1517.26
744.488	1052.79
749.085	570.502
753.68	390.383
758.272	25.415
762.861	110.474
767.448	71.6763
772.033	148.799
776.614	91.1699
781.194	53.562
785.77	118.207
790.345	54.0576
794.916	70.2803
799.485	174.79
804.052	16.5615
808.616	68.2358
813.177	90.6831
817.736	69.8569
822.292	190.886
826.846	372.934
831.397	706.706
835.945	812.806
840.491	654.422
845.035	540.504
849.576	519.906
854.114	574.994
858.65	406.801
863.183	376.582
867.713	435.957
872.241	488.956
876.767	419.608
881.29	623.944
885.81	829.995
890.328	967.791
894.843	1193.67
899.356	1883.12
903.866	3122.37
908.373	5128.38
912.878	7958.07
917.38	12139.8
921.88	22360.8
926.377	40654.2
930.872	54318.7
935.364	47682.2
939.853	30317.2
944.34	18387
948.824	11712.3
953.306	6193.02
957.785	3253.35
962.261	1985.56
966.735	1227.66
971.207	1113.69
975.675	1170.7
980.141	1601.65
984.605	2168.32
989.066	4105.72
993.524	8035.88
997.98	13237.8
1002.43	17420.5
1006.88	17431.9
1011.33	14285.1
1015.78	10358.1
1020.22	6799.96
1024.66	4073.6
1029.1	2650.09
1033.53	1919.47
1037.97	1746.99
1042.4	1480
1046.82	902.188
1051.25	685.203
1055.67	499.348
1060.09	304.728
1064.51	375.532
1068.92	430.239
1073.33	690.556
1077.74	1341.01
1082.15	2278.57
1086.55	3606.55
1090.95	3499.05
1095.35	2247.11
1099.75	1250.77
1104.14	534.287
1108.53	228.93
1112.92	216.157
1117.31	454.882
1121.69	853.04
1126.07	716.625
1130.45	376.741
1134.82	277.254
1139.19	333.006
1143.57	285.282
1147.93	277.902
1152.3	195.94
1156.66	179.275
1161.02	122.472
1165.38	118.726
1169.73	12.206
1174.08	93.3389
1178.43	72.9678
1182.78	2.39258
1187.12	46.998
1191.46	29.4463
1195.8	60.8227
1200.14	30.4482
1204.47	16.6562
1208.8	84.8301
1213.13	57.042
1217.46	49.2236
1221.78	103.395
1226.1	31.4019
1230.42	28.187
1234.73	66.5586
1239.04	101.416
1243.35	90.9356
1247.66	211.103
1251.97	39.8667
1256.27	160.159
1260.57	162.071
1264.86	158.579
1269.16	203.627
1273.45	202.215
1277.74	257.353
1282.03	252.395
1286.31	205.116
1290.59	302.162
1294.87	307.984
1299.14	333.499
1303.42	238.338
1307.69	311.513
1311.95	336.348
1316.22	297.125
1320.48	311.505
1324.74	254.88
1329	352.966
1333.26	509.558
1337.51	557.309
1341.76	621.167
1346	570.157
1350.25	614.119
1354.49	759.521
1358.73	1017.33
1362.96	1254.89
1367.2	835.03
1371.43	603.304
1375.66	451.249
1379.88	535.398
1384.11	471.22
1388.33	568.784
1392.54	888.06
1396.76	1033.92
1400.97	562.969
1405.18	273.183
1409.39	36.1816
1413.59	21.583
1417.8	42.1006
1421.99	38.1836
1426.19	125.091
1430.38	179.082
1434.58	195.895
1438.77	66.8516
1442.95	278.475
1447.13	359.019
1451.32	375.841
1455.49	384.973
1459.67	301.639
1463.84	272.191
1468.01	463.647
1472.18	316.413
1476.35	327.315
1480.51	358.764
1484.67	316.407
1488.83	246.624
1492.98	208.955
1497.13	135.075
1501.28	141.517
1505.43	159.049
1509.57	70.1055
1513.71	46.7373
1517.85	89.3731
1521.99	20.6357
1526.12	76.6992
1530.25	78.4394
1534.38	164.763
1538.5	124.478
1542.62	289.065
1546.74	505.632
1550.86	256.788
1554.98	307.582
1559.09	77.9766
1563.2	7.62793
1567.31	139.75
