Measurement: Raman, 514 nm, ccw, Raman Data Processed
Mineral: Catapleiite
Rruff sample: R060208
Ideal chemistry: Na_2_ZrSi_3_O_9_2H_2_O
Locality: Mont Saint-Hilaire, Rouville County, Quebec, Canada
Source: Royal Ontario Museum
Description: Colorless transparent thin tabular pseudohexagonal crystal
Measured chemistry: Na_2.00_Zr_1.00_Si_3.00_O_9_Â·2H_2_O
Pin_id: M01569
Orientation: Laser parallel to -c* (0 0 -1). Fiducial mark perpendicular to laser is parallel to a [1 0 0]
Raman shift (cm-1)	intensity
120.914	0
125.848	85.793
130.779	520.668
135.707	768.271
140.633	1143.38
145.556	1464.07
150.476	2005.51
155.395	2427.26
160.31	2596.43
165.223	2472.74
170.134	1734.5
175.042	1194.45
179.947	958.401
184.85	904.855
189.751	1320.2
194.649	1768.62
199.544	2239.06
204.437	2360.55
209.327	2586.86
214.215	2557.75
219.1	1759.48
223.982	951.525
228.862	454.451
233.74	189.544
238.615	55.0698
243.487	61.6682
248.357	149.7
253.224	122.103
258.089	21.3377
262.951	74.0208
267.811	70.8027
272.668	54.2244
277.523	13.3533
282.375	231.505
287.224	624.851
292.071	1188.3
296.916	1526.75
301.758	1369.97
306.597	1083.46
311.434	1114.33
316.268	1040.03
321.099	947.915
325.928	822.645
330.755	661.669
335.579	486.652
340.4	323.294
345.219	242.228
350.035	210.924
354.849	346.38
359.66	541.667
364.469	719.801
369.275	778.786
374.078	761.992
378.879	704.467
383.678	572.472
388.473	537.86
393.267	510.062
398.057	453.093
402.845	530.365
407.631	954.117
412.414	1660.41
417.194	3298.66
421.972	6393.7
426.748	11370.5
431.52	13019.5
436.29	8393.48
441.058	4569.29
445.823	2625.94
450.586	1685.47
455.345	1067.94
460.103	715.38
464.858	574.836
469.61	392.159
474.359	353.95
479.106	183.666
483.851	244.85
488.593	206.526
493.332	130.279
498.069	127.856
502.803	305.3
507.535	533.573
512.264	800.583
516.99	1301.4
521.714	1692.9
526.435	1745.33
531.154	1720.9
535.87	1612.58
540.584	1608.07
545.295	1582.46
550.004	1755.13
554.709	2243.23
559.413	3465.63
564.113	5969.8
568.812	9926.73
573.507	13179.8
578.2	10382.6
582.891	5212.57
587.578	2540.72
592.264	1313.09
596.946	818.663
601.626	632.684
606.304	610.397
610.979	987.537
615.651	2051.84
620.321	4297.31
624.988	9018.93
629.653	14343.4
634.315	9435.48
638.974	3905.43
643.631	1715.73
648.285	786.881
652.937	431.033
657.586	197.05
662.233	176.368
666.877	71.8745
671.518	32.8018
676.157	20.073
680.793	32.0024
685.427	6.62622
690.058	26.2654
694.686	16.832
699.312	67.8113
703.935	46.7295
708.556	32.5605
713.174	7.04297
717.789	222.984
722.402	407.595
727.013	646.781
731.62	962.533
736.225	1223.84
740.828	1053.7
745.428	745.106
750.025	457.046
754.62	283.516
759.212	125.51
763.802	111.023
768.389	60.0374
772.973	12.5252
777.555	13.3411
782.134	17.2864
786.711	62.7363
791.285	58.0779
795.856	3.30151
800.425	23.2349
804.992	16.8943
809.555	41.6069
814.116	43.3755
818.675	12.5232
823.231	79.9783
827.784	130.147
832.335	130.144
836.883	134.256
841.428	153.284
845.971	261.374
850.512	138.946
855.049	202.621
859.584	264.02
864.117	298.159
868.647	282.051
873.174	352.709
877.699	332.148
882.221	368.383
886.741	479.429
891.258	628.306
895.772	836.03
900.284	1107.57
904.793	1636.17
909.3	2393.12
913.803	3860.63
918.305	6909
922.804	13210.6
927.3	26294.3
931.793	40602.9
936.284	36690.7
940.773	19120.6
945.258	9760.86
949.742	6122.65
954.222	3328.88
958.7	1883.46
963.176	1192.43
967.648	940.199
972.119	901.594
976.586	996.552
981.051	1280.03
985.513	2263.98
989.973	3940.18
994.43	7906.67
998.885	13853.5
1003.34	17735.6
1007.79	17308
1012.23	14128.8
1016.68	10180.9
1021.12	6065.46
1025.56	3339.28
1029.99	2133.14
1034.43	1627.75
1038.86	1593.79
1043.29	1252.17
1047.71	854.089
1052.14	454.471
1056.56	350.618
1060.98	248.035
1065.39	233.545
1069.8	277.481
1074.21	443.832
1078.62	877.802
1083.03	1629.98
1087.43	2795.61
1091.83	2669.53
1096.23	1539.16
1100.62	839.582
1105.01	342.186
1109.4	161.262
1113.79	7.05591
1118.17	77.9609
1122.56	4.13452
1126.93	6.08691
1131.31	16.6763
1135.69	46.7173
1140.06	124.113
1144.42	36.9697
1148.79	5.02075
1153.15	26.6748
1157.52	14.2087
1161.87	6.24097
1166.23	1.6875
1170.58	12.6731
1174.93	32.8391
1179.28	1.41748
1183.63	65.9827
1187.97	71.9819
1192.31	34.8091
1196.65	29.3394
1200.98	10.4346
1205.31	81.6252
1209.64	4.41382
1213.97	16.2131
1218.29	11.2039
1222.62	42.1885
1226.93	11.8957
1231.25	42.3235
1235.57	99.1812
1239.88	50.6968
1244.18	19.3486
1248.49	55.8342
1252.8	53.5994
1257.1	87.7097
1261.39	158.844
1265.69	95.4397
1269.98	21.5007
1274.27	60.3425
1278.56	67.3564
1282.85	49.4121
1287.13	81.9541
1291.41	152.256
1295.69	54.3066
1299.96	52.033
1304.23	78.4981
1308.5	93.9438
1312.77	146.383
1317.03	52.3835
1321.3	77.6414
1325.56	84.6145
1329.81	91.6973
1334.07	25.1877
1338.32	118.75
1342.57	104.293
1346.81	36.6167
1351.06	170.64
1355.3	83.1912
1359.54	62.2832
1363.77	79.5366
1368	50.3191
1372.23	138.986
1376.46	177.473
1380.69	67.1973
1384.91	159.935
1389.13	108.235
1393.35	101.107
1397.56	117.73
1401.77	1.56641
1405.98	93.7739
1410.19	111.696
1414.39	40.5942
1418.6	46.2476
1422.8	105.572
1426.99	10.3037
1431.19	132.443
1435.38	140.251
1439.57	216.383
1443.75	274.389
1447.94	171.078
1452.12	260.547
1456.3	261.911
1460.47	173.939
1464.64	222.423
1468.82	192.985
1472.98	162.1
1477.15	187.498
1481.31	187.742
1485.47	120.402
1489.63	214.864
1493.78	136.666
1497.94	70.9004
1502.09	97.6333
1506.23	65.3135
1510.38	0.811035
1514.52	11.0361
1518.66	80.5669
1522.8	94.415
1526.93	91.8438
1531.06	37.8574
1535.19	131.774
1539.32	47.292
1543.44	26.2847
1547.56	95.9253
1551.68	63.4976
1555.79	18.0625
1559.91	46.5864
