Measurement: Raman, 514 nm, ccw, Raman Data Processed
Mineral: Catapleiite
Rruff sample: R060208
Ideal chemistry: Na_2_ZrSi_3_O_9_2H_2_O
Locality: Mont Saint-Hilaire, Rouville County, Quebec, Canada
Source: Royal Ontario Museum
Description: Colorless transparent thin tabular pseudohexagonal crystal
Measured chemistry: Na_2.00_Zr_1.00_Si_3.00_O_9_Â·2H_2_O
Pin_id: M00973
Orientation: Laser parallel to (-1 0 -1). Fiducial mark perpendicular to laser is parallel to -b [0 -1 0]
Raman shift (cm-1)	intensity
112.949	0
117.891	37.523
122.83	362.563
127.767	713.215
132.7	966.285
137.631	1181.54
142.56	1297.9
147.485	1609.59
152.408	2054.22
157.328	2316.73
162.246	2295.07
167.16	2078.12
172.073	1573.78
176.982	1248.92
181.888	1211.4
186.792	1420.17
191.694	1820.04
196.592	2447.1
201.488	2865.63
206.381	3073.99
211.271	3182.61
216.159	2652.91
221.044	1667.54
225.926	876.123
230.806	364.485
235.683	201.072
240.557	112.7
245.429	58.3955
250.298	218.269
255.164	199.121
260.027	36.3545
264.888	94.3613
269.746	156.542
274.601	152.577
279.454	108.609
284.304	174.966
289.151	581.244
293.996	864.199
298.838	1071.3
303.677	894.209
308.514	612.107
313.348	598.349
318.179	540.202
323.008	466.74
327.834	527.491
332.657	370.806
337.478	336.863
342.295	138.539
347.111	217.968
351.923	188.33
356.733	430.631
361.54	713.884
366.345	770.101
371.147	753.29
375.946	647.377
380.743	582.466
385.537	544.312
390.328	476.286
395.116	425.78
399.902	501.164
404.686	797.055
409.466	1469.24
414.244	2750.65
419.019	5587.44
423.792	10450.9
428.562	15517.7
433.329	14057.7
438.094	8213.65
442.856	4566.6
447.616	2675.59
452.372	1699.66
457.126	1081.84
461.878	717.164
466.627	477.66
471.373	345.367
476.116	300.36
480.857	142.577
485.596	147.108
490.331	43.9316
495.064	201.384
499.795	316.325
504.522	418.534
509.247	728.562
513.97	1263.26
518.69	1902.8
523.407	2275
528.121	2495.3
532.833	2430.38
537.543	2398.77
542.249	2458.22
546.953	2371.98
551.655	2947.27
556.354	3996.5
561.05	6280.88
565.743	10890.9
570.434	16334.7
575.123	17890.1
579.808	11868.6
584.491	5787.51
589.172	2799.69
593.85	1524.17
598.525	1039.94
603.197	884.986
607.868	1118.29
612.535	1849.84
617.2	3507.61
621.862	7732.79
626.522	14610.4
631.178	17300.8
635.833	9371.74
640.485	3877.61
645.134	1718.14
649.78	1003.1
654.424	527.539
659.066	204.849
663.704	116.391
668.341	106.391
672.974	56.043
677.605	75.5952
682.234	30.2485
686.859	23.5552
691.483	73.415
696.103	18.4805
700.721	26.3911
705.337	19.9409
709.949	47.814
714.56	102.979
719.167	246.657
723.772	356.837
728.375	590.507
732.975	795.656
737.572	821.272
742.167	631.344
746.759	427.863
751.349	149.82
755.936	41.2046
760.52	18.0771
765.102	20.7642
769.681	17.2686
774.258	88.4219
778.832	135.231
783.404	11.8101
787.973	1.99658
792.539	89.354
797.103	37.5166
801.665	0.897949
806.223	19.6548
810.779	23.3042
815.333	76.1108
819.884	17.9678
824.433	74.0469
828.979	64.3184
833.522	135.767
838.063	182.759
842.601	242.457
847.137	151.6
851.67	201.046
856.2	248.262
860.729	226.112
865.254	334.606
869.777	237.759
874.297	240.59
878.815	299.118
883.33	300.355
887.843	334.326
892.353	544.719
896.861	648.142
901.366	833.223
905.869	1208.06
910.369	1832.17
914.866	3099.95
919.361	5870.79
923.854	11443.1
928.344	21258.8
932.831	28204.5
937.316	21753
941.798	10911
946.278	6095.37
950.755	3773.43
955.23	2097.54
959.702	1307.45
964.171	1047.21
968.638	960.087
973.103	1172.6
977.565	1530.59
982.025	2417.02
986.482	4291.93
990.936	8014.56
995.388	15359.3
999.837	24626.4
1004.28	29400.8
1008.73	27793.6
1013.17	21940.8
1017.61	15008.5
1022.05	8356.38
1026.48	4815.19
1030.91	3106.09
1035.34	2513.95
1039.77	2211.3
1044.19	1760.86
1048.62	1069.37
1053.03	667.507
1057.45	460.325
1061.87	393.524
1066.28	364.019
1070.69	517.672
1075.09	764.089
1079.5	1279.5
1083.9	2418.11
1088.3	3237.15
1092.69	2703.76
1097.09	1567.17
1101.48	765.424
1105.87	372.859
1110.26	163.914
1114.64	63.1108
1119.02	41.2783
1123.4	52.082
1127.78	53.0347
1132.15	155.048
1136.53	152.26
1140.89	61.0645
1145.26	60.5249
1149.63	145.765
1153.99	38.29
1158.35	16.1655
1162.7	10.6357
1167.06	55.9102
1171.41	48.3076
1175.76	63.9453
1180.11	69.8174
1184.45	51.9126
1188.79	25.668
1193.13	8.92188
1197.47	32.312
1201.81	49.0366
1206.14	59.4668
1210.47	71.9561
1214.79	22.2754
1219.12	27.082
1223.44	44.8052
1227.76	63.9487
1232.08	54.7769
1236.39	116.19
1240.7	16.6519
1245.02	49.8276
1249.32	45.6143
1253.63	18.7539
1257.93	25.4863
1262.23	164.023
1266.53	58.8901
1270.82	7.26807
1275.12	71.9248
1279.41	101.293
1283.69	126.306
1287.98	106.267
1292.26	24.5503
1296.54	102.001
1300.82	48.7895
1305.1	126.371
1309.37	76.9477
1313.64	177.287
1317.91	85.2954
1322.17	93.3315
1326.44	48.0596
1330.7	216.509
1334.96	171.199
1339.21	95.6138
1343.47	123.469
1347.72	136.317
1351.97	164.682
1356.21	68.3218
1360.46	147.252
1364.7	96.0644
1368.94	85.4473
1373.17	134.274
1377.41	82.0918
1381.64	146.501
1385.87	63.8252
1390.1	65.9482
1394.32	63.2544
1398.54	94.0781
1402.76	68.9771
1406.98	25.2129
1411.19	55.1533
1415.41	51.3032
1419.62	11.3237
1423.82	128.748
1428.03	171.866
1432.23	162.251
1436.43	43.7261
1440.63	178.124
1444.82	161.544
1449.02	161.342
1453.21	212.568
1457.4	208.473
1461.58	218.348
1465.77	180.119
1469.95	154.572
1474.12	173.767
1478.3	264.895
1482.47	208.769
1486.64	175.06
1490.81	216.988
1494.98	179.97
1499.14	196.701
1503.31	86.3911
1507.47	112.431
1511.62	0.273926
1515.78	119.289
1519.93	161.102
1524.08	98.3433
1528.23	88.7754
1532.37	85.8345
1536.51	119.707
1540.65	127.16
1544.79	156.153
1548.93	217.787
1553.06	127.418
1557.19	132.395
1561.32	71.9946
