Measurement: Raman, 514 nm, ccw, Raman Data Processed
Mineral: Catapleiite
Rruff sample: R060198
Ideal chemistry: Na_2_ZrSi_3_O_9_2H_2_O
Locality: Mont Saint-Hilaire, Rouville County, Quebec, Canada
Source: Royal Ontario Museum
Description: Tan colored pseudohexagonal tabular crystals
Measured chemistry: (Na_1.92_Ca_0.04_[box]_0.04_)_Σ=2_Zr_1.00_Si_3.00_O_9_·2H_2_O
Pin_id: L00848
Orientation: Laser parallel to (1 0 1). Fiducial mark perpendicular to laser is parallel to b [0 1 0]
Raman shift (cm-1)	intensity
95.948	0
100.883	28.6943
105.815	476.546
110.744	820.882
115.671	1119.7
120.596	855.414
125.519	973.742
130.439	1456.22
135.356	1779.11
140.271	2302.49
145.184	2328.97
150.094	2850.43
155.002	3188.12
159.908	3106.42
164.811	3079.72
169.711	2745.63
174.61	2648.84
179.505	2691.59
184.399	3102.38
189.29	3870.26
194.178	5049.56
199.064	6086.88
203.948	7118.46
208.829	6476.1
213.708	5327.07
218.585	3159.77
223.459	1767.21
228.33	937.823
233.199	583.15
238.066	248.283
242.93	20.9111
247.792	113.861
252.651	2.17334
257.508	135.602
262.363	3.92383
267.215	69.812
272.064	161.366
276.912	57.9268
281.756	100.34
286.598	600.218
291.438	875.918
296.276	965.288
301.111	948.667
305.943	700.313
310.773	693.412
315.601	755.423
320.426	770.005
325.248	613.9
330.068	546.125
334.886	488.569
339.701	348.839
344.514	337.66
349.324	475.071
354.132	831.131
358.938	978.875
363.741	1310.28
368.541	1114.32
373.339	904.157
378.135	839.326
382.928	572.794
387.718	612.979
392.506	594.192
397.292	619.175
402.075	669.452
406.856	1446.87
411.634	2686.93
416.41	5111.17
421.183	9364.28
425.954	13242.7
430.722	11776.6
435.488	7340.74
440.251	4183.49
445.012	2356.16
449.77	1502.77
454.526	1004.09
459.28	553.734
464.03	425.463
468.779	299.222
473.525	83.3721
478.268	96.1494
483.009	54.0127
487.747	174.607
492.483	240.949
497.217	310.818
501.948	605.408
506.676	873.769
511.402	1450.96
516.125	2069.9
520.846	2781.71
525.565	3000.83
530.281	2704.96
534.994	2401.48
539.705	2137.83
544.413	2104.27
549.119	2326.58
553.822	3284.39
558.523	5538.97
563.222	8981.28
567.917	12421.1
572.611	12600.7
577.302	8145.07
581.99	4005.6
586.676	2003.32
591.359	1018.22
596.04	585.01
600.718	683.496
605.394	723.846
610.067	1331.31
614.737	2728.89
619.406	6334.11
624.071	12163.8
628.734	14262
633.395	8201.4
638.053	3595.51
642.708	1526.7
647.361	840.836
652.012	356.57
656.66	335.649
661.305	178.474
665.948	185.597
670.588	81.8867
675.226	51.7109
679.861	9.66406
684.494	68.415
689.124	80.4688
693.752	93.8769
698.377	17.4434
702.999	32.04
707.619	23.2773
712.237	234.845
716.852	350.709
721.464	459.879
726.074	710.345
730.681	1044.1
735.286	1116.12
739.888	900.418
744.488	633.976
749.085	514.789
753.68	270.853
758.272	64.1309
762.861	0.592773
767.448	100.463
772.033	83.8076
776.614	4.04102
781.194	67.5449
785.77	46.7852
790.345	98.6406
794.916	43.9346
799.485	89.9658
804.052	64.9043
808.616	24.1025
813.177	42.6768
817.736	78.7598
822.292	38.4365
826.846	164.991
831.397	254.279
835.945	195.325
840.491	265.033
845.035	122.04
849.576	93.5742
854.114	200.566
858.65	261.258
863.183	178.594
867.713	243.596
872.241	274.293
876.767	239.711
881.29	363.875
885.81	324.813
890.328	681.554
894.843	736.07
899.356	978.202
903.866	1732.08
908.373	2638.16
912.878	4383.99
917.38	7779.71
921.88	15483.3
926.377	27528.7
930.872	36226.3
935.364	30167.5
939.853	17740.2
944.34	10201.7
948.824	5961.1
953.306	3469.7
957.785	2070.45
962.261	1629.45
966.735	1455.4
971.207	1802.07
975.675	2526.49
980.141	3578.61
984.605	6185.3
989.066	11636.6
993.524	22089.4
997.98	35934
1002.43	44208.3
1006.88	42587.1
1011.33	33090.6
1015.78	22782.8
1020.22	13899.7
1024.66	8332.23
1029.1	5414.93
1033.53	4134.69
1037.97	3861.93
1042.4	2933.33
1046.82	1971.28
1051.25	1375.25
1055.67	989.305
1060.09	777.628
1064.51	818.766
1068.92	826.573
1073.33	943.46
1077.74	1593.43
1082.15	2885.29
1086.55	3866.26
1090.95	3625.9
1095.35	2295.48
1099.75	1156.66
1104.14	579.923
1108.53	232.815
1112.92	163.619
1117.31	241.805
1121.69	476.548
1126.07	316.754
1130.45	125.047
1134.82	75.7266
1139.19	252.946
1143.57	190.244
1147.93	151.42
1152.3	152.668
1156.66	13.9268
1161.02	92.1269
1165.38	144.407
1169.73	68.8828
1174.08	37.3272
1178.43	20.8252
1182.78	8.18457
1187.12	10.8643
1191.46	81.6494
1195.8	150.54
1200.14	119.88
1204.47	97.9873
1208.8	75.5635
1213.13	122.413
1217.46	29.9609
1221.78	19.8857
1226.1	44.794
1230.42	43.2188
1234.73	127.361
1239.04	107.181
1243.35	157.702
1247.66	47.0273
1251.97	97.8086
1256.27	51.2412
1260.57	243.414
1264.86	293.786
1269.16	181.733
1273.45	139.304
1277.74	65.4394
1282.03	101.091
1286.31	148.762
1290.59	236.977
1294.87	329.789
1299.14	185.163
1303.42	114.716
1307.69	125.774
1311.95	126.317
1316.22	79.0547
1320.48	246.831
1324.74	284.181
1329	119.874
1333.26	232.558
1337.51	181.664
1341.76	228.999
1346	308.691
1350.25	233.353
1354.49	255.778
1358.73	207.279
1362.96	375.284
1367.2	182.724
1371.43	204.115
1375.66	275.484
1379.88	235.56
1384.11	230.133
1388.33	223.009
1392.54	158.709
1396.76	236.381
1400.97	199.973
1405.18	98.0352
1409.39	106.982
1413.59	29.4453
1417.8	10.6162
1421.99	70.9082
1426.19	141.753
1430.38	120.325
1434.58	88.5928
1438.77	159.281
1442.95	195.442
1447.13	307.004
1451.32	139.53
1455.49	125.033
1459.67	190.064
1463.84	220.177
1468.01	169.11
1472.18	192.839
1476.35	176.284
1480.51	289.385
1484.67	197.149
1488.83	264.725
1492.98	129.371
1497.13	26.9004
1501.28	203.274
1505.43	25.5273
1509.57	186.228
1513.71	225.237
1517.85	134.254
1521.99	66.7773
1526.12	126.219
1530.25	189.345
1534.38	43.8027
1538.5	163.08
1542.62	489.882
1546.74	323.333
1550.86	234.126
1554.98	273.071
1559.09	61.5205
1563.2	191.843
1567.31	111.241
