Measurement: Raman, 514 nm, ccw, Raman Data Processed
Mineral: Catapleiite
Rruff sample: R060208
Ideal chemistry: Na_2_ZrSi_3_O_9_2H_2_O
Locality: Mont Saint-Hilaire, Rouville County, Quebec, Canada
Source: Royal Ontario Museum
Description: Colorless transparent thin tabular pseudohexagonal crystal
Measured chemistry: Na_2.00_Zr_1.00_Si_3.00_O_9_Â·2H_2_O
Pin_id: M01568
Orientation: Laser parallel to b* (0 1 0). Fiducial mark perpendicular to laser is parallel to c [0 0 1]
Raman shift (cm-1)	intensity
92.498	0
97.446	283.712
102.392	837.979
107.335	1347.59
112.275	1716.47
117.213	2058.24
122.148	1892.59
127.081	2231.06
132.011	2315.13
136.938	2347.93
141.864	2274.57
146.786	2481.74
151.706	2962.11
156.624	2915.3
161.539	2983.76
166.451	3043.92
171.361	3575.73
176.269	3779.4
181.173	4289.3
186.076	5094.65
190.975	6365.05
195.873	8057.93
200.767	9233.59
205.659	9479.78
210.549	9842.56
215.436	8584.31
220.321	5824.9
225.203	3460.31
230.082	1872.65
234.959	1027.29
239.833	612.503
244.705	188.661
249.574	59.4355
254.441	230.069
259.305	307.009
264.167	90.7339
269.026	191.8
273.882	274.822
278.736	257.091
283.588	300.974
288.436	85.7344
293.283	10.2808
298.126	82.5981
302.968	64.8838
307.806	64.1465
312.642	140.765
317.476	147.169
322.307	331.431
327.135	372.363
331.961	344.754
336.784	183.88
341.605	47.9126
346.423	134.553
351.239	354.911
356.052	679.386
360.863	1164.98
365.671	1087.54
370.476	933.06
375.279	632.689
380.079	505.43
384.877	453.324
389.672	312.696
394.465	336.371
399.255	478.332
404.042	733.4
408.827	1199.66
413.609	2009.39
418.389	3759.73
423.166	6912.22
427.941	10503.9
432.713	9467.64
437.483	5589.61
442.25	3006
447.014	1810.58
451.776	1041.81
456.535	613.028
461.292	362.491
466.046	395.997
470.797	297.534
475.546	281.127
480.293	200.872
485.037	278.398
489.778	293.34
494.517	385.563
499.253	584.31
503.986	924.221
508.717	1162.33
513.446	1857.64
518.171	2646.28
522.895	2837.25
527.615	2417.86
532.334	1796.28
537.049	1422.1
541.762	1087.29
546.472	1001.66
551.18	959.773
555.885	1318.96
560.588	1989.46
565.288	3292.91
569.986	5113.35
574.681	5922.05
579.373	4015.76
584.063	1997.45
588.75	888.985
593.435	583.578
598.117	463.145
602.796	483.551
607.473	629.778
612.147	1075.81
616.819	2025.83
621.488	4394.69
626.155	8336.94
630.819	10058.1
635.48	5449.31
640.139	2227.13
644.795	1076.34
649.449	503.494
654.1	276.656
658.748	132.246
663.394	115.598
668.037	19.0625
672.678	100.446
677.316	68.2129
681.952	33.4556
686.585	7.28027
691.215	34.8149
695.843	7.14404
700.468	74.5698
705.09	6.93555
709.711	93.3897
714.328	51.1055
718.943	64.2485
723.555	177.684
728.165	327.464
732.772	311.588
737.376	442.402
741.978	486.097
746.577	291.647
751.174	176.731
755.768	18.5361
760.36	81.6001
764.949	227.501
769.535	49.6377
774.119	87.5942
778.7	54.9727
783.279	188.037
787.855	66.4473
792.428	115.387
796.999	50.7974
801.567	120.361
806.133	6.91113
810.696	58.1435
815.256	11.8018
819.814	42.0625
824.369	21.4326
828.922	24.5337
833.472	31.915
838.019	21.8169
842.564	50.5015
847.107	11.2144
851.646	159.824
856.183	33.2856
860.718	63.269
865.25	30.2373
869.779	30.0532
874.306	49.7178
878.83	28.2334
883.351	5.38477
887.87	50.1099
892.386	179.973
896.9	176.237
901.411	264.073
905.92	425.524
910.426	551.109
914.929	1180.12
919.43	2085.51
923.928	4277.67
928.423	8139.4
932.916	11018.4
937.407	8938.42
941.894	4724.31
946.38	2716.05
950.862	2001.24
955.342	1217.23
959.819	1062.86
964.294	1135.4
968.766	1451.92
973.236	1964.06
977.703	3144.38
982.167	4888.67
986.629	8605.6
991.088	16179.8
995.544	30874.4
999.998	47332.7
1004.45	53061.6
1008.9	48375.6
1013.34	37795.7
1017.79	25575.8
1022.23	14818.7
1026.67	8504.5
1031.1	6070.6
1035.54	5134.44
1039.97	5006.29
1044.39	3931.28
1048.82	2401.88
1053.24	1740.01
1057.66	1310.39
1062.08	1298.26
1066.49	1393.88
1070.91	1789.07
1075.32	2617.02
1079.72	4273.89
1084.13	7565.73
1088.53	10436.6
1092.93	9397.11
1097.33	5718.62
1101.72	3100.43
1106.11	1862.77
1110.5	997.521
1114.89	591.41
1119.27	567.109
1123.65	309.546
1128.03	358.76
1132.4	356.269
1136.78	241.163
1141.15	232.398
1145.52	123.577
1149.88	80.043
1154.24	96.8188
1158.61	72.5869
1162.96	7.68848
1167.32	36.5112
1171.67	34.4878
1176.02	14.1372
1180.37	79.5435
1184.71	89.9497
1189.05	40.3897
1193.39	35.0059
1197.73	42.7456
1202.06	10.8516
1206.4	112.882
1210.72	26.4009
1215.05	47.7734
1219.37	39.6919
1223.7	43.8989
1228.01	43.9087
1232.33	53.687
1236.64	50.5244
1240.95	76.3188
1245.26	93.9429
1249.57	65.188
1253.87	123.965
1258.17	75.4829
1262.47	27.6226
1266.76	93.6011
1271.06	41.123
1275.35	103.27
1279.63	37.8682
1283.92	1.63916
1288.2	37.1728
1292.48	220.63
1296.76	133.366
1301.03	160.254
1305.3	165.97
1309.57	190.076
1313.84	196.535
1318.1	109.109
1322.36	197.896
1326.62	204.431
1330.88	143.779
1335.13	82.2095
1339.38	63.877
1343.63	93.834
1347.87	169.235
1352.12	31.2812
1356.36	25.5073
1360.59	20.4229
1364.83	194.225
1369.06	21.5625
1373.29	154.846
1377.52	153.415
1381.74	117.029
1385.96	158.449
1390.18	104.455
1394.4	105.057
1398.62	184.817
1402.83	19.9775
1407.04	155.835
1411.24	19.9375
1415.45	29.3848
1419.65	60.9995
1423.85	120.048
1428.04	197.174
1432.23	135.675
1436.43	297.995
1440.61	310.832
1444.8	246.387
1448.98	429.914
1453.16	453.685
1457.34	426.66
1461.52	271.942
1465.69	245.411
1469.86	343.529
1474.03	247.664
1478.19	71.3618
1482.35	159.477
1486.51	95.5996
1490.67	143.819
1494.82	179.055
1498.97	88.5327
1503.12	63.897
1507.27	46.9551
1511.41	165.958
1515.55	153.701
1519.69	20.8227
1523.83	52.0142
1527.96	93.4805
1532.09	7.80811
1536.22	169.475
1540.35	8.72217
1544.47	147.798
1548.59	49.7534
1552.71	142.967
1556.82	71.8374
1560.93	0.643066
