Measurement: Raman, 514 nm, ccw, Raman Data Processed
Mineral: Celestine
Rruff sample: R050008
Ideal chemistry: SrSO_4_
Locality: Scofield Quarry, Maybee, Monroe County, Michigan, USA
Source: Eugene Schlepp
Description: Pale blue tabular crystals
Measured chemistry: Sr_1.00_S_1.00_O_4_
Pin_id: M00310
Orientation: Laser parallel to -a* (-1 0 0). Fiducial mark perpendicular to laser is parallel to b [0 1 0]
Raman shift (cm-1)	intensity
50.167	0
54.392	32.493
58.614	101.335
62.834	129.522
67.052	212.305
71.268	78.034
75.481	57.78
79.693	43.198
83.902	31.681
88.108	302.449
92.313	266.423
96.515	66.112
100.715	28.926
104.913	1.734
109.109	24.138
113.303	16.885
117.494	57.876
121.683	70.758
125.87	199.19
130.055	163.78
134.237	99.487
138.417	57.734
142.596	30.585
146.771	22.284
150.945	21.78
155.117	25.077
159.286	29.57
163.453	67.964
167.618	151.916
171.781	329.552
175.941	171.499
180.1	85.112
184.256	23.685
188.41	2.348
192.562	2.551
196.711	18.374
200.859	4.874
205.004	16.528
209.147	4.661
213.288	7.433
217.427	6.222
221.564	6.562
225.698	0.899
229.83	12.049
233.96	9.137
238.088	17.318
242.214	2.507
246.338	5.297
250.459	8.17
254.579	32.285
258.696	36.212
262.811	25.909
266.924	49.223
271.035	22.515
275.143	36.531
279.25	53.396
283.354	32.834
287.456	34.237
291.556	32.53
295.654	41.59
299.75	62.383
303.843	42.612
307.935	63.399
312.024	44.647
316.111	40.784
320.196	57.325
324.279	58.412
328.36	56.892
332.439	58.64
336.516	36.416
340.59	55.129
344.662	46.787
348.733	41.757
352.801	40.709
356.867	50.028
360.931	49.59
364.992	60.72
369.052	25.408
373.11	41.171
377.165	44.196
381.218	44.063
385.27	26.612
389.319	53.233
393.366	43.081
397.411	45.709
401.454	23.703
405.495	31.423
409.533	46.316
413.57	58.377
417.604	55.235
421.637	91.159
425.667	86.165
429.695	109.225
433.721	147.056
437.745	236.086
441.767	379.097
445.787	856.001
449.805	2402.96
453.821	8459.94
457.834	8654.01
461.846	2367.16
465.856	1006.26
469.863	511.446
473.868	277.552
477.872	188.573
481.873	115.74
485.872	95.049
489.869	59.162
493.864	46.439
497.857	52.576
501.848	64.741
505.837	51.834
509.824	41.956
513.809	53.165
517.792	31.427
521.772	49.703
525.751	44.894
529.728	30.188
533.702	35.666
537.675	10.144
541.645	17.646
545.613	35.116
549.58	24.74
553.544	8.404
557.507	28.044
561.467	12.011
565.425	5.113
569.381	14.166
573.335	11.753
577.288	27.142
581.238	3.2
585.186	21.113
589.132	20.482
593.076	9.211
597.018	13.141
600.958	31.803
604.896	24.126
608.832	84.01
612.766	190.015
616.698	553.057
620.628	1380.8
624.556	1001.54
628.482	574.334
632.405	181.128
636.327	126.728
640.247	189.231
644.165	125.18
648.081	70.915
651.995	54.732
655.907	78.46
659.817	50.229
663.725	35.003
667.63	17.723
671.534	15.438
675.436	15.149
679.336	17.949
683.234	1.658
687.13	0.15
691.024	19.835
694.916	15.601
698.806	16.393
702.694	13.593
706.58	13.226
710.464	13.772
714.346	2.631
718.226	3.467
722.105	13.432
725.981	12.726
729.855	1.11
733.727	4.843
737.597	16.731
741.466	7.833
745.332	25.559
749.196	3.942
753.059	25.302
756.919	10.366
760.778	0.914
764.634	9.163
768.489	1.605
772.341	34.6
776.192	18.79
780.041	2.967
783.887	16.128
787.732	0.724
791.575	15.396
795.416	0.515
799.255	22.541
803.092	1.585
806.927	15.613
810.76	26.63
814.591	11.633
818.421	11.623
822.248	7.6
826.073	12.539
829.897	0.495
833.718	9.436
837.538	26.654
841.356	8.17
845.171	0.005
848.985	14.807
852.797	0.352
856.607	18.528
860.415	15.245
864.221	9
868.025	5.567
871.828	27.768
875.628	0.456
879.426	15.144
883.223	3.513
887.018	9.34
890.81	23.046
894.601	18.059
898.39	38.626
902.177	40.306
905.962	32.865
909.745	43.826
913.526	49.699
917.306	25.468
921.083	47.675
924.859	42.458
928.632	19.249
932.404	35.993
936.174	49.802
939.942	35.333
943.708	63.54
947.472	40.408
951.235	46.263
954.995	84.044
958.754	80.926
962.51	110.822
966.265	130.688
970.018	151.561
973.769	272.502
977.518	321.459
981.265	409.338
985.011	620.329
988.754	920.561
992.496	1860.56
996.236	5921.52
999.974	48063.6
1003.71	17201.4
1007.44	3358.12
1011.18	1393.25
1014.91	791.499
1018.63	507.372
1022.36	353.315
1026.09	275.602
1029.81	192.094
1033.53	172.165
1037.25	148.635
1040.97	145.039
1044.68	156.477
1048.4	116.949
1052.11	111.591
1055.82	97.627
1059.53	103.388
1063.23	109.534
1066.94	83.302
1070.64	63.025
1074.34	53.996
1078.04	66.587
1081.74	83.405
1085.43	116.251
1089.12	246.356
1092.82	560.263
1096.51	515.205
1100.19	310.177
1103.88	356.172
1107.56	834.192
1111.25	1269.24
1114.93	730.306
1118.61	339.4
1122.28	193.517
1125.96	95.657
1129.63	49.821
1133.3	53.01
1136.97	53.229
1140.64	28.485
1144.31	9.769
1147.97	26.079
1151.63	46.41
1155.29	127.77
1158.95	82.159
1162.61	36.573
1166.26	31.011
1169.92	13.668
1173.57	32.14
1177.22	1.364
1180.87	15.373
1184.51	7.989
1188.15	45.645
1191.8	15.477
1195.44	4.973
1199.08	2.555
1202.71	2.337
1206.35	12.905
1209.98	22.776
1213.61	19.966
1217.24	22.307
1220.87	36.346
1224.5	34.838
1228.12	44.335
1231.75	40.269
1235.37	34.764
1238.99	26.418
1242.6	20.925
1246.22	17.439
1249.83	37.964
1253.44	33.624
1257.05	46.837
1260.66	39.695
1264.27	58.237
1267.87	30.825
1271.48	19.412
1275.08	9.083
1278.68	30.65
1282.28	9.19
1285.87	31.699
1289.47	25.944
1293.06	25.388
1296.65	23.867
1300.24	32.231
1303.83	35.577
1307.41	27.905
1310.99	6.711
1314.58	12.521
1318.16	8.418
1321.73	29.149
1325.31	2.986
1328.89	2.275
1332.46	0.554
1336.03	13.561
1339.6	9.482
1343.17	14.518
1346.73	8.76
1350.3	2.035
1353.86	18.446
1357.42	23.317
1360.98	29.249
1364.54	21.162
1368.09	14.333
1371.65	1.708
1375.2	25.097
1378.75	19.844
1382.3	18.297
1385.85	28.741
1389.39	20.168
1392.93	20.582
1396.48	37.977
1400.02	21.35
1403.56	24.701
1407.09	12.014
1410.63	15.31
1414.16	9.592
1417.69	16.59
1421.22	18.814
1424.75	18.307
1428.27	6.09
1431.8	33.336
1435.32	36.913
1438.84	57.651
1442.36	52.969
1445.88	57.904
1449.4	62.304
1452.91	16.929
1456.42	27.434
1459.93	23.506
1463.44	20.626
1466.95	24.246
1470.45	30.025
1473.96	11.613
1477.46	37.417
1480.96	38.293
1484.46	9.461
1487.96	16.547
1491.45	16.57
1494.95	6.634
1498.44	24.126
1501.93	23.89
1505.42	3.039
1508.9	2.623
1512.39	29.276
1515.87	4.776
