Measurement: Raman, 514 nm, ccw, Raman Data Processed
Mineral: Celestine
Rruff sample: R040007
Ideal chemistry: SrSO_4_
Locality: Coahuila, Mexico
Source: University of Arizona Mineral Museum
Description: Blue tabular crystals
Measured chemistry: Light bands: (Sr_0.95_Ba_0.04_Ca_0.01_)_Σ=1_S_1.00_O_4_; Dark bands: (Sr_0.99_Ba_0.01_)_Σ=1_S_1.00_O_4_; trace amounts of Ca
Pin_id: M00011
Orientation: Laser parallel to c* (0 0 1). Fiducial mark perpendicular to laser is parallel to a [1 0 0]
Raman shift (cm-1)	intensity
52.866	0
57.065	0.787
61.262	0.724
65.458	18.064
69.651	75.759
73.842	154.337
78.031	391.422
82.218	1012.13
86.404	1780.87
90.587	1496.25
94.768	998
98.947	770.83
103.124	556.735
107.3	421.113
111.473	372.602
115.644	387.471
119.813	400.9
123.981	324.831
128.146	330.239
132.309	282.145
136.47	273.601
140.63	256.159
144.787	227.802
148.942	246.617
153.096	256.601
157.247	228.79
161.396	273.19
165.544	349.79
169.689	444.59
173.833	393.588
177.974	273.782
182.114	196.499
186.251	182.132
190.387	174.873
194.52	184.803
198.652	173.373
202.782	164.684
206.909	156.955
211.035	122.658
215.159	140.887
219.281	103.187
223.4	111.701
227.518	108.627
231.634	91.093
235.748	96.7
239.86	67.295
243.97	79.963
248.079	81.393
252.185	62.339
256.289	76.765
260.391	69.803
264.492	64.56
268.59	74.478
272.687	50.546
276.781	37.756
280.874	41.098
284.964	28.565
289.053	21.343
293.14	19.849
297.225	30.652
301.308	39.553
305.389	8.55
309.468	42.64
313.545	26.821
317.62	24.092
321.693	46.453
325.765	0.1
329.834	8.97
333.902	14.182
337.967	14.836
342.031	9.112
346.093	0.723
350.153	2.806
354.21	4.531
358.267	16.497
362.321	15.287
366.373	24.98
370.423	6.097
374.471	1.835
378.518	6.182
382.563	10.16
386.605	45.895
390.646	13.965
394.685	21.232
398.722	5.125
402.757	16.595
406.79	16.524
410.821	21.317
414.851	17.5
418.878	1.569
422.904	25.701
426.927	36.939
430.949	40.991
434.969	70.209
438.987	153.475
443.003	305.784
447.018	854.136
451.03	2494.53
455.041	3606.96
459.049	2657.43
463.056	1593.93
467.061	657.482
471.064	316.811
475.065	116.381
479.064	79.062
483.062	57.78
487.057	34.521
491.051	15.285
495.043	14.069
499.032	10.884
503.02	14.272
507.007	20.151
510.991	5
514.973	45.584
518.954	40.39
522.933	22.391
526.91	3.347
530.885	4.432
534.858	38.715
538.829	17.088
542.799	30.368
546.766	1.218
550.732	4.437
554.696	24.035
558.658	24.136
562.618	28.263
566.576	38.086
570.533	22.875
574.488	22.496
578.44	37.186
582.391	60.747
586.341	34.503
590.288	53.53
594.233	89.126
598.177	113.843
602.119	150.61
606.059	238.289
609.997	448.197
613.933	1151.84
617.868	2588.46
621.801	2235.47
625.731	1127.34
629.66	623.407
633.588	736.536
637.513	1439.18
641.437	1042.92
645.358	341.52
649.278	157.48
653.196	142.044
657.113	89.477
661.027	92.592
664.94	58.942
668.851	38.086
672.76	35.115
676.667	21.386
680.572	43.501
684.476	20.326
688.378	11.678
692.278	41.5
696.176	4.5
700.072	54.21
703.967	47.222
707.86	32.309
711.751	42.266
715.64	20.181
719.527	51.047
723.413	8.155
727.297	5.602
731.179	44.135
735.059	8.744
738.937	27.314
742.814	43.921
746.689	37.504
750.562	42.062
754.433	20.595
758.303	25.105
762.17	3.594
766.036	24.056
769.901	32.497
773.763	1.919
777.624	48.313
781.482	44.665
785.339	39.98
789.195	2.753
793.048	2.189
796.9	11.637
800.75	36.799
804.598	62.951
808.445	15.034
812.289	32.085
816.132	34.13
819.973	22.165
823.813	42.161
827.65	73.125
831.486	9.61
835.32	27.575
839.152	16.348
842.983	30.465
846.812	26.416
850.639	36.388
854.464	32.365
858.288	47.371
862.11	51.874
865.93	26.24
869.748	14.1
873.564	28.835
877.379	24.838
881.192	5.367
885.004	30.871
888.813	28.797
892.621	39.836
896.427	83.978
900.232	30.14
904.034	52.182
907.835	76.425
911.634	21.639
915.432	79.745
919.227	58.013
923.021	54.351
926.813	65.526
930.604	71.7
934.393	36.814
938.18	129.737
941.965	67.259
945.749	84.845
949.53	125.195
953.311	146.61
957.089	163.11
960.866	158.947
964.641	212.529
968.414	166.174
972.185	256.854
975.955	389.134
979.723	428.876
983.49	647.418
987.254	884.305
991.017	1709.15
994.779	4843.14
998.538	28904.1
1002.3	50262.1
1006.05	9794.12
1009.81	2588.2
1013.56	1211.32
1017.31	808.496
1021.06	547.712
1024.81	422.968
1028.55	367.26
1032.3	260.629
1036.04	222.067
1039.78	137.54
1043.52	127.224
1047.26	87.785
1050.99	90.39
1054.73	62.427
1058.46	62.375
1062.19	82.779
1065.92	92.711
1069.65	68.481
1073.37	34.276
1077.1	22.095
1080.82	90.94
1084.54	109.378
1088.26	63.736
1091.97	82.69
1095.69	160.681
1099.4	54.695
1103.12	78.728
1106.83	185.781
1110.54	367.899
1114.24	282.035
1117.95	127.51
1121.65	84.687
1125.35	54.932
1129.06	28.199
1132.75	20.595
1136.45	45.925
1140.15	4.758
1143.84	10.49
1147.53	7.746
1151.22	52.582
1154.91	107.849
1158.6	255.12
1162.28	396.422
1165.97	250.697
1169.65	125.993
1173.33	45.28
1177.01	30.553
1180.69	2.485
1184.36	40.77
1188.04	10.738
1191.71	11.396
1195.38	1.612
1199.05	44.168
1202.71	40.806
1206.38	15.798
1210.04	0.741
1213.71	49.862
1217.37	46.459
1221.03	47.369
1224.68	41.268
1228.34	22.129
1231.99	15.032
1235.65	56.919
1239.3	42.736
1242.95	17.536
1246.59	30.463
1250.24	48.098
1253.88	57.85
1257.53	34.584
1261.17	12.389
1264.81	62.279
1268.45	18.596
1272.08	20.521
1275.72	11.101
1279.35	11.896
1282.98	5.648
1286.61	37.711
1290.24	90.572
1293.87	57.454
1297.49	28.729
1301.11	55.945
1304.73	44.122
1308.36	59.271
1311.97	53.391
1315.59	26.047
1319.2	33.542
1322.82	5.427
1326.43	49.44
1330.04	12.311
1333.65	47.123
1337.26	50.716
1340.86	10.419
1344.47	3.227
1348.07	26.334
1351.67	38.962
1355.27	17.326
1358.87	5.138
1362.46	17.399
1366.06	9.899
1369.65	44.396
1373.24	36.917
1376.83	40.441
1380.42	17.01
1384	11.684
1387.59	27.743
1391.17	32.88
1394.75	42.976
1398.33	44.561
1401.91	59.445
1405.49	27.047
1409.06	6.383
1412.64	17.553
1416.21	13.125
1419.78	60.722
1423.35	15.269
1426.91	24.041
1430.48	50.308
1434.05	42.366
1437.61	109.525
1441.17	92.23
1444.73	93.024
1448.29	93.175
1451.84	145.244
1455.4	105.241
1458.95	145.265
1462.5	86.188
1466.05	58.303
1469.6	44.391
1473.15	62.552
1476.69	52.808
1480.24	90.244
1483.78	51.866
1487.32	35.885
1490.86	63.522
1494.39	34.276
1497.93	20.056
1501.46	6.506
1505	13.373
1508.53	8.653
1512.06	1.418
1515.59	28.229
1519.11	17.626
1522.64	41.414
1526.16	0
