Measurement: Raman, 514 nm, ccw, Raman Data Processed
Mineral: Celestine
Rruff sample: R040007
Ideal chemistry: SrSO_4_
Locality: Coahuila, Mexico
Source: University of Arizona Mineral Museum
Description: Blue tabular crystals
Measured chemistry: Light bands: (Sr_0.95_Ba_0.04_Ca_0.01_)_Σ=1_S_1.00_O_4_; Dark bands: (Sr_0.99_Ba_0.01_)_Σ=1_S_1.00_O_4_; trace amounts of Ca
Pin_id: M00011
Orientation: Laser parallel to c* (0 0 1). Fiducial mark perpendicular to laser is parallel to a [1 0 0]
Raman shift (cm-1)	intensity
86.404	0
90.587	33.869
94.768	38.571
98.947	54.325
103.124	47.231
107.3	65.095
111.473	43.262
115.644	179.372
119.813	349.212
123.981	231.662
128.146	192.507
132.309	124.624
136.47	83
140.63	37.778
144.787	54.742
148.942	57.931
153.096	37.258
157.247	31.647
161.396	34.704
165.544	21.029
169.689	46.318
173.833	37.539
177.974	21.072
182.114	18.231
186.251	45.618
190.387	85.224
194.52	182.611
198.652	259.61
202.782	240.737
206.909	160.313
211.035	89.257
215.159	39.713
219.281	50.746
223.4	43.668
227.518	12.973
231.634	37.886
235.748	26.829
239.86	59.793
243.97	45.784
248.079	15.76
252.185	17.192
256.289	14.949
260.391	16.731
264.492	39.683
268.59	11.75
272.687	19.9
276.781	25.109
280.874	20.36
284.964	0.644
289.053	7.047
293.14	5.266
297.225	13.413
301.308	16.904
305.389	35.225
309.468	18.549
313.545	8.872
317.62	12.807
321.693	4.498
325.765	5.768
329.834	20.032
333.902	22.293
337.967	1.457
342.031	26.157
346.093	1.618
350.153	2.417
354.21	32.253
358.267	21.385
362.321	44.726
366.373	24.858
370.423	50.945
374.471	16.029
378.518	8.125
382.563	70.184
386.605	42.379
390.646	47.446
394.685	5.338
398.722	41.554
402.757	31.625
406.79	12.708
410.821	66.793
414.851	62.887
418.878	80
422.904	87.094
426.927	84.041
430.949	91.155
434.969	126.266
438.987	221.798
443.003	392.901
447.018	1170.84
451.03	2980.29
455.041	4207.46
459.049	2909.24
463.056	1807.09
467.061	783.177
471.064	314.252
475.065	148.318
479.064	133.594
483.062	83.096
487.057	54.798
491.051	11.839
495.043	30.89
499.032	40.783
503.02	44.822
507.007	36.179
510.991	14.196
514.973	25.208
518.954	71.216
522.933	15.679
526.91	45.509
530.885	56.484
534.858	31.978
538.829	33.541
542.799	48.068
546.766	16.214
550.732	27.262
554.696	2.272
558.658	17.939
562.618	37.287
566.576	42.576
570.533	33.138
574.488	40.17
578.44	38.002
582.391	48.086
586.341	85.908
590.288	67.686
594.233	70.769
598.177	43.604
602.119	72.355
606.059	134.492
609.997	256.18
613.933	685.064
617.868	1550.81
621.801	1391.42
625.731	757.052
629.66	599.664
633.588	1043.25
637.513	2435.82
641.437	2061.37
645.358	685.092
649.278	285.698
653.196	250.841
657.113	209.329
661.027	93.927
664.94	126.377
668.851	64.013
672.76	52.915
676.667	14.839
680.572	23.29
684.476	72.586
688.378	0.034
692.278	44.874
696.176	0.121
700.072	41.264
703.967	24.766
707.86	50.261
711.751	0.005
715.64	22.004
719.527	47.919
723.413	31.634
727.297	31.832
731.179	79.607
735.059	6.418
738.937	29.118
742.814	43.794
746.689	8.441
750.562	11.055
754.433	14.638
758.303	20.196
762.17	36.724
766.036	15.223
769.901	41.698
773.763	51.152
777.624	24.55
781.482	20.909
785.339	20.246
789.195	52.563
793.048	36.861
796.9	2.861
800.75	15.378
804.598	31.578
808.445	61.712
812.289	22.816
816.132	3.9
819.973	46.962
823.813	32.989
827.65	12.001
831.486	33.507
835.32	51.466
839.152	2.591
842.983	42.821
846.812	8.268
850.639	45.43
854.464	34.289
858.288	31.806
862.11	34.661
865.93	2.167
869.748	1.646
873.564	1.537
877.379	6.739
881.192	16.374
885.004	24.007
888.813	60.557
892.621	0.384
896.427	41.196
900.232	82.876
904.034	57.487
907.835	49.335
911.634	23.449
915.432	61.924
919.227	66.84
923.021	48.775
926.813	61.205
930.604	80.239
934.393	58.252
938.18	78.294
941.965	67.38
945.749	46.499
949.53	91.152
953.311	125.662
957.089	133.766
960.866	151.352
964.641	171.616
968.414	170.396
972.185	215.727
975.955	353.886
979.723	406.427
983.49	648.88
987.254	828.381
991.017	1677.76
994.779	4684.36
998.538	27498
1002.3	46907.1
1006.05	9459.88
1009.81	2489.73
1013.56	1161.65
1017.31	698.546
1021.06	526.56
1024.81	363.649
1028.55	304.737
1032.3	202.765
1036.04	189.016
1039.78	129.317
1043.52	122.607
1047.26	80.06
1050.99	49.571
1054.73	55.134
1058.46	59.767
1062.19	88.481
1065.92	41.244
1069.65	3.944
1073.37	25.092
1077.1	43.981
1080.82	27.94
1084.54	30.375
1088.26	0.997
1091.97	33.714
1095.69	96.842
1099.4	126.009
1103.12	223.224
1106.83	536.488
1110.54	1009.81
1114.24	818.694
1117.95	345.107
1121.65	169.546
1125.35	106.687
1129.06	103.216
1132.75	168.297
1136.45	195.92
1140.15	247.541
1143.84	396.631
1147.53	599.033
1151.22	1095.78
1154.91	1992.59
1158.6	3613.83
1162.28	4373.67
1165.97	2733.5
1169.65	1367.3
1173.33	661.149
1177.01	447.287
1180.69	299.244
1184.36	252.135
1188.04	192.472
1191.71	119.62
1195.38	112.772
1199.05	30.133
1202.71	61.641
1206.38	60.285
1210.04	32.213
1213.71	24.757
1217.37	23.803
1221.03	4.972
1224.68	48.016
1228.34	8.44
1231.99	25.471
1235.65	26.644
1239.3	53.232
1242.95	14.99
1246.59	31.751
1250.24	43.511
1253.88	86.27
1257.53	5.983
1261.17	8.839
1264.81	63.543
1268.45	41.177
1272.08	28.79
1275.72	23.466
1279.35	9.998
1282.98	37.49
1286.61	18.96
1290.24	52.659
1293.87	42.594
1297.49	10.748
1301.11	7.824
1304.73	53.847
1308.36	41.793
1311.97	7.695
1315.59	77.548
1319.2	12.345
1322.82	41.097
1326.43	87.798
1330.04	9.449
1333.65	5.04
1337.26	24.447
1340.86	5.976
1344.47	17.352
1348.07	32.685
1351.67	67.94
1355.27	16.141
1358.87	31.306
1362.46	40.442
1366.06	20.374
1369.65	8.508
1373.24	31.209
1376.83	21.539
1380.42	26.52
1384	78.506
1387.59	82.74
1391.17	71.937
1394.75	37.523
1398.33	43.619
1401.91	41.916
1405.49	44.079
1409.06	65.951
1412.64	57.627
1416.21	25.307
1419.78	41.617
1423.35	63.417
1426.91	87.417
1430.48	118.163
1434.05	107.366
1437.61	84.314
1441.17	76.066
1444.73	99.208
1448.29	140.501
1451.84	132.292
1455.4	95.031
1458.95	114.801
1462.5	191.301
1466.05	102.346
1469.6	156.55
1473.15	60.374
1476.69	78.313
1480.24	105.255
1483.78	29.692
1487.32	54.49
1490.86	94.538
1494.39	59.633
1497.93	74.902
1501.46	31.513
1505	23.636
1508.53	72.278
1512.06	94.606
1515.59	52.977
1519.11	44.896
1522.64	22.442
