Measurement: Raman, 514 nm, ccw, Raman Data Processed
Mineral: Celestine
Rruff sample: R050008
Ideal chemistry: SrSO_4_
Locality: Scofield Quarry, Maybee, Monroe County, Michigan, USA
Source: Eugene Schlepp
Description: Pale blue tabular crystals
Measured chemistry: Sr_1.00_S_1.00_O_4_
Pin_id: M00186
Orientation: Laser parallel to c* (0 0 1). Fiducial mark perpendicular to laser is parallel to -a [-1 0 0]
Raman shift (cm-1)	intensity
53.401	0
57.617	38.888
61.83	32.63
66.041	20.973
70.25	28.878
74.456	18.279
78.661	6.347
82.863	15.006
87.064	140.937
91.262	156.923
95.458	140.957
99.652	109.665
103.843	49.84
108.033	107.075
112.22	192.65
116.406	82.657
120.589	98.028
124.77	171.096
128.949	203.904
133.126	108.764
137.301	60.099
141.473	30.743
145.644	19.01
149.812	37.917
153.979	51.684
158.143	42.161
162.305	53.09
166.465	118.019
170.623	174.618
174.778	101.721
178.932	55.999
183.083	49.531
187.233	41.397
191.38	43.234
195.525	93.061
199.669	148.752
203.81	89.408
207.949	30.973
212.085	8.508
216.22	12.014
220.353	1.796
224.483	0.344
228.612	6.064
232.738	7.503
236.863	5.048
240.985	6.37
245.105	4.755
249.223	2.665
253.339	4.041
257.453	0.201
261.565	8.613
265.675	2.515
269.783	3.586
273.888	5.68
277.992	5.553
282.093	1.455
286.193	3.309
290.29	3.119
294.386	7.111
298.479	3.613
302.57	5.278
306.659	12.869
310.746	10.308
314.831	25.684
318.914	12.997
322.995	2.244
327.074	13.452
331.151	18.634
335.226	14.796
339.299	11.934
343.37	23.051
347.438	12.147
351.505	24.233
355.57	22.31
359.632	26.379
363.693	26.439
367.751	28.495
371.808	32.546
375.862	38.452
379.914	42.321
383.965	50.022
388.013	41.317
392.06	44.283
396.104	62.766
400.146	70.597
404.186	85.431
408.225	73.546
412.261	77.34
416.295	95.359
420.327	119.065
424.357	147.52
428.386	181.139
432.412	227.767
436.436	311.419
440.458	481.966
444.478	922.645
448.496	2107.35
452.513	5357.04
456.527	9894.32
460.539	16273.1
464.549	7467.86
468.557	2452.3
472.563	1058.17
476.567	578.094
480.57	363.004
484.57	260.906
488.568	193.865
492.564	154.858
496.558	147.753
500.551	104.751
504.541	94.758
508.529	84.773
512.515	55.802
516.5	65.874
520.482	51.964
524.462	59.138
528.441	28.263
532.417	20.353
536.391	29.567
540.364	26.759
544.334	22.987
548.303	34.253
552.269	15.522
556.234	35.083
560.197	12.436
564.157	1.132
568.116	19.661
572.073	18.263
576.027	21.616
579.98	12.479
583.931	8.003
587.88	13.612
591.827	30.649
595.772	42.552
599.715	74.64
603.656	90.247
607.595	149.098
611.532	361.677
615.468	1223.53
619.401	2198.29
623.332	1145.87
627.262	548.47
631.189	471.01
635.115	1118.31
639.039	1908.05
642.96	643.719
646.88	204.067
650.798	99.21
654.714	89.939
658.628	57.547
662.54	28.136
666.45	19.171
670.358	8.299
674.264	21.286
678.169	0.828
682.071	2.508
685.972	17.781
689.87	4.4
693.767	8.961
697.662	5.758
701.555	0.368
705.446	11.214
709.335	0.906
713.222	6.928
717.107	18.469
720.99	20.825
724.872	8.175
728.751	9.065
732.629	3.359
736.504	7.627
740.378	22.07
744.25	20.59
748.12	0.683
751.988	13.933
755.854	10.056
759.719	22.145
763.581	26.207
767.442	7.24
771.3	10.244
775.157	15.219
779.012	12.168
782.865	10.907
786.716	7.032
790.565	16.801
794.413	3.609
798.258	11.388
802.102	4.871
805.943	8.825
809.783	16.496
813.621	5.14
817.457	4.76
821.292	0.351
825.124	1.898
828.954	6.589
832.783	12.875
836.61	5.232
840.435	9.613
844.258	8.042
848.079	11.238
851.898	0.466
855.715	4.362
859.531	4.203
863.345	10.909
867.157	14.783
870.967	10.15
874.775	4.829
878.581	8.446
882.386	1.257
886.188	12.956
889.989	4.13
893.788	6.297
897.585	17.604
901.38	13.716
905.174	25.516
908.965	38.854
912.755	38.681
916.543	32.262
920.329	43.1
924.113	47.694
927.895	44.38
931.676	49.238
935.454	56.129
939.231	52.279
943.006	50.14
946.78	75.765
950.551	103.63
954.32	108.173
958.088	106.052
961.854	115.786
965.618	135.446
969.38	186.497
973.141	340.753
976.9	379.199
980.656	498.188
984.411	755.77
988.165	1135.59
991.916	2507.82
995.665	10289
999.413	60965.7
1003.16	16932.3
1006.9	3729.93
1010.65	1511.65
1014.39	870.769
1018.12	555.31
1021.86	413.657
1025.6	326.548
1029.33	256.784
1033.06	216.491
1036.79	164.828
1040.52	133.008
1044.25	113.117
1047.97	94.274
1051.69	85.066
1055.41	82.724
1059.13	56.578
1062.85	47.312
1066.57	53.993
1070.28	46.714
1073.99	37.486
1077.7	29.297
1081.41	22.151
1085.12	6.048
1088.82	32.993
1092.52	75.98
1096.22	68.005
1099.92	98.075
1103.62	237.208
1107.32	546.385
1111.01	659.606
1114.7	289.865
1118.39	117.166
1122.08	70.506
1125.77	38.071
1129.45	49.502
1133.14	78.979
1136.82	121.516
1140.5	165.1
1144.18	254.73
1147.85	398.418
1151.53	775.158
1155.2	1527.94
1158.87	2293.75
1162.54	1806.01
1166.21	881.901
1169.88	474.837
1173.54	257.816
1177.2	160.89
1180.86	103.496
1184.52	50.339
1188.18	41.439
1191.83	26.923
1195.49	18.993
1199.14	5.799
1202.79	15.748
1206.44	6.256
1210.08	9.54
1213.73	9.803
1217.37	19.362
1221.01	21.862
1224.65	12.453
1228.29	17.301
1231.93	6.632
1235.56	9.157
1239.19	11.599
1242.83	31.403
1246.46	42.019
1250.08	28.579
1253.71	43.441
1257.33	31.11
1260.96	5.584
1264.58	6.152
1268.19	6.339
1271.81	3.191
1275.43	21.748
1279.04	20.23
1282.65	11.753
1286.27	12.373
1289.87	24.869
1293.48	39.317
1297.09	3.752
1300.69	2.156
1304.29	7.458
1307.89	5.914
1311.49	4.275
1315.09	9.586
1318.68	14.868
1322.28	2.869
1325.87	9.355
1329.46	7.524
1333.05	15.637
1336.63	9.718
1340.22	7.763
1343.8	8.232
1347.38	9.344
1350.96	10.233
1354.54	6.119
1358.12	12.978
1361.69	5.8
1365.26	12.595
1368.83	3.629
1372.4	8.102
1375.97	1.828
1379.54	17.131
1383.1	13.764
1386.66	9.356
1390.23	5.93
1393.79	6.49
1397.34	6.837
1400.9	19.361
1404.45	11.857
1408.01	25.339
1411.56	28.812
1415.11	25.72
1418.66	28.161
1422.2	29.756
1425.75	39.88
1429.29	16.119
1432.83	27.015
1436.37	25.773
1439.91	40.397
1443.44	43.292
1446.98	20.021
1450.51	56.168
1454.04	14.147
1457.57	48.074
1461.1	50.528
1464.63	41.042
1468.15	39.384
1471.67	37.771
1475.19	25.37
1478.71	34.42
1482.23	35.476
1485.75	1.324
1489.26	10.32
1492.78	14.27
1496.29	11.231
1499.8	5.474
1503.31	22.485
1506.81	0.093
1510.32	16.54
1513.82	0.167
1517.32	0
