Measurement: Raman, 514 nm, ccw, Raman Data Processed
Mineral: Celestine
Rruff sample: R050008
Ideal chemistry: SrSO_4_
Locality: Scofield Quarry, Maybee, Monroe County, Michigan, USA
Source: Eugene Schlepp
Description: Pale blue tabular crystals
Measured chemistry: Sr_1.00_S_1.00_O_4_
Pin_id: M00186
Orientation: Laser parallel to c* (0 0 1). Fiducial mark perpendicular to laser is parallel to -a [-1 0 0]
Raman shift (cm-1)	intensity
54.807	0
59.021	17.452
63.234	25.889
67.444	23.704
71.652	43.061
75.858	22.765
80.062	19.114
84.264	8.855
88.463	0.283
92.661	7.668
96.856	10.675
101.049	19.222
105.24	41.38
109.429	208.577
113.616	110.836
117.8	101.148
121.983	186.446
126.163	209.761
130.342	101.051
134.518	38.287
138.692	41.616
142.864	8.227
147.034	11.764
151.201	30.031
155.367	23.552
159.53	24.946
163.692	25.596
167.851	41.12
172.008	56.298
176.163	40.197
180.316	20.195
184.467	43.584
188.616	74.058
192.762	119.811
196.907	260.481
201.049	288.212
205.189	173.944
209.328	79.646
213.464	38.214
217.598	22.729
221.73	11.636
225.86	11.334
229.988	11.843
234.113	6.153
238.237	11.181
242.359	10.993
246.478	12.677
250.595	9.103
254.711	2.339
258.824	9.763
262.935	8.639
267.044	0.979
271.151	5.605
275.256	4.32
279.359	2.977
283.46	4.708
287.559	0.38
291.656	3.033
295.75	2.669
299.843	2.291
303.933	13.9
308.022	9.431
312.108	9.93
316.193	5.485
320.275	13.99
324.355	8.516
328.434	3.997
332.51	17.463
336.584	1.916
340.656	3.345
344.726	8.244
348.794	14.173
352.86	10.555
356.924	10.915
360.986	17.271
365.046	1.613
369.104	11.946
373.159	13.274
377.213	34.6
381.265	8.924
385.315	12.187
389.362	19.555
393.408	28.685
397.451	22.849
401.493	21.037
405.533	28.258
409.57	33.497
413.606	47.674
417.639	26.765
421.671	51.902
425.7	61.454
429.728	78.5
433.753	95.544
437.777	170.68
441.798	290.664
445.818	668.809
449.835	2232.98
453.851	4712.62
457.864	2644.75
461.876	1541.91
465.885	655.141
469.893	278.961
473.898	154.21
477.902	103.467
481.903	55.36
485.903	48.599
489.9	20.866
493.896	21.158
497.889	19.435
501.881	22.401
505.87	1.94
509.858	14.377
513.844	20.535
517.827	6.846
521.809	14.062
525.789	12.376
529.766	631.735
533.742	20.103
537.716	15.476
541.688	2.147
545.657	8.327
549.625	21.756
553.591	3.191
557.555	8.568
561.517	25.251
565.477	3.674
569.435	9.208
573.391	12.692
577.345	13.569
581.297	26.766
585.248	27.251
589.196	41.952
593.142	34.495
597.086	40.916
601.029	71.388
604.969	102.963
608.908	184.603
612.844	433.648
616.779	1446.22
620.712	1588.98
624.642	710.473
628.571	469.236
632.498	779.602
636.423	2351.16
640.346	2476.41
644.267	713.959
648.186	256.738
652.103	160.196
656.019	109.739
659.932	91.261
663.843	40.53
667.753	32.319
671.66	17.359
675.566	13.772
679.47	30.163
683.372	32.881
687.271	14.165
691.169	5.723
695.065	12.886
698.96	8.048
702.852	9.703
706.742	4.177
710.631	17.764
714.517	9.372
718.402	9.401
722.284	3.452
726.165	18.345
730.044	4.365
733.921	4.895
737.796	7.719
741.669	16.608
745.54	9.427
749.41	17.218
753.277	17.983
757.143	13.724
761.006	6.437
764.868	2.88
768.728	5.763
772.586	0.377
776.442	3.957
780.297	1.49
784.149	23.029
787.999	1.527
791.848	2.004
795.695	2.428
799.54	3.176
803.382	13.186
807.224	6.525
811.063	0.837
814.9	6.12
818.736	0.383
822.569	2.384
826.401	6.811
830.231	15.037
834.059	6.056
837.885	0.123
841.709	12.162
845.532	13.16
849.352	0.158
853.171	3.873
856.988	4.008
860.803	15.168
864.616	7.717
868.427	8.556
872.236	2.119
876.044	1.16
879.849	2.617
883.653	13.775
887.455	8.002
891.255	4.523
895.054	6.245
898.85	17.663
902.645	15.291
906.438	28.008
910.229	9.67
914.018	25.162
917.805	31.213
921.59	31.73
925.374	30.075
929.156	26.617
932.936	31.979
936.714	51.736
940.49	53.316
944.264	54.692
948.037	68.847
951.808	75.138
955.577	84.959
959.344	112.663
963.109	118.132
966.872	142.937
970.634	213.679
974.394	376.924
978.152	397.397
981.908	530.127
985.663	780.026
989.415	1415.45
993.166	3603.49
996.915	21623.2
1000.66	54991.2
1004.41	9170.11
1008.15	2465.74
1011.89	1157.76
1015.63	731.386
1019.37	469.093
1023.11	391.391
1026.84	304.639
1030.57	246.143
1034.31	204.841
1038.03	143.866
1041.76	109.981
1045.49	110.541
1049.21	90.215
1052.93	88.95
1056.65	92.742
1060.37	74.576
1064.09	43.462
1067.8	30.406
1071.52	23.416
1075.23	26.481
1078.94	31.6
1082.64	21.769
1086.35	31.987
1090.05	47.26
1093.76	59.583
1097.46	123.046
1101.16	238.475
1104.85	532.952
1108.55	1045.47
1112.24	896.047
1115.93	325.666
1119.62	161.329
1123.31	122.285
1127	90.091
1130.68	152.923
1134.37	218.812
1138.05	286.751
1141.72	418.735
1145.4	611.835
1149.08	1084.91
1152.75	2111.03
1156.42	3844.34
1160.1	4762.55
1163.76	2886.81
1167.43	1388.11
1171.1	711.454
1174.76	377.258
1178.42	262.68
1182.08	189.491
1185.74	109.808
1189.4	82.427
1193.05	68.44
1196.7	40.221
1200.36	24.493
1204.01	27.143
1207.65	0.182
1211.3	31.503
1214.94	19.618
1218.59	15.327
1222.23	15.289
1225.87	12.732
1229.5	6.671
1233.14	9.066
1236.77	7.431
1240.41	31.293
1244.04	39.341
1247.66	32.314
1251.29	20.263
1254.92	28.231
1258.54	13.238
1262.16	22.234
1265.78	19.253
1269.4	1.284
1273.02	2.333
1276.63	18.521
1280.25	22.658
1283.86	23.673
1287.47	2.347
1291.08	22.586
1294.68	10.493
1298.29	4.466
1301.89	12.301
1305.49	16.128
1309.09	26.952
1312.69	27.729
1316.29	1.503
1319.88	21.24
1323.47	4.038
1327.06	11.357
1330.65	11.725
1334.24	8.118
1337.83	0.568
1341.41	8.065
1344.99	28.396
1348.57	15.826
1352.15	9.253
1355.73	20.923
1359.31	11.272
1362.88	5.6
1366.45	3.142
1370.02	19.16
1373.59	12.182
1377.16	0.32
1380.73	31.358
1384.29	52.479
1387.85	11.597
1391.41	16.71
1394.97	24.487
1398.53	30.568
1402.09	24.547
1405.64	26.604
1409.19	27.438
1412.74	28.482
1416.29	40.343
1419.84	35.455
1423.38	46.313
1426.93	38.58
1430.47	34.885
1434.01	37.374
1437.55	17.502
1441.09	25.508
1444.62	16.012
1448.16	35.629
1451.69	44.807
1455.22	33.222
1458.75	39.327
1462.28	22.264
1465.8	22.888
1469.33	23.611
1472.85	24.128
1476.37	30.791
1479.89	14.343
1483.4	25.239
1486.92	23.178
1490.43	32.093
1493.95	19.217
1497.46	34.444
1500.97	37.965
1504.47	32.484
1507.98	14.346
1511.48	5.502
