Measurement: Raman, 514 nm, ccw, Raman Data Processed
Mineral: Celestine
Rruff sample: R050008
Ideal chemistry: SrSO_4_
Locality: Scofield Quarry, Maybee, Monroe County, Michigan, USA
Source: Eugene Schlepp
Description: Pale blue tabular crystals
Measured chemistry: Sr_1.00_S_1.00_O_4_
Pin_id: M00186
Orientation: Laser parallel to c* (0 0 1). Fiducial mark perpendicular to laser is parallel to -a [-1 0 0]
Raman shift (cm-1)	intensity
54.807	0
59.021	33.39
63.234	25.963
67.444	25.052
71.652	22.297
75.858	4.742
80.062	8.733
84.264	110.597
88.463	418.687
92.661	356.906
96.856	345.283
101.049	203.958
105.24	132.881
109.429	261.742
113.616	164.529
117.8	57.313
121.983	55.045
126.163	63.671
130.342	46.245
134.518	44.042
138.692	22.501
142.864	27.766
147.034	30.226
151.201	35.457
155.367	47.735
159.53	75.758
163.692	126.183
167.851	298.51
172.008	313.667
176.163	135.126
180.316	82.405
184.467	46.735
188.616	37.559
192.762	35.311
196.907	56.094
201.049	55.647
205.189	34.674
209.328	6.426
213.464	4.552
217.598	3.54
221.73	3.466
225.86	5.411
229.988	8.391
234.113	2.64
238.237	2.661
242.359	6.147
246.478	11.935
250.595	6.019
254.711	11.997
258.824	10.917
262.935	6.823
267.044	8.711
271.151	2.421
275.256	3.421
279.359	14.24
283.46	4.037
287.559	15.813
291.656	8.569
295.75	3.7
299.843	6
303.933	1.665
308.022	0.708
312.108	1.879
316.193	11.423
320.275	11.931
324.355	12.43
328.434	9.916
332.51	4.386
336.584	5.841
340.656	0.273
344.726	5.676
348.794	12.063
352.86	4.437
356.924	13.801
360.986	0.158
365.046	12.497
369.104	6.819
373.159	15.013
377.213	13.296
381.265	12.216
385.315	7.845
389.362	11.66
393.408	5.863
397.451	1.197
401.493	3.12
405.533	11.129
409.57	0.218
413.606	2.176
417.639	20.052
421.671	25.274
425.7	30.438
429.728	41.629
433.753	66.532
437.777	140.661
441.798	234.65
445.818	588.809
449.835	1993.87
453.851	4033.02
457.864	2250.09
461.876	1368.01
465.885	585.113
469.893	242.111
473.898	139.045
477.902	79.177
481.903	47.347
485.903	35.517
489.9	31.699
493.896	28.856
497.889	30.003
501.881	28.027
505.87	26.611
509.858	17.773
513.844	20.662
517.827	28.808
521.809	34.043
525.789	28.655
529.766	21.82
533.742	21.993
537.716	10.96
541.688	13.21
545.657	8.141
549.625	13.572
553.591	4.886
557.555	19.191
561.517	9.563
565.477	14.416
569.435	6.053
573.391	20.372
577.345	25.813
581.297	51.177
585.248	42.54
589.196	44.079
593.142	71.698
597.086	83.258
601.029	125.513
604.969	185.006
608.908	322.366
612.844	875.793
616.779	2721.16
620.712	2723.64
624.642	1172
628.571	584.369
632.498	654.735
636.423	1459.71
640.346	1293.31
644.267	325.667
648.186	88.016
652.103	55.361
656.019	23.7
659.932	31.499
663.843	17.838
667.753	1.829
671.66	24.501
675.566	10.904
679.47	16.435
683.372	23.526
687.271	4.095
691.169	42.463
695.065	12.675
698.96	12.217
702.852	6.471
706.742	3.743
710.631	15.52
714.517	3.769
718.402	8.439
722.284	1.834
726.165	6.045
730.044	3.376
733.921	8.533
737.796	14.854
741.669	4.986
745.54	0.147
749.41	10.191
753.277	2.266
757.143	1.315
761.006	10.334
764.868	3.339
768.728	5.329
772.586	1.307
776.442	15.268
780.297	14.225
784.149	8.153
787.999	2.077
791.848	1.981
795.695	3.859
799.54	11.722
803.382	6.574
807.224	11.414
811.063	5.243
814.9	12.057
818.736	10.851
822.569	12.614
826.401	16.388
830.231	6.151
834.059	4.1
837.885	11.614
841.709	12.275
845.532	11.086
849.352	9.493
853.171	9.951
856.988	11.557
860.803	2.105
864.616	1.372
868.427	16.823
872.236	7.242
876.044	8.106
879.849	7.43
883.653	9.679
887.455	3.944
891.255	24.473
895.054	31.877
898.85	33.975
902.645	36.023
906.438	31.473
910.229	48.984
914.018	54.398
917.805	48.812
921.59	58.229
925.374	74.589
929.156	80.045
932.936	63.514
936.714	79.99
940.49	84.415
944.264	99.296
948.037	92.608
951.808	114.118
955.577	137.639
959.344	146.17
963.109	184.713
966.872	212.805
970.634	291.373
974.394	474.955
978.152	480.551
981.908	651.084
985.663	934.137
989.415	1682.36
993.166	4357.78
996.915	26802.6
1000.66	59549.5
1004.41	9686.96
1008.15	2743.41
1011.89	1332.01
1015.63	843.434
1019.37	610.242
1023.11	458.64
1026.84	356.327
1030.57	298.207
1034.31	218.983
1038.03	184.829
1041.76	167.924
1045.49	132.256
1049.21	136.578
1052.93	127.093
1056.65	95.416
1060.37	87.92
1064.09	98.444
1067.8	80.689
1071.52	71.979
1075.23	65.298
1078.94	58.644
1082.64	63.02
1086.35	47.435
1090.05	70.893
1093.76	125.388
1097.46	89.916
1101.16	104.475
1104.85	196.062
1108.55	397.675
1112.24	360.315
1115.93	111.987
1119.62	41.731
1123.31	15.458
1127	10.21
1130.68	12.991
1134.37	9.802
1138.05	29.656
1141.72	22.557
1145.4	30.487
1149.08	67.464
1152.75	138.51
1156.42	278.561
1160.1	372.809
1163.76	265.913
1167.43	125.038
1171.1	57.605
1174.76	28.826
1178.42	24.218
1182.08	21.213
1185.74	2.903
1189.4	11.203
1193.05	7.545
1196.7	12.289
1200.36	6.709
1204.01	10.036
1207.65	9.587
1211.3	19.701
1214.94	27.173
1218.59	15.878
1222.23	27.177
1225.87	35.775
1229.5	21.77
1233.14	13.959
1236.77	25.376
1240.41	12.729
1244.04	23.52
1247.66	46.921
1251.29	45.304
1254.92	39.717
1258.54	28.246
1262.16	0.339
1265.78	14.086
1269.4	16.515
1273.02	25.024
1276.63	18.481
1280.25	13.094
1283.86	16.493
1287.47	6.888
1291.08	17.258
1294.68	1.62
1298.29	8.955
1301.89	0.724
1305.49	3.568
1309.09	11.806
1312.69	10.026
1316.29	19.228
1319.88	10.41
1323.47	6.426
1327.06	3.707
1330.65	12.298
1334.24	11.717
1337.83	23.32
1341.41	3.824
1344.99	0.371
1348.57	2.27
1352.15	9.822
1355.73	10.839
1359.31	3.248
1362.88	16.63
1366.45	4.502
1370.02	8.368
1373.59	17.342
1377.16	9.699
1380.73	29.717
1384.29	7.119
1387.85	8.511
1391.41	27.693
1394.97	15.209
1398.53	5.561
1402.09	23.894
1405.64	18.213
1409.19	24.486
1412.74	27.549
1416.29	30.245
1419.84	34.184
1423.38	22.145
1426.93	23.471
1430.47	22.022
1434.01	24.258
1437.55	28.629
1441.09	16.21
1444.62	37.516
1448.16	27.075
1451.69	28.509
1455.22	23.951
1458.75	34.819
1462.28	16.842
1465.8	30.678
1469.33	19.528
1472.85	23.092
1476.37	29.698
1479.89	14.277
1483.4	5.987
1486.92	17.899
1490.43	24.799
1493.95	23.762
1497.46	3.92
1500.97	19.291
1504.47	21.903
1507.98	5.569
1511.48	18.991
1514.99	12.973
