Measurement: Raman, 514 nm, ccw, Raman Data Processed
Mineral: Celestine
Rruff sample: R040007
Ideal chemistry: SrSO_4_
Locality: Coahuila, Mexico
Source: University of Arizona Mineral Museum
Description: Blue tabular crystals
Measured chemistry: Light bands: (Sr_0.95_Ba_0.04_Ca_0.01_)_Σ=1_S_1.00_O_4_; Dark bands: (Sr_0.99_Ba_0.01_)_Σ=1_S_1.00_O_4_; trace amounts of Ca
Pin_id: M00014
Orientation: Laser parallel to a* (1 0 0). Fiducial mark perpendicular to laser is parallel to b [0 1 0]
Raman shift (cm-1)	intensity
51.466	0
55.666	20.522
59.863	3.035
64.059	0.014
68.253	15.472
72.445	100.851
76.635	297.248
80.823	1014.11
85.009	2176.11
89.193	1169
93.375	421.644
97.554	250.888
101.732	181.595
105.908	196.694
110.082	180.136
114.254	226.938
118.424	311.038
122.592	292.38
126.758	285.01
130.922	204.857
135.083	132.887
139.243	106.97
143.401	105.044
147.557	92.164
151.711	100.345
155.863	104.829
160.013	120.139
164.161	240.566
168.308	360.618
172.452	251.036
176.594	142.094
180.734	100.068
184.872	95.064
189.008	63.157
193.143	59.229
197.275	45.721
201.405	62.541
205.534	51.148
209.66	42.639
213.784	31.675
217.907	32.753
222.027	30.95
226.146	26.776
230.263	32.858
234.377	24.844
238.49	28.171
242.601	31.848
246.709	28.648
250.816	18.553
254.921	4.55
259.024	16.629
263.125	6.78
267.224	23.001
271.321	18.287
275.416	12.63
279.51	9.977
283.601	0.543
287.69	16.932
291.778	3.439
295.863	20.979
299.947	8.449
304.029	14.15
308.108	13.777
312.186	3.432
316.262	12.117
320.336	14.83
324.408	0.432
328.478	19.331
332.546	7.887
336.612	17.897
340.677	14.694
344.739	10.492
348.799	3.33
352.858	14.169
356.915	3.98
360.969	5.111
365.022	1.208
369.073	5.293
373.122	1.629
377.169	15.559
381.215	23.504
385.258	24.508
389.299	7.168
393.339	13.705
397.376	24.791
401.412	50.909
405.446	45.051
409.478	39.225
413.508	57.42
417.536	60.726
421.562	84.96
425.586	105.267
429.609	147.956
433.629	213.801
437.648	409.1
441.665	779.051
445.68	2276.38
449.693	7714.75
453.704	9852.48
457.713	3287.88
461.721	1206.92
465.726	593.205
469.73	333.493
473.731	201.685
477.731	130.146
481.729	73.394
485.725	80.799
489.72	25.246
493.712	45.679
497.703	30.582
501.691	34.089
505.678	22.901
509.663	31.249
513.646	24.426
517.627	48.283
521.607	18.62
525.584	31.999
529.56	28.155
533.534	16.096
537.506	33.247
541.476	19.31
545.444	0.533
549.41	29.093
553.375	30.598
557.337	18.354
561.298	14.733
565.257	14.508
569.214	20.847
573.17	17.406
577.123	3.463
581.075	21.741
585.024	2.61
588.972	4.886
592.918	19.627
596.863	18.746
600.805	47.31
604.746	86.724
608.685	197.343
612.621	470.353
616.557	1397.75
620.49	1269.13
624.421	815.482
628.351	259.757
632.279	157.081
636.205	196.851
640.129	159.425
644.051	74.699
647.972	74.031
651.89	83.273
655.807	109.96
659.722	71.176
663.636	46.376
667.547	14.752
671.457	35.921
675.365	4.931
679.271	8.857
683.175	30.232
687.077	40.227
690.978	7.208
694.877	4.158
698.774	2.126
702.669	12.127
706.562	10.719
710.454	10.445
714.344	3.939
718.232	8.685
722.118	27.534
726.002	19.409
729.885	17.059
733.766	5.508
737.645	19.253
741.522	16.36
745.397	18.34
749.271	5.168
753.143	7.285
757.013	27.715
760.881	14.123
764.748	2.492
768.613	16.855
772.476	11.182
776.337	35.489
780.196	2.223
784.054	41.028
787.91	3.743
791.764	4.456
795.616	8.633
799.467	20.791
803.316	32.934
807.163	5.059
811.008	29.162
814.851	22.246
818.693	16.318
822.533	43.351
826.371	10.355
830.208	3.072
834.042	2.339
837.875	20.54
841.706	8.513
845.536	11.318
849.363	8.591
853.189	13.188
857.013	8.891
860.836	13.772
864.656	7.291
868.475	19.174
872.292	3.919
876.108	8.144
879.922	22.732
883.733	16.602
887.544	24.237
891.352	30.124
895.159	38.899
898.964	49.587
902.767	67.825
906.568	77.708
910.368	32.62
914.166	44.613
917.962	44.954
921.757	27.795
925.55	55.805
929.341	77.835
933.13	73.531
936.918	63.047
940.703	82.711
944.488	49.749
948.27	35.635
952.051	109.779
955.83	112.863
959.607	139.029
963.383	148.213
967.156	164.998
970.928	262.232
974.699	357.293
978.468	408.566
982.234	568.862
986	826.142
989.763	1489.53
993.525	4013.93
997.285	24076.4
1001.04	45864.2
1004.8	6263.68
1008.55	1912.92
1012.31	938.72
1016.06	624.113
1019.81	415.322
1023.56	283.32
1027.31	260.682
1031.05	214.092
1034.79	157.469
1038.53	122.647
1042.27	92.316
1046.01	95.225
1049.75	98.503
1053.48	56.419
1057.22	80.413
1060.95	57.435
1064.68	52.478
1068.4	62.763
1072.13	71.861
1075.86	100.479
1079.58	100.861
1083.3	104.756
1087.02	169.956
1090.74	368.184
1094.45	723.434
1098.17	409.705
1101.88	325.993
1105.59	587.299
1109.3	1166.68
1113.01	1070.03
1116.71	463.401
1120.42	237.785
1124.12	144.937
1127.82	56.628
1131.52	46.071
1135.22	32.587
1138.91	26.073
1142.61	21.554
1146.3	12.836
1149.99	50.654
1153.68	54.152
1157.37	92.662
1161.06	72.189
1164.74	32.541
1168.42	6.9
1172.1	25.847
1175.78	17.57
1179.46	5.037
1183.14	8.959
1186.81	12.665
1190.48	21.689
1194.15	14.035
1197.83	10.363
1201.49	16.702
1205.16	18.295
1208.82	1.775
1212.49	33.182
1216.15	20.635
1219.81	40.386
1223.46	30.763
1227.12	0.826
1230.78	15.162
1234.43	54.089
1238.08	18.4
1241.73	11.701
1245.38	18.018
1249.03	37.309
1252.67	16.595
1256.31	20.253
1259.95	13.705
1263.6	41.015
1267.23	23.309
1270.87	29.555
1274.51	44.79
1278.14	52.995
1281.77	12.175
1285.4	23.317
1289.03	12.537
1292.66	55.186
1296.28	20.202
1299.91	26.192
1303.53	46.16
1307.15	1.098
1310.77	45.998
1314.38	12.336
1318	21.368
1321.61	7.332
1325.23	11.452
1328.84	1.818
1332.45	8.707
1336.06	21.321
1339.66	12.916
1343.27	8.564
1346.87	14.248
1350.47	33.283
1354.07	25.797
1357.67	7.297
1361.26	40.569
1364.86	18.498
1368.45	19.479
1372.04	26.639
1375.63	3.606
1379.22	18.978
1382.81	65.261
1386.39	11.987
1389.98	48.903
1393.56	18.72
1397.14	40.563
1400.72	53.373
1404.3	43.084
1407.87	10.811
1411.45	59.387
1415.02	33.086
1418.59	42.579
1422.16	33.68
1425.73	39.686
1429.29	43.853
1432.86	102.183
1436.42	62.386
1439.98	39.741
1443.54	56.946
1447.1	70.566
1450.66	98.488
1454.21	103.469
1457.77	59.499
1461.32	57.468
1464.87	47.036
1468.42	48.491
1471.96	85.001
1475.51	25.494
1479.06	52.976
1482.6	51.527
1486.14	54.405
1489.68	50.375
1493.22	65.43
1496.75	48.623
1500.29	23.033
1503.82	6.272
1507.35	5.764
1510.88	56.232
1514.41	0.66
1517.94	37.161
1521.46	63.789
1524.99	0
