Measurement: Raman, 514 nm, ccw, Raman Data Processed
Mineral: Celestine
Rruff sample: R050008
Ideal chemistry: SrSO_4_
Locality: Scofield Quarry, Maybee, Monroe County, Michigan, USA
Source: Eugene Schlepp
Description: Pale blue tabular crystals
Measured chemistry: Sr_1.00_S_1.00_O_4_
Pin_id: M00310
Orientation: Laser parallel to -a* (-1 0 0). Fiducial mark perpendicular to laser is parallel to b [0 1 0]
Raman shift (cm-1)	intensity
50.167	0
54.392	69.312
58.614	143.756
62.834	165.513
67.052	208.849
71.268	69.153
75.481	51.612
79.693	17.949
83.902	2.903
88.108	202.71
92.313	252.688
96.515	273.889
100.715	207.073
104.913	116.135
109.109	92.286
113.303	44.325
117.494	45.613
121.683	38.76
125.87	40.725
130.055	71.236
134.237	46.925
138.417	46.231
142.596	41.207
146.771	5.027
150.945	11.199
155.117	11.928
159.286	20.36
163.453	16.213
167.618	93.229
171.781	226.019
175.941	147.011
180.1	55.331
184.256	16.2
188.41	8.881
192.562	10.276
196.711	5.205
200.859	19.047
205.004	14.055
209.147	2.285
213.288	23.878
217.427	8.846
221.564	2.906
225.698	9.726
229.83	7.048
233.96	7.002
238.088	0.151
242.214	21.131
246.338	13.897
250.459	15.459
254.579	10.748
258.696	26.999
262.811	17.011
266.924	14.729
271.035	28.157
275.143	30.361
279.25	39.13
283.354	46.863
287.456	45.174
291.556	28.269
295.654	54.909
299.75	49.083
303.843	30.328
307.935	35.627
312.024	41.115
316.111	39.96
320.196	34.899
324.279	49.133
328.36	31.517
332.439	32.375
336.516	52.648
340.59	50.853
344.662	48.707
348.733	49.965
352.801	21.734
356.867	42.248
360.931	29.176
364.992	31.295
369.052	40.382
373.11	27.892
377.165	29.302
381.218	14.489
385.27	17.594
389.319	24.767
393.366	2.342
397.411	23.8
401.454	18.69
405.495	17.937
409.533	35.388
413.57	28.684
417.604	17.048
421.637	11.934
425.667	25.566
429.695	49.978
433.721	26.201
437.745	62.577
441.767	113.046
445.787	177.475
449.805	512.868
453.821	1853.3
457.834	2195.9
461.846	796.491
465.856	399.857
469.863	176.231
473.868	93.693
477.872	67.119
481.873	36.51
485.872	19.969
489.869	31.444
493.864	1.89
497.857	23.45
501.848	12.054
505.837	23.617
509.824	1.846
513.809	15.528
517.792	13.953
521.772	9.863
525.751	1.1
529.728	27.684
533.702	11.267
537.675	17.865
541.645	26.529
545.613	18.158
549.58	9.031
553.544	0.024
557.507	7.703
561.467	20.74
565.425	2.642
569.381	0.256
573.335	32.176
577.288	3.083
581.238	6.031
585.186	26.633
589.132	37.045
593.076	62.936
597.018	67.936
600.958	62.955
604.896	87.888
608.832	140.927
612.766	286.614
616.698	797.558
620.628	2158.54
624.556	1403.48
628.482	755.418
632.405	391.475
636.327	491.417
640.247	1093.38
644.165	408.324
648.081	129.733
651.995	42.674
655.907	56.695
659.817	15.867
663.725	10.771
667.63	23.662
671.534	13.595
675.436	27.571
679.336	2.134
683.234	10.43
687.13	1.752
691.024	11.073
694.916	9.058
698.806	6.987
702.694	2.038
706.58	4.694
710.464	23.089
714.346	20.171
718.226	0.922
722.105	1.851
725.981	18.65
729.855	12.437
733.727	5.213
737.597	2.557
741.466	3.817
745.332	7.892
749.196	11.588
753.059	6.272
756.919	10.941
760.778	4.598
764.634	8.758
768.489	21.853
772.341	13.453
776.192	12.04
780.041	18.616
783.887	1.18
787.732	26.731
791.575	22.27
795.416	10.798
799.255	4.685
803.092	3.808
806.927	11.291
810.76	1.238
814.591	26.216
818.421	17.66
822.248	16.094
826.073	2.52
829.897	11.934
833.718	4.822
837.538	4.46
841.356	1.855
845.171	5.835
848.985	2.436
852.797	18.671
856.607	6.289
860.415	8.452
864.221	17.274
868.025	0.196
871.828	9.552
875.628	23.973
879.426	6.092
883.223	13.206
887.018	6.289
890.81	22.244
894.601	19.384
898.39	16.405
902.177	33.527
905.962	31.605
909.745	25.656
913.526	21.782
917.306	17.108
921.083	41.232
924.859	44.378
928.632	27.49
932.404	42.651
936.174	31.702
939.942	54.876
943.708	35.059
947.472	65.232
951.235	49.969
954.995	61.163
958.754	81.383
962.51	95.291
966.265	97.531
970.018	126.767
973.769	191.028
977.518	260.263
981.265	316.543
985.011	510.123
988.754	743.885
992.496	1454.17
996.236	4443.75
999.974	37585.5
1003.71	14453.6
1007.44	2794.46
1011.18	1189.31
1014.91	655.293
1018.63	437.514
1022.36	317.005
1026.09	234.533
1029.81	182.138
1033.53	169.146
1037.25	131.764
1040.97	122.405
1044.68	125.082
1048.4	97.97
1052.11	91.069
1055.82	84.843
1059.53	73.657
1063.23	66.922
1066.94	60.778
1070.64	45.663
1074.34	27.573
1078.04	47.509
1081.74	57.467
1085.43	75.449
1089.12	176.453
1092.82	423.049
1096.51	356.096
1100.19	152.166
1103.88	127.269
1107.56	206.398
1111.25	244.27
1114.93	150.75
1118.61	71.962
1122.28	63.197
1125.96	18.454
1129.63	4.97
1133.3	6.334
1136.97	19.676
1140.64	23.045
1144.31	14.447
1147.97	44.092
1151.63	77.551
1155.29	132.396
1158.95	229.755
1162.61	223.303
1166.26	136.871
1169.92	89.462
1173.57	62.877
1177.22	27.816
1180.87	25.649
1184.51	9.319
1188.15	8.115
1191.8	1.456
1195.44	6.721
1199.08	16.901
1202.71	25.143
1206.35	0.476
1209.98	2.201
1213.61	7.87
1217.24	1.648
1220.87	18.817
1224.5	13.5
1228.12	42.208
1231.75	48.005
1235.37	18.714
1238.99	24.392
1242.6	14.073
1246.22	10.348
1249.83	48.411
1253.44	12.238
1257.05	24.817
1260.66	18.554
1264.27	22.706
1267.87	16.455
1271.48	15.239
1275.08	13.923
1278.68	10.698
1282.28	27.487
1285.87	35.166
1289.47	6.793
1293.06	8.039
1296.65	26.275
1300.24	52.897
1303.83	19.476
1307.41	13.169
1310.99	16.754
1314.58	9.695
1318.16	0.185
1321.73	0.767
1325.31	34.241
1328.89	20.64
1332.46	29.014
1336.03	33.374
1339.6	4.465
1343.17	5.543
1346.73	7.261
1350.3	14.929
1353.86	13.733
1357.42	44.035
1360.98	29.18
1364.54	29.304
1368.09	39.395
1371.65	3.542
1375.2	13.754
1378.75	23.743
1382.3	25.426
1385.85	12.123
1389.39	21.795
1392.93	31.417
1396.48	42.027
1400.02	32.276
1403.56	38.846
1407.09	45.129
1410.63	17.387
1414.16	22.878
1417.69	20.361
1421.22	7.223
1424.75	25.803
1428.27	35.575
1431.8	12.364
1435.32	44.458
1438.84	35.582
1442.36	54.646
1445.88	38.671
1449.4	37.475
1452.91	27.533
1456.42	20.435
1459.93	37.917
1463.44	19.334
1466.95	48.443
1470.45	50.351
1473.96	36.059
1477.46	62.945
1480.96	37.414
1484.46	54.999
1487.96	40.729
1491.45	5.641
1494.95	1.317
1498.44	20.537
1501.93	14.71
1505.42	22.748
1508.9	27.077
1512.39	36.905
1515.87	29.104
1519.36	0
