Measurement: Raman, 514 nm, ccw, Raman Data Processed
Mineral: Celestine
Rruff sample: R050008
Ideal chemistry: SrSO_4_
Locality: Scofield Quarry, Maybee, Monroe County, Michigan, USA
Source: Eugene Schlepp
Description: Pale blue tabular crystals
Measured chemistry: Sr_1.00_S_1.00_O_4_
Pin_id: M00310
Orientation: Laser parallel to -a* (-1 0 0). Fiducial mark perpendicular to laser is parallel to b [0 1 0]
Raman shift (cm-1)	intensity
50.167	0
54.392	108.011
58.614	164.82
62.834	272.753
67.052	345.253
71.268	138.142
75.481	155.798
79.693	55.271
83.902	32.638
88.108	255.123
92.313	236.052
96.515	113.942
100.715	82.664
104.913	15.602
109.109	53.137
113.303	33.977
117.494	67.742
121.683	97.784
125.87	303.026
130.055	560.01
134.237	679.143
138.417	330.579
142.596	187.567
146.771	103.885
150.945	54.429
155.117	43.835
159.286	44.986
163.453	33.237
167.618	126.645
171.781	278.632
175.941	153.934
180.1	92.81
184.256	104.421
188.41	36.511
192.562	32.863
196.711	15.509
200.859	14.017
205.004	11.047
209.147	10.433
213.288	11.189
217.427	11.085
221.564	14.721
225.698	11.97
229.83	0.093
233.96	3.799
238.088	20.788
242.214	17.428
246.338	34.257
250.459	31.423
254.579	38.417
258.696	28.118
262.811	42.451
266.924	73.228
271.035	72.573
275.143	46.916
279.25	74.395
283.354	71.944
287.456	65.734
291.556	78.588
295.654	85.974
299.75	65.914
303.843	55.412
307.935	64.59
312.024	75.883
316.111	55.579
320.196	52.678
324.279	66.954
328.36	73.653
332.439	81.587
336.516	94.554
340.59	80.112
344.662	75.56
348.733	72.47
352.801	83.733
356.867	82.449
360.931	74.095
364.992	83.775
369.052	85.241
373.11	73.497
377.165	56.2
381.218	38.936
385.27	64.191
389.319	45.501
393.366	34.594
397.411	36.377
401.454	37.58
405.495	47.008
409.533	52.403
413.57	46.01
417.604	51.595
421.637	61.087
425.667	55.772
429.695	78.41
433.721	114.353
437.745	149.813
441.767	248.586
445.787	528.33
449.805	1483.96
453.821	5158.7
457.834	5532.53
461.846	1888.18
465.856	1328.81
469.863	614.603
473.868	236.322
477.872	165.868
481.873	87.405
485.872	61.199
489.869	32.903
493.864	34.844
497.857	36.859
501.848	53.816
505.837	10.742
509.824	43.645
513.809	8.678
517.792	32.037
521.772	12.096
525.751	27.237
529.728	31.345
533.702	7.648
537.675	1.882
541.645	20.172
545.613	14.732
549.58	18.012
553.544	23.419
557.507	16.2
561.467	9.944
565.425	29.872
569.381	38.016
573.335	27.966
577.288	45.772
581.238	16.812
585.186	44.335
589.132	62.366
593.076	86.3
597.018	87.744
600.958	131.822
604.896	194.297
608.832	304.564
612.766	552.684
616.698	1227.8
620.628	3095.9
624.556	5813.96
628.482	4522.08
632.405	1138.18
636.327	576.267
640.247	753.383
644.165	338.877
648.081	132.998
651.995	91.129
655.907	106.32
659.817	81.481
663.725	54.626
667.63	17.741
671.534	19.602
675.436	25.743
679.336	9.231
683.234	19.404
687.13	16.512
691.024	23.146
694.916	23.227
698.806	13.296
702.694	7.935
706.58	14.203
710.464	12.381
714.346	17.648
718.226	4.522
722.105	9.832
725.981	10.377
729.855	15.154
733.727	9.105
737.597	6.419
741.466	13.581
745.332	20.202
749.196	2.209
753.059	6.33
756.919	3.157
760.778	1.322
764.634	26.77
768.489	1.806
772.341	11.577
776.192	24.924
780.041	7.602
783.887	29.503
787.732	28.752
791.575	10.978
795.416	21.978
799.255	11.351
803.092	11.478
806.927	18.572
810.76	9.642
814.591	6.687
818.421	11.707
822.248	7.296
826.073	20.659
829.897	0.686
833.718	4.213
837.538	12.087
841.356	12.94
845.171	6.7
848.985	26.491
852.797	5.269
856.607	0.061
860.415	7.226
864.221	9.562
868.025	3.889
871.828	6.337
875.628	9.314
879.426	2.197
883.223	594.631
887.018	0.436
890.81	8.074
894.601	16.329
898.39	43.693
902.177	18.799
905.962	25.096
909.745	26.053
913.526	25.274
917.306	25.657
921.083	56.634
924.859	25.379
928.632	33.787
932.404	30.35
936.174	42.637
939.942	56.074
943.708	42.516
947.472	45.968
951.235	40.037
954.995	57.5
958.754	76.965
962.51	107.369
966.265	117.798
970.018	130.307
973.769	244.081
977.518	293.617
981.265	404.816
985.011	627.243
988.754	913.839
992.496	1797.45
996.236	5849.55
999.974	47118.2
1003.71	17855.9
1007.44	3494.8
1011.18	1456.91
1014.91	819.135
1018.63	538.587
1022.36	358.069
1026.09	291.648
1029.81	222.215
1033.53	179.217
1037.25	165.26
1040.97	135.991
1044.68	122.111
1048.4	130.011
1052.11	129.021
1055.82	107.404
1059.53	77.33
1063.23	71.594
1066.94	113.939
1070.64	92.87
1074.34	119.295
1078.04	114.751
1081.74	208.246
1085.43	384.834
1089.12	818.386
1092.82	2422.97
1096.51	1951.58
1100.19	685.225
1103.88	495.913
1107.56	739.628
1111.25	987.373
1114.93	593.147
1118.61	283.948
1122.28	201.972
1125.96	124.848
1129.63	56.879
1133.3	51.715
1136.97	40.273
1140.64	51.297
1144.31	61.481
1147.97	17.522
1151.63	58.586
1155.29	170.692
1158.95	192.825
1162.61	168.002
1166.26	99.204
1169.92	72.672
1173.57	28.765
1177.22	18.564
1180.87	10.026
1184.51	10.452
1188.15	52.796
1191.8	12.156
1195.44	6.808
1199.08	7.007
1202.71	7.394
1206.35	6.831
1209.98	41.212
1213.61	10.431
1217.24	25.889
1220.87	14.252
1224.5	22.453
1228.12	18.947
1231.75	24.322
1235.37	4.683
1238.99	31.573
1242.6	40.693
1246.22	26.409
1249.83	15.781
1253.44	55.209
1257.05	39.773
1260.66	24.144
1264.27	29.522
1267.87	13.825
1271.48	0.82
1275.08	18.568
1278.68	17.024
1282.28	5.069
1285.87	0.302
1289.47	42.934
1293.06	35.196
1296.65	17.383
1300.24	29.541
1303.83	14.691
1307.41	5.832
1310.99	12.957
1314.58	18.056
1318.16	14.121
1321.73	16.146
1325.31	31.128
1328.89	27.08
1332.46	24.007
1336.03	15.94
1339.6	7.929
1343.17	2.106
1346.73	9.413
1350.3	6.22
1353.86	8.762
1357.42	19.118
1360.98	15.71
1364.54	28.485
1368.09	29.409
1371.65	12.221
1375.2	11.866
1378.75	4.481
1382.3	24.391
1385.85	4.687
1389.39	20.969
1392.93	23.359
1396.48	14.245
1400.02	41.291
1403.56	32.415
1407.09	24.265
1410.63	22.291
1414.16	13.285
1417.69	11.55
1421.22	15.175
1424.75	10.584
1428.27	47.311
1431.8	52.249
1435.32	35.07
1438.84	37.604
1442.36	51.351
1445.88	48.827
1449.4	45.214
1452.91	23.522
1456.42	37.528
1459.93	37.13
1463.44	41.182
1466.95	22.898
1470.45	38.183
1473.96	51.489
1477.46	44.148
1480.96	29.085
1484.46	29.975
1487.96	27.825
1491.45	45.961
1494.95	37.73
1498.44	23.809
1501.93	44.212
1505.42	19.834
1508.9	36.782
1512.39	38.286
1515.87	72.297
1519.36	0
