Measurement: Raman, 514 nm, ccw, Raman Data Processed
Mineral: Celestine
Rruff sample: R050008
Ideal chemistry: SrSO_4_
Locality: Scofield Quarry, Maybee, Monroe County, Michigan, USA
Source: Eugene Schlepp
Description: Pale blue tabular crystals
Measured chemistry: Sr_1.00_S_1.00_O_4_
Pin_id: M00399
Orientation: Laser parallel to b* (0 1 0). Fiducial mark perpendicular to laser is parallel to -c [0 0 -1]
Raman shift (cm-1)	intensity
50.167	0
54.392	61.786
58.614	80.991
62.834	138.691
67.052	166.966
71.268	154.554
75.481	113.824
79.693	60.078
83.902	42.728
88.108	5.57
92.313	4.499
96.515	27.85
100.715	34.023
104.913	70.91
109.109	110.122
113.303	69.927
117.494	115.494
121.683	169.002
125.87	264.371
130.055	185.615
134.237	79.813
138.417	42.799
142.596	16.052
146.771	18.119
150.945	25.17
155.117	23.081
159.286	24.477
163.453	15.613
167.618	24.227
171.781	37.532
175.941	21.988
180.1	50.729
184.256	38.235
188.41	64.491
192.562	103.881
196.711	248.056
200.859	333.033
205.004	252.452
209.147	116.428
213.288	66.711
217.427	33.052
221.564	23.837
225.698	11.474
229.83	1.831
233.96	16.947
238.088	25.566
242.214	11.942
246.338	23.299
250.459	9.45
254.579	2.297
258.696	9.124
262.811	0.931
266.924	0.094
271.035	12.256
275.143	7.373
279.25	13.567
283.354	9.432
287.456	9.392
291.556	0.684
295.654	7.201
299.75	2.051
303.843	9.854
307.935	4.527
312.024	4.051
316.111	10.397
320.196	0.899
324.279	2.562
328.36	1.861
332.439	5.236
336.516	4.593
340.59	17.883
344.662	7.186
348.733	21.469
352.801	4.287
356.867	1.068
360.931	9.128
364.992	14.307
369.052	26.463
373.11	16.597
377.165	23.711
381.218	29.78
385.27	35.64
389.319	23.566
393.366	16.349
397.411	23.109
401.454	58.923
405.495	34.476
409.533	43.08
413.57	51.112
417.604	32.501
421.637	71.161
425.667	55.851
429.695	97.398
433.721	104.138
437.745	154.693
441.767	228.417
445.787	485.737
449.805	1369.31
453.821	4135.64
457.834	4555.06
461.846	3208.3
465.856	1829.24
469.863	647.654
473.868	273.207
477.872	142.127
481.873	107.057
485.872	67.672
489.869	47.271
493.864	25.835
497.857	46.429
501.848	34.107
505.837	61.809
509.824	25.504
513.809	13.907
517.792	46.441
521.772	32.049
525.751	25.707
529.728	7.919
533.702	18.606
537.675	25.375
541.645	41.109
545.613	13.943
549.58	19.727
553.544	16.527
557.507	20.46
561.467	2.277
565.425	2.952
569.381	9.803
573.335	24.661
577.288	15.7
581.238	16.507
585.186	23.338
589.132	51.467
593.076	37.606
597.018	55.693
600.958	50.215
604.896	97.501
608.832	167.535
612.766	259.281
616.698	792.02
620.628	1879.7
624.556	1129.75
628.482	661.167
632.405	616.383
636.327	1237.07
640.247	3079.77
644.165	1404.45
648.081	499.437
651.995	334.103
655.907	533.727
659.817	611.067
663.725	272.107
667.63	131.312
671.534	84.992
675.436	55.512
679.336	30.012
683.234	25.596
687.13	40.815
691.024	9.55
694.916	18.571
698.806	7.562
702.694	24.542
706.58	37.737
710.464	9.86
714.346	12.647
718.226	6.202
722.105	14.972
725.981	9.144
729.855	29.19
733.727	12.37
737.597	13.862
741.466	2.441
745.332	11.447
749.196	14.419
753.059	4.648
756.919	1.768
760.778	3.058
764.634	27.832
768.489	27.709
772.341	3.294
776.192	9.037
780.041	4.433
783.887	8.104
787.732	30.572
791.575	15.006
795.416	12.309
799.255	6.793
803.092	20.141
806.927	14.46
810.76	11.753
814.591	2.01
818.421	13.225
822.248	1.409
826.073	15.099
829.897	16.678
833.718	5.781
837.538	4.861
841.356	12.914
845.171	1.901
848.985	12.889
852.797	9.767
856.607	16.648
860.415	12.502
864.221	5.725
868.025	3.073
871.828	2.426
875.628	0.516
879.426	21.128
883.223	20.165
887.018	9.773
890.81	12.121
894.601	19.182
898.39	30.746
902.177	43.04
905.962	34.631
909.745	4.713
913.526	27.128
917.306	23.782
921.083	43.444
924.859	31.871
928.632	16.86
932.404	33.522
936.174	47.137
939.942	40.392
943.708	47.132
947.472	49.879
951.235	45.6
954.995	70.097
958.754	118.88
962.51	131.707
966.265	141.673
970.018	209.23
973.769	315.352
977.518	359.282
981.265	512.239
985.011	755.223
988.754	1195.13
992.496	2398.41
996.236	7957.18
999.974	57857.7
1003.71	24393.2
1007.44	4517.81
1011.18	1820.04
1014.91	1015.96
1018.63	646.892
1022.36	482.888
1026.09	371.84
1029.81	272.277
1033.53	237.703
1037.25	197.807
1040.97	181.879
1044.68	107.525
1048.4	121.251
1052.11	88.056
1055.82	86.928
1059.53	64.86
1063.23	41.853
1066.94	39.9
1070.64	39.002
1074.34	8.166
1078.04	25.423
1081.74	25.752
1085.43	30.311
1089.12	23.652
1092.82	88.28
1096.51	80.97
1100.19	134.617
1103.88	324.315
1107.56	764.061
1111.25	1141.86
1114.93	572.712
1118.61	250.625
1122.28	148.651
1125.96	93.672
1129.63	102.742
1133.3	173.86
1136.97	245.028
1140.64	402.25
1144.31	594.876
1147.97	976.208
1151.63	1877.61
1155.29	3649.27
1158.95	4961.76
1162.61	4080.29
1166.26	2182.88
1169.92	1131.77
1173.57	585.456
1177.22	387.175
1180.87	292.67
1184.51	301.103
1188.15	390.173
1191.8	291.24
1195.44	136.484
1199.08	111.688
1202.71	76.082
1206.35	34.07
1209.98	21.082
1213.61	25.404
1217.24	16.497
1220.87	24.581
1224.5	45.542
1228.12	33.192
1231.75	29.982
1235.37	4.583
1238.99	11.883
1242.6	0.257
1246.22	13.465
1249.83	20.673
1253.44	19.899
1257.05	27.222
1260.66	75.885
1264.27	18.324
1267.87	30.634
1271.48	3.071
1275.08	10.398
1278.68	17.908
1282.28	5.242
1285.87	33.083
1289.47	18.447
1293.06	13.71
1296.65	52.932
1300.24	23.115
1303.83	3.229
1307.41	7.284
1310.99	3.679
1314.58	2.338
1318.16	12.91
1321.73	15.306
1325.31	14.325
1328.89	12.224
1332.46	19.056
1336.03	6.179
1339.6	3.476
1343.17	2.828
1346.73	16.785
1350.3	13.359
1353.86	30.894
1357.42	12.395
1360.98	19.858
1364.54	7.624
1368.09	30.75
1371.65	7.251
1375.2	4.412
1378.75	1.308
1382.3	28.579
1385.85	17.944
1389.39	30.3
1392.93	47.571
1396.48	15.888
1400.02	34.183
1403.56	36.023
1407.09	29.252
1410.63	23.194
1414.16	40.391
1417.69	17.222
1421.22	37.32
1424.75	20.635
1428.27	35.097
1431.8	68.113
1435.32	44.804
1438.84	90.105
1442.36	54.263
1445.88	60.203
1449.4	36.924
1452.91	33.234
1456.42	63.84
1459.93	68.061
1463.44	53.675
1466.95	35.036
1470.45	63.881
1473.96	47.133
1477.46	63.184
1480.96	41.459
1484.46	22.106
1487.96	32.554
1491.45	66.29
1494.95	28.847
1498.44	17.654
1501.93	0.465
1505.42	35.762
1508.9	27.55
1512.39	55.835
1515.87	0
