Measurement: Raman, 514 nm, ccw, Raman Data Processed
Mineral: Celestine
Rruff sample: R040007
Ideal chemistry: SrSO_4_
Locality: Coahuila, Mexico
Source: University of Arizona Mineral Museum
Description: Blue tabular crystals
Measured chemistry: Light bands: (Sr_0.95_Ba_0.04_Ca_0.01_)_Σ=1_S_1.00_O_4_; Dark bands: (Sr_0.99_Ba_0.01_)_Σ=1_S_1.00_O_4_; trace amounts of Ca
Pin_id: M00014
Orientation: Laser parallel to a* (1 0 0). Fiducial mark perpendicular to laser is parallel to b [0 1 0]
Raman shift (cm-1)	intensity
51.466	0
55.666	16.568
59.863	18.208
64.059	0.068
68.253	38.176
72.445	122.224
76.635	386.44
80.823	1043.3
85.009	2101.45
89.193	1309.65
93.375	752.741
97.554	538.59
101.732	430.039
105.908	385.988
110.082	373.368
114.254	476.139
118.424	589.254
122.592	670.756
126.758	882.575
130.922	854.724
135.083	601.242
139.243	405.889
143.401	324.528
147.557	275.277
151.711	221.147
155.863	220.121
160.013	251.206
164.161	357.409
168.308	445.731
172.452	345.272
176.594	263.828
180.734	251.5
184.872	210.483
189.008	174.307
193.143	161.983
197.275	153.088
201.405	137.312
205.534	123.637
209.66	117.986
213.784	108.352
217.907	82.897
222.027	83.803
226.146	85.523
230.263	53.085
234.377	51.339
238.49	74.14
242.601	53.328
246.709	60.499
250.816	55.607
254.921	61.853
259.024	45.819
263.125	55.707
267.224	49.295
271.321	54.981
275.416	56.758
279.51	52.647
283.601	37.567
287.69	34.589
291.778	24.682
295.863	40.843
299.947	32.067
304.029	26.353
308.108	24.7
312.186	8.107
316.262	7.426
320.336	22.096
324.408	22.326
328.478	3.293
332.546	17.961
336.612	19.681
340.677	2.072
344.739	38.041
348.799	26.258
352.858	21.838
356.915	6.085
360.969	10.051
365.022	26.249
369.073	9.71
373.122	12.326
377.169	21.625
381.215	0.433
385.258	13.583
389.299	12.801
393.339	6.088
397.376	8.567
401.412	5.184
405.446	3.77
409.478	25.681
413.508	23.182
417.536	21.737
421.562	36.341
425.586	39.001
429.609	69.704
433.629	122.451
437.648	216.24
441.665	488.064
445.68	1415.93
449.693	4841.77
453.704	6062.71
457.713	2345.69
461.721	1451.71
465.726	740.778
469.73	337.87
473.731	183.991
477.731	92.977
481.729	81.147
485.725	8.557
489.72	37.16
493.712	13.613
497.703	7.643
501.691	4.288
505.678	11.85
509.663	14.392
513.646	23.731
517.627	21.554
521.607	44.933
525.584	39.21
529.56	22.554
533.534	50.263
537.506	24.592
541.476	5.454
545.444	46.453
549.41	18.781
553.375	48.158
557.337	33.264
561.298	22.121
565.257	68.144
569.214	68.516
573.17	95.026
577.123	31.795
581.075	65.374
585.024	65.679
588.972	111.325
592.918	138.538
596.863	149.113
600.805	196.535
604.746	340.445
608.685	566.722
612.621	1193.1
616.557	3114.54
620.49	5932.25
624.421	5866.62
628.351	1633.24
632.279	726.779
636.205	856.176
640.129	528.294
644.051	200.389
647.972	112.53
651.89	149.593
655.807	124.554
659.722	105.15
663.636	43.927
667.547	32.382
671.457	0.683
675.365	51.208
679.271	41.078
683.175	39.722
687.077	18.526
690.978	38.324
694.877	0.865
698.774	6.275
702.669	6.971
706.562	44.596
710.454	29.421
714.344	29.737
718.232	24.532
722.118	24.265
726.002	21.675
729.885	10.031
733.766	38.338
737.645	3.413
741.522	15.768
745.397	13.909
749.271	9.996
753.143	17.04
757.013	17.039
760.881	39.979
764.748	15.878
768.613	9.734
772.476	5.529
776.337	12.247
780.196	6.595
784.054	0.442
787.91	36.151
791.764	41.713
795.616	38.243
799.467	35.927
803.316	39.222
807.163	27.328
811.008	36.047
814.851	5.603
818.693	31.724
822.533	35.044
826.371	16.836
830.208	14.06
834.042	15.318
837.875	45.56
841.706	22.465
845.536	0.322
849.363	4.293
853.189	17.164
857.013	61.92
860.836	4.99
864.656	2.063
868.475	8.963
872.292	10.474
876.108	31.538
879.922	39.548
883.733	35.266
887.544	22.021
891.352	32.057
895.159	8.834
898.964	67.517
902.767	75.585
906.568	33.463
910.368	25.382
914.166	48.824
917.962	59.878
921.757	81.757
925.55	60.564
929.341	65.306
933.13	50.165
936.918	79.593
940.703	56.743
944.488	58.648
948.27	96.828
952.051	114.025
955.83	99.181
959.607	191.482
963.383	163.733
967.156	186.015
970.928	277.351
974.699	405.709
978.468	436.09
982.234	597.513
986	878.957
989.763	1632.43
993.525	4282.65
997.285	26310.2
1001.04	46419.8
1004.8	6577.08
1008.55	1960.62
1012.31	972.308
1016.06	630.14
1019.81	412.004
1023.56	341.408
1027.31	251.686
1031.05	213.648
1034.79	142.112
1038.53	146.594
1042.27	130.698
1046.01	56.861
1049.75	112.079
1053.48	73.818
1057.22	108.437
1060.95	64.781
1064.68	130.576
1068.4	120.967
1072.13	131.399
1075.86	121.873
1079.58	212.395
1083.3	364.649
1087.02	656.738
1090.74	1728.35
1094.45	2982.01
1098.17	1241.66
1101.88	589.341
1105.59	565.038
1109.3	1005.76
1113.01	808.567
1116.71	401.736
1120.42	195.556
1124.12	133.39
1127.82	61.211
1131.52	22.073
1135.22	18.957
1138.91	26.957
1142.61	15.773
1146.3	31.135
1149.99	37.454
1153.68	105.039
1157.37	178.763
1161.06	196.862
1164.74	99.119
1168.42	43.13
1172.1	24.127
1175.78	26.406
1179.46	11.859
1183.14	10.676
1186.81	45.775
1190.48	37.742
1194.15	2.693
1197.83	9.623
1201.49	0.619
1205.16	21.744
1208.82	23.321
1212.49	82.658
1216.15	50.411
1219.81	17.624
1223.46	34.402
1227.12	34.294
1230.78	23.981
1234.43	70.588
1238.08	12.29
1241.73	37.05
1245.38	58.636
1249.03	66.174
1252.67	57.782
1256.31	64.237
1259.95	47.322
1263.6	52.986
1267.23	30.276
1270.87	8.31
1274.51	38.846
1278.14	32.972
1281.77	29.06
1285.4	17.111
1289.03	0.357
1292.66	29.758
1296.28	6.048
1299.91	45.804
1303.53	62.493
1307.15	19.121
1310.77	20.702
1314.38	25.234
1318	21.6
1321.61	17.691
1325.23	47.609
1328.84	0.503
1332.45	7.735
1336.06	8.062
1339.66	23.071
1343.27	32.678
1346.87	50.661
1350.47	68.408
1354.07	44.936
1357.67	46.898
1361.26	1.701
1364.86	72.611
1368.45	32.973
1372.04	30.824
1375.63	62.823
1379.22	41.742
1382.81	22.663
1386.39	39.318
1389.98	50.08
1393.56	90.079
1397.14	68.595
1400.72	76.956
1404.3	41.236
1407.87	61.645
1411.45	88.5
1415.02	39.239
1418.59	66.471
1422.16	55.104
1425.73	27.934
1429.29	79.058
1432.86	74.797
1436.42	79.679
1439.98	45.501
1443.54	104.883
1447.1	88.327
1450.66	136.235
1454.21	110.665
1457.77	113.147
1461.32	105.518
1464.87	50.011
1468.42	76.721
1471.96	51.311
1475.51	28.799
1479.06	24.48
1482.6	101.312
1486.14	47.219
1489.68	64.168
1493.22	30.214
1496.75	33.618
1500.29	57.424
1503.82	54.587
1507.35	54.229
1510.88	43.612
1514.41	16.907
1517.94	38.32
1521.46	14.438
