Measurement: Raman, 514 nm, ccw, Raman Data Processed
Mineral: Celestine
Rruff sample: R040007
Ideal chemistry: SrSO_4_
Locality: Coahuila, Mexico
Source: University of Arizona Mineral Museum
Description: Blue tabular crystals
Measured chemistry: Light bands: (Sr_0.95_Ba_0.04_Ca_0.01_)_Σ=1_S_1.00_O_4_; Dark bands: (Sr_0.99_Ba_0.01_)_Σ=1_S_1.00_O_4_; trace amounts of Ca
Pin_id: M00013
Orientation: Laser parallel to b* (0 1 0). Fiducial mark perpendicular to laser is parallel to c [0 0 1]
Raman shift (cm-1)	intensity
51.466	0
55.666	12.281
59.863	13.858
64.059	2.071
68.253	29.998
72.445	107.336
76.635	327.379
80.823	1052.68
85.009	2139.95
89.193	1204.99
93.375	448.671
97.554	265.894
101.732	242.555
105.908	217.089
110.082	173.86
114.254	203.42
118.424	229.226
122.592	313.283
126.758	271.56
130.922	188.057
135.083	139.833
139.243	136.645
143.401	110.45
147.557	88.564
151.711	101.444
155.863	122.427
160.013	133.45
164.161	246.806
168.308	375.974
172.452	272.253
176.594	131.572
180.734	112.11
184.872	90.478
189.008	83.975
193.143	102.178
197.275	78.079
201.405	67.895
205.534	65.669
209.66	46.48
213.784	54.48
217.907	49.207
222.027	35.823
226.146	37.362
230.263	28.388
234.377	28.321
238.49	6.381
242.601	33.051
246.709	15.607
250.816	12.273
254.921	8.028
259.024	10.871
263.125	12.788
267.224	6.767
271.321	7.806
275.416	9.904
279.51	2.053
283.601	6.249
287.69	10.488
291.778	9.766
295.863	5.082
299.947	0.432
304.029	3.186
308.108	16.227
312.186	0.331
316.262	11.859
320.336	20.635
324.408	5.16
328.478	7.713
332.546	10.707
336.612	4.893
340.677	12.517
344.739	19.169
348.799	2.164
352.858	16.518
356.915	16.781
360.969	10.076
365.022	2.36
369.073	13.638
373.122	4.111
377.169	15.827
381.215	43.578
385.258	8.387
389.299	28.174
393.339	32.615
397.376	34.475
401.412	39.207
405.446	39.604
409.478	51.53
413.508	66.177
417.536	87.174
421.562	83.379
425.586	115.416
429.609	158.592
433.629	261.663
437.648	444.299
441.665	899.417
445.68	2488.53
449.693	8039.68
453.704	10201.8
457.713	3510.01
461.721	1335.2
465.726	622.31
469.73	369.541
473.731	212.723
477.731	136.314
481.729	92.584
485.725	57.864
489.72	71.159
493.712	42.923
497.703	57.253
501.691	54.344
505.678	33.697
509.663	61.917
513.646	36.169
517.627	27.657
521.607	23.485
525.584	25.44
529.56	51.616
533.534	37.724
537.506	8.584
541.476	3.972
545.444	30.294
549.41	11.114
553.375	25.763
557.337	39.664
561.298	1.936
565.257	6.283
569.214	3.88
573.17	34.64
577.123	15.941
581.075	13.526
585.024	11.938
588.972	14.139
592.918	7.586
596.863	9.652
600.805	38.851
604.746	81.162
608.685	167.838
612.621	489.985
616.557	1276.12
620.49	961.876
624.421	478.039
628.351	210.861
632.279	155.381
636.205	219.717
640.129	174.091
644.051	100.104
647.972	148.497
651.89	371.363
655.807	568.965
659.722	239.949
663.636	74.151
667.547	54.214
671.457	49.065
675.365	36.162
679.271	38.378
683.175	35.347
687.077	36.121
690.978	23.004
694.877	25.794
698.774	20.386
702.669	3.057
706.562	10.107
710.454	18.905
714.344	42.043
718.232	21.216
722.118	17.962
726.002	16.419
729.885	13.88
733.766	21.051
737.645	19.399
741.522	12.72
745.397	21.884
749.271	17.722
753.143	17.625
757.013	19.824
760.881	12.021
764.748	22.058
768.613	44.107
772.476	43.131
776.337	11.101
780.196	40.029
784.054	10.919
787.91	39.769
791.764	21.586
795.616	31.37
799.467	10.874
803.316	21.827
807.163	17.485
811.008	5.086
814.851	1.649
818.693	22.184
822.533	20.696
826.371	20.184
830.208	24.652
834.042	0.906
837.875	5.555
841.706	14.823
845.536	0.545
849.363	32.782
853.189	40.087
857.013	6.933
860.836	13.049
864.656	31.1
868.475	6.84
872.292	24.994
876.108	6.869
879.922	16.99
883.733	28.93
887.544	11.109
891.352	0.097
895.159	38.189
898.964	52.376
902.767	53.517
906.568	49.51
910.368	47.884
914.166	58.72
917.962	43.663
921.757	93.892
925.55	51.172
929.341	45.714
933.13	31.948
936.918	61.453
940.703	99.304
944.488	82.297
948.27	91.253
952.051	120.555
955.83	90.488
959.607	142.938
963.383	162.592
967.156	203.842
970.928	232.099
974.699	359.361
978.468	396.836
982.234	601.082
986	813.042
989.763	1651.16
993.525	4347.31
997.285	25970.7
1001.04	46727.4
1004.8	6634.06
1008.55	1955.78
1012.31	1010.4
1016.06	588.484
1019.81	408.429
1023.56	280.339
1027.31	207.287
1031.05	183.247
1034.79	130.208
1038.53	95.271
1042.27	52.383
1046.01	80.543
1049.75	60.347
1053.48	46.026
1057.22	40.342
1060.95	49.71
1064.68	26.63
1068.4	0.891
1072.13	5.366
1075.86	13.199
1079.58	25.819
1083.3	3.528
1087.02	35.17
1090.74	30.916
1094.45	136.702
1098.17	136.608
1101.88	247.478
1105.59	515.397
1109.3	1133.36
1113.01	985.377
1116.71	443.929
1120.42	179.381
1124.12	119.927
1127.82	51.188
1131.52	26.379
1135.22	43.6
1138.91	3.127
1142.61	22.207
1146.3	90.629
1149.99	258.98
1153.68	787.531
1157.37	980.9
1161.06	450.375
1164.74	222.508
1168.42	150.979
1172.1	56.494
1175.78	52.726
1179.46	59.301
1183.14	114.936
1186.81	286.197
1190.48	376.028
1194.15	179.39
1197.83	78.45
1201.49	61.458
1205.16	30.81
1208.82	15.427
1212.49	10.44
1216.15	20.821
1219.81	44.482
1223.46	26.054
1227.12	56.679
1230.78	50.218
1234.43	1.553
1238.08	25.523
1241.73	2.868
1245.38	49.254
1249.03	44.058
1252.67	16.879
1256.31	39.437
1259.95	9.024
1263.6	12.508
1267.23	6.946
1270.87	31.568
1274.51	15.021
1278.14	6.456
1281.77	16.865
1285.4	15.236
1289.03	0.491
1292.66	26.768
1296.28	37.97
1299.91	32.134
1303.53	36.243
1307.15	12.692
1310.77	18.301
1314.38	24.249
1318	1.145
1321.61	8.999
1325.23	40.812
1328.84	15.585
1332.45	8.686
1336.06	7.979
1339.66	17.596
1343.27	0.153
1346.87	28.653
1350.47	20.104
1354.07	16.014
1357.67	7.386
1361.26	4.833
1364.86	41.465
1368.45	13.741
1372.04	39.979
1375.63	19.137
1379.22	6.247
1382.81	55.748
1386.39	35.91
1389.98	7.108
1393.56	6.725
1397.14	25.946
1400.72	28.717
1404.3	30.672
1407.87	24.366
1411.45	54.995
1415.02	58.199
1418.59	53.694
1422.16	26.937
1425.73	24.799
1429.29	46.731
1432.86	68.425
1436.42	40.729
1439.98	55.394
1443.54	66.486
1447.1	105.455
1450.66	67.307
1454.21	68.271
1457.77	58.723
1461.32	41.113
1464.87	37.93
1468.42	61.424
1471.96	53.138
1475.51	38.121
1479.06	25.435
1482.6	33
1486.14	27.742
1489.68	17.513
1493.22	65.496
1496.75	16.556
1500.29	20.795
1503.82	21.328
1507.35	23.187
1510.88	12.497
1514.41	6.41
1517.94	23.845
1521.46	10.055
