Measurement: Raman, 514 nm, ccw, Raman Data Processed
Mineral: Celestine
Rruff sample: R040007
Ideal chemistry: SrSO_4_
Locality: Coahuila, Mexico
Source: University of Arizona Mineral Museum
Description: Blue tabular crystals
Measured chemistry: Light bands: (Sr_0.95_Ba_0.04_Ca_0.01_)_Σ=1_S_1.00_O_4_; Dark bands: (Sr_0.99_Ba_0.01_)_Σ=1_S_1.00_O_4_; trace amounts of Ca
Pin_id: M00014
Orientation: Laser parallel to a* (1 0 0). Fiducial mark perpendicular to laser is parallel to b [0 1 0]
Raman shift (cm-1)	intensity
51.466	0
55.666	28.79
59.863	2.112
64.059	6.549
68.253	52.305
72.445	170.274
76.635	386.529
80.823	1070.52
85.009	2240.87
89.193	1557.32
93.375	1079.71
97.554	715.874
101.732	486.908
105.908	384.008
110.082	342.807
114.254	737.019
118.424	361.618
122.592	303.588
126.758	301.869
130.922	282.458
135.083	260.403
139.243	225.441
143.401	208.582
147.557	186.869
151.711	204.3
155.863	199.854
160.013	222.544
164.161	299.365
168.308	410.317
172.452	332.4
176.594	203.613
180.734	170.177
184.872	144.847
189.008	141.677
193.143	137.63
197.275	169.255
201.405	130.234
205.534	124.442
209.66	117.183
213.784	119.784
217.907	103.73
222.027	73.287
226.146	71.041
230.263	59.663
234.377	61.407
238.49	70.106
242.601	41.626
246.709	45.296
250.816	26.265
254.921	38.319
259.024	65.434
263.125	56.895
267.224	29.242
271.321	51.692
275.416	57.24
279.51	44.879
283.601	40.604
287.69	30.411
291.778	18.294
295.863	23.251
299.947	56.275
304.029	32.366
308.108	19.52
312.186	14.737
316.262	8.984
320.336	13.353
324.408	26.802
328.478	4.748
332.546	9.756
336.612	8.679
340.677	13.73
344.739	11.864
348.799	16.87
352.858	6.195
356.915	4.01
360.969	14.826
365.022	36.703
369.073	13.618
373.122	0.924
377.169	18.892
381.215	16.889
385.258	4.952
389.299	2.08
393.339	8.528
397.376	2.833
401.412	11.411
405.446	5.891
409.478	3.518
413.508	5.869
417.536	5.298
421.562	3.229
425.586	31.275
429.609	27.817
433.629	52.395
437.648	81.013
441.665	230.664
445.68	690.354
449.693	2437.07
453.704	3042.82
457.713	1316.59
461.721	696.4
465.726	324.247
469.73	165.947
473.731	60.844
477.731	59.597
481.729	4.375
485.725	16.303
489.72	21.218
493.712	4.241
497.703	20.284
501.691	3.667
505.678	14.383
509.663	27.417
513.646	40.163
517.627	31.648
521.607	36.642
525.584	21.977
529.56	25.068
533.534	36.817
537.506	15.857
541.476	18.223
545.444	24.354
549.41	10.47
553.375	3.777
557.337	41.953
561.298	42.606
565.257	29.973
569.214	33.171
573.17	24.283
577.123	22.664
581.075	37.541
585.024	77.639
588.972	56.95
592.918	84.468
596.863	90.682
600.805	130.409
604.746	245.466
608.685	392.512
612.621	998.548
616.557	2852.57
620.49	2334.19
624.421	1356.73
628.351	621.717
632.279	692.238
636.205	1427.25
640.129	855.812
644.051	272.733
647.972	110.854
651.89	99.67
655.807	48.315
659.722	19.265
663.636	57.492
667.547	14.378
671.457	19.321
675.365	27.105
679.271	36.26
683.175	33.826
687.077	27.316
690.978	17.602
694.877	16.566
698.774	37.906
702.669	0.467
706.562	30.982
710.454	6.119
714.344	29.564
718.232	43.686
722.118	18.073
726.002	26.182
729.885	10.51
733.766	58.809
737.645	39.081
741.522	6.332
745.397	13.554
749.271	25.746
753.143	22.906
757.013	44.035
760.881	26.13
764.748	17.203
768.613	19.253
772.476	38.282
776.337	4.263
780.196	25.197
784.054	14.107
787.91	6.992
791.764	21.845
795.616	31.668
799.467	38.467
803.316	35.235
807.163	14.034
811.008	40.655
814.851	45.337
818.693	28.993
822.533	0.393
826.371	38.026
830.208	21.635
834.042	2.855
837.875	28.931
841.706	45.673
845.536	24.11
849.363	34.328
853.189	29.498
857.013	16.973
860.836	40.379
864.656	32.886
868.475	34.144
872.292	30.078
876.108	49.786
879.922	21.868
883.733	9.186
887.544	24.37
891.352	38.86
895.159	34.139
898.964	60.491
902.767	86.554
906.568	79.879
910.368	26.713
914.166	103.214
917.962	88.721
921.757	81.981
925.55	85.766
929.341	81.555
933.13	46.701
936.918	109.253
940.703	87.223
944.488	112.819
948.27	111.749
952.051	143.375
955.83	187.799
959.607	162.381
963.383	244.058
967.156	224.741
970.928	280.749
974.699	396.692
978.468	451.414
982.234	614.168
986	858.428
989.763	1678.39
993.525	4496.4
997.285	27183.4
1001.04	47960
1004.8	6785.31
1008.55	2085.36
1012.31	1084.46
1016.06	660.596
1019.81	493.766
1023.56	375.786
1027.31	306.03
1031.05	217.478
1034.79	160.793
1038.53	151.514
1042.27	159.955
1046.01	71.126
1049.75	89.59
1053.48	86.087
1057.22	43.234
1060.95	65.297
1064.68	72.898
1068.4	37.526
1072.13	63.188
1075.86	16.907
1079.58	27.662
1083.3	123.767
1087.02	208.735
1090.74	423.57
1094.45	763.433
1098.17	329.327
1101.88	135.242
1105.59	197.189
1109.3	364.168
1113.01	286.175
1116.71	95.201
1120.42	63.251
1124.12	42.461
1127.82	23.119
1131.52	13.049
1135.22	18.211
1138.91	6.245
1142.61	8.91
1146.3	10.933
1149.99	60.557
1153.68	106.831
1157.37	282.696
1161.06	323.009
1164.74	204.258
1168.42	101.041
1172.1	117.314
1175.78	38.682
1179.46	54.715
1183.14	9.609
1186.81	20.488
1190.48	15.728
1194.15	4.632
1197.83	11.071
1201.49	3.725
1205.16	6.142
1208.82	14.255
1212.49	18.359
1216.15	18.536
1219.81	0.961
1223.46	35.619
1227.12	32.259
1230.78	0.676
1234.43	60.394
1238.08	39.715
1241.73	59.798
1245.38	60.917
1249.03	48.99
1252.67	26.178
1256.31	24.255
1259.95	68.236
1263.6	36.176
1267.23	5.11
1270.87	21.982
1274.51	0.167
1278.14	23.658
1281.77	10.367
1285.4	11.408
1289.03	1.91
1292.66	84.647
1296.28	25.219
1299.91	21.75
1303.53	14.222
1307.15	63.624
1310.77	25.997
1314.38	23.332
1318	19.627
1321.61	3.116
1325.23	52.931
1328.84	5.248
1332.45	39.898
1336.06	15.928
1339.66	6.231
1343.27	2.242
1346.87	22.223
1350.47	27.1
1354.07	58.715
1357.67	16.933
1361.26	3.879
1364.86	17.734
1368.45	1.021
1372.04	29.575
1375.63	39.622
1379.22	31.217
1382.81	34.141
1386.39	50.677
1389.98	38.173
1393.56	17.684
1397.14	15.91
1400.72	46.887
1404.3	58.539
1407.87	20.812
1411.45	62.028
1415.02	61.189
1418.59	39.171
1422.16	86.303
1425.73	60.141
1429.29	51.615
1432.86	64.106
1436.42	80.886
1439.98	79.567
1443.54	53.938
1447.1	58.304
1450.66	97.523
1454.21	94.068
1457.77	130.704
1461.32	59.851
1464.87	96.506
1468.42	42.168
1471.96	12.837
1475.51	36.451
1479.06	36.187
1482.6	47.996
1486.14	51.113
1489.68	42.467
1493.22	39.008
1496.75	52.802
1500.29	105.818
1503.82	73.392
1507.35	69.559
1510.88	47.535
1514.41	57.465
1517.94	74.276
1521.46	0.231
