Measurement: Raman, 514 nm, ccw, Raman Data Processed
Mineral: Celestine
Rruff sample: R050008
Ideal chemistry: SrSO_4_
Locality: Scofield Quarry, Maybee, Monroe County, Michigan, USA
Source: Eugene Schlepp
Description: Pale blue tabular crystals
Measured chemistry: Sr_1.00_S_1.00_O_4_
Pin_id: M00399
Orientation: Laser parallel to b* (0 1 0). Fiducial mark perpendicular to laser is parallel to -c [0 0 -1]
Raman shift (cm-1)	intensity
50.167	0
54.392	51.695
58.614	117.357
62.834	154.26
67.052	223.057
71.268	132.521
75.481	110.001
79.693	15.699
83.902	11.612
88.108	10.087
92.313	94.169
96.515	219.076
100.715	333.542
104.913	497.454
109.109	522.752
113.303	410.411
117.494	451.412
121.683	501.739
125.87	556.379
130.055	685.335
134.237	714.596
138.417	550.128
142.596	420.866
146.771	393.728
150.945	421.65
155.117	379.476
159.286	332.448
163.453	405.594
167.618	426.915
171.781	462.41
175.941	419.079
180.1	387.918
184.256	332.925
188.41	309.098
192.562	393.433
196.711	456.929
200.859	368.582
205.004	272.603
209.147	275.844
213.288	242.992
217.427	191.412
221.564	229.918
225.698	238.289
229.83	188.315
233.96	155.985
238.088	179.156
242.214	208.934
246.338	166.225
250.459	118.192
254.579	183.655
258.696	167.75
262.811	106.013
266.924	102.413
271.035	133.942
275.143	125.599
279.25	62.378
283.354	123.274
287.456	121.282
291.556	94.399
295.654	45.62
299.75	93.942
303.843	122.361
307.935	59.876
312.024	60.484
316.111	108.186
320.196	114.981
324.279	27.87
328.36	38.85
332.439	67.919
336.516	83.075
340.59	6.316
344.662	3.639
348.733	63.042
352.801	84.049
356.867	54.92
360.931	15.453
364.992	45.243
369.052	71.007
373.11	1.144
377.165	18.251
381.218	61.676
385.27	62.065
389.319	24.248
393.366	18.813
397.411	64.56
401.454	48.808
405.495	46.407
409.533	16.009
413.57	54.191
417.604	82.878
421.637	62.369
425.667	67.332
429.695	78.347
433.721	156.432
437.745	136.806
441.767	208.978
445.787	408.202
449.805	1067.48
453.821	2394.81
457.834	3376.17
461.846	6743.58
465.856	4486.05
469.863	1460.56
473.868	542.119
477.872	295.709
481.873	194.34
485.872	143.997
489.869	89.671
493.864	24.356
497.857	46.054
501.848	59.762
505.837	70.48
509.824	13.802
513.809	4.913
517.792	7.443
521.772	40.993
525.751	6.918
529.728	27.216
533.702	9.253
537.675	43.325
541.645	32.243
545.613	4.626
549.58	4.425
553.544	55.605
557.507	71.93
561.467	14.255
565.425	11.694
569.381	26.015
573.335	80.349
577.288	52.717
581.238	15.31
585.186	21.565
589.132	42.927
593.076	89.093
597.018	61.08
600.958	42.249
604.896	102.678
608.832	211.636
612.766	325.155
616.698	561.944
620.628	1294.45
624.556	2799.35
628.482	2494.76
632.405	880.836
636.327	611.436
640.247	1082.71
644.165	604.303
648.081	353.337
651.995	437.351
655.907	1043.02
659.817	1253.24
663.725	503.576
667.63	263.478
671.534	153.009
675.436	73.855
679.336	53.628
683.234	95.736
687.13	91.288
691.024	64.272
694.916	36.158
698.806	50.964
702.694	55.528
706.58	87.995
710.464	48.818
714.346	10.802
718.226	11.491
722.105	45.687
725.981	80.715
729.855	79.283
733.727	18.582
737.597	46.999
741.466	65.437
745.332	59.1
749.196	90.232
753.059	27.971
756.919	4.977
760.778	35.253
764.634	89.841
768.489	82.291
772.341	62.6
776.192	34.224
780.041	18.939
783.887	89.763
787.732	125.443
791.575	52.965
795.416	8.38
799.255	25.627
803.092	105.758
806.927	88.778
810.76	89.682
814.591	43.464
818.421	21.134
822.248	60.692
826.073	79.134
829.897	65.432
833.718	35.525
837.538	8.479
841.356	13.318
845.171	37.319
848.985	116.45
852.797	67.949
856.607	30.776
860.415	11.993
864.221	1.743
868.025	51.341
871.828	116.011
875.628	84.645
879.426	19.487
883.223	8.542
887.018	14.593
890.81	81.505
894.601	90.24
898.39	104.645
902.177	12.266
905.962	6.521
909.745	87.619
913.526	72.406
917.306	135.97
921.083	91.615
924.859	32.83
928.632	9.085
932.404	49.82
936.174	114.67
939.942	136.257
943.708	25.156
947.472	43.599
951.235	39.89
954.995	72.415
958.754	188.579
962.51	204.995
966.265	200.694
970.018	159.129
973.769	202.809
977.518	319.077
981.265	426.632
985.011	687.428
988.754	1040.67
992.496	1859.38
996.236	5954.38
999.974	44442.4
1003.71	21361.4
1007.44	3937.67
1011.18	1665.77
1014.91	932.876
1018.63	562.577
1022.36	332.73
1026.09	289.262
1029.81	269.711
1033.53	261.98
1037.25	253.81
1040.97	241.268
1044.68	104.326
1048.4	37.145
1052.11	128.392
1055.82	151.59
1059.53	86.996
1063.23	170.906
1066.94	150.448
1070.64	120.104
1074.34	63.856
1078.04	74.509
1081.74	182.466
1085.43	313.532
1089.12	631.7
1092.82	1358
1096.51	1228
1100.19	407.515
1103.88	293.104
1107.56	337.782
1111.25	364.549
1114.93	233.413
1118.61	236.583
1122.28	86.228
1125.96	78.367
1129.63	21.615
1133.3	82.97
1136.97	209.78
1140.64	233.585
1144.31	275.216
1147.97	379.927
1151.63	929.722
1155.29	1917.61
1158.95	1715.58
1162.61	1320.28
1166.26	836.76
1169.92	513.001
1173.57	237.469
1177.22	200.568
1180.87	160.045
1184.51	249.867
1188.15	509.367
1191.8	432.05
1195.44	345.323
1199.08	229.137
1202.71	206.012
1206.35	107.4
1209.98	29.577
1213.61	38.207
1217.24	61.323
1220.87	153.495
1224.5	189.722
1228.12	238.008
1231.75	224.313
1235.37	73.702
1238.99	38.582
1242.6	0.07
1246.22	18.697
1249.83	111.427
1253.44	187.041
1257.05	177.727
1260.66	222.514
1264.27	141.182
1267.87	85.872
1271.48	35.663
1275.08	75.876
1278.68	115.679
1282.28	37.371
1285.87	143.037
1289.47	207.687
1293.06	167.372
1296.65	124.064
1300.24	99.867
1303.83	9.431
1307.41	2.762
1310.99	13.91
1314.58	47.561
1318.16	168.199
1321.73	164.841
1325.31	201.527
1328.89	124.203
1332.46	58.682
1336.03	4.863
1339.6	75.629
1343.17	64.18
1346.73	99.635
1350.3	94.14
1353.86	208.827
1357.42	224.362
1360.98	221.939
1364.54	183.54
1368.09	67.417
1371.65	8.895
1375.2	8.825
1378.75	12.559
1382.3	88.398
1385.85	144.057
1389.39	173.752
1392.93	225.025
1396.48	245.613
1400.02	177.555
1403.56	146.053
1407.09	71.508
1410.63	19.988
1414.16	30.84
1417.69	75.447
1421.22	76.941
1424.75	161.585
1428.27	223.752
1431.8	217.759
1435.32	241.471
1438.84	219.858
1442.36	212.65
1445.88	90.491
1449.4	34.378
1452.91	33.996
1456.42	54.794
1459.93	96.535
1463.44	151.599
1466.95	202.375
1470.45	248.65
1473.96	257.592
1477.46	198.427
1480.96	108.935
1484.46	116.135
1487.96	47.774
1491.45	13.412
1494.95	77.679
1498.44	56.167
1501.93	146.143
1505.42	196.269
1508.9	242.791
1512.39	227.573
1515.87	0
