Measurement: Raman, 514 nm, ccw, Raman Data Processed
Mineral: Celestine
Rruff sample: R040007
Ideal chemistry: SrSO_4_
Locality: Coahuila, Mexico
Source: University of Arizona Mineral Museum
Description: Blue tabular crystals
Measured chemistry: Light bands: (Sr_0.95_Ba_0.04_Ca_0.01_)_Σ=1_S_1.00_O_4_; Dark bands: (Sr_0.99_Ba_0.01_)_Σ=1_S_1.00_O_4_; trace amounts of Ca
Pin_id: M00013
Orientation: Laser parallel to b* (0 1 0). Fiducial mark perpendicular to laser is parallel to c [0 0 1]
Raman shift (cm-1)	intensity
51.466	0
55.666	42.785
59.863	4.821
64.059	3.637
68.253	14.062
72.445	116.957
76.635	244.482
80.823	707.245
85.009	1359.97
89.193	886.484
93.375	463.679
97.554	442.45
101.732	671.67
105.908	631.259
110.082	348.167
114.254	293.36
118.424	309.821
122.592	368.55
126.758	355.562
130.922	259.867
135.083	215.438
139.243	204.085
143.401	195.727
147.557	203.401
151.711	250.145
155.863	207.971
160.013	214.888
164.161	231.898
168.308	326.002
172.452	284.199
176.594	223.488
180.734	205.088
184.872	244.546
189.008	342.619
193.143	461.236
197.275	390.158
201.405	247.908
205.534	169.458
209.66	135.68
213.784	106.191
217.907	88.179
222.027	68.545
226.146	71.261
230.263	36.004
234.377	57.802
238.49	40.141
242.601	23.628
246.709	36.249
250.816	43.994
254.921	29.845
259.024	22.796
263.125	23.831
267.224	43.943
271.321	46.126
275.416	36.378
279.51	12.692
283.601	12.066
287.69	26.13
291.778	19.979
295.863	14.511
299.947	13.087
304.029	10.707
308.108	7.63
312.186	8.075
316.262	8.821
320.336	13.39
324.408	9.433
328.478	0.296
332.546	26.197
336.612	1.134
340.677	8.902
344.739	12.091
348.799	19.116
352.858	17.8
356.915	13.814
360.969	38.605
365.022	30.702
369.073	14.797
373.122	2.904
377.169	4.386
381.215	10.629
385.258	14.525
389.299	20.414
393.339	53.406
397.376	21.775
401.412	31.1
405.446	14.469
409.478	32.935
413.508	48.37
417.536	40.593
421.562	76.093
425.586	105.618
429.609	132.167
433.629	203.753
437.648	377.347
441.665	834.965
445.68	2511.61
449.693	6868.27
453.704	7469.97
457.713	2949.7
461.721	1266.45
465.726	566.224
469.73	303.838
473.731	167.643
477.731	116.465
481.729	64.865
485.725	56.728
489.72	32.6
493.712	40.495
497.703	22.721
501.691	36.228
505.678	30.142
509.663	16.079
513.646	15.41
517.627	42.35
521.607	33.941
525.584	19.862
529.56	8.451
533.534	15.156
537.506	2.586
541.476	28.031
545.444	6.27
549.41	11.615
553.375	26.564
557.337	34.656
561.298	18.633
565.257	13.511
569.214	12.658
573.17	35.241
577.123	18.509
581.075	11.337
585.024	62.196
588.972	40.012
592.918	42.907
596.863	25.121
600.805	72.604
604.746	120.487
608.685	217.744
612.621	499.111
616.557	1257.13
620.49	1105.81
624.421	859.913
628.351	631.633
632.279	504.802
636.205	929.015
640.129	783.809
644.051	544.607
647.972	804.125
651.89	2188.74
655.807	3598.79
659.722	1618.65
663.636	565.36
667.547	267.493
671.457	142.882
675.365	108.728
679.271	110.08
683.175	70.648
687.077	53.943
690.978	51.192
694.877	50.735
698.774	58.795
702.669	45.27
706.562	35.222
710.454	30.396
714.344	67.559
718.232	59.767
722.118	11.929
726.002	35.194
729.885	10.891
733.766	23.397
737.645	36.576
741.522	27.314
745.397	29.014
749.271	5.662
753.143	18.278
757.013	15.595
760.881	36.371
764.748	14.85
768.613	3.735
772.476	30.594
776.337	22.882
780.196	47.571
784.054	1.783
787.91	42.948
791.764	28.066
795.616	31.124
799.467	57.135
803.316	37.094
807.163	7.01
811.008	31.882
814.851	36.715
818.693	34.506
822.533	20.252
826.371	17.961
830.208	27.649
834.042	19.316
837.875	12.959
841.706	27.576
845.536	28.945
849.363	3.724
853.189	0.748
857.013	1.25
860.836	2.228
864.656	2.403
868.475	41.783
872.292	3.967
876.108	7.797
879.922	5.373
883.733	6.708
887.544	17.718
891.352	34.932
895.159	15.093
898.964	60.276
902.767	64.026
906.568	20.135
910.368	23.557
914.166	51.658
917.962	29.089
921.757	51.039
925.55	75.812
929.341	30.975
933.13	49.102
936.918	54.769
940.703	70.794
944.488	57.347
948.27	58.305
952.051	87.248
955.83	100.46
959.607	114.446
963.383	115.219
967.156	178.049
970.928	221.034
974.699	374.577
978.468	320.831
982.234	496.113
986	798.464
989.763	1449.82
993.525	3968.21
997.285	23641.7
1001.04	44788.3
1004.8	6851.07
1008.55	1955.43
1012.31	977.488
1016.06	570.088
1019.81	444.725
1023.56	332.998
1027.31	227.299
1031.05	173.052
1034.79	124.034
1038.53	88.923
1042.27	63.008
1046.01	88.978
1049.75	21.026
1053.48	6.875
1057.22	58.268
1060.95	74.455
1064.68	61.682
1068.4	7.96
1072.13	16.309
1075.86	38.716
1079.58	29.167
1083.3	31.23
1087.02	21.77
1090.74	66.37
1094.45	161.043
1098.17	127.766
1101.88	221.77
1105.59	483.579
1109.3	1035.42
1113.01	912.311
1116.71	374.236
1120.42	203.202
1124.12	204.511
1127.82	104.551
1131.52	96.971
1135.22	105.074
1138.91	163.613
1142.61	303.039
1146.3	545.94
1149.99	1151.28
1153.68	3037.65
1157.37	4104.93
1161.06	2666.31
1164.74	1468.84
1168.42	747.318
1172.1	472.923
1175.78	327.397
1179.46	313.868
1183.14	459.654
1186.81	954.965
1190.48	1264.95
1194.15	686.911
1197.83	344.338
1201.49	206.67
1205.16	145.456
1208.82	97.08
1212.49	74.556
1216.15	90.11
1219.81	112.211
1223.46	94.461
1227.12	42.83
1230.78	38.075
1234.43	53.099
1238.08	38.081
1241.73	12.746
1245.38	0.142
1249.03	59.886
1252.67	53.533
1256.31	22.08
1259.95	20.674
1263.6	37.392
1267.23	27.882
1270.87	36.4
1274.51	4.135
1278.14	52.31
1281.77	50.741
1285.4	18.105
1289.03	30.377
1292.66	14.552
1296.28	4.705
1299.91	24.798
1303.53	31.823
1307.15	12.225
1310.77	10.636
1314.38	25.841
1318	32.119
1321.61	17.696
1325.23	3.408
1328.84	28.944
1332.45	3.395
1336.06	14.781
1339.66	30.097
1343.27	49.324
1346.87	31.486
1350.47	52.597
1354.07	72.663
1357.67	50.681
1361.26	15.345
1364.86	32.725
1368.45	37.617
1372.04	7.517
1375.63	39.309
1379.22	31.194
1382.81	19.367
1386.39	54.515
1389.98	40.408
1393.56	46.498
1397.14	48.545
1400.72	74.81
1404.3	46.279
1407.87	63.597
1411.45	91.028
1415.02	80.655
1418.59	73.604
1422.16	86.832
1425.73	39.414
1429.29	51.761
1432.86	51.969
1436.42	66.359
1439.98	77.461
1443.54	134.215
1447.1	104.71
1450.66	114.809
1454.21	110.627
1457.77	118.083
1461.32	72.928
1464.87	42.648
1468.42	54.76
1471.96	55.072
1475.51	16.055
1479.06	87.27
1482.6	49.434
1486.14	52.705
1489.68	66.026
1493.22	57.395
1496.75	48.451
1500.29	22.73
1503.82	47.371
1507.35	65.505
1510.88	45.192
1514.41	6.732
1517.94	0.415
1521.46	53.395
