Measurement: Raman, 514 nm, ccw, Raman Data Processed
Mineral: Celestine
Rruff sample: R040007
Ideal chemistry: SrSO_4_
Locality: Coahuila, Mexico
Source: University of Arizona Mineral Museum
Description: Blue tabular crystals
Measured chemistry: Light bands: (Sr_0.95_Ba_0.04_Ca_0.01_)_Σ=1_S_1.00_O_4_; Dark bands: (Sr_0.99_Ba_0.01_)_Σ=1_S_1.00_O_4_; trace amounts of Ca
Pin_id: M00011
Orientation: Laser parallel to c* (0 0 1). Fiducial mark perpendicular to laser is parallel to a [1 0 0]
Raman shift (cm-1)	intensity
75.239	0
79.427	51.281
83.614	273.425
87.798	429.752
91.981	312.965
96.161	230.436
100.34	168.419
104.516	109.596
108.691	102.136
112.864	100.812
117.034	194.287
121.203	170.977
125.369	229.482
129.534	202.119
133.696	130.444
137.857	54.056
142.016	50.849
146.172	11.686
150.327	5.368
154.48	22.427
158.63	31.023
162.779	22.259
166.926	44.42
171.07	99.883
175.213	63.319
179.354	34.831
183.493	21.051
187.63	61.805
191.765	57.374
195.898	127.327
200.029	153.651
204.158	114.049
208.285	49.823
212.41	48.176
216.533	0.181
220.654	36.369
224.773	9.641
228.891	6.927
233.006	10.601
237.119	8.111
241.231	0.881
245.34	8.808
249.448	3.593
253.553	27.953
257.657	7.98
261.758	0.333
265.858	6.185
269.956	8.068
274.052	10.601
278.146	13.247
282.237	16.881
286.327	9.521
290.416	5.826
294.502	8.167
298.586	20.519
302.668	11.26
306.749	13.947
310.827	13.082
314.903	7.937
318.978	28.036
323.051	24.064
327.121	3.961
331.19	7.956
335.257	28.823
339.322	17.607
343.385	30.297
347.446	7.892
351.505	17.432
355.563	26.883
359.618	51.298
363.672	23.685
367.723	36.04
371.773	51.363
375.821	33.674
379.866	48.973
383.91	20.195
387.952	96.492
391.992	65.786
396.031	67.522
400.067	100.306
404.101	118.619
408.134	115.23
412.165	127.461
416.193	131.052
420.22	149.488
424.245	176.74
428.268	204.062
432.289	276.577
436.309	346.815
440.326	521.6
444.342	974.604
448.355	2188.33
452.367	5217.94
456.377	9923.13
460.385	14751.4
464.391	9108.74
468.395	3271.79
472.398	1273.91
476.398	663.118
480.397	445.207
484.394	297.308
488.389	251.23
492.382	179.301
496.373	154.995
500.362	123.189
504.349	77.209
508.335	112.333
512.319	63.361
516.3	58.137
520.28	51.697
524.259	51.302
528.235	43.947
532.209	52.714
536.182	54.492
540.152	40.742
544.121	37.585
548.088	20.286
552.053	31.415
556.017	19.917
559.978	52.444
563.938	19.216
567.895	31.376
571.851	61.646
575.805	53.6
579.758	44.368
583.708	41.274
587.657	39.087
591.603	46.829
595.548	67.582
599.491	50.292
603.432	98.28
607.372	167.72
611.309	343.404
615.245	1003.11
619.179	1781.78
623.111	1234.89
627.041	650.722
630.97	558.461
634.896	1132.37
638.821	1924.1
642.744	1011.27
646.665	341.172
650.584	163.773
654.502	200.889
658.418	129.45
662.331	80.902
666.244	13.053
670.154	46.752
674.062	32.112
677.969	44.113
681.874	23.44
685.777	39.659
689.678	0.165
693.577	23.044
697.475	12.983
701.371	2.037
705.265	37.886
709.157	13.749
713.047	17.597
716.936	13.338
720.823	5.79
724.708	9.746
728.591	16.378
732.472	32.994
736.352	18.359
740.23	30.789
744.106	40.355
747.98	29.549
751.853	42.86
755.723	35.133
759.592	5.369
763.459	17.738
767.325	37.803
771.188	42.811
775.05	27.771
778.91	8.67
782.768	18.517
786.625	28.326
790.479	8.096
794.332	4.193
798.183	17.458
802.033	31.072
805.88	3.356
809.726	64.169
813.57	24.658
817.413	19.106
821.253	17.347
825.092	19.65
828.929	8.679
832.764	13.658
836.598	64.095
840.429	30.631
844.259	16.191
848.088	13.238
851.914	46.856
855.739	21.051
859.562	18.037
863.383	21.675
867.203	78.1
871.02	2.627
874.836	10.614
878.65	3.075
882.463	69.481
886.274	15.319
890.083	23.136
893.89	1.076
897.695	13.727
901.499	72.577
905.301	49.429
909.102	72.311
912.9	41.911
916.697	17.026
920.492	0.948
924.285	55.027
928.077	28.935
931.867	108.458
935.655	60.305
939.442	49.359
943.226	64.924
947.009	106.262
950.791	96.235
954.57	74.92
958.348	92.395
962.124	109.337
965.899	131.351
969.671	159.456
973.442	290.852
977.211	361.7
980.979	436.84
984.745	502.391
988.509	949.587
992.271	2104.86
996.032	7306.15
999.791	42312.5
1003.55	27293.9
1007.3	5575.34
1011.06	1791.81
1014.81	877.322
1018.56	617.869
1022.31	412.375
1026.06	362.883
1029.8	274.311
1033.55	203.043
1037.29	127.843
1041.03	127.703
1044.77	75.589
1048.5	37.564
1052.24	83.48
1055.97	26.549
1059.7	32.661
1063.43	46.054
1067.16	9.104
1070.89	7.49
1074.61	13.922
1078.34	8.602
1082.06	18.876
1085.78	40.381
1089.5	48.943
1093.21	47.754
1096.93	48.342
1100.64	112.147
1104.35	172.794
1108.06	519.471
1111.77	741.578
1115.48	454.306
1119.18	175.065
1122.89	88.865
1126.59	6.894
1130.29	9.857
1133.99	68.656
1137.68	82.67
1141.38	160.746
1145.07	258.256
1148.76	488.809
1152.45	878.802
1156.14	1670.97
1159.83	2799.07
1163.51	2585.65
1167.19	1386.3
1170.88	697.396
1174.56	324.462
1178.23	205.515
1181.91	128.314
1185.59	111.996
1189.26	130.865
1192.93	67.602
1196.6	18.975
1200.27	18.167
1203.94	39.301
1207.6	49.752
1211.27	2.707
1214.93	46.175
1218.59	22.862
1222.25	74.739
1225.9	61.462
1229.56	14.267
1233.21	8.091
1236.86	1.852
1240.51	55.738
1244.16	16.288
1247.81	37.39
1251.45	37.127
1255.1	94.801
1258.74	54.42
1262.38	57.014
1266.02	56.586
1269.66	10.315
1273.29	52.999
1276.93	59.511
1280.56	13.01
1284.19	17.425
1287.82	40.949
1291.45	31.148
1295.07	60.259
1298.7	17.258
1302.32	85.135
1305.94	0.055
1309.56	12.703
1313.18	60.408
1316.8	67.053
1320.41	89.648
1324.02	53.19
1327.63	13.337
1331.24	26.967
1334.85	44.304
1338.46	8.509
1342.06	15.583
1345.67	9.273
1349.27	33.695
1352.87	44.387
1356.47	44.306
1360.07	7.149
1363.66	111.895
1367.25	88.579
1370.85	81.465
1374.44	79.8
1378.03	45.433
1381.61	32.515
1385.2	28.612
1388.78	94.334
1392.37	30.711
1395.95	47.501
1399.53	90.03
1403.1	92.698
1406.68	100.022
1410.26	91.147
1413.83	96.346
1417.4	96.847
1420.97	50.196
1424.54	79.406
1428.1	138.682
1431.67	65.823
1435.23	107.571
1438.8	115.355
1442.36	138.646
1445.91	144.082
1449.47	133.764
1453.03	173.985
1456.58	170.624
1460.13	182.706
1463.68	166.632
1467.23	142.32
1470.78	172.805
1474.33	93.646
1477.87	85.912
1481.42	137.217
1484.96	119.638
1488.5	108.468
1492.04	53.656
1495.57	76.182
1499.11	108.864
1502.64	69.168
1506.17	76.154
1509.71	96.855
1513.23	14.868
1516.76	98.725
1520.29	37.532
1523.81	0
