Measurement: Raman, 514 nm, ccw, Raman Data Processed
Mineral: Celestine
Rruff sample: R050008
Ideal chemistry: SrSO_4_
Locality: Scofield Quarry, Maybee, Monroe County, Michigan, USA
Source: Eugene Schlepp
Description: Pale blue tabular crystals
Measured chemistry: Sr_1.00_S_1.00_O_4_
Pin_id: M00399
Orientation: Laser parallel to b* (0 1 0). Fiducial mark perpendicular to laser is parallel to -c [0 0 -1]
Raman shift (cm-1)	intensity
50.167	0
54.392	63.46
58.614	111.491
62.834	163.248
67.052	234.02
71.268	178.61
75.481	170.326
79.693	66.717
83.902	24.22
88.108	0.473
92.313	6.603
96.515	23.048
100.715	45.571
104.913	140.555
109.109	177.228
113.303	67.419
117.494	89.598
121.683	113.978
125.87	211.679
130.055	230.014
134.237	157.726
138.417	71.616
142.596	36.888
146.771	34.776
150.945	51.919
155.117	54.864
159.286	62.376
163.453	61.138
167.618	60.124
171.781	80.019
175.941	67.025
180.1	61.708
184.256	63.065
188.41	87.216
192.562	154.988
196.711	286.583
200.859	304.298
205.004	171.27
209.147	96.094
213.288	23.747
217.427	15.721
221.564	6.546
225.698	1.822
229.83	1.73
233.96	6.783
238.088	0.899
242.214	22.458
246.338	7.681
250.459	2.507
254.579	6.124
258.696	10.513
262.811	14.556
266.924	2.714
271.035	17.23
275.143	3.428
279.25	7.087
283.354	6.903
287.456	22.179
291.556	6.181
295.654	5.105
299.75	0.921
303.843	0.413
307.935	18.883
312.024	15.89
316.111	7.753
320.196	3.453
324.279	31.241
328.36	7.989
332.439	16.667
336.516	18.443
340.59	12.196
344.662	18.861
348.733	22.345
352.801	38.857
356.867	19.453
360.931	27.014
364.992	35.107
369.052	40.034
373.11	51.505
377.165	25.605
381.218	27.981
385.27	36.828
389.319	41.274
393.366	37.405
397.411	39.821
401.454	50.415
405.495	54.667
409.533	62.866
413.57	36.123
417.604	35.816
421.637	63.889
425.667	95.94
429.695	120.215
433.721	154.581
437.745	220.831
441.767	379.626
445.787	707.34
449.805	1899.77
453.821	4615.09
457.834	6447.02
461.846	8493.58
465.856	5028.78
469.863	1634.19
473.868	678.564
477.872	329.954
481.873	233.36
485.872	134.776
489.869	100.244
493.864	110.78
497.857	69.268
501.848	47.845
505.837	52.404
509.824	56.715
513.809	41.437
517.792	30.182
521.772	18.912
525.751	27.741
529.728	11.578
533.702	10.436
537.675	19.273
541.645	20.145
545.613	30.003
549.58	12.006
553.544	9.981
557.507	4.018
561.467	16.103
565.425	8.413
569.381	8.817
573.335	14.005
577.288	14.448
581.238	5.743
585.186	4.971
589.132	19.174
593.076	28.524
597.018	28.339
600.958	45.941
604.896	94.271
608.832	137.556
612.766	274.752
616.698	719.089
620.628	1635.49
624.556	1711.82
628.482	1260.11
632.405	698.418
636.327	978.812
640.247	2182.49
644.165	1033.73
648.081	527.016
651.995	666.027
655.907	1596.9
659.817	1778.45
663.725	647.827
667.63	222.28
671.534	105.384
675.436	57.018
679.336	67.427
683.234	53.623
687.13	19.096
691.024	43.408
694.916	24.824
698.806	26.77
702.694	7.091
706.58	16.963
710.464	18.808
714.346	2.513
718.226	1.63
722.105	0.988
725.981	17.592
729.855	31.475
733.727	10.17
737.597	12.773
741.466	13.769
745.332	18.302
749.196	10.798
753.059	13.256
756.919	6.678
760.778	6.062
764.634	16.41
768.489	7.722
772.341	18.996
776.192	4.768
780.041	10.613
783.887	3.466
787.732	3.51
791.575	1.558
795.416	8.341
799.255	19.202
803.092	11.028
806.927	11.81
810.76	10.538
814.591	17.215
818.421	17.153
822.248	8.409
826.073	8.061
829.897	36.408
833.718	4.831
837.538	6.195
841.356	2.502
845.171	10.747
848.985	2.037
852.797	4.872
856.607	10.334
860.415	13.268
864.221	7.329
868.025	3.746
871.828	9.849
875.628	3.391
879.426	13.549
883.223	12.205
887.018	2.659
890.81	7.303
894.601	3.995
898.39	25.716
902.177	16.228
905.962	25.853
909.745	11.462
913.526	27.066
917.306	23.746
921.083	35.376
924.859	8.964
928.632	31.747
932.404	45.327
936.174	39.344
939.942	43.493
943.708	41.087
947.472	24.247
951.235	42.354
954.995	76.919
958.754	68.776
962.51	104.766
966.265	141.09
970.018	168.213
973.769	279.001
977.518	350.016
981.265	457.037
985.011	685.499
988.754	1046.22
992.496	2154.3
996.236	7493.25
999.974	53428.5
1003.71	21194.3
1007.44	4154.36
1011.18	1578.44
1014.91	891.557
1018.63	593.568
1022.36	414.031
1026.09	296.055
1029.81	221.818
1033.53	191.734
1037.25	136.061
1040.97	111.515
1044.68	101.587
1048.4	71.134
1052.11	74.739
1055.82	75.431
1059.53	63.183
1063.23	40.016
1066.94	52.916
1070.64	13.865
1074.34	32.87
1078.04	38.929
1081.74	41.07
1085.43	81.282
1089.12	253.561
1092.82	589.976
1096.51	507.397
1100.19	247.873
1103.88	280.401
1107.56	588.989
1111.25	817.645
1114.93	412.362
1118.61	171.143
1122.28	139.988
1125.96	83.89
1129.63	96.854
1133.3	124.159
1136.97	191.248
1140.64	309.796
1144.31	483.081
1147.97	872.458
1151.63	1991.42
1155.29	3971.8
1158.95	4127.3
1162.61	3047.76
1166.26	1607.29
1169.92	831.605
1173.57	491.24
1177.22	357.619
1180.87	332.688
1184.51	433.467
1188.15	785.453
1191.8	549.308
1195.44	249.492
1199.08	129.105
1202.71	107.319
1206.35	57.738
1209.98	51.667
1213.61	39.013
1217.24	49.478
1220.87	37.561
1224.5	41.856
1228.12	45.448
1231.75	22.137
1235.37	26.332
1238.99	4.827
1242.6	28.493
1246.22	24.729
1249.83	27.188
1253.44	37.998
1257.05	19.319
1260.66	10.038
1264.27	16.146
1267.87	13.758
1271.48	22.137
1275.08	9.47
1278.68	9.922
1282.28	6.634
1285.87	1.256
1289.47	34.145
1293.06	4.453
1296.65	24.668
1300.24	2.143
1303.83	5.037
1307.41	7.191
1310.99	12.69
1314.58	11.387
1318.16	16.556
1321.73	16.445
1325.31	16.402
1328.89	10.331
1332.46	4.228
1336.03	29.088
1339.6	13.913
1343.17	10.715
1346.73	5.568
1350.3	9.546
1353.86	0.159
1357.42	6.415
1360.98	14.96
1364.54	20.476
1368.09	10.958
1371.65	2.459
1375.2	41.956
1378.75	5.722
1382.3	1.284
1385.85	35.748
1389.39	7.197
1392.93	16.623
1396.48	32.031
1400.02	9.098
1403.56	32
1407.09	34.112
1410.63	28.624
1414.16	49.803
1417.69	48.332
1421.22	27.477
1424.75	39.084
1428.27	23.886
1431.8	20.824
1435.32	37.971
1438.84	66.724
1442.36	38.387
1445.88	39.476
1449.4	66.565
1452.91	58.973
1456.42	38.386
1459.93	45.498
1463.44	43.686
1466.95	24.533
1470.45	37.082
1473.96	40.253
1477.46	37.409
1480.96	22.189
1484.46	21.877
1487.96	45.694
1491.45	31.559
1494.95	5.501
1498.44	11.575
1501.93	19.632
1505.42	32.068
1508.9	3.051
1512.39	23.347
1515.87	28.636
1519.36	0
