Measurement: Raman, 514 nm, ccw, Raman Data Processed
Mineral: Celestine
Rruff sample: R040007
Ideal chemistry: SrSO_4_
Locality: Coahuila, Mexico
Source: University of Arizona Mineral Museum
Description: Blue tabular crystals
Measured chemistry: Light bands: (Sr_0.95_Ba_0.04_Ca_0.01_)_Σ=1_S_1.00_O_4_; Dark bands: (Sr_0.99_Ba_0.01_)_Σ=1_S_1.00_O_4_; trace amounts of Ca
Pin_id: M00013
Orientation: Laser parallel to b* (0 1 0). Fiducial mark perpendicular to laser is parallel to c [0 0 1]
Raman shift (cm-1)	intensity
51.466	0
55.666	38.554
59.863	21.622
64.059	0.223
68.253	0.607
72.445	29.809
76.635	83.309
80.823	138.768
85.009	161.966
89.193	193.641
93.375	230.091
97.554	217.826
101.732	251.884
105.908	247.208
110.082	205.763
114.254	244.565
118.424	283.581
122.592	371.826
126.758	300.252
130.922	217.872
135.083	167.616
139.243	143.39
143.401	122.169
147.557	135.983
151.711	123.849
155.863	105.776
160.013	112.768
164.161	119.829
168.308	119.956
172.452	127.098
176.594	100.326
180.734	116.836
184.872	119.828
189.008	166.839
193.143	272.519
197.275	325.197
201.405	308.077
205.534	170.183
209.66	112.978
213.784	85.783
217.907	84.173
222.027	43.25
226.146	75.056
230.263	45.971
234.377	52.142
238.49	52.444
242.601	31.857
246.709	43.385
250.816	50.997
254.921	13.683
259.024	25.436
263.125	20.249
267.224	17.118
271.321	22.04
275.416	19.01
279.51	22.026
283.601	23.085
287.69	21.184
291.778	17.679
295.863	31.483
299.947	19.68
304.029	13.908
308.108	7.169
312.186	13.461
316.262	1.783
320.336	6.132
324.408	8.49
328.478	2.913
332.546	22.661
336.612	15.115
340.677	13.588
344.739	17.089
348.799	16.392
352.858	28.226
356.915	10.207
360.969	28.353
365.022	3.573
369.073	41.015
373.122	2.378
377.169	2.748
381.215	5.906
385.258	6.681
389.299	25.854
393.339	2.608
397.376	26.405
401.412	23.572
405.446	15.09
409.478	31.061
413.508	20.985
417.536	34.946
421.562	56.916
425.586	57.907
429.609	95.918
433.629	104.948
437.648	200.006
441.665	372.082
445.68	1041.18
449.693	3042.3
453.704	3968.75
457.713	2052.91
461.721	1004.09
465.726	408.28
469.73	182.328
473.731	88.56
477.731	75.316
481.729	53.591
485.725	32.388
489.72	3.49
493.712	33.844
497.703	31.529
501.691	12.017
505.678	16.826
509.663	9.055
513.646	7.495
517.627	7.445
521.607	6.897
525.584	8.189
529.56	24.436
533.534	32.243
537.506	8.734
541.476	15.509
545.444	9.475
549.41	15.948
553.375	16.603
557.337	33.383
561.298	15.069
565.257	23.169
569.214	21.612
573.17	15.052
577.123	42.526
581.075	16.907
585.024	11.277
588.972	40.638
592.918	71.511
596.863	82.242
600.805	126.753
604.746	169.89
608.685	208.189
612.621	547.762
616.557	1538.61
620.49	1264.04
624.421	671.134
628.351	553.361
632.279	911.448
636.205	2443.64
640.129	1840.91
644.051	576.178
647.972	369.911
651.89	485.185
655.807	606.44
659.722	347.087
663.636	157.733
667.547	78.895
671.457	76.804
675.365	40.196
679.271	45.148
683.175	40.222
687.077	41.158
690.978	22.868
694.877	38.693
698.774	47.201
702.669	28.872
706.562	40.811
710.454	5.497
714.344	32.129
718.232	11.383
722.118	17.27
726.002	40.825
729.885	14.292
733.766	43.711
737.645	40.111
741.522	35.479
745.397	21.816
749.271	3.114
753.143	33.395
757.013	9.614
760.881	35.784
764.748	15.917
768.613	0.984
772.476	7.065
776.337	35.083
780.196	33.069
784.054	21.989
787.91	41.878
791.764	46.717
795.616	23.506
799.467	2.765
803.316	18.919
807.163	13.429
811.008	22.167
814.851	14.294
818.693	26.152
822.533	23.567
826.371	4.043
830.208	45.314
834.042	15.348
837.875	2.057
841.706	7.203
845.536	21.194
849.363	42.252
853.189	17.146
857.013	26.685
860.836	11.434
864.656	22.087
868.475	9.149
872.292	5.823
876.108	4.583
879.922	3.514
883.733	32.479
887.544	38.568
891.352	23.655
895.159	4.742
898.964	64.828
902.767	69.002
906.568	54.235
910.368	32.002
914.166	54.421
917.962	71.514
921.757	87.795
925.55	37.758
929.341	34.391
933.13	54.685
936.918	64.031
940.703	96.156
944.488	58.356
948.27	86.483
952.051	86.069
955.83	149.958
959.607	114.91
963.383	154.21
967.156	155.793
970.928	198.707
974.699	348.949
978.468	407.919
982.234	557.359
986	769.755
989.763	1545.69
993.525	4252.25
997.285	25112
1001.04	46826.7
1004.8	7349.65
1008.55	2122.79
1012.31	1020.51
1016.06	641.347
1019.81	428.236
1023.56	301.174
1027.31	240.033
1031.05	178.081
1034.79	144.201
1038.53	115.405
1042.27	90.382
1046.01	75.96
1049.75	38.314
1053.48	27.726
1057.22	48.167
1060.95	39.702
1064.68	5.301
1068.4	37.944
1072.13	31.634
1075.86	44.372
1079.58	38.144
1083.3	36.171
1087.02	19.039
1090.74	53.229
1094.45	109.275
1098.17	136.31
1101.88	223.399
1105.59	492.537
1109.3	935.732
1113.01	744.981
1116.71	367.305
1120.42	198.69
1124.12	115.117
1127.82	75.591
1131.52	156.247
1135.22	213.817
1138.91	251.756
1142.61	440.4
1146.3	751.794
1149.99	1299.39
1153.68	2641.18
1157.37	4455.01
1161.06	4425.78
1164.74	2714.69
1168.42	1319.88
1172.1	724.822
1175.78	463.816
1179.46	368.209
1183.14	340.639
1186.81	450.572
1190.48	550.818
1194.15	268.639
1197.83	180.164
1201.49	131.466
1205.16	122.228
1208.82	73.193
1212.49	80.373
1216.15	71.782
1219.81	54.504
1223.46	103.545
1227.12	8.097
1230.78	62.138
1234.43	19.246
1238.08	3.115
1241.73	30.004
1245.38	5.279
1249.03	18.266
1252.67	55.393
1256.31	20.402
1259.95	56.55
1263.6	23.978
1267.23	26.042
1270.87	2.104
1274.51	2.875
1278.14	25.097
1281.77	8.984
1285.4	34.884
1289.03	8.359
1292.66	11.628
1296.28	2.989
1299.91	28.563
1303.53	2.82
1307.15	6.697
1310.77	38.388
1314.38	14.827
1318	11.227
1321.61	28.439
1325.23	17.807
1328.84	21.978
1332.45	10.069
1336.06	4.462
1339.66	4.103
1343.27	1.957
1346.87	40.733
1350.47	9.447
1354.07	10.308
1357.67	65.031
1361.26	46.885
1364.86	40.549
1368.45	51.06
1372.04	39.515
1375.63	29.754
1379.22	53.093
1382.81	17.311
1386.39	40.077
1389.98	52.807
1393.56	71.48
1397.14	2.891
1400.72	26.642
1404.3	7.262
1407.87	53.842
1411.45	50.983
1415.02	57.149
1418.59	67.113
1422.16	65.734
1425.73	50.978
1429.29	58.751
1432.86	36.304
1436.42	98.27
1439.98	75.959
1443.54	30.96
1447.1	58.952
1450.66	92.85
1454.21	75.162
1457.77	72.378
1461.32	43.377
1464.87	49.169
1468.42	59.8
1471.96	58.059
1475.51	67.514
1479.06	24.014
1482.6	33.028
1486.14	34.73
1489.68	41.631
1493.22	69.329
1496.75	20.273
1500.29	36.378
1503.82	11.576
1507.35	47.877
1510.88	47.571
1514.41	3.467
1517.94	34.001
1521.46	25.401
