Measurement: Raman, 514 nm, ccw, Raman Data Processed
Mineral: Cerussite
Rruff sample: R050011
Ideal chemistry: PbCO_3_
Locality: Daoping Lead and Zinc mine, Gongcheng, Guangxi, China
Source: Eugene Schlepp
Description: Colorless hexagonal bipyramidal crystals
Measured chemistry: Pb_1.00_CO_3_ ; CO_2_ not measured but estimated by difference and stoichiometry
Pin_id: L00519
Orientation: Laser parallel to -c* (0 0 -1). Fiducial mark perpendicular to laser is parallel to a [1 0 0]
Raman shift (cm-1)	intensity
46.637	0
50.856	28.41
55.072	86.559
59.287	169.786
63.499	262.644
67.709	37.238
71.917	72.393
76.123	77.065
80.327	69.159
84.529	15.433
88.728	71.639
92.926	481.266
97.121	1196.08
101.314	1853.89
105.505	2306.59
109.694	3110.11
113.881	4633.42
118.066	5502.5
122.249	5218.31
126.43	4927.81
130.608	4930.98
134.785	4338.59
138.959	3455.51
143.131	3016.68
147.301	2544.07
151.469	2294.53
155.635	2171.38
159.799	1965.61
163.961	1786.23
168.121	1772.24
172.278	1865.62
176.434	1730.42
180.587	1662.71
184.739	1637.35
188.888	1580.33
193.035	1573.69
197.18	1728.4
201.324	1899.43
205.465	2008.81
209.603	2204.52
213.74	2677.18
217.875	2689.45
222.008	2459.86
226.139	2338.37
230.267	2137.13
234.394	1622.19
238.518	1345.09
242.641	1167.16
246.761	1039.08
250.879	873.752
254.996	759.13
259.11	667.727
263.222	657.911
267.332	588.095
271.44	531.547
275.546	408.308
279.65	469.264
283.752	351.645
287.852	352.081
291.95	374.731
296.046	361.596
300.14	248.369
304.231	279.787
308.321	267.13
312.409	265.39
316.495	169.226
320.578	203.242
324.66	158.439
328.739	186.811
332.817	129.507
336.892	82.213
340.966	145.124
345.037	144.191
349.107	97.411
353.174	169.951
357.24	127.023
361.303	101.071
365.365	97.796
369.424	134.167
373.481	41.388
377.537	139.443
381.59	24.157
385.642	4.818
389.691	24.729
393.738	105.264
397.784	44.638
401.827	16.169
405.868	7.89
409.908	35.23
413.945	10.213
417.98	14.06
422.014	14.598
426.045	5.356
430.075	65.401
434.102	65.559
438.127	58.597
442.151	108.792
446.172	123.519
450.192	47.72
454.209	49.032
458.225	1.385
462.238	103.695
466.25	44.94
470.259	27.371
474.267	45.703
478.273	65.117
482.276	5.707
486.278	44.52
490.278	79.938
494.276	82.262
498.271	39.52
502.265	61.39
506.257	18.158
510.247	2.534
514.235	101.893
518.221	5.791
522.205	13.468
526.187	54.749
530.167	63.959
534.145	49.366
538.122	1.811
542.096	81.685
546.068	127.723
550.039	93.015
554.007	4.066
557.973	40.596
561.938	25.025
565.901	104.564
569.861	81.05
573.82	68.293
577.777	46.938
581.732	35.859
585.685	37.773
589.636	124.83
593.585	124.688
597.532	74.332
601.477	94.276
605.42	143.581
609.361	74.976
613.301	20.428
617.238	175.165
621.174	92.722
625.108	77.836
629.039	90.92
632.969	63.309
636.897	122.991
640.823	200.786
644.747	92.493
648.669	24.852
652.589	120.21
656.508	53.62
660.424	148.633
664.339	189.001
668.251	272.533
672.162	464.102
676.071	619.31
679.978	145.913
683.883	182.181
687.786	115.811
691.687	43.59
695.586	239.166
699.484	129.061
703.379	123.612
707.273	70.425
711.165	94.018
715.055	58.602
718.943	146.222
722.829	96.486
726.713	57.754
730.595	79.599
734.476	44.837
738.354	122.659
742.231	184.706
746.106	58.796
749.978	102.996
753.849	137.171
757.719	117.907
761.586	172.094
765.451	84.864
769.315	6.633
773.177	87.81
777.036	130.279
780.894	236.61
784.75	166.965
788.605	81.123
792.457	27.343
796.307	62.203
800.156	77.792
804.003	170.804
807.848	30.7
811.691	125.473
815.532	110.905
819.371	142.712
823.209	160.336
827.045	198.722
830.878	96.563
834.71	204.27
838.54	1022.19
842.369	389.775
846.195	196.879
850.02	294.368
853.842	41.766
857.663	129.171
861.482	45.71
865.299	195.229
869.115	232.396
872.928	26.43
876.74	7.184
880.55	30.12
884.358	101.202
888.164	94.578
891.969	102.171
895.771	49.811
899.572	82.877
903.371	5.319
907.168	272.276
910.963	309.571
914.757	107.224
918.548	72.867
922.338	68.808
926.126	26.428
929.912	153.882
933.697	171.342
937.479	108.763
941.26	16.166
945.039	53.562
948.816	141.103
952.591	98.586
956.365	196.237
960.136	283.422
963.906	60.977
967.674	41.39
971.441	64.725
975.205	122.366
978.968	150.376
982.729	265.552
986.488	173.638
990.245	32.621
994	50.782
997.754	108.9
1001.51	186.858
1005.26	266.014
1009	185.06
1012.75	99.517
1016.5	157.653
1020.24	86.056
1023.98	220.952
1027.72	279.412
1031.46	635.891
1035.19	244.16
1038.93	392.519
1042.66	555.732
1046.39	973.799
1050.12	3069.04
1053.85	52828.3
1057.57	10401.5
1061.29	1501.85
1065.02	482.922
1068.74	458.754
1072.45	396.396
1076.17	443.781
1079.88	461.114
1083.6	400.803
1087.31	298.211
1091.02	336.077
1094.72	233.493
1098.43	245.119
1102.13	352.134
1105.84	408.876
1109.54	316.883
1113.24	294.133
1116.93	160.907
1120.63	127.517
1124.32	114.027
1128.01	240.188
1131.7	291.495
1135.39	317.838
1139.08	223.598
1142.76	71.303
1146.45	66.84
1150.13	43.344
1153.81	249.892
1157.48	185.321
1161.16	270.276
1164.84	165.371
1168.51	290.07
1172.18	24.514
1175.85	111.263
1179.52	82.605
1183.18	126.319
1186.85	229.88
1190.51	283.243
1194.17	116.363
1197.83	69.314
1201.48	57.897
1205.14	15.412
1208.79	86.849
1212.44	108.922
1216.09	370.812
1219.74	242.548
1223.39	204.135
1227.03	135.584
1230.68	156.863
1234.32	77.988
1237.96	68.967
1241.6	89.753
1245.23	270.379
1248.87	150.806
1252.5	301.092
1256.13	211.198
1259.76	187.952
1263.39	127.683
1267.02	147.33
1270.64	142.217
1274.26	471.138
1277.88	372.747
1281.5	341.085
1285.12	279.771
1288.74	247.334
1292.35	25.173
1295.96	12.878
1299.57	169.762
1303.18	216.876
1306.79	174.608
1310.4	551.823
1314	748.71
1317.6	647.873
1321.2	575.826
1324.8	601.635
1328.4	327.621
1331.99	253.406
1335.59	494.005
1339.18	679.327
1342.77	842.941
1346.36	1211.8
1349.95	1624.26
1353.53	1859.22
1357.12	2531.11
1360.7	3186.3
1364.28	3641.58
1367.86	2757.16
1371.44	1973.34
1375.01	1378.55
1378.59	1073.36
1382.16	905.443
1385.73	792.373
1389.3	567.078
1392.87	411.488
1396.43	146.801
1399.99	104.256
1403.56	46.109
1407.12	160.355
1410.68	202.412
1414.23	426.955
1417.79	401.762
1421.34	426.785
1424.9	501.9
1428.45	277.102
1431.99	182.434
1435.54	58.119
1439.09	184.014
1442.63	9.996
1446.17	296.01
1449.71	282.035
1453.26	518.279
1456.79	784.67
1460.33	864.557
1463.86	834.152
1467.39	883.336
1470.92	707.119
1474.45	466.793
1477.98	399.977
1481.51	460.338
1485.03	352.254
1488.56	313.318
1492.08	427.611
1495.6	445.518
1499.11	505.461
1502.63	609.1
1506.14	508.836
1509.66	457.135
1513.17	318.898
1516.68	0
