Measurement: Raman, 514 nm, ccw, Raman Data Processed
Mineral: Cerussite
Rruff sample: R050011
Ideal chemistry: PbCO_3_
Locality: Daoping Lead and Zinc mine, Gongcheng, Guangxi, China
Source: Eugene Schlepp
Description: Colorless hexagonal bipyramidal crystals
Measured chemistry: Pb_1.00_CO_3_ ; CO_2_ not measured but estimated by difference and stoichiometry
Pin_id: L00377
Orientation: Laser parallel to b* (0 1 0). Fiducial mark perpendicular to laser is parallel to -c [0 0 -1]
Raman shift (cm-1)	intensity
46.637	0
50.856	74.088
55.072	175.612
59.287	248.219
63.499	191.529
67.709	54.884
71.917	0.472
76.123	4.567
80.327	13.588
84.529	25.33
88.728	141.085
92.926	411.605
97.121	905.776
101.314	1602.46
105.505	1793.6
109.694	1796.18
113.881	2026.18
118.066	2312.56
122.249	2750.33
126.43	3378.45
130.608	3716.93
134.785	3262.82
138.959	2561.93
143.131	2142.12
147.301	1871.22
151.469	1681.36
155.635	1425.69
159.799	1315.26
163.961	1207.04
168.121	1152.01
172.278	1181.2
176.434	1194.6
180.587	1234.17
184.739	1320.93
188.888	1432.88
193.035	1558.98
197.18	1887.25
201.324	2247.67
205.465	2636.27
209.603	3145.07
213.74	3222.63
217.875	2883.58
222.008	2314.82
226.139	1857.32
230.267	1515.03
234.394	1275.65
238.518	1100.35
242.641	929.64
246.761	810.024
250.879	754.264
254.996	579.196
259.11	587.204
263.222	471.849
267.332	428.894
271.44	401.305
275.546	351.649
279.65	295.073
283.752	269.609
287.852	276.253
291.95	215.671
296.046	201.568
300.14	150.496
304.231	120.51
308.321	172.607
312.409	122.475
316.495	110.738
320.578	101.082
324.66	119.476
328.739	93.971
332.817	92.536
336.892	43.169
340.966	54.02
345.037	61.786
349.107	30.183
353.174	46.702
357.24	46.079
361.303	18.062
365.365	32.74
369.424	18.359
373.481	15.008
377.537	40.083
381.59	15.398
385.642	24.634
389.691	32.08
393.738	11.57
397.784	3.808
401.827	2.339
405.868	20.965
409.908	3.666
413.945	14.518
417.98	9.675
422.014	3.99
426.045	17.377
430.075	24.096
434.102	79.872
438.127	20.191
442.151	26.971
446.172	33.89
450.192	38.749
454.209	22.467
458.225	37.309
462.238	34.069
466.25	57.871
470.259	13.385
474.267	57.339
478.273	14.061
482.276	16.219
486.278	31.511
490.278	55.197
494.276	44.946
498.271	0.675
502.265	31.818
506.257	53.663
510.247	6.291
514.235	2.122
518.221	37.423
522.205	2.053
526.187	31.408
530.167	3.826
534.145	23.15
538.122	44.494
542.096	22.477
546.068	68.102
550.039	11.019
554.007	45.544
557.973	10.748
561.938	24.661
565.901	26.98
569.861	12.089
573.82	69.301
577.777	56.644
581.732	4.109
585.685	55.327
589.636	38.907
593.585	8.09
597.532	43.508
601.477	22.838
605.42	19.156
609.361	36.447
613.301	24.93
617.238	31.17
621.174	22.318
625.108	68.381
629.039	93.717
632.969	108.738
636.897	37.682
640.823	42.605
644.747	39.014
648.669	39.881
652.589	24.639
656.508	26.311
660.424	58.969
664.339	60.304
668.251	183.849
672.162	733.734
676.071	551.208
679.978	332.124
683.883	235.85
687.786	103.941
691.687	56.956
695.586	1.252
699.484	0.304
703.379	0.601
707.273	52.022
711.165	1.737
715.055	28.194
718.943	75.845
722.829	85.297
726.713	130.28
730.595	114.603
734.476	36.271
738.354	7.534
742.231	1.142
746.106	57.859
749.978	40.587
753.849	29.16
757.719	68.773
761.586	78.208
765.451	79.98
769.315	59.499
773.177	15.051
777.036	73.01
780.894	51.525
784.75	40.932
788.605	53.801
792.457	51.253
796.307	5.309
800.156	10.061
804.003	70.465
807.848	0.304
811.691	29.06
815.532	96.992
819.371	93.012
823.209	69.431
827.045	44.815
830.878	71.107
834.71	508.122
838.54	1307.45
842.369	447.708
846.195	167.979
850.02	118.279
853.842	31.994
857.663	41.776
861.482	43.827
865.299	73.16
869.115	72.466
872.928	13.209
876.74	19.159
880.55	15.431
884.358	84.953
888.164	26.32
891.969	55.605
895.771	37.556
899.572	57.966
903.371	0.644
907.168	8.669
910.963	77.077
914.757	3.534
918.548	29.865
922.338	59.292
926.126	8.408
929.912	74.002
933.697	15.59
937.479	7.202
941.26	50.136
945.039	38.501
948.816	35.244
952.591	59.585
956.365	75.921
960.136	76.133
963.906	15.45
967.674	15.247
971.441	60.292
975.205	18.562
978.968	67.951
982.729	77.49
986.488	90.464
990.245	81.771
994	28.23
997.754	43.353
1001.51	70.835
1005.26	58.935
1009	96.327
1012.75	103.673
1016.5	122.75
1020.24	102.87
1023.98	150.565
1027.72	185.049
1031.46	400.31
1035.19	269.073
1038.93	318.24
1042.66	499.271
1046.39	1129.66
1050.12	5127.88
1053.85	61731.6
1057.57	10132.1
1061.29	1651.22
1065.02	506.669
1068.74	311.972
1072.45	247.575
1076.17	244.654
1079.88	234.239
1083.6	167.818
1087.31	145.013
1091.02	152.558
1094.72	121.031
1098.43	156.169
1102.13	115.472
1105.84	167.113
1109.54	132.734
1113.24	117.723
1116.93	93.833
1120.63	72.737
1124.32	45.55
1128.01	71.27
1131.7	67.473
1135.39	21.384
1139.08	51.933
1142.76	85.456
1146.45	13.922
1150.13	60.327
1153.81	17.677
1157.48	27.968
1161.16	35.163
1164.84	67.256
1168.51	17.294
1172.18	12.273
1175.85	61.177
1179.52	3.015
1183.18	38.798
1186.85	37.528
1190.51	1.801
1194.17	24.24
1197.83	25.175
1201.48	39.455
1205.14	11.211
1208.79	31.047
1212.44	20.006
1216.09	45.92
1219.74	71.804
1223.39	30.654
1227.03	1.531
1230.68	8.213
1234.32	14.077
1237.96	6.559
1241.6	34.13
1245.23	14.636
1248.87	39.083
1252.5	96.466
1256.13	28.788
1259.76	38.055
1263.39	84.282
1267.02	17.526
1270.64	56.551
1274.26	48.541
1277.88	112.273
1281.5	38.369
1285.12	50.386
1288.74	57.984
1292.35	69.705
1295.96	63.415
1299.57	139.12
1303.18	118.697
1306.79	168.207
1310.4	297.957
1314	325.488
1317.6	355.773
1321.2	386.2
1324.8	399.358
1328.4	324.976
1331.99	263.4
1335.59	375.397
1339.18	400.209
1342.77	457.511
1346.36	587.999
1349.95	756.738
1353.53	1003.05
1357.12	1421.78
1360.7	1753.83
1364.28	1946.23
1367.86	1825.51
1371.44	1864.56
1375.01	2154.01
1378.59	1982.7
1382.16	1644.16
1385.73	1058.01
1389.3	563.806
1392.87	408.189
1396.43	252.321
1399.99	166.121
1403.56	155.498
1407.12	75.907
1410.68	140.251
1414.23	203.669
1417.79	183.127
1421.34	245.619
1424.9	199.141
1428.45	254.689
1431.99	172.441
1435.54	105.352
1439.09	107.481
1442.63	144.717
1446.17	121.95
1449.71	100.238
1453.26	124.709
1456.79	151.391
1460.33	183.319
1463.86	254.471
1467.39	199.862
1470.92	174.534
1474.45	131.539
1477.98	194.922
1481.51	163.715
1485.03	129.013
1488.56	118.931
1492.08	86.582
1495.6	80.132
1499.11	120.816
1502.63	93.981
1506.14	146.151
1509.66	84.191
1513.17	90.657
1516.68	7.453
