Measurement: Raman, 514 nm, ccw, Raman Data Processed
Mineral: Cerussite
Rruff sample: R050174
Ideal chemistry: PbCO_3_
Locality: Tsumeb mine, Tsumeb, Otavi District, Oshikoto, Namibia
Source: Marcus Origlieri
Description: Colorless single crystal
Measured chemistry: Pb_1.00_CO_3_ ; C not measured but estimated by difference and stoichiometry
Pin_id: L01208
Orientation: Laser parallel to c* (0 0 1). Fiducial mark perpendicular to laser is parallel to a [1 0 0]
Raman shift (cm-1)	intensity
51.431	0
56.387	42.479
61.341	68.1834
66.292	1913.25
71.241	6080.16
76.187	6712.96
81.131	4251.79
86.072	3013.63
91.012	2704.91
95.948	2850.33
100.883	3101.95
105.815	3614.05
110.744	3913.34
115.671	4743.38
120.596	5516.3
125.519	5179.02
130.439	4739.95
135.356	4355.5
140.271	3574.57
145.184	3107.6
150.094	3120.59
155.002	2982.18
159.908	2416.29
164.811	2134.69
169.711	2144.35
174.61	2401.68
179.505	2432.47
184.399	2078.35
189.29	1631.28
194.178	1604.66
199.064	1660.01
203.948	1999.04
208.829	2368.61
213.708	2686.48
218.585	2773.46
223.459	2420.16
228.33	2108.85
233.199	1705.25
238.066	1338.71
242.93	1146.69
247.792	893.771
252.651	563.825
257.508	405.824
262.363	234.456
267.215	108.772
272.064	87.6199
276.912	31.6096
281.756	0.330322
286.598	48.5388
291.438	14.5762
296.276	17.5561
301.111	44.9238
305.943	43.4968
310.773	11.6685
315.601	74.0618
320.426	9.49268
325.248	70.3787
330.068	37.2826
334.886	51.7162
339.701	42.7898
344.514	11.4889
349.324	25.8423
354.132	32.3092
358.938	13.693
363.741	31.4668
368.541	25.2474
373.339	63.718
378.135	31.8358
382.928	39.5521
387.718	39.5161
392.506	54.4806
397.292	41.9302
402.075	85.0867
406.856	72.5999
411.634	89.1636
416.41	126.347
421.183	180.958
425.954	150.219
430.722	123.23
435.488	136.352
440.251	193.624
445.012	106.404
449.77	142.93
454.526	159.148
459.28	178.553
464.03	111.428
468.779	154.805
473.525	170.416
478.268	133.468
483.009	125.401
487.747	154.227
492.483	131.51
497.217	102.684
501.948	80.8922
506.676	113.332
511.402	91.229
516.125	116.959
520.846	51.1604
525.565	64.4849
530.281	93.9575
534.994	81.604
539.705	81.0034
544.413	61.563
549.119	85.3469
553.822	62.3572
558.523	36.1294
563.222	16.1968
567.917	67.886
572.611	29.7866
577.302	56.4836
581.99	56.7827
586.676	62.678
591.359	68.853
596.04	89.7361
600.718	38.1768
605.394	6.76074
610.067	60.2585
614.737	64.7549
619.406	87.7478
624.071	113.369
628.734	110.789
633.395	99.2686
638.053	63.2698
642.708	31.6609
647.361	38.6311
652.012	0.513672
656.66	56.1531
661.305	119.459
665.948	145.482
670.588	594.826
675.226	839.962
679.861	228.108
684.494	155.138
689.124	111.662
693.752	189.663
698.377	152.566
702.999	61.6494
707.619	21.6528
712.237	58.7375
716.852	21.8403
721.464	69.4119
726.074	104.028
730.681	70.5144
735.286	75.0579
739.888	132.732
744.488	26.0598
749.085	21.4582
753.68	33.7888
758.272	5.0166
762.861	31.8401
767.448	32.6348
772.033	42.4263
776.614	76.4434
781.194	87.8201
785.77	42.1133
790.345	54.7002
794.916	15.0627
799.485	64.9604
804.052	25.8774
808.616	8.89355
813.177	108.789
817.736	62.2974
822.292	90.2324
826.846	97.52
831.397	162.986
835.945	623.927
840.491	904.606
845.035	179.592
849.576	48.5002
854.114	83.5715
858.65	70.5527
863.183	2.42334
867.713	27.5442
872.241	58.5347
876.767	11.4866
881.29	24.4744
885.81	82.7371
890.328	50.6045
894.843	6.15161
899.356	27.9688
903.866	31.7732
908.373	15.1374
912.878	32.001
917.38	88.7956
921.88	51.6619
926.377	57.5483
930.872	24.5029
935.364	39.6121
939.853	21.4439
944.34	16.5234
948.824	22.1968
953.306	20.0962
957.785	66.9995
962.261	83.4028
966.735	22.0015
971.207	19.8372
975.675	18.5471
980.141	45.2151
984.605	26.8296
989.066	66.3811
993.524	52.8816
997.98	30.1531
1002.43	57.6125
1006.88	86.9126
1011.33	45.1299
1015.78	10.2588
1020.22	72.8769
1024.66	81.7363
1029.1	190.37
1033.53	405.237
1037.97	276.1
1042.4	487.16
1046.82	2171.47
1051.25	18019.9
1055.67	54008.3
1060.09	5871.48
1064.51	700.683
1068.92	307.853
1073.33	229.488
1077.74	196.428
1082.15	150.319
1086.55	108.437
1090.95	101.37
1095.35	190.364
1099.75	105.511
1104.14	94.7634
1108.53	75.0444
1112.92	76.4939
1117.31	193.416
1121.69	173.945
1126.07	110.638
1130.45	34.1728
1134.82	82.644
1139.19	74.9785
1143.57	47.2336
1147.93	53.22
1152.3	113.285
1156.66	6.23779
1161.02	79.072
1165.38	8.80884
1169.73	25.4209
1174.08	16.135
1178.43	8.91553
1182.78	48.125
1187.12	36.9424
1191.46	21.501
1195.8	17.7168
1200.14	18.8738
1204.47	21.0659
1208.8	50.843
1213.13	26.29
1217.46	48.425
1221.78	37.0371
1226.1	31.6724
1230.42	70.187
1234.73	56.0381
1239.04	11.6235
1243.35	25.6616
1247.66	38.9448
1251.97	28.7637
1256.27	100.502
1260.57	65.7022
1264.86	131.011
1269.16	119.351
1273.45	138.73
1277.74	104.795
1282.03	193.346
1286.31	105.687
1290.59	146.936
1294.87	235.128
1299.14	248.399
1303.42	334.103
1307.69	451.785
1311.95	492.893
1316.22	591.825
1320.48	623.653
1324.74	620.302
1329	658.051
1333.26	740.233
1337.51	814.217
1341.76	964.609
1346	1266.55
1350.25	1709.68
1354.49	2729.12
1358.73	4012.91
1362.96	5130.89
1367.2	4656.85
1371.43	3149.26
1375.66	2134.91
1379.88	1446.78
1384.11	965.896
1388.33	591.252
1392.54	332.867
1396.76	251.757
1400.97	172.94
1405.18	147.436
1409.39	316.271
1413.59	304.301
1417.8	272.97
1421.99	400.999
1426.19	379.801
1430.38	409.835
1434.58	425.602
1438.77	368.957
1442.95	467.006
1447.13	524.801
1451.32	746.894
1455.49	929.46
1459.67	1184.52
1463.84	1537.15
1468.01	1717.36
1472.18	2024.11
1476.35	2113.33
1480.51	2026.08
1484.67	1781.33
1488.83	1331.08
1492.98	951.311
1497.13	723.015
1501.28	455.161
1505.43	204.69
1509.57	229.449
1513.71	118.824
1517.85	56.1509
1521.99	64.4565
1526.12	89.1489
1530.25	39.2349
1534.38	35.0947
1538.5	22.0061
1542.62	45.917
1546.74	11.9299
1550.86	87.9246
1554.98	83.8357
1559.09	66.1594
1563.2	45.1377
1567.31	1.15259
