Measurement: Raman, 514 nm, ccw, Raman Data Processed
Mineral: Cerussite
Rruff sample: R050298
Ideal chemistry: PbCO_3_
Locality: Bunker Hill mine, Shoshone County, Idaho, USA
Source: Eugene Schlepp
Description: Group of colorless tabular crystals
Measured chemistry: Pb_1.00_CO_3_
Pin_id: L00742
Orientation: Laser parallel to -a* (-1 0 0). Fiducial mark perpendicular to laser is parallel to b [0 1 0]
Raman shift (cm-1)	intensity
51.431	0
56.387	61.389
61.341	10.6735
66.292	23.3585
71.241	38.7145
76.187	117.709
81.131	363.974
86.072	627.088
91.012	1053.26
95.948	1368.13
100.883	1620.52
105.815	1831.95
110.744	1914.24
115.671	2037.37
120.596	2594.78
125.519	4025.75
130.439	6539.23
135.356	8597.03
140.271	6787.47
145.184	4552.61
150.094	3410.52
155.002	2828.22
159.908	2257.75
164.811	1772.14
169.711	1563.32
174.61	1560.18
179.505	1489.71
184.399	1323.81
189.29	1096.71
194.178	994.762
199.064	843.13
203.948	832.418
208.829	653.259
213.708	616.835
218.585	594.896
223.459	527.75
228.33	467.316
233.199	496.313
238.066	454.711
242.93	453.092
247.792	449.523
252.651	370.185
257.508	323.084
262.363	287.549
267.215	210.762
272.064	187.036
276.912	222.799
281.756	162.758
286.598	134.223
291.438	90.9225
296.276	76.9525
301.111	67.8026
305.943	49.2334
310.773	65.953
315.601	60.6902
320.426	9.15674
325.248	6.92871
330.068	15.597
334.886	55.1202
339.701	8.77393
344.514	16.5656
349.324	10.5953
354.132	16.8909
358.938	4.56152
363.741	34.1123
368.541	16.033
373.339	7.73999
378.135	30.5437
382.928	17.7225
387.718	6.55176
392.506	23.9619
397.292	39.6392
402.075	7.70422
406.856	6.1311
411.634	4.88623
416.41	11.6188
421.183	11.8662
425.954	44.433
430.722	22.759
435.488	33.5573
440.251	8.64539
445.012	17.7922
449.77	27.1426
454.526	2.75073
459.28	61.7506
464.03	26.8269
468.779	30.7656
473.525	33.3265
478.268	60.8571
483.009	60.361
487.747	58.8612
492.483	76.3429
497.217	56.573
501.948	53.026
506.676	75.9139
511.402	52.223
516.125	55.438
520.846	76.8888
525.565	85.6212
530.281	45.4331
534.994	50.4425
539.705	40.8826
544.413	23.8727
549.119	53.5514
553.822	38.2673
558.523	43.2567
563.222	18.0594
567.917	33.2777
572.611	5.70715
577.302	50.2239
581.99	20.3234
586.676	29.2513
591.359	3.49756
596.04	36.6421
600.718	38.7244
605.394	2.39893
610.067	33.5648
614.737	51.8865
619.406	79.7395
624.071	29.4879
628.734	58.2771
633.395	52.009
638.053	44.6565
642.708	36.4963
647.361	47.134
652.012	60.6668
656.66	10.1376
661.305	7.38769
665.948	35.929
670.588	28.8419
675.226	179.15
679.861	78.3501
684.494	100.294
689.124	51.5175
693.752	46.598
698.377	210.699
702.999	9.77832
707.619	60.3973
712.237	42.1665
716.852	40.6365
721.464	9.06043
726.074	24.6169
730.681	36.2869
735.286	69.3713
739.888	56.7369
744.488	42.7439
749.085	67.6932
753.68	25.9055
758.272	67.0021
762.861	38.6923
767.448	7.20435
772.033	26.8094
776.614	46.5238
781.194	9.24133
785.77	60.8248
790.345	40.9216
794.916	1.18591
799.485	29.4947
804.052	36.1019
808.616	41.6258
813.177	90.217
817.736	53.7965
822.292	100.342
826.846	353.911
831.397	343.548
835.945	1247.1
840.491	4747.48
845.035	694.944
849.576	176.643
854.114	38.136
858.65	73.6122
863.183	31.2058
867.713	20.8141
872.241	15.4415
876.767	25.1024
881.29	10.7725
885.81	38.3821
890.328	7.43225
894.843	15.9816
899.356	61.6249
903.866	4.06604
908.373	1.672
912.878	40.2454
917.38	24.5376
921.88	8.85486
926.377	69.7474
930.872	1.78699
935.364	11.8641
939.853	36.3545
944.34	41.035
948.824	20.7502
953.306	53.4874
957.785	70.2151
962.261	41.0137
966.735	17.7194
971.207	20.4197
975.675	51.1456
980.141	47.848
984.605	46.0084
989.066	48.6837
993.524	54.3326
997.98	21.5627
1002.43	51.5601
1006.88	14.1
1011.33	36.0281
1015.78	34.73
1020.22	87.4477
1024.66	142.596
1029.1	110.895
1033.53	373.958
1037.97	176.409
1042.4	336.132
1046.82	829.115
1051.25	4414.75
1055.67	58081.8
1060.09	6297.05
1064.51	645.017
1068.92	265.199
1073.33	160.101
1077.74	102.095
1082.15	124.756
1086.55	121.091
1090.95	87.6478
1095.35	43.1202
1099.75	111.422
1104.14	97.3706
1108.53	58.6908
1112.92	63.5605
1117.31	56.4329
1121.69	69.8475
1126.07	117.547
1130.45	43.7028
1134.82	41.2129
1139.19	18.6045
1143.57	62.3313
1147.93	45.4938
1152.3	21.549
1156.66	40.504
1161.02	43.3817
1165.38	10.1708
1169.73	46.8162
1174.08	26.1055
1178.43	27.1305
1182.78	59.3081
1187.12	43.3872
1191.46	20.3617
1195.8	40.2255
1200.14	0.894653
1204.47	2.43091
1208.8	24.0676
1213.13	52.1665
1217.46	45.7653
1221.78	27.9358
1226.1	14.1594
1230.42	8.25
1234.73	86.5767
1239.04	24.2983
1243.35	41.0144
1247.66	29.2297
1251.97	4.86426
1256.27	21.4709
1260.57	7.02979
1264.86	25.5425
1269.16	5.18604
1273.45	30.1453
1277.74	66.9255
1282.03	26.3723
1286.31	19.8877
1290.59	27.3899
1294.87	28.8127
1299.14	13.1272
1303.42	57.1389
1307.69	15.0266
1311.95	31.2888
1316.22	63.7302
1320.48	3.57104
1324.74	105.476
1329	46.584
1333.26	26.7463
1337.51	29.0425
1341.76	28.3071
1346	9.74023
1350.25	32.5979
1354.49	158.498
1358.73	215.372
1362.96	308.112
1367.2	289.772
1371.43	174.596
1375.66	103.678
1379.88	147.362
1384.11	65.8203
1388.33	113.888
1392.54	120.671
1396.76	90.4404
1400.97	157.406
1405.18	199.456
1409.39	322.496
1413.59	521.337
1417.8	605.64
1421.99	708.489
1426.19	656.277
1430.38	643.172
1434.58	675.385
1438.77	791.952
1442.95	1034.72
1447.13	1219.74
1451.32	1562.49
1455.49	2014.48
1459.67	2674.34
1463.84	3249.15
1468.01	3801.32
1472.18	4485.85
1476.35	4804.74
1480.51	4896.01
1484.67	4337.69
1488.83	3512.75
1492.98	2506.19
1497.13	1739.99
1501.28	1207.12
1505.43	932.597
1509.57	594.185
1513.71	417.223
1517.85	329.031
1521.99	210.635
1526.12	192.079
1530.25	133.443
1534.38	141.836
1538.5	75.4458
1542.62	57.6143
1546.74	10.2385
1550.86	67.345
1554.98	17.1228
1559.09	72.4177
1563.2	11.3809
1567.31	20.1482
