Measurement: Raman, 514 nm, ccw, Raman Data Processed
Mineral: Cerussite
Rruff sample: R050174
Ideal chemistry: PbCO_3_
Locality: Tsumeb mine, Tsumeb, Otavi District, Oshikoto, Namibia
Source: Marcus Origlieri
Description: Colorless single crystal
Measured chemistry: Pb_1.00_CO_3_ ; C not measured but estimated by difference and stoichiometry
Pin_id: L01208
Orientation: Laser parallel to c* (0 0 1). Fiducial mark perpendicular to laser is parallel to a [1 0 0]
Raman shift (cm-1)	intensity
51.431	0
56.387	30.2005
61.341	234.978
66.292	3509.51
71.241	9776.53
76.187	9836.86
81.131	5564.12
86.072	3521
91.012	2707.99
95.948	2496.09
100.883	2638.94
105.815	3103.82
110.744	3839.27
115.671	5037.08
120.596	5929.15
125.519	5452.07
130.439	4854.06
135.356	4142.71
140.271	2702.75
145.184	1564.39
150.094	1017.83
155.002	745.679
159.908	556.845
164.811	421.234
169.711	368.81
174.61	443.756
179.505	576.134
184.399	681.187
189.29	805.964
194.178	1102.19
199.064	1563.03
203.948	2111.29
208.829	2839.06
213.708	3354.82
218.585	3452.82
223.459	3072.62
228.33	2596.18
233.199	2041.61
238.066	1404.26
242.93	951.472
247.792	702.07
252.651	485.83
257.508	294.476
262.363	209.407
267.215	109.026
272.064	60.7827
276.912	10.9198
281.756	18.345
286.598	15.6873
291.438	18.0095
296.276	98.3431
301.111	7.9115
305.943	59.7386
310.773	85.9755
315.601	35.8209
320.426	49.2322
325.248	30.243
330.068	43.2018
334.886	23.8975
339.701	24.5205
344.514	35.9952
349.324	26.7485
354.132	20.4558
358.938	22.2351
363.741	28.8877
368.541	56.793
373.339	80.3466
378.135	63.3884
382.928	44.0562
387.718	95.3812
392.506	134.121
397.292	108.16
402.075	142.166
406.856	136.809
411.634	109.12
416.41	89.2795
421.183	135.526
425.954	174.057
430.722	223.851
435.488	200.457
440.251	212.567
445.012	194.474
449.77	248.321
454.526	206.563
459.28	192.347
464.03	223.445
468.779	209.501
473.525	223.02
478.268	145.732
483.009	199.861
487.747	136.478
492.483	202.492
497.217	169.226
501.948	151.249
506.676	120.382
511.402	107.956
516.125	143.473
520.846	99.395
525.565	100.919
530.281	99.8914
534.994	45.1816
539.705	83.6273
544.413	91.3946
549.119	98.39
553.822	73.2684
558.523	104.843
563.222	63.2815
567.917	101.559
572.611	62.7456
577.302	66.0666
581.99	141.217
586.676	110.138
591.359	93.1868
596.04	69.2219
600.718	66.4189
605.394	59.6219
610.067	1.00537
614.737	31.3791
619.406	92.4562
624.071	110.074
628.734	101.667
633.395	122.488
638.053	81.1851
642.708	66.3953
647.361	59.0559
652.012	52.035
656.66	46.1071
661.305	67.1835
665.948	183.273
670.588	582.424
675.226	901.741
679.861	210.416
684.494	102.186
689.124	68.7755
693.752	33.1077
698.377	68.2328
702.999	1.47022
707.619	18.9486
712.237	55.1007
716.852	58.6875
721.464	53.9492
726.074	145.371
730.681	140.076
735.286	71.1843
739.888	48.9575
744.488	46.7165
749.085	61.8639
753.68	18.8677
758.272	79.1428
762.861	57.0991
767.448	49.9963
772.033	100.947
776.614	32.7262
781.194	42.6316
785.77	36.3466
790.345	89.3016
794.916	32.748
799.485	95.2001
804.052	4.23071
808.616	43.0852
813.177	73.214
817.736	39.3812
822.292	63.6877
826.846	99.8113
831.397	192.897
835.945	688.892
840.491	1401.7
845.035	305.474
849.576	48.8763
854.114	88.0956
858.65	76.3419
863.183	33.616
867.713	8.19104
872.241	47.9863
876.767	2.82214
881.29	50.3614
885.81	18.5759
890.328	0.197632
894.843	1.14148
899.356	70.28
903.866	39.402
908.373	27.5436
912.878	14.3256
917.38	54.4381
921.88	42.5405
926.377	27.3403
930.872	5.2904
935.364	108.699
939.853	52.6558
944.34	3.32397
948.824	54.2689
953.306	91.1976
957.785	34.0775
962.261	20.8782
966.735	33.647
971.207	42.3865
975.675	9.10718
980.141	25.2026
984.605	58.3938
989.066	20.9324
993.524	13.4296
997.98	44.9179
1002.43	51.5034
1006.88	75.8648
1011.33	54.6232
1015.78	77.6863
1020.22	43.6084
1024.66	90.1165
1029.1	195.388
1033.53	391.471
1037.97	250.523
1042.4	460.981
1046.82	1655.18
1051.25	15063.9
1055.67	61709.2
1060.09	7559.64
1064.51	812.657
1068.92	274.093
1073.33	202.143
1077.74	88.5186
1082.15	109.672
1086.55	72.4111
1090.95	65.948
1095.35	94.054
1099.75	147.746
1104.14	111.996
1108.53	89.155
1112.92	47.3552
1117.31	109.034
1121.69	88.0671
1126.07	105.998
1130.45	39.9231
1134.82	22.8447
1139.19	41.7126
1143.57	33.5088
1147.93	39.2241
1152.3	17.842
1156.66	0.623779
1161.02	28.8684
1165.38	45.7932
1169.73	18.2256
1174.08	29.103
1178.43	22.3743
1182.78	51.5938
1187.12	6.7085
1191.46	28.7585
1195.8	7.78198
1200.14	13.7861
1204.47	11.7385
1208.8	6.7832
1213.13	22.5449
1217.46	12.3879
1221.78	62.1987
1226.1	63.0269
1230.42	69.8577
1234.73	33.6934
1239.04	28.5413
1243.35	70.4104
1247.66	45.3152
1251.97	42.2551
1256.27	36.2219
1260.57	119.182
1264.86	114.184
1269.16	118.741
1273.45	111.245
1277.74	88.6055
1282.03	164.137
1286.31	165.316
1290.59	176.497
1294.87	230.112
1299.14	305.135
1303.42	449.698
1307.69	426.349
1311.95	509.206
1316.22	560.536
1320.48	691.102
1324.74	635.586
1329	698.844
1333.26	761.512
1337.51	823.086
1341.76	924.162
1346	1097.6
1350.25	1529.7
1354.49	2373.21
1358.73	3366.66
1362.96	4293.38
1367.2	4142.2
1371.43	2768.01
1375.66	1757.06
1379.88	1155.31
1384.11	769.592
1388.33	514.602
1392.54	312.777
1396.76	208.451
1400.97	223.276
1405.18	98.7007
1409.39	152.362
1413.59	195.741
1417.8	179.348
1421.99	185.086
1426.19	134.042
1430.38	129.916
1434.58	111.81
1438.77	121.937
1442.95	9.87183
1447.13	62.2371
1451.32	97.5903
1455.49	77.1919
1459.67	102.061
1463.84	125.215
1468.01	155.587
1472.18	210.178
1476.35	209.996
1480.51	156.037
1484.67	179.297
1488.83	150.79
1492.98	121.345
1497.13	38.0537
1501.28	11.948
1505.43	14.0481
1509.57	30.1348
1513.71	10.2466
1517.85	9.77124
1521.99	6.17261
1526.12	82.0286
1530.25	49.3086
1534.38	13.9114
1538.5	19.0938
1542.62	93.0713
1546.74	44.835
1550.86	83.012
1554.98	41.2427
1559.09	31.3257
1563.2	20.824
1567.31	85.6013
