Measurement: Raman, 514 nm, ccw, Raman Data Processed
Mineral: Cerussite
Rruff sample: R050023
Ideal chemistry: PbCO_3_
Locality: Mammoth - St Anthony mine, Tiger, Pinal County, Arizona, USA
Source: Eugene Schlepp
Description: Prismatic white single crystals
Measured chemistry: Pb_1.00_CO_3_ ; CO_2_ not measured but estimated by difference and stoichiometry
Pin_id: L00220
Orientation: Laser parallel to b* (0 1 0). Fiducial mark perpendicular to laser is parallel to c [0 0 1]
Raman shift (cm-1)	intensity
51.717	0
55.942	116.199
60.165	248.874
64.386	323.551
68.604	178.547
72.82	58.271
77.034	8.793
81.246	6.881
85.455	120.92
89.663	351.062
93.868	950.148
98.07	2187.07
102.271	3586.69
106.469	2989.84
110.665	2159.44
114.859	2208.41
119.05	2721.73
123.24	3960.36
127.427	6103.33
131.612	7573.68
135.794	6647.36
139.975	5020.46
144.153	4016.78
148.329	3610.12
152.503	3138.24
156.674	2512.46
160.843	1927.76
165.011	1662.14
169.175	1675.59
173.338	1700.1
177.499	1605.66
181.657	1393.32
185.813	1155.23
189.967	936.134
194.119	855.594
198.268	758.922
202.415	694.231
206.561	612.959
210.703	562.152
214.844	540.743
218.983	517.557
223.119	483.506
227.253	471.328
231.385	474.506
235.515	446.932
239.643	462.066
243.768	499.445
247.891	389.13
252.012	339.066
256.131	271.737
260.248	233.911
264.363	178.8
268.475	157.072
272.585	143.062
276.693	116.462
280.799	103.458
284.903	81.582
289.005	76.692
293.104	90.754
297.201	63.788
301.296	44.875
305.389	60.937
309.48	41.094
313.569	11.103
317.655	39.122
321.74	18.103
325.822	21.074
329.902	21.031
333.98	3.028
338.056	0.108
342.129	20.804
346.201	11.293
350.27	13.404
354.337	39.476
358.402	13.29
362.465	24.08
366.526	11.124
370.585	1.4
374.642	11.295
378.696	18.9
382.748	5.344
386.799	2.227
390.847	12.383
394.893	18.016
398.936	10.311
402.978	14.533
407.018	4.792
411.055	9.957
415.091	6.979
419.124	2.814
423.155	22.188
427.184	4.242
431.211	5.784
435.236	0.491
439.259	36.686
443.28	39.015
447.298	20.35
451.315	20.127
455.329	39.598
459.341	24.257
463.352	12.757
467.36	34.253
471.366	58.612
475.37	89.808
479.372	42.099
483.371	56.301
487.369	69.442
491.365	59.502
495.358	67.156
499.35	62.018
503.339	68.696
507.326	77.181
511.311	51.496
515.295	65.337
519.276	41.276
523.255	30.403
527.232	35.284
531.207	27.464
535.179	17.622
539.15	53.764
543.119	10.054
547.086	38.009
551.05	12.056
555.013	20.068
558.973	31.978
562.932	33.622
566.888	38.858
570.842	38.093
574.795	13.341
578.745	30.528
582.693	33.382
586.639	1.11
590.583	8.454
594.525	8.029
598.465	15.685
602.403	3.624
606.339	8.897
610.273	0.578
614.205	18.038
618.135	30.524
622.063	12.937
625.989	43.894
629.912	17.577
633.834	53.001
637.754	30.324
641.671	16.757
645.587	25.109
649.501	12.429
653.412	14.723
657.322	35.992
661.23	8.784
665.135	0.632
669.039	38.486
672.94	198.559
676.84	135.651
680.738	414.665
684.633	386.672
688.527	72.625
692.418	46.52
696.308	165.375
700.195	12.197
704.081	24.132
707.964	5.96
711.846	45.874
715.726	44.78
719.603	60.845
723.479	44.993
727.352	20.968
731.224	33.948
735.094	34.131
738.961	24.115
742.827	46.765
746.691	38.577
750.552	54.443
754.412	72.397
758.27	45.345
762.125	10.125
765.979	14.714
769.831	28.135
773.681	25.064
777.529	39.134
781.375	5.878
785.219	28.104
789.06	46.103
792.901	31.477
796.739	32.393
800.575	40.376
804.409	28.268
808.241	57.242
812.071	71.142
815.899	100.464
819.726	95.891
823.55	229.866
827.372	186.863
831.193	409.864
835.011	2061.87
838.828	4007.88
842.642	618.908
846.455	158.946
850.266	55.992
854.075	34.022
857.881	66.099
861.686	32.114
865.489	12.235
869.29	3.59
873.089	5.357
876.886	7.886
880.682	28.203
884.475	15.414
888.266	26.995
892.056	58.409
895.843	1.171
899.629	17.264
903.413	45.692
907.194	35.133
910.974	23.59
914.752	24.996
918.528	33.477
922.302	39.969
926.074	3.545
929.844	61.934
933.613	1.642
937.379	5.104
941.144	8.431
944.906	38.033
948.667	31.511
952.426	25.011
956.183	5.513
959.938	30
963.691	42.483
967.442	11.965
971.191	63.458
974.939	65.933
978.684	30.387
982.428	44.839
986.169	47.276
989.909	31.812
993.647	85.371
997.383	78.892
1001.12	96.512
1004.85	66.043
1008.58	50.672
1012.31	101.968
1016.03	92.658
1019.76	77.985
1023.48	181.927
1027.2	179.768
1030.92	415.284
1034.64	260.17
1038.36	388.815
1042.07	597.961
1045.78	1265.45
1049.49	5642.54
1053.2	59102.4
1056.9	4692.48
1060.61	864.24
1064.31	432.954
1068.01	364.274
1071.71	250.074
1075.41	226.333
1079.1	179.781
1082.79	133.042
1086.48	118.425
1090.17	134.869
1093.86	137.548
1097.55	140.853
1101.23	156.781
1104.91	144.619
1108.59	100.495
1112.27	80.416
1115.95	87.121
1119.62	85.715
1123.3	117.238
1126.97	61.691
1130.63	52.072
1134.3	51.381
1137.97	2.384
1141.63	32.746
1145.29	31.803
1148.95	29.783
1152.61	11.685
1156.27	59.453
1159.92	18.123
1163.57	15.336
1167.22	21.968
1170.87	16.217
1174.52	8.256
1178.16	7.863
1181.81	5.823
1185.45	20.377
1189.09	6.855
1192.73	5.257
1196.36	21.585
1200	3.855
1203.63	26.062
1207.26	16.208
1210.89	9.248
1214.52	4.089
1218.14	20.315
1221.77	0.257
1225.39	9.17
1229.01	4.929
1232.62	23.949
1236.24	37.743
1239.86	12.591
1243.47	29.964
1247.08	38.416
1250.69	3.193
1254.3	26.852
1257.9	3.577
1261.5	54.65
1265.11	59.832
1268.71	97.971
1272.3	67.07
1275.9	91.097
1279.49	70.106
1283.09	45.791
1286.68	61.697
1290.27	33.491
1293.86	128.143
1297.44	140.558
1301.03	146.525
1304.61	150.215
1308.19	145.005
1311.77	177.299
1315.34	192.296
1318.92	169.23
1322.49	187.909
1326.06	184.214
1329.63	190.409
1333.2	253.21
1336.77	238.776
1340.33	258.043
1343.89	354.253
1347.46	355.365
1351.02	571.98
1354.57	847.811
1358.13	1199.22
1361.68	1603.48
1365.23	2117.26
1368.79	2981.61
1372.33	3883.16
1375.88	3628.15
1379.43	2479.23
1382.97	1469.34
1386.51	897.895
1390.05	552.723
1393.59	387.613
1397.13	291.514
1400.66	366.445
1404.19	298.429
1407.72	328.475
1411.25	382.673
1414.78	343.153
1418.31	318.964
1421.83	326.204
1425.36	308.684
1428.88	237.327
1432.39	249.118
1435.91	195.041
1439.43	282.091
1442.94	259.158
1446.45	314.18
1449.96	326.754
1453.47	397.844
1456.98	503.366
1460.48	539.379
1463.99	587.959
1467.49	691.164
1470.99	752.023
1474.49	858.617
1477.99	814.091
1481.48	643.687
1484.97	497.664
1488.46	361.28
1491.95	245.916
1495.44	174.136
1498.93	32.807
1502.41	61.231
1505.9	21.641
1509.38	6.659
1512.86	12.554
