Measurement: Raman, 514 nm, ccw, Raman Data Processed
Mineral: Cerussite
Rruff sample: R050011
Ideal chemistry: PbCO_3_
Locality: Daoping Lead and Zinc mine, Gongcheng, Guangxi, China
Source: Eugene Schlepp
Description: Colorless hexagonal bipyramidal crystals
Measured chemistry: Pb_1.00_CO_3_ ; CO_2_ not measured but estimated by difference and stoichiometry
Pin_id: L00519
Orientation: Laser parallel to -c* (0 0 -1). Fiducial mark perpendicular to laser is parallel to a [1 0 0]
Raman shift (cm-1)	intensity
46.637	0
50.856	91.5
55.072	251.594
59.287	598.838
63.499	668.651
67.709	465.312
71.917	384.133
76.123	164.689
80.327	9.443
84.529	34.972
88.728	105.181
92.926	476.728
97.121	1081.5
101.314	1672.23
105.505	2148.73
109.694	2816.98
113.881	4307.92
118.066	5263.5
122.249	4787.68
126.43	4351.44
130.608	4212.75
134.785	3609.78
138.959	2881.4
143.131	2443.29
147.301	2023.34
151.469	1885.83
155.635	1693.41
159.799	1550.36
163.961	1332.72
168.121	1356.42
172.278	1436.48
176.434	1334.81
180.587	1308.4
184.739	1337.24
188.888	1233.32
193.035	1239.64
197.18	1433.29
201.324	1583.19
205.465	1710.35
209.603	2025.77
213.74	2409.69
217.875	2489.15
222.008	2160.75
226.139	2073.16
230.267	1901.06
234.394	1450.93
238.518	1085.93
242.641	995.699
246.761	825.024
250.879	669.706
254.996	582.559
259.11	470.831
263.222	388.669
267.332	398.67
271.44	346.719
275.546	298.646
279.65	274.959
283.752	218.433
287.852	266.039
291.95	182.918
296.046	191.83
300.14	162.869
304.231	146.023
308.321	187.289
312.409	181.662
316.495	123.153
320.578	91.818
324.66	116.565
328.739	67.512
332.817	112.468
336.892	60.587
340.966	59.168
345.037	77.31
349.107	83.646
353.174	117.274
357.24	76.84
361.303	33.358
365.365	40.038
369.424	33.296
373.481	75.46
377.537	25.033
381.59	72.328
385.642	99.69
389.691	26.333
393.738	27.291
397.784	12.678
401.827	34.288
405.868	73.111
409.908	57.357
413.945	0.698
417.98	23.61
422.014	30.977
426.045	18.503
430.075	20.802
434.102	20.371
438.127	88.648
442.151	58.068
446.172	81.577
450.192	26.018
454.209	15.897
458.225	102.549
462.238	29.835
466.25	19.092
470.259	55.541
474.267	28.876
478.273	8.735
482.276	25.659
486.278	33.274
490.278	62.884
494.276	21.229
498.271	34.394
502.265	2.047
506.257	69.119
510.247	61.078
514.235	51.822
518.221	32.491
522.205	23.067
526.187	21.56
530.167	28.373
534.145	50.861
538.122	2.418
542.096	34.5
546.068	43.466
550.039	3.786
554.007	17.927
557.973	2.984
561.938	28.01
565.901	56.994
569.861	69.157
573.82	101.575
577.777	54.805
581.732	71.957
585.685	34.698
589.636	71.698
593.585	21.654
597.532	87.587
601.477	106.02
605.42	67.584
609.361	18.978
613.301	84.045
617.238	105.277
621.174	99.256
625.108	26.196
629.039	92.027
632.969	82.718
636.897	50.237
640.823	53.708
644.747	20.198
648.669	30.404
652.589	24.014
656.508	10.666
660.424	65.162
664.339	32.595
668.251	249.609
672.162	471.99
676.071	576.811
679.978	214.826
683.883	62.028
687.786	71.646
691.687	23.354
695.586	71.921
699.484	69.952
703.379	78.27
707.273	95.484
711.165	18.317
715.055	15.451
718.943	104.762
722.829	67.778
726.713	87.872
730.595	51.905
734.476	33.382
738.354	50.496
742.231	21.182
746.106	3.987
749.978	183.51
753.849	47.931
757.719	23.72
761.586	113.246
765.451	121.064
769.315	57.543
773.177	107.671
777.036	64.235
780.894	53.421
784.75	77.836
788.605	135.016
792.457	39.604
796.307	39.066
800.156	20.488
804.003	42.264
807.848	107.984
811.691	28.323
815.532	101.508
819.371	31.027
823.209	132.994
827.045	79.708
830.878	96.813
834.71	216.717
838.54	893.973
842.369	311.507
846.195	146.162
850.02	107.061
853.842	18.116
857.663	49.079
861.482	66.479
865.299	91.165
869.115	137.508
872.928	46.336
876.74	5.826
880.55	65.787
884.358	39.764
888.164	44.728
891.969	65.734
895.771	21.515
899.572	89.344
903.371	44.267
907.168	60.913
910.963	127.978
914.757	40.091
918.548	0.784
922.338	60.44
926.126	1.506
929.912	96.713
933.697	90.859
937.479	82.026
941.26	21.246
945.039	169.453
948.816	121.67
952.591	194.896
956.365	54.157
960.136	103.867
963.906	68.911
967.674	88.886
971.441	97.483
975.205	59.564
978.968	18.055
982.729	198.801
986.488	162.369
990.245	41.762
994	11.372
997.754	99.301
1001.51	206.354
1005.26	158.667
1009	146.022
1012.75	66.653
1016.5	106.156
1020.24	107.468
1023.98	196.374
1027.72	205.333
1031.46	480.904
1035.19	183.018
1038.93	388.672
1042.66	486.015
1046.39	903.372
1050.12	2710.99
1053.85	45540
1057.57	8752.38
1061.29	1167.5
1065.02	461.388
1068.74	370.283
1072.45	387.297
1076.17	383.456
1079.88	279.835
1083.6	288.135
1087.31	304.784
1091.02	253.088
1094.72	179.268
1098.43	137.765
1102.13	333.794
1105.84	299.641
1109.54	265.033
1113.24	170.861
1116.93	156.621
1120.63	84.84
1124.32	220.329
1128.01	295.334
1131.7	280.97
1135.39	246.296
1139.08	100.926
1142.76	8.826
1146.45	76.615
1150.13	138.765
1153.81	283.459
1157.48	77.68
1161.16	181.439
1164.84	115.299
1168.51	18.745
1172.18	101.951
1175.85	104.985
1179.52	117.904
1183.18	170.67
1186.85	183.241
1190.51	175.668
1194.17	17.949
1197.83	110.069
1201.48	67.988
1205.14	53.652
1208.79	94.831
1212.44	43.632
1216.09	197.347
1219.74	138.186
1223.39	78.89
1227.03	49.467
1230.68	29.891
1234.32	9.837
1237.96	80.263
1241.6	60.204
1245.23	80.01
1248.87	109.411
1252.5	168.825
1256.13	58.427
1259.76	147.638
1263.39	36.526
1267.02	67.309
1270.64	56.401
1274.26	298.713
1277.88	357.038
1281.5	224.803
1285.12	194.722
1288.74	141.496
1292.35	3.38
1295.96	31.37
1299.57	58.653
1303.18	197.027
1306.79	124.09
1310.4	349.81
1314	425.16
1317.6	426.705
1321.2	503.569
1324.8	429.886
1328.4	403.355
1331.99	328.99
1335.59	554.766
1339.18	629.637
1342.77	765.354
1346.36	1053.34
1349.95	1318.89
1353.53	1686.93
1357.12	2378.51
1360.7	3074.31
1364.28	3469.5
1367.86	2645.26
1371.44	1931.3
1375.01	1416.83
1378.59	1010.22
1382.16	803.896
1385.73	579.903
1389.3	376.032
1392.87	162.799
1396.43	2.811
1399.99	41.197
1403.56	121.825
1407.12	35.168
1410.68	58.881
1414.23	153.542
1417.79	288.532
1421.34	153.536
1424.9	158.519
1428.45	103.474
1431.99	8.423
1435.54	6.38
1439.09	69.216
1442.63	174.905
1446.17	140.577
1449.71	246.305
1453.26	422.168
1456.79	428.409
1460.33	624.004
1463.86	494.704
1467.39	448.742
1470.92	493.215
1474.45	302.475
1477.98	406.873
1481.51	377.204
1485.03	502.533
1488.56	397.652
1492.08	312.824
1495.6	300.699
1499.11	340.31
1502.63	393.093
1506.14	210.114
1509.66	283.999
1513.17	200.445
1516.68	0
