Measurement: Raman, 514 nm, ccw, Raman Data Processed
Mineral: Cerussite
Rruff sample: R050023
Ideal chemistry: PbCO_3_
Locality: Mammoth - St Anthony mine, Tiger, Pinal County, Arizona, USA
Source: Eugene Schlepp
Description: Prismatic white single crystals
Measured chemistry: Pb_1.00_CO_3_ ; CO_2_ not measured but estimated by difference and stoichiometry
Pin_id: L00263
Orientation: Laser parallel to -c* (0 0 -1). Fiducial mark perpendicular to laser is parallel to a [1 0 0]
Raman shift (cm-1)	intensity
55.677	0
59.882	66.598
64.084	17.551
68.284	13.88
72.482	107.219
76.678	205.268
80.872	277.038
85.064	334.473
89.254	528.697
93.442	764.914
97.628	968.945
101.812	1172.44
105.994	1441.01
110.174	2016.4
114.351	2666.44
118.527	3164.03
122.701	3469.07
126.873	4030.89
131.042	4422.72
135.21	3723.47
139.376	2676.66
143.539	1936.71
147.701	1610.57
151.861	1387.36
156.018	1173.12
160.174	1021.89
164.327	896.667
168.479	952.465
172.628	904.281
176.776	950.112
180.922	968.959
185.065	955.932
189.207	1008.36
193.346	1138.85
197.484	1314.38
201.619	1596.67
205.753	1958.57
209.884	2402.64
214.014	2607.87
218.141	2271.84
222.267	2004.48
226.391	1582.41
230.512	1244.49
234.632	882.618
238.749	706.842
242.865	541.767
246.979	433.923
251.09	346.04
255.2	281.537
259.308	206.966
263.414	156.458
267.517	124.051
271.619	109.606
275.719	74.099
279.817	65.653
283.913	64.233
288.007	29.727
292.099	17.249
296.189	20.734
300.277	14.172
304.363	8.423
308.447	10.636
312.529	12.73
316.609	11.715
320.687	6.32
324.764	1.456
328.838	12.709
332.91	18.077
336.981	9.562
341.049	5.148
345.116	19.841
349.18	17.645
353.243	17.824
357.304	11.386
361.362	13.572
365.419	2.892
369.474	5.5
373.527	5.283
377.578	7.802
381.627	6.917
385.674	12.238
389.719	17.414
393.762	10.072
397.804	3.696
401.843	22.132
405.881	29.489
409.916	31.691
413.95	27.794
417.981	40.725
422.011	32.586
426.039	47.398
430.065	36.012
434.089	43.538
438.111	50.136
442.131	31.602
446.149	45.938
450.166	53.146
454.18	51.196
458.193	51.041
462.203	56.781
466.212	58.413
470.219	61.943
474.224	66.275
478.227	60.532
482.228	59.351
486.227	83.652
490.224	67.457
494.22	79.511
498.213	74.142
502.205	68.598
506.194	59.094
510.182	41.159
514.168	27.299
518.152	41.3
522.134	28.311
526.114	17.648
530.093	22.371
534.069	12.968
538.044	0.976
542.017	15.636
545.987	10.612
549.956	8.907
553.923	14.183
557.889	12.883
561.852	17.8
565.813	21.875
569.773	21.868
573.731	26.888
577.686	20.92
581.64	15.871
585.593	21.89
589.543	13.702
593.491	7.621
597.438	14.566
601.382	12.302
605.325	12.097
609.266	16.994
613.205	28.536
617.142	33.151
621.078	37.739
625.011	48.535
628.943	46.969
632.872	69.567
636.8	37.125
640.726	37.619
644.651	12.147
648.573	10.717
652.494	3.266
656.412	3.841
660.329	9.423
664.244	56.964
668.157	249.441
672.069	866.805
675.978	420.264
679.886	62.653
683.792	17.998
687.696	22.479
691.598	26.864
695.498	42.059
699.397	0.416
703.293	1.216
707.188	3.897
711.081	4.476
714.972	6.847
718.862	50.48
722.749	67.961
726.635	96.423
730.519	73.599
734.401	65.634
738.281	55.591
742.16	30.997
746.036	15.826
749.911	20.986
753.784	29.656
757.655	20.24
761.525	26.673
765.392	30.069
769.258	30.045
773.122	34.551
776.984	26.995
780.844	32.433
784.703	35.865
788.56	33.291
792.415	28.711
796.268	19.163
800.119	9.65
803.969	13.075
807.816	16.293
811.662	14.559
815.506	18.862
819.349	13.236
823.189	35.636
827.028	13.998
830.865	71.361
834.7	447.728
838.534	762.072
842.365	163.395
846.195	47.711
850.023	28.034
853.85	16.301
857.674	28.923
861.497	21.034
865.318	1.89
869.137	3.118
872.955	10.413
876.77	23.704
880.584	6.996
884.396	1.294
888.207	8.579
892.015	9.135
895.822	3.133
899.627	9.585
903.43	15.689
907.232	0.961
911.032	11.237
914.83	4.512
918.626	2.78
922.42	12.034
926.213	21.265
930.004	15.485
933.793	14.691
937.581	30.883
941.366	34.062
945.15	20.226
948.932	6.656
952.713	8.254
956.491	13.567
960.268	22.645
964.044	4.682
967.817	30.685
971.589	9.717
975.359	18.756
979.127	15.779
982.893	10.784
986.658	30.772
990.421	41.742
994.183	68.696
997.942	61.631
1001.7	50.549
1005.46	56.448
1009.21	57.343
1012.96	80.205
1016.71	70.15
1020.46	93.904
1024.21	102.972
1027.96	187.528
1031.7	379.071
1035.44	230.118
1039.18	351.914
1042.92	586.261
1046.66	1292.66
1050.39	7805.03
1054.13	65088.1
1057.86	7097.65
1061.59	1156.9
1065.32	508.214
1069.05	290.974
1072.77	217.945
1076.49	172.592
1080.22	144.061
1083.94	106.517
1087.65	124.943
1091.37	103.336
1095.09	106.335
1098.8	107.044
1102.51	119.265
1106.22	109.528
1109.93	88.016
1113.63	83.97
1117.34	68.194
1121.04	65.371
1124.74	70.245
1128.44	46.686
1132.14	42.788
1135.84	44.892
1139.53	22.974
1143.22	27.032
1146.91	34.068
1150.61	26.66
1154.29	28.074
1157.98	23.044
1161.66	22.938
1165.35	11.921
1169.03	0.174
1172.71	0.704
1176.38	11.536
1180.06	11.675
1183.73	9.938
1187.41	8.25
1191.08	4.612
1194.75	23.027
1198.41	5.522
1202.08	22.053
1205.74	7.637
1209.41	11.264
1213.07	13.078
1216.73	0.409
1220.38	12.736
1224.04	12.062
1227.69	6.391
1231.35	0.27
1235	5.076
1238.65	9.413
1242.3	12.736
1245.94	19.048
1249.59	21.351
1253.23	27.644
1256.87	38.929
1260.51	64.206
1264.15	70.476
1267.78	93.739
1271.42	91.997
1275.05	101.25
1278.68	118.5
1282.31	135.748
1285.94	135.998
1289.56	175.251
1293.19	197.513
1296.81	265.785
1300.43	308.07
1304.05	361.364
1307.67	405.678
1311.29	466.835
1314.9	518.853
1318.52	534.832
1322.13	586.609
1325.74	568.737
1329.34	644.723
1332.95	698.727
1336.56	764.721
1340.16	864.073
1343.76	989.109
1347.36	1238.35
1350.96	1642.72
1354.56	2395.5
1358.15	3312.37
1361.74	4261.24
1365.34	4340.56
1368.93	3262.87
1372.52	2180.91
1376.1	1430.98
1379.69	977.863
1383.27	714.236
1386.85	531.691
1390.43	334.164
1394.01	237.658
1397.59	180.176
1401.17	139.719
1404.74	153.291
1408.31	155.894
1411.88	146.527
1415.45	179.196
1419.02	155.912
1422.59	136.734
1426.15	115.709
1429.71	113.87
1433.28	91.272
1436.84	89.875
1440.39	54.629
1443.95	60.454
1447.5	70.29
1451.06	87.146
1454.61	122.17
1458.16	127.383
1461.71	157.815
1465.26	203.498
1468.8	235.475
1472.34	275.791
1475.89	295.478
1479.43	306.552
1482.97	277.06
1486.5	243.122
1490.04	189.872
1493.57	129.458
1497.11	78.073
1500.64	41.993
1504.17	29.657
1507.69	23.739
1511.22	5.604
1514.74	29.865
1518.27	0
