Measurement: Raman, 514 nm, ccw, Raman Data Processed
Mineral: Cerussite
Rruff sample: R050174
Ideal chemistry: PbCO_3_
Locality: Tsumeb mine, Tsumeb, Otavi District, Oshikoto, Namibia
Source: Marcus Origlieri
Description: Colorless single crystal
Measured chemistry: Pb_1.00_CO_3_ ; C not measured but estimated by difference and stoichiometry
Pin_id: L01208
Orientation: Laser parallel to c* (0 0 1). Fiducial mark perpendicular to laser is parallel to a [1 0 0]
Raman shift (cm-1)	intensity
51.431	0
56.387	149.133
61.341	297.066
66.292	4469.86
71.241	11866.2
76.187	11220.9
81.131	6457.83
86.072	4357.86
91.012	3873.88
95.948	4308.81
100.883	5139.43
105.815	6313.77
110.744	7874.85
115.671	9691.5
120.596	9884.92
125.519	7851.71
130.439	6107.23
135.356	4933.47
140.271	3375.64
145.184	2545.39
150.094	2123.76
155.002	1735.72
159.908	1183.79
164.811	1021.67
169.711	1188.92
174.61	1342.38
179.505	1303.47
184.399	1082.38
189.29	1087.68
194.178	1251.31
199.064	1658.16
203.948	2109.47
208.829	2780.45
213.708	3328.18
218.585	3592.49
223.459	3604.24
228.33	3152.9
233.199	2283.45
238.066	1525.51
242.93	1071.93
247.792	648.801
252.651	411.441
257.508	208.925
262.363	63.0836
267.215	20.9729
272.064	50.7158
276.912	64.3656
281.756	35.179
286.598	73.0549
291.438	98.2788
296.276	44.1887
301.111	96.7872
305.943	33.5028
310.773	32.3815
315.601	19.485
320.426	16.2133
325.248	23.0284
330.068	34.9271
334.886	36.6881
339.701	16.9287
344.514	39.2286
349.324	54.0887
354.132	104.369
358.938	140.988
363.741	145.294
368.541	175.784
373.339	176.137
378.135	199.968
382.928	231.617
387.718	210.001
392.506	210.664
397.292	241.859
402.075	272.171
406.856	281.638
411.634	261.715
416.41	257.494
421.183	268.175
425.954	347.94
430.722	292.204
435.488	300.375
440.251	276.279
445.012	281.658
449.77	277.946
454.526	256.743
459.28	216.643
464.03	230.778
468.779	244.84
473.525	226.89
478.268	265.563
483.009	189.449
487.747	150.113
492.483	207.511
497.217	223.295
501.948	143.891
506.676	155.452
511.402	161.881
516.125	167.426
520.846	148.968
525.565	144.133
530.281	126.999
534.994	74.0842
539.705	112.156
544.413	103.287
549.119	101.246
553.822	68.6078
558.523	49.3259
563.222	86.9202
567.917	87.917
572.611	95.1819
577.302	126.209
581.99	33.0585
586.676	78.1291
591.359	101.501
596.04	53.0685
600.718	51.404
605.394	19.0233
610.067	79.1055
614.737	74.3173
619.406	44.4929
624.071	46.1879
628.734	56.4131
633.395	91.2959
638.053	119.176
642.708	33.1486
647.361	4.74329
652.012	45.2317
656.66	5.62317
661.305	100.755
665.948	398.816
670.588	797.068
675.226	809.558
679.861	243.398
684.494	127.907
689.124	63.4877
693.752	119.132
698.377	19.2908
702.999	23.1558
707.619	24.8386
712.237	0.169312
716.852	49.9618
721.464	114.754
726.074	104.079
730.681	92.4351
735.286	55.6523
739.888	52.7013
744.488	76.6982
749.085	42.2528
753.68	35.8859
758.272	6.23621
762.861	18.6631
767.448	53.1345
772.033	60.994
776.614	67.0981
781.194	117.549
785.77	73.4529
790.345	63.3933
794.916	42.0696
799.485	48.5277
804.052	12.4198
808.616	26.6271
813.177	56.7507
817.736	57.0964
822.292	63.2213
826.846	83.3842
831.397	400.062
835.945	929.361
840.491	898.02
845.035	248.972
849.576	92.1184
854.114	73.6713
858.65	76.8605
863.183	85.0429
867.713	79.2062
872.241	44.3355
876.767	2.46008
881.29	15.4315
885.81	14.4287
890.328	35.6986
894.843	50.0723
899.356	23.1014
903.866	33.6453
908.373	44.8075
912.878	4.70471
917.38	9.5542
921.88	25.1621
926.377	72.0441
930.872	93.9626
935.364	63.9043
939.853	30.9534
944.34	33.804
948.824	57.6208
953.306	55.4473
957.785	38.1333
962.261	17.7256
966.735	53.1846
971.207	15.5593
975.675	10.1243
980.141	47.0979
984.605	63.2263
989.066	46.2642
993.524	115.219
997.98	87.0837
1002.43	52.2788
1006.88	71.9851
1011.33	84.4128
1015.78	95.3191
1020.22	119.353
1024.66	130.357
1029.1	308.01
1033.53	413.584
1037.97	371.518
1042.4	785.479
1046.82	3720.58
1051.25	32119.3
1055.67	56009.1
1060.09	5090.96
1064.51	701.784
1068.92	328.51
1073.33	106.743
1077.74	164.117
1082.15	118.142
1086.55	126.345
1090.95	86.1143
1095.35	141.406
1099.75	146.496
1104.14	163.793
1108.53	98.8818
1112.92	70.3577
1117.31	88.3169
1121.69	100.933
1126.07	121.804
1130.45	35.5701
1134.82	85.2383
1139.19	84.8127
1143.57	73.2678
1147.93	56.6296
1152.3	5.19311
1156.66	74.7056
1161.02	36.5164
1165.38	28.1516
1169.73	65.6938
1174.08	53.165
1178.43	3.56177
1182.78	29.8699
1187.12	10.9739
1191.46	6.06201
1195.8	18.3586
1200.14	30.1741
1204.47	2.34448
1208.8	4.9104
1213.13	34.3818
1217.46	80.5535
1221.78	27.751
1226.1	2.10644
1230.42	9.94946
1234.73	1.16504
1239.04	20.2656
1243.35	61.3701
1247.66	37.5
1251.97	132.661
1256.27	61.8525
1260.57	101.039
1264.86	90.2629
1269.16	144.589
1273.45	127.033
1277.74	203.484
1282.03	163.1
1286.31	248.345
1290.59	319.422
1294.87	347.295
1299.14	371.246
1303.42	520.344
1307.69	630.617
1311.95	711.968
1316.22	851.118
1320.48	921.21
1324.74	1009.75
1329	1018.31
1333.26	1123.14
1337.51	1247.04
1341.76	1515.67
1346	1828.64
1350.25	2609.35
1354.49	4065.44
1358.73	5950.29
1362.96	7153.76
1367.2	6063.1
1371.43	4110.79
1375.66	2691.7
1379.88	1689.84
1384.11	1121.21
1388.33	715.819
1392.54	464.811
1396.76	273.21
1400.97	217.632
1405.18	193.352
1409.39	384.483
1413.59	343.011
1417.8	388.91
1421.99	310.287
1426.19	284.826
1430.38	358.659
1434.58	286.347
1438.77	306.783
1442.95	346.075
1447.13	401.676
1451.32	543.066
1455.49	630.855
1459.67	884.208
1463.84	983.063
1468.01	1136.35
1472.18	1300.16
1476.35	1326.43
1480.51	1244.14
1484.67	1148.3
1488.83	780.904
1492.98	581.969
1497.13	398.464
1501.28	221.226
1505.43	197.281
1509.57	70.9312
1513.71	66.5352
1517.85	107.298
1521.99	20.9033
1526.12	66.3813
1530.25	23.7888
1534.38	12.207
1538.5	70.0422
1542.62	14.8682
1546.74	25.3635
1550.86	7.89038
1554.98	80.8852
1559.09	134.762
1563.2	68.0259
1567.31	30.5127
