Measurement: Raman, 514 nm, ccw, Raman Data Processed
Mineral: Cerussite
Rruff sample: R050298
Ideal chemistry: PbCO_3_
Locality: Bunker Hill mine, Shoshone County, Idaho, USA
Source: Eugene Schlepp
Description: Group of colorless tabular crystals
Measured chemistry: Pb_1.00_CO_3_
Pin_id: L01724
Orientation: Laser parallel to c* (0 0 1). Fiducial mark perpendicular to laser is parallel to a [1 0 0]
Raman shift (cm-1)	intensity
51.431	0
56.387	53.8184
61.341	60.7618
66.292	2236.19
71.241	8299.44
76.187	10672
81.131	6566.49
86.072	4181.68
91.012	3347.11
95.948	3011.73
100.883	2950.18
105.815	3040.45
110.744	3456.17
115.671	4008.54
120.596	4794.44
125.519	4520.41
130.439	4892.51
135.356	4843.89
140.271	3746.34
145.184	2856.9
150.094	2640.82
155.002	2511
159.908	2102.04
164.811	1689.65
169.711	1708.18
174.61	1935.56
179.505	1962.31
184.399	1721.08
189.29	1606.91
194.178	1546.65
199.064	1630.44
203.948	1897.31
208.829	2325.53
213.708	2810.01
218.585	2781.74
223.459	2389.94
228.33	2019.62
233.199	1575.8
238.066	1091.73
242.93	874.105
247.792	674.447
252.651	500.291
257.508	359.353
262.363	173.471
267.215	123.407
272.064	85.6892
276.912	38.0005
281.756	1.56641
286.598	36.2217
291.438	3.75171
296.276	1.08374
301.111	45.7119
305.943	16.4377
310.773	46.7515
315.601	76.2971
320.426	4.2915
325.248	20.561
330.068	84.5786
334.886	26.7605
339.701	41.825
344.514	16.2415
349.324	58.4204
354.132	38.1697
358.938	6.71021
363.741	1.60522
368.541	84.8013
373.339	37.8123
378.135	31.0967
382.928	57.3767
387.718	84.4102
392.506	24.1099
397.292	68.0198
402.075	106.397
406.856	98.5266
411.634	103.259
416.41	101.472
421.183	80.3181
425.954	121.254
430.722	126.071
435.488	141.379
440.251	174.152
445.012	233.94
449.77	146.198
454.526	145.489
459.28	179.953
464.03	54.6528
468.779	127.94
473.525	212.769
478.268	135.583
483.009	150.107
487.747	187.133
492.483	228.832
497.217	162.442
501.948	112.87
506.676	210.206
511.402	188.076
516.125	67.4558
520.846	27.428
525.565	120.336
530.281	85.6953
534.994	76.7295
539.705	148.796
544.413	56.7693
549.119	109.748
553.822	92.7019
558.523	139.267
563.222	77.4136
567.917	124.344
572.611	11.7646
577.302	94.8713
581.99	38.0139
586.676	85.2534
591.359	110.309
596.04	17.2388
600.718	98.553
605.394	102.418
610.067	78.1506
614.737	82.1899
619.406	93.573
624.071	184.688
628.734	157.082
633.395	120.552
638.053	107.427
642.708	34.7725
647.361	119.818
652.012	58.8499
656.66	67.9705
661.305	20.5637
665.948	213.108
670.588	446.902
675.226	928.25
679.861	215.955
684.494	203.284
689.124	3.39087
693.752	183.137
698.377	192.183
702.999	8.55469
707.619	42.1899
712.237	43.7647
716.852	51.3831
721.464	78.4011
726.074	103.978
730.681	64.8088
735.286	163.051
739.888	158.411
744.488	64.8709
749.085	79.2896
753.68	5.354
758.272	94.0186
762.861	75.7771
767.448	31.0837
772.033	3.82275
776.614	62.4775
781.194	72.1128
785.77	105.125
790.345	24.8398
794.916	33.0427
799.485	35.1343
804.052	59.1855
808.616	38.3618
813.177	16.4585
817.736	25.123
822.292	35.023
826.846	40.5342
831.397	178.912
835.945	519.771
840.491	868.683
845.035	122.58
849.576	188.047
854.114	57.4404
858.65	104.44
863.183	114.723
867.713	88.7749
872.241	39.2847
876.767	25.5371
881.29	22.2422
885.81	105.985
890.328	60.6943
894.843	30.9204
899.356	58.437
903.866	50.0254
908.373	23.3135
912.878	38.8852
917.38	50.4497
921.88	94.8501
926.377	67.6768
930.872	11.8604
935.364	90.5337
939.853	84.5029
944.34	38.8472
948.824	13.7173
953.306	13.1265
957.785	14.9302
962.261	65.9228
966.735	118.025
971.207	73.9268
975.675	102.759
980.141	94.5352
984.605	27.2676
989.066	97.0586
993.524	115.871
997.98	159.641
1002.43	73.3428
1006.88	91.1646
1011.33	44.8774
1015.78	10.6143
1020.22	16.1035
1024.66	82.4751
1029.1	166.16
1033.53	408.517
1037.97	256.076
1042.4	438.974
1046.82	1488.79
1051.25	13084.3
1055.67	60558.7
1060.09	6880.83
1064.51	754.82
1068.92	303.213
1073.33	185.771
1077.74	144.125
1082.15	96.4019
1086.55	101.126
1090.95	130.05
1095.35	10.9932
1099.75	136.407
1104.14	98.5767
1108.53	97.6475
1112.92	98.541
1117.31	85.5908
1121.69	164.382
1126.07	124.757
1130.45	97.0688
1134.82	81.5176
1139.19	71.9819
1143.57	6.59326
1147.93	48.7046
1152.3	50.853
1156.66	79.5596
1161.02	32.3013
1165.38	59.2197
1169.73	41.0796
1174.08	14.126
1178.43	67.4585
1182.78	51.957
1187.12	48.3638
1191.46	46.3301
1195.8	35.8252
1200.14	58.9639
1204.47	48.082
1208.8	27.1851
1213.13	33.2759
1217.46	2.1499
1221.78	104.522
1226.1	92.4756
1230.42	31.5474
1234.73	3.43262
1239.04	48.5967
1243.35	95.6416
1247.66	123.326
1251.97	74.4097
1256.27	39.0908
1260.57	102.768
1264.86	187.488
1269.16	143.796
1273.45	124.034
1277.74	152.603
1282.03	136.505
1286.31	211.534
1290.59	205.7
1294.87	186.145
1299.14	249.547
1303.42	316.118
1307.69	324.177
1311.95	554.71
1316.22	578.025
1320.48	679.875
1324.74	633.811
1329	708.05
1333.26	796.398
1337.51	806.855
1341.76	1008.43
1346	1297.97
1350.25	1748.78
1354.49	2547
1358.73	3897.45
1362.96	5073.64
1367.2	4632.11
1371.43	3192.77
1375.66	1857.33
1379.88	1194.3
1384.11	847.222
1388.33	549.258
1392.54	311.908
1396.76	233.8
1400.97	171.947
1405.18	227.385
1409.39	286.169
1413.59	113.284
1417.8	341.99
1421.99	287.204
1426.19	340.912
1430.38	287.74
1434.58	347.491
1438.77	271.332
1442.95	291.137
1447.13	431.146
1451.32	499.049
1455.49	584.226
1459.67	945.688
1463.84	1119.47
1468.01	1157.71
1472.18	1346.31
1476.35	1395.56
1480.51	1474.48
1484.67	1318.83
1488.83	1004.58
1492.98	795.735
1497.13	556.114
1501.28	311.701
1505.43	217.515
1509.57	158.647
1513.71	17.3628
1517.85	245.841
1521.99	14.1338
1526.12	76.2676
1530.25	44.2358
1534.38	67.1123
1538.5	43.918
1542.62	118.44
1546.74	13.4546
1550.86	4.61719
1554.98	48.5723
1559.09	83.8823
1563.2	109.511
1567.31	63.3574
