Measurement: Raman, 514 nm, ccw, Raman Data Processed
Mineral: Cerussite
Rruff sample: R050298
Ideal chemistry: PbCO_3_
Locality: Bunker Hill mine, Shoshone County, Idaho, USA
Source: Eugene Schlepp
Description: Group of colorless tabular crystals
Measured chemistry: Pb_1.00_CO_3_
Pin_id: L01888
Orientation: Laser parallel to b* (0 1 0). Fiducial mark perpendicular to laser is parallel to -c [0 0 -1]
Raman shift (cm-1)	intensity
51.431	0
56.387	65.3114
61.341	10.6415
66.292	24.2763
71.241	109.969
76.187	251.034
81.131	488.308
86.072	882.893
91.012	1661.53
95.948	2290.99
100.883	3509.5
105.815	5016.67
110.744	3630.23
115.671	2796.91
120.596	3189.35
125.519	4463.86
130.439	7321.91
135.356	9558.28
140.271	7439.4
145.184	5105.55
150.094	3821.78
155.002	3077.13
159.908	2275.48
164.811	1747.75
169.711	1439.82
174.61	1400.69
179.505	1217.29
184.399	1150.54
189.29	986.503
194.178	944.079
199.064	898.312
203.948	809.042
208.829	697.36
213.708	628.923
218.585	532.033
223.459	558.526
228.33	522.923
233.199	423.466
238.066	428.154
242.93	361.663
247.792	356.362
252.651	316.432
257.508	233.377
262.363	233.967
267.215	201.943
272.064	169.023
276.912	159.725
281.756	110.942
286.598	143.335
291.438	109.041
296.276	90.5002
301.111	66.5206
305.943	35.4542
310.773	66.6006
315.601	50.8136
320.426	10.1726
325.248	49.7017
330.068	11.958
334.886	30.8492
339.701	11.6239
344.514	23.778
349.324	5.22693
354.132	18.4969
358.938	12.5099
363.741	31.83
368.541	11.7067
373.339	3.01282
378.135	25.8779
382.928	32.4528
387.718	62.7212
392.506	16.5402
397.292	13.9878
402.075	6.11169
406.856	15.5627
411.634	26.9702
416.41	3.22144
421.183	26.7588
425.954	14.8126
430.722	14.9778
435.488	6.78662
440.251	47.3159
445.012	16.2922
449.77	14.829
454.526	31.0253
459.28	30.6281
464.03	57.9342
468.779	53.2022
473.525	79.7531
478.268	117.011
483.009	62.0869
487.747	97.6542
492.483	111.259
497.217	52.5425
501.948	113.055
506.676	53.7103
511.402	38.7534
516.125	6.74768
520.846	16.7383
525.565	38.1505
530.281	37.6641
534.994	39.5652
539.705	17.6477
544.413	52.7324
549.119	10.9672
553.822	43.124
558.523	37.0178
563.222	38.8243
567.917	34.9205
572.611	32.2734
577.302	8.06982
581.99	3.66467
586.676	59.4894
591.359	28.0795
596.04	11.6083
600.718	60.9596
605.394	13.3538
610.067	24.7562
614.737	29.4949
619.406	76.7002
624.071	41.6791
628.734	68.5453
633.395	4.08118
638.053	71.1132
642.708	63.0903
647.361	54.9429
652.012	87.7304
656.66	58.5583
661.305	17.8685
665.948	44.6776
670.588	55.1128
675.226	154.151
679.861	124.305
684.494	720.058
689.124	57.9569
693.752	17.8107
698.377	51.8253
702.999	39.6517
707.619	20.5542
712.237	62.0336
716.852	39.7533
721.464	33.6434
726.074	5.04492
730.681	65.1646
735.286	53.2089
739.888	40.1798
744.488	58.2623
749.085	70.724
753.68	59.8438
758.272	7.5592
762.861	18.0127
767.448	21.4246
772.033	19.5064
776.614	26.0485
781.194	72.4138
785.77	64.7741
790.345	71.6179
794.916	47.937
799.485	22.5663
804.052	41.3909
808.616	38.6577
813.177	60.6737
817.736	112.034
822.292	165.418
826.846	287.805
831.397	409.152
835.945	1383.48
840.491	4895.8
845.035	666.002
849.576	163.477
854.114	123.785
858.65	15.1945
863.183	60.4801
867.713	37.673
872.241	30.1144
876.767	69.5331
881.29	24.9299
885.81	43.2863
890.328	57.8044
894.843	8.78638
899.356	31.106
903.866	2.93787
908.373	3.46057
912.878	13.0568
917.38	39.5994
921.88	15.1644
926.377	2.21435
930.872	14.2745
935.364	70.4753
939.853	36.0491
944.34	8.51794
948.824	20.2531
953.306	102.852
957.785	75.4664
962.261	53.073
966.735	10.7007
971.207	46.3335
975.675	11.9095
980.141	63.618
984.605	56.1777
989.066	33.7703
993.524	59.2842
997.98	80.7869
1002.43	22.657
1006.88	92.1604
1011.33	55.2048
1015.78	50.1645
1020.22	124.626
1024.66	108.231
1029.1	147.15
1033.53	274.224
1037.97	149.492
1042.4	365.841
1046.82	840.473
1051.25	4300.7
1055.67	63425.8
1060.09	5677.66
1064.51	605.985
1068.92	276.654
1073.33	146.493
1077.74	114.36
1082.15	76.3804
1086.55	85.7463
1090.95	108.007
1095.35	151.646
1099.75	106.709
1104.14	99.1548
1108.53	96.823
1112.92	57.1384
1117.31	97.3933
1121.69	106.586
1126.07	84.7188
1130.45	9.20801
1134.82	20.7627
1139.19	48.6694
1143.57	51.5366
1147.93	42.344
1152.3	36.0488
1156.66	16.5242
1161.02	12.9089
1165.38	14.2478
1169.73	34.5398
1174.08	27.76
1178.43	14.0913
1182.78	70.929
1187.12	26.8777
1191.46	38.7544
1195.8	28.5435
1200.14	24.2317
1204.47	7.12476
1208.8	3.24731
1213.13	12.8726
1217.46	10.7229
1221.78	92.6096
1226.1	25.0923
1230.42	21.1035
1234.73	22.2698
1239.04	42.2991
1243.35	24.5073
1247.66	23.7175
1251.97	33.8792
1256.27	102.114
1260.57	0.9646
1264.86	77.2031
1269.16	76.4539
1273.45	88.7744
1277.74	147.546
1282.03	150.79
1286.31	127.917
1290.59	130.347
1294.87	116.625
1299.14	177.472
1303.42	209.846
1307.69	236.823
1311.95	261.849
1316.22	207.706
1320.48	280.285
1324.74	250.992
1329	341.991
1333.26	311.639
1337.51	336.176
1341.76	349.906
1346	371.075
1350.25	522.648
1354.49	679.848
1358.73	883.454
1362.96	1175.35
1367.2	1751.37
1371.43	2625.52
1375.66	3952.79
1379.88	4096.26
1384.11	2793.63
1388.33	1524.3
1392.54	904.16
1396.76	644.171
1400.97	446.347
1405.18	342.709
1409.39	340.287
1413.59	392.134
1417.8	362.176
1421.99	364.947
1426.19	448.437
1430.38	343.209
1434.58	370.236
1438.77	278.413
1442.95	236.94
1447.13	217.53
1451.32	161.212
1455.49	151.189
1459.67	196.508
1463.84	137.14
1468.01	216.137
1472.18	167.396
1476.35	151.919
1480.51	133.677
1484.67	109.705
1488.83	98.0122
1492.98	76.5964
1497.13	34.4014
1501.28	110.407
1505.43	94.6257
1509.57	5.02246
1513.71	1.21167
1517.85	70.0674
1521.99	22.8635
1526.12	0.201416
1530.25	55.4048
1534.38	57.6997
1538.5	123.792
1542.62	32.5886
1546.74	39.1948
1550.86	30.0776
1554.98	3.24658
1559.09	54.4058
1563.2	35.0295
1567.31	6.05591
