Measurement: Raman, 514 nm, ccw, Raman Data Processed
Mineral: Cerussite
Rruff sample: R050298
Ideal chemistry: PbCO_3_
Locality: Bunker Hill mine, Shoshone County, Idaho, USA
Source: Eugene Schlepp
Description: Group of colorless tabular crystals
Measured chemistry: Pb_1.00_CO_3_
Pin_id: L00742
Orientation: Laser parallel to -a* (-1 0 0). Fiducial mark perpendicular to laser is parallel to b [0 1 0]
Raman shift (cm-1)	intensity
51.431	0
56.387	39.1317
61.341	2.71661
66.292	420.465
71.241	1578.55
76.187	2845.86
81.131	2197.05
86.072	1903.31
91.012	1954.26
95.948	1926.81
100.883	1801.51
105.815	1870.52
110.744	1823.21
115.671	1651.07
120.596	2044.84
125.519	2730.77
130.439	4150.8
135.356	5557.35
140.271	4949.27
145.184	4551.47
150.094	5272.94
155.002	6517.77
159.908	5518.68
164.811	4104.54
169.711	4257.38
174.61	5309.08
179.505	5871.52
184.399	4718.55
189.29	3279.37
194.178	2333.19
199.064	1812.99
203.948	1650.73
208.829	1560.57
213.708	1641.69
218.585	1672.47
223.459	1364.86
228.33	1152.39
233.199	1134.43
238.066	1301.14
242.93	1469.58
247.792	1613.27
252.651	1258.27
257.508	914.403
262.363	562.323
267.215	389.819
272.064	187.533
276.912	180.545
281.756	155.641
286.598	110.421
291.438	81.7194
296.276	43.0704
301.111	40.4211
305.943	37.2587
310.773	27.2297
315.601	20.4966
320.426	11.4963
325.248	36.566
330.068	33.5991
334.886	23.1705
339.701	1.70276
344.514	29.9381
349.324	33.3732
354.132	5.21851
358.938	33.8712
363.741	31.1478
368.541	4.54907
373.339	18.8912
378.135	3.57593
382.928	11.8887
387.718	27.083
392.506	17.6748
397.292	28.2227
402.075	33.009
406.856	14.3348
411.634	50.3348
416.41	52.9462
421.183	12.2732
425.954	35.3375
430.722	14.0234
435.488	54.353
440.251	26.984
445.012	53.259
449.77	62.3442
454.526	51.1697
459.28	88.0101
464.03	85.1616
468.779	94.809
473.525	80.2162
478.268	75.4163
483.009	79.1093
487.747	72.7964
492.483	116.532
497.217	58.8783
501.948	90.451
506.676	52.2728
511.402	79.4814
516.125	42.2363
520.846	59.1316
525.565	95.6853
530.281	11.8397
534.994	50.3733
539.705	27.4406
544.413	42.6144
549.119	19.6632
553.822	35.6697
558.523	43.9691
563.222	19.9939
567.917	84.3142
572.611	16.157
577.302	34.6996
581.99	64.1339
586.676	40.13
591.359	39.0834
596.04	21.5151
600.718	45.2776
605.394	35.9266
610.067	62.4635
614.737	65.4674
619.406	57.4617
624.071	13.2883
628.734	52.1267
633.395	61.7822
638.053	71.4381
642.708	74.1681
647.361	5.69421
652.012	21.462
656.66	16.9221
661.305	8.22986
665.948	44.4789
670.588	75.471
675.226	537.495
679.861	152.466
684.494	83.2606
689.124	85.9218
693.752	295.241
698.377	907.618
702.999	18.9116
707.619	7.34155
712.237	3.16113
716.852	35.2494
721.464	30.6912
726.074	33.2878
730.681	83.9789
735.286	41.6112
739.888	37.3735
744.488	63.4191
749.085	3.30884
753.68	1.66382
758.272	19.4659
762.861	59.1522
767.448	18.8455
772.033	66.403
776.614	58.0341
781.194	39.0311
785.77	60.4974
790.345	68.9298
794.916	74.0564
799.485	28.0767
804.052	45.3209
808.616	14.4464
813.177	2.08386
817.736	23.9045
822.292	123.498
826.846	141.155
831.397	129.856
835.945	545.889
840.491	1976.51
845.035	332.531
849.576	119.206
854.114	42.7628
858.65	52.3897
863.183	49.8988
867.713	74.3884
872.241	45.869
876.767	55.3938
881.29	23.8306
885.81	55.2448
890.328	28.7167
894.843	6.44836
899.356	32.6117
903.866	37.7275
908.373	49.9331
912.878	10.215
917.38	33.5717
921.88	47.6517
926.377	10.4257
930.872	70.8137
935.364	47.1266
939.853	42.4861
944.34	43.8293
948.824	20.929
953.306	80.1814
957.785	47.4106
962.261	55.5381
966.735	16.5907
971.207	95.5439
975.675	41.3779
980.141	107.157
984.605	22.1041
989.066	34.4916
993.524	64.0068
997.98	139.423
1002.43	103.895
1006.88	50.1445
1011.33	73.7009
1015.78	120.297
1020.22	83.923
1024.66	75.9374
1029.1	106.475
1033.53	348.519
1037.97	196.092
1042.4	309.156
1046.82	751.934
1051.25	4344.05
1055.67	57113.1
1060.09	5972.42
1064.51	642.802
1068.92	233.206
1073.33	160.713
1077.74	132.113
1082.15	143.792
1086.55	128.516
1090.95	172.999
1095.35	163.245
1099.75	96.7085
1104.14	104.552
1108.53	150.207
1112.92	124.305
1117.31	143.71
1121.69	94.9315
1126.07	116.034
1130.45	75.9788
1134.82	22.7707
1139.19	63.308
1143.57	21.6744
1147.93	26.9322
1152.3	62.8602
1156.66	37.5413
1161.02	24.1606
1165.38	23.6619
1169.73	9.84985
1174.08	55.7637
1178.43	6.75708
1182.78	18.6688
1187.12	18.1653
1191.46	56.7356
1195.8	43.1979
1200.14	58.4827
1204.47	11.4224
1208.8	13.4531
1213.13	22.241
1217.46	5.9541
1221.78	48.4958
1226.1	22.043
1230.42	12.3477
1234.73	44.9409
1239.04	4.67896
1243.35	45.3603
1247.66	10.8721
1251.97	40.1033
1256.27	17.3071
1260.57	20.5188
1264.86	35.8401
1269.16	56.7036
1273.45	63.8794
1277.74	58.2766
1282.03	11.3054
1286.31	25.2036
1290.59	32.761
1294.87	71.73
1299.14	64.8542
1303.42	18.104
1307.69	64.3838
1311.95	129.616
1316.22	122.016
1320.48	151.803
1324.74	134.734
1329	206.706
1333.26	161.577
1337.51	162.555
1341.76	225.092
1346	261.649
1350.25	435.575
1354.49	758.727
1358.73	1146.48
1362.96	1547.99
1367.2	1396.81
1371.43	903.757
1375.66	542.044
1379.88	334.769
1384.11	201.825
1388.33	120.192
1392.54	100.879
1396.76	102.955
1400.97	136.426
1405.18	340.272
1409.39	516.681
1413.59	741.592
1417.8	946.042
1421.99	1072.01
1426.19	1138.13
1430.38	1135.65
1434.58	1264.12
1438.77	1393.24
1442.95	1672.16
1447.13	2022.9
1451.32	2662.78
1455.49	3316.33
1459.67	4260.45
1463.84	5270.14
1468.01	6249.44
1472.18	7177.39
1476.35	7822.08
1480.51	7783.24
1484.67	7003.49
1488.83	5449.2
1492.98	4036.6
1497.13	2816.66
1501.28	1929.31
1505.43	1293.41
1509.57	931.71
1513.71	630.817
1517.85	496.154
1521.99	404.806
1526.12	273.856
1530.25	148.406
1534.38	178.618
1538.5	94.7512
1542.62	43.3555
1546.74	29.0581
1550.86	33.5193
1554.98	46.8125
1559.09	47.6406
1563.2	9.40942
1567.31	29.3079
