Measurement: Raman, 514 nm, ccw, Raman Data Processed
Mineral: Cerussite
Rruff sample: R050011
Ideal chemistry: PbCO_3_
Locality: Daoping Lead and Zinc mine, Gongcheng, Guangxi, China
Source: Eugene Schlepp
Description: Colorless hexagonal bipyramidal crystals
Measured chemistry: Pb_1.00_CO_3_ ; CO_2_ not measured but estimated by difference and stoichiometry
Pin_id: L00377
Orientation: Laser parallel to b* (0 1 0). Fiducial mark perpendicular to laser is parallel to -c [0 0 -1]
Raman shift (cm-1)	intensity
46.637	0
50.856	69.906
55.072	187.633
59.287	354.119
63.499	469.623
67.709	229.598
71.917	134.91
76.123	7.108
80.327	18.339
84.529	48.206
88.728	228.48
92.926	1049.29
97.121	3348.43
101.314	7751.6
105.505	8236.65
109.694	5403.55
113.881	3869.23
118.066	3364.67
122.249	3674.8
126.43	4289.61
130.608	4954.06
134.785	5094.25
138.959	5472.98
143.131	6216.93
147.301	6526.82
151.469	5898.44
155.635	4596.4
159.799	3531.77
163.961	2963.54
168.121	2755.73
172.278	2761.29
176.434	2796.2
180.587	2417.46
184.739	2095.04
188.888	1730.97
193.035	1636.2
197.18	1601.72
201.324	1638.52
205.465	1854.64
209.603	1925.1
213.74	1980.99
217.875	1816.61
222.008	1536.17
226.139	1340.4
230.267	1211.11
234.394	1042.21
238.518	912.322
242.641	854.069
246.761	801.81
250.879	649.022
254.996	549.294
259.11	501.959
263.222	473.272
267.332	434.168
271.44	358.898
275.546	341.757
279.65	319.342
283.752	284.066
287.852	284.078
291.95	188.952
296.046	243.341
300.14	152.456
304.231	174.772
308.321	196.641
312.409	162.661
316.495	123.836
320.578	95.169
324.66	98.452
328.739	80.067
332.817	59.815
336.892	102.691
340.966	77.745
345.037	113.867
349.107	48.101
353.174	71.418
357.24	42.836
361.303	26.374
365.365	23.161
369.424	51.654
373.481	39.321
377.537	14.35
381.59	4.257
385.642	37.213
389.691	23.427
393.738	30.535
397.784	3.254
401.827	28.863
405.868	11.033
409.908	10.979
413.945	21.924
417.98	15.628
422.014	0.819
426.045	2.17
430.075	41.673
434.102	49.112
438.127	34.323
442.151	11.223
446.172	62.427
450.192	41.54
454.209	28.637
458.225	9.221
462.238	37.793
466.25	37.087
470.259	34.474
474.267	40.694
478.273	4.381
482.276	33.283
486.278	39.042
490.278	50.512
494.276	52.843
498.271	5.213
502.265	66.999
506.257	28.456
510.247	59.735
514.235	43.985
518.221	22.198
522.205	5.379
526.187	48.484
530.167	47.491
534.145	14.337
538.122	34.063
542.096	45.76
546.068	61.537
550.039	26.615
554.007	51.224
557.973	30.766
561.938	19.122
565.901	30.538
569.861	68.324
573.82	48.33
577.777	4.341
581.732	56.908
585.685	9.69
589.636	9.875
593.585	34.765
597.532	2.91
601.477	7.351
605.42	19.59
609.361	12.097
613.301	54.002
617.238	75.781
621.174	60.694
625.108	58.612
629.039	83.974
632.969	66.217
636.897	53.368
640.823	85.606
644.747	23.668
648.669	39.652
652.589	56.514
656.508	51.385
660.424	67.339
664.339	125.057
668.251	108.768
672.162	430.365
676.071	381.899
679.978	1442.13
683.883	1164.03
687.786	277.581
691.687	60.476
695.586	157.556
699.484	35.751
703.379	11.1
707.273	66.957
711.165	27.04
715.055	63.965
718.943	33.111
722.829	47.937
726.713	55.406
730.595	4.273
734.476	11.809
738.354	24.206
742.231	60.458
746.106	65.886
749.978	74.334
753.849	33.693
757.719	17.788
761.586	33.039
765.451	74.225
769.315	105.165
773.177	7.162
777.036	1.111
780.894	89.408
784.75	21.588
788.605	63.732
792.457	69.481
796.307	14.57
800.156	16.659
804.003	53.74
807.848	47.194
811.691	20.489
815.532	27.827
819.371	44.473
823.209	123.603
827.045	60.477
830.878	113.377
834.71	806.222
838.54	1547.08
842.369	498.98
846.195	149.941
850.02	76.201
853.842	54.13
857.663	46.76
861.482	102.438
865.299	70.329
869.115	19.313
872.928	43.116
876.74	35.254
880.55	28.796
884.358	28.625
888.164	44.612
891.969	6.672
895.771	7.757
899.572	86.772
903.371	32.765
907.168	19.847
910.963	76.724
914.757	96.999
918.548	39.218
922.338	71.133
926.126	81.723
929.912	70.603
933.697	64.506
937.479	79.331
941.26	84.25
945.039	74.204
948.816	4.041
952.591	104.834
956.365	6.354
960.136	120.583
963.906	25.892
967.674	13.299
971.441	0.646
975.205	55.343
978.968	82.331
982.729	89.444
986.488	165.49
990.245	132.825
994	100.347
997.754	25.972
1001.51	159.615
1005.26	106.581
1009	150.348
1012.75	143.142
1016.5	154.74
1020.24	99.94
1023.98	185.283
1027.72	230.579
1031.46	257.398
1035.19	236.924
1038.93	298.985
1042.66	495.505
1046.39	912.28
1050.12	3811.75
1053.85	45990
1057.57	8542.67
1061.29	1491.85
1065.02	433.306
1068.74	283.199
1072.45	292.195
1076.17	206.885
1079.88	187.229
1083.6	209.803
1087.31	172.228
1091.02	155.487
1094.72	112.241
1098.43	110.67
1102.13	161.163
1105.84	161.084
1109.54	199.487
1113.24	125.2
1116.93	78.271
1120.63	78.894
1124.32	53.609
1128.01	134.192
1131.7	166.594
1135.39	99.209
1139.08	83.143
1142.76	34.115
1146.45	3.796
1150.13	70.309
1153.81	24.829
1157.48	5.18
1161.16	68.292
1164.84	116.167
1168.51	32.142
1172.18	35.784
1175.85	33.265
1179.52	32.165
1183.18	14.925
1186.85	3.501
1190.51	56.892
1194.17	100.149
1197.83	23.277
1201.48	21.718
1205.14	37.084
1208.79	19.206
1212.44	44.291
1216.09	26.288
1219.74	63.98
1223.39	54.16
1227.03	11.262
1230.68	2.768
1234.32	48.909
1237.96	50.779
1241.6	85.365
1245.23	113.849
1248.87	40.174
1252.5	63.377
1256.13	80.299
1259.76	58.282
1263.39	26.845
1267.02	31.227
1270.64	70.525
1274.26	233.8
1277.88	109.59
1281.5	27.289
1285.12	137.091
1288.74	13.268
1292.35	39.104
1295.96	53.906
1299.57	132.779
1303.18	78.138
1306.79	89.295
1310.4	225.588
1314	272.728
1317.6	244.789
1321.2	354.571
1324.8	342.558
1328.4	180.243
1331.99	175.173
1335.59	356.632
1339.18	337.084
1342.77	486.734
1346.36	545.713
1349.95	770.336
1353.53	976.493
1357.12	1352.91
1360.7	1831.71
1364.28	2299.03
1367.86	2710.81
1371.44	3683.44
1375.01	4913.61
1378.59	4890.81
1382.16	3530.67
1385.73	2160.37
1389.3	1324.19
1392.87	757.048
1396.43	478.568
1399.99	369.697
1403.56	275.556
1407.12	158.997
1410.68	256.498
1414.23	415.256
1417.79	408.334
1421.34	370.905
1424.9	403.677
1428.45	397.704
1431.99	287.88
1435.54	201.363
1439.09	178.032
1442.63	130.882
1446.17	245.752
1449.71	215.817
1453.26	222.226
1456.79	322.331
1460.33	463.06
1463.86	452.645
1467.39	617.956
1470.92	607.053
1474.45	615.015
1477.98	583.985
1481.51	589.165
1485.03	513.89
1488.56	404.528
1492.08	314.453
1495.6	213.208
1499.11	188.666
1502.63	187.163
1506.14	159.788
1509.66	168.394
1513.17	191.249
1516.68	0
