Measurement: Raman, 514 nm, ccw, Raman Data Processed
Mineral: Cerussite
Rruff sample: R050298
Ideal chemistry: PbCO_3_
Locality: Bunker Hill mine, Shoshone County, Idaho, USA
Source: Eugene Schlepp
Description: Group of colorless tabular crystals
Measured chemistry: Pb_1.00_CO_3_
Pin_id: L01724
Orientation: Laser parallel to c* (0 0 1). Fiducial mark perpendicular to laser is parallel to a [1 0 0]
Raman shift (cm-1)	intensity
51.431	0
56.387	94.3246
61.341	52.5599
66.292	1680.67
71.241	5903.68
76.187	8185.28
81.131	5244.28
86.072	3393.62
91.012	2837.79
95.948	2679.49
100.883	2747.9
105.815	2943.27
110.744	2950.32
115.671	3426.71
120.596	4046.36
125.519	3813.97
130.439	3934.14
135.356	4041.09
140.271	2733.36
145.184	1531.48
150.094	1050
155.002	784.786
159.908	501.696
164.811	423.6
169.711	331.673
174.61	355.147
179.505	496.064
184.399	543.207
189.29	782.248
194.178	966.975
199.064	1456.25
203.948	2053.8
208.829	2736.47
213.708	3357.1
218.585	3540.37
223.459	2826.87
228.33	2102.23
233.199	1580.46
238.066	1030.74
242.93	755.944
247.792	552.519
252.651	416.696
257.508	299.744
262.363	198.243
267.215	122.447
272.064	60.4158
276.912	29.1554
281.756	24.3217
286.598	2.45654
291.438	18.9936
296.276	15.7374
301.111	64.6525
305.943	47.7668
310.773	74.353
315.601	59.875
320.426	43.4351
325.248	54.2046
330.068	12.1846
334.886	6.14185
339.701	7.54895
344.514	19.5355
349.324	3.81836
354.132	6.97656
358.938	32.6738
363.741	39.3426
368.541	19.8818
373.339	29.3566
378.135	31.9018
382.928	79.1952
387.718	55.5277
392.506	89.6852
397.292	106.526
402.075	95.3704
406.856	92.5224
411.634	122.144
416.41	179.476
421.183	151.987
425.954	138.163
430.722	191.343
435.488	187.597
440.251	183.332
445.012	175.771
449.77	198.232
454.526	163.819
459.28	146.228
464.03	131.168
468.779	174.321
473.525	161.675
478.268	161.753
483.009	180.574
487.747	161.425
492.483	161.091
497.217	178.213
501.948	152.468
506.676	112.497
511.402	137.94
516.125	125.329
520.846	82.4783
525.565	82.9681
530.281	86.8829
534.994	63.4777
539.705	81.1156
544.413	104.48
549.119	61.5655
553.822	42.3099
558.523	74.6289
563.222	99.6456
567.917	58.6968
572.611	60.7546
577.302	58.1704
581.99	67.1842
586.676	81.0391
591.359	43.835
596.04	67.3839
600.718	49.8415
605.394	71.6655
610.067	76.6086
614.737	67.6581
619.406	56.5775
624.071	59.1017
628.734	92.1728
633.395	101.361
638.053	107.043
642.708	78.4032
647.361	22.7584
652.012	60.9853
656.66	55.7778
661.305	9.80994
665.948	99.6352
670.588	337.293
675.226	1030.23
679.861	235.129
684.494	148.91
689.124	57.4502
693.752	4.95593
698.377	13.1842
702.999	6.31653
707.619	30.2954
712.237	39.2766
716.852	10.2179
721.464	81.3235
726.074	49.4675
730.681	106.439
735.286	67.636
739.888	22.8665
744.488	56.4807
749.085	18.3419
753.68	17.8705
758.272	15.7609
762.861	29.9988
767.448	47.8419
772.033	16.8229
776.614	18.3815
781.194	66.7819
785.77	26.4556
790.345	36.9701
794.916	53.0841
799.485	24.1254
804.052	16.963
808.616	37.6143
813.177	32.0117
817.736	13.6969
822.292	69.0166
826.846	73.0748
831.397	180.822
835.945	517.823
840.491	1630.34
845.035	353.469
849.576	140.657
854.114	31.1848
858.65	79.6815
863.183	32.3982
867.713	23.1184
872.241	40.8463
876.767	43.6122
881.29	22.3893
885.81	47.1753
890.328	37.9746
894.843	52.3589
899.356	41.1073
903.866	25.136
908.373	37.5248
912.878	67.7802
917.38	0.617676
921.88	60.9399
926.377	62.4762
930.872	5.0304
935.364	0.569946
939.853	62.868
944.34	8.69324
948.824	17.6871
953.306	19.0542
957.785	1.61365
962.261	43.6591
966.735	20.902
971.207	6.90356
975.675	34.2291
980.141	23.3267
984.605	6.34753
989.066	39.3036
993.524	62.2205
997.98	78.0864
1002.43	52.1624
1006.88	50.1773
1011.33	51.3983
1015.78	73.667
1020.22	48.2886
1024.66	70.8859
1029.1	147.498
1033.53	394.589
1037.97	233.047
1042.4	405.03
1046.82	1255.28
1051.25	9521.58
1055.67	64088.9
1060.09	8146.12
1064.51	816.548
1068.92	252.094
1073.33	206.57
1077.74	83.7839
1082.15	90.6641
1086.55	75.0973
1090.95	80.9353
1095.35	61.2205
1099.75	73.1856
1104.14	104.235
1108.53	68.494
1112.92	87.1571
1117.31	108.133
1121.69	70.8154
1126.07	39.4864
1130.45	56.0898
1134.82	41.4387
1139.19	47.2766
1143.57	56.6445
1147.93	7.06787
1152.3	38.9265
1156.66	58.8429
1161.02	22.7017
1165.38	45.463
1169.73	13.2296
1174.08	37.9818
1178.43	7.69543
1182.78	13.407
1187.12	57.1102
1191.46	18.7986
1195.8	7.5116
1200.14	8.14551
1204.47	1.75708
1208.8	37.3291
1213.13	28.085
1217.46	26.4515
1221.78	16.0053
1226.1	23.5649
1230.42	7.14062
1234.73	39.7406
1239.04	58.3737
1243.35	21.0153
1247.66	52.7011
1251.97	32.4121
1256.27	46.1352
1260.57	28.8898
1264.86	96.4583
1269.16	60.6409
1273.45	83.5906
1277.74	73.1157
1282.03	85.0547
1286.31	155.922
1290.59	156
1294.87	220.314
1299.14	230.645
1303.42	259.511
1307.69	328.998
1311.95	418.497
1316.22	487.925
1320.48	486.652
1324.74	630.467
1329	608.073
1333.26	636.499
1337.51	742.518
1341.76	827.041
1346	965.23
1350.25	1299.51
1354.49	1894.34
1358.73	2901.82
1362.96	3697.26
1367.2	3479.94
1371.43	2453.02
1375.66	1635.91
1379.88	1223.72
1384.11	801.851
1388.33	575.805
1392.54	335.539
1396.76	210.078
1400.97	177.8
1405.18	154.624
1409.39	128.682
1413.59	205.928
1417.8	146.445
1421.99	175.874
1426.19	106.368
1430.38	138.861
1434.58	114.435
1438.77	96.1621
1442.95	85.0073
1447.13	108.928
1451.32	109.074
1455.49	82.4863
1459.67	127.128
1463.84	98.9916
1468.01	131.066
1472.18	178.362
1476.35	165.898
1480.51	160.693
1484.67	115.555
1488.83	123.562
1492.98	103.727
1497.13	7.06372
1501.28	57.5875
1505.43	56.3156
1509.57	41.2451
1513.71	22.483
1517.85	33.0963
1521.99	8.09595
1526.12	39.4928
1530.25	39.3181
1534.38	82.6454
1538.5	35.703
1542.62	14.8342
1546.74	85.9966
1550.86	20.2684
1554.98	37.7997
1559.09	30.7321
1563.2	39.3574
1567.31	49.0911
