Measurement: Raman, 514 nm, ccw, Raman Data Processed
Mineral: Cerussite
Rruff sample: R060017
Ideal chemistry: PbCO_3_
Locality: Gonessa, Sardinia, Italy
Source: American Museum of Natural History
Description: White reticulated composite
Measured chemistry: Pb_1.00_CO_3_ C not measured but estimated by difference and stoichiometry
Pin_id: M00240
Orientation: Laser parallel to b* (0 1 0). Fiducial mark perpendicular to laser is parallel to c [0 0 1]
Raman shift (cm-1)	intensity
51.431	0
56.387	97.2112
61.341	454.176
66.292	3311.18
71.241	5940.58
76.187	5319.26
81.131	6208.08
86.072	10084.2
91.012	18559.4
95.948	23555.1
100.883	23939.3
105.815	18339
110.744	13762.3
115.671	13107.6
120.596	12596.5
125.519	11839.9
130.439	11938.6
135.356	12229.5
140.271	12798.2
145.184	13259.5
150.094	11931.6
155.002	9464.29
159.908	7455.11
164.811	7326.11
169.711	7707.54
174.61	7155.81
179.505	5947.09
184.399	4577.2
189.29	3529.53
194.178	3347.24
199.064	3274.12
203.948	3270.06
208.829	3697.57
213.708	3837.68
218.585	3857.34
223.459	3655.32
228.33	3195.85
233.199	2713.5
238.066	2382.31
242.93	2028.2
247.792	1405.33
252.651	913.302
257.508	669.825
262.363	364.488
267.215	188.826
272.064	185.89
276.912	144.904
281.756	103.596
286.598	54.9741
291.438	87.4072
296.276	26.5918
301.111	81.251
305.943	81.8442
310.773	66.1987
315.601	60.3384
320.426	21.3311
325.248	213.622
330.068	81.6807
334.886	78.6465
339.701	110.212
344.514	34.5645
349.324	122.223
354.132	19.3325
358.938	58.1616
363.741	54.7246
368.541	3.11182
373.339	43.1963
378.135	66.6206
382.928	132.205
387.718	16.374
392.506	80.1963
397.292	115.74
402.075	17.3203
406.856	180.289
411.634	204.068
416.41	234.338
421.183	108.605
425.954	172.911
430.722	359.459
435.488	216.382
440.251	247.317
445.012	255.544
449.77	312.715
454.526	225.522
459.28	176.658
464.03	327.24
468.779	207.62
473.525	395.537
478.268	345.358
483.009	241.846
487.747	301.545
492.483	334.865
497.217	211.013
501.948	294.623
506.676	236.204
511.402	322.383
516.125	245.366
520.846	244.882
525.565	226.364
530.281	186.472
534.994	209.473
539.705	83.6709
544.413	281.169
549.119	130.549
553.822	209.56
558.523	104.858
563.222	213.293
567.917	127.019
572.611	202.552
577.302	108.002
581.99	279.674
586.676	87.585
591.359	178.436
596.04	184.523
600.718	168.258
605.394	116.432
610.067	214.23
614.737	82.9365
619.406	99.0478
624.071	240.518
628.734	247.257
633.395	190.828
638.053	126.935
642.708	170.548
647.361	47.1611
652.012	185.914
656.66	99.7617
661.305	280.44
665.948	709.088
670.588	1060.43
675.226	1637.59
679.861	1802.11
684.494	773.336
689.124	569.435
693.752	508.108
698.377	134.74
702.999	77.3897
707.619	84.4316
712.237	19.625
716.852	53.3555
721.464	93.2734
726.074	88.2578
730.681	148.455
735.286	99.1035
739.888	156.237
744.488	258.083
749.085	81.9873
753.68	45.4853
758.272	141.061
762.861	222.061
767.448	159.927
772.033	79.4443
776.614	21.7861
781.194	45.96
785.77	166.138
790.345	129.977
794.916	134.016
799.485	36.6211
804.052	112.94
808.616	88.8643
813.177	51.0625
817.736	171.712
822.292	236.626
826.846	403.337
831.397	1621.71
835.945	2007.73
840.491	674.117
845.035	272.902
849.576	212.013
854.114	15.8086
858.65	69.0723
863.183	37.5684
867.713	1.28809
872.241	5.05371
876.767	23.4131
881.29	257.09
885.81	31.3643
890.328	90.874
894.843	47.5283
899.356	56.0703
903.866	128.124
908.373	65.0439
912.878	52.6182
917.38	10.7607
921.88	204.265
926.377	109.609
930.872	49.7695
935.364	153.487
939.853	22.4512
944.34	21.8047
948.824	78.4873
953.306	155.947
957.785	63.501
962.261	20.3828
966.735	75.5205
971.207	13.4854
975.675	143.306
980.141	20.0557
984.605	154.547
989.066	170.905
993.524	227.904
997.98	285.543
1002.43	200.725
1006.88	49.7852
1011.33	152.731
1015.78	193.151
1020.22	195.179
1024.66	441.014
1029.1	358.667
1033.53	504.158
1037.97	696.769
1042.4	2021.64
1046.82	27366
1051.25	51492.3
1055.67	20845
1060.09	1439.87
1064.51	440.961
1068.92	424.16
1073.33	237.566
1077.74	257.55
1082.15	145.278
1086.55	178.694
1090.95	244.685
1095.35	222.267
1099.75	138.495
1104.14	270.637
1108.53	192.466
1112.92	120.314
1117.31	263.457
1121.69	371.165
1126.07	118.106
1130.45	193.001
1134.82	240.834
1139.19	65.6797
1143.57	70.6016
1147.93	141.028
1152.3	56.7715
1156.66	24.8584
1161.02	100.856
1165.38	64.957
1169.73	147.605
1174.08	129.962
1178.43	137.977
1182.78	12.5166
1187.12	3.38379
1191.46	49.5293
1195.8	6.45312
1200.14	27.5801
1204.47	116.574
1208.8	7.2041
1213.13	77.8769
1217.46	1.41992
1221.78	103.539
1226.1	45.498
1230.42	92.1152
1234.73	165.703
1239.04	25.0879
1243.35	79.1094
1247.66	175.359
1251.97	74.4941
1256.27	206.34
1260.57	101.592
1264.86	204.502
1269.16	119.289
1273.45	372.844
1277.74	70.0996
1282.03	260.707
1286.31	267.805
1290.59	398.072
1294.87	381.664
1299.14	438.205
1303.42	416.836
1307.69	721.559
1311.95	799.51
1316.22	898.184
1320.48	996.473
1324.74	948.396
1329	898.293
1333.26	1165.62
1337.51	1305.15
1341.76	1434.38
1346	2186.02
1350.25	2992.21
1354.49	4446.87
1358.73	5922.96
1362.96	6890.88
1367.2	7235.22
1371.43	8086.93
1375.66	7432.34
1379.88	5183.15
1384.11	3066.82
1388.33	1727.15
1392.54	1162.19
1396.76	999.019
1400.97	686.752
1405.18	952.414
1409.39	957.033
1413.59	1346.44
1417.8	1451.51
1421.99	1201.82
1426.19	1274.45
1430.38	1281.45
1434.58	1279.06
1438.77	1484.07
1442.95	1804.77
1447.13	2202.08
1451.32	2600.22
1455.49	3540.68
1459.67	4261.63
1463.84	4978.79
1468.01	5720.12
1472.18	5997.89
1476.35	6160.11
1480.51	5513.95
1484.67	4435.14
1488.83	3323.69
1492.98	2471.59
1497.13	1446.75
1501.28	960.088
1505.43	604.238
1509.57	313.893
1513.71	383.225
1517.85	118.062
1521.99	170.559
1526.12	62.8496
1530.25	299.115
1534.38	42.334
1538.5	5.9707
1542.62	40.2988
1546.74	14.668
1550.86	242.422
1554.98	216.369
1559.09	63.6602
1563.2	271.981
1567.31	20.2363
