Measurement: Raman, 514 nm, ccw, Raman Data Processed
Mineral: Cerussite
Rruff sample: R050298
Ideal chemistry: PbCO_3_
Locality: Bunker Hill mine, Shoshone County, Idaho, USA
Source: Eugene Schlepp
Description: Group of colorless tabular crystals
Measured chemistry: Pb_1.00_CO_3_
Pin_id: L00742
Orientation: Laser parallel to -a* (-1 0 0). Fiducial mark perpendicular to laser is parallel to b [0 1 0]
Raman shift (cm-1)	intensity
51.431	0
56.387	24.0944
61.341	17.9467
66.292	697.683
71.241	2773.26
76.187	5105.04
81.131	4050.43
86.072	3095.1
91.012	2639.99
95.948	2205.36
100.883	1779.94
105.815	1441.02
110.744	1245.05
115.671	1142.62
120.596	1266.51
125.519	1854.92
130.439	2934.41
135.356	3903.31
140.271	2981.01
145.184	1948.61
150.094	1459.38
155.002	1174.08
159.908	1004.49
164.811	807.544
169.711	773.711
174.61	758.534
179.505	762.057
184.399	783.043
189.29	787.865
194.178	863.34
199.064	1056.52
203.948	1280.28
208.829	1622.46
213.708	2065.15
218.585	2064.47
223.459	1544.22
228.33	981.69
233.199	679.164
238.066	463.625
242.93	358.18
247.792	287.867
252.651	210.503
257.508	164.203
262.363	117.407
267.215	67.1865
272.064	44.2244
276.912	61.0584
281.756	6.42108
286.598	50.272
291.438	6.79376
296.276	27.6759
301.111	19.2659
305.943	16.769
310.773	25.4446
315.601	10.0366
320.426	37.0436
325.248	23.3055
330.068	4.66657
334.886	13.5483
339.701	18.5746
344.514	40.9708
349.324	22.4571
354.132	9.12457
358.938	7.35992
363.741	28.0972
368.541	9.59308
373.339	4.89661
378.135	14.1279
382.928	1.77393
387.718	24.3027
392.506	42.5314
397.292	4.50915
402.075	41.0694
406.856	43.7353
411.634	42.5111
416.41	55.0259
421.183	34.0938
425.954	43.1857
430.722	58.6446
435.488	56.8793
440.251	75.3939
445.012	62.9017
449.77	73.1398
454.526	78.3348
459.28	82.6158
464.03	85.4026
468.779	80.4437
473.525	87.8796
478.268	58.2233
483.009	91.0405
487.747	75.3077
492.483	90.1044
497.217	96.3888
501.948	81.8093
506.676	67.8035
511.402	52.6699
516.125	60.6293
520.846	49.0797
525.565	36.9012
530.281	60.8292
534.994	49.1101
539.705	37.581
544.413	30.329
549.119	29.7696
553.822	5.75946
558.523	26.5134
563.222	38.1242
567.917	24.2212
572.611	39.1289
577.302	28.6115
581.99	53.4561
586.676	48.8483
591.359	33.6166
596.04	39.5487
600.718	38.6938
605.394	5.68158
610.067	29.9947
614.737	38.6512
619.406	44.637
624.071	28.8106
628.734	89.9157
633.395	89.0631
638.053	87.1508
642.708	46.3167
647.361	62.4758
652.012	30.4981
656.66	9.63074
661.305	38.6995
665.948	43.7034
670.588	118.691
675.226	932.376
679.861	164.279
684.494	41.1044
689.124	6.70764
693.752	31.5483
698.377	95.4905
702.999	8.33099
707.619	6.62878
712.237	3.52753
716.852	9.25592
721.464	40.8455
726.074	53.9475
730.681	110.297
735.286	80.8944
739.888	62.989
744.488	33.2002
749.085	34.412
753.68	25.7493
758.272	1.53424
762.861	39.6202
767.448	33.7497
772.033	35.8901
776.614	35.0902
781.194	43.0898
785.77	45.216
790.345	60.3572
794.916	33.4056
799.485	19.4196
804.052	15.7187
808.616	20.853
813.177	43.9896
817.736	23.3394
822.292	11.6691
826.846	46.6744
831.397	50.6822
835.945	226.894
840.491	732.106
845.035	143.662
849.576	17.3783
854.114	17.6225
858.65	32.5254
863.183	29.6874
867.713	60.84
872.241	16.005
876.767	14.311
881.29	19.5146
885.81	12.7181
890.328	8.89179
894.843	4.92236
899.356	39.0341
903.866	28.1849
908.373	19.3445
912.878	14.4828
917.38	20.6503
921.88	17.8005
926.377	24.988
930.872	23.1726
935.364	26.356
939.853	40.5469
944.34	13.7185
948.824	7.73938
953.306	2.38293
957.785	15.7768
962.261	44.9219
966.735	5.02862
971.207	44.1057
975.675	57.1669
980.141	20.2102
984.605	4.28027
989.066	3.05511
993.524	62.0593
997.98	78.0873
1002.43	18.2374
1006.88	20.0045
1011.33	17.2561
1015.78	69.0928
1020.22	38.7986
1024.66	58.3687
1029.1	75.5063
1033.53	334.662
1037.97	115.46
1042.4	265.394
1046.82	688.017
1051.25	3943.33
1055.67	58860.1
1060.09	5111.67
1064.51	574.075
1068.92	234.036
1073.33	127.949
1077.74	95.1436
1082.15	92.1956
1086.55	90.216
1090.95	76.2535
1095.35	62.4653
1099.75	95.5774
1104.14	31.7026
1108.53	74.4888
1112.92	49.9643
1117.31	57.2296
1121.69	83.8387
1126.07	53.7353
1130.45	40.3083
1134.82	21.9883
1139.19	31.3346
1143.57	24.4618
1147.93	25.6425
1152.3	13.7678
1156.66	36.8538
1161.02	23.903
1165.38	4.88654
1169.73	19.7274
1174.08	25.4882
1178.43	18.1733
1182.78	35.8122
1187.12	52.3301
1191.46	18.7268
1195.8	22.0758
1200.14	23.3535
1204.47	26.5617
1208.8	14.7264
1213.13	14.8558
1217.46	15.0895
1221.78	44.8906
1226.1	4.84619
1230.42	28.7904
1234.73	24.2882
1239.04	7.56519
1243.35	72.3742
1247.66	5.86438
1251.97	31.8752
1256.27	3.37878
1260.57	8.69141
1264.86	42.587
1269.16	18.5049
1273.45	13.9072
1277.74	88.7087
1282.03	89.4294
1286.31	77.292
1290.59	73.1722
1294.87	120.345
1299.14	86.4679
1303.42	132.169
1307.69	163.286
1311.95	187.658
1316.22	244.628
1320.48	273.8
1324.74	305.174
1329	301.989
1333.26	314.589
1337.51	329.172
1341.76	411.886
1346	516.288
1350.25	645.084
1354.49	1004.73
1358.73	1537.54
1362.96	2065.98
1367.2	1781.46
1371.43	1138.86
1375.66	656.309
1379.88	353.46
1384.11	276.012
1388.33	190.529
1392.54	111.417
1396.76	3.4729
1400.97	63.6951
1405.18	107.082
1409.39	115.643
1413.59	158.391
1417.8	267.339
1421.99	276.524
1426.19	254.01
1430.38	207.296
1434.58	242.859
1438.77	253.254
1442.95	385.934
1447.13	452.667
1451.32	553.258
1455.49	789.083
1459.67	986.148
1463.84	1171.49
1468.01	1454.06
1472.18	1626.97
1476.35	1748.21
1480.51	1795.73
1484.67	1581.53
1488.83	1328.58
1492.98	946.894
1497.13	657.465
1501.28	436.253
1505.43	268.192
1509.57	197.252
1513.71	131.639
1517.85	97.5326
1521.99	62.9605
1526.12	65.9412
1530.25	20.5081
1534.38	19.7222
1538.5	35.6909
1542.62	10.6291
1546.74	36.7678
1550.86	14.6559
1554.98	15.7534
1559.09	49.6066
1563.2	50.2758
1567.31	47.158
