Measurement: Raman, 514 nm, ccw, Raman Data Processed
Mineral: Cerussite
Rruff sample: R060017
Ideal chemistry: PbCO_3_
Locality: Gonessa, Sardinia, Italy
Source: American Museum of Natural History
Description: White reticulated composite
Measured chemistry: Pb_1.00_CO_3_ C not measured but estimated by difference and stoichiometry
Pin_id: M00430
Orientation: Laser parallel to c* (0 0 1). Fiducial mark perpendicular to laser is parallel to a [1 0 0]
Raman shift (cm-1)	intensity
51.431	0
56.387	13.6544
61.341	1360.08
66.292	6933.18
71.241	10103.6
76.187	7362.99
81.131	5471.02
86.072	6066.27
91.012	8523.7
95.948	10978.2
100.883	12570.9
105.815	12721.9
110.744	12481.7
115.671	12479.4
120.596	11323.6
125.519	9292.17
130.439	8465.09
135.356	7240.72
140.271	6595.86
145.184	6157.65
150.094	5436.69
155.002	4102.83
159.908	3195.19
164.811	3255.89
169.711	3518.47
174.61	3423.44
179.505	2889.96
184.399	2391.06
189.29	2251.06
194.178	2468.07
199.064	2961.8
203.948	3629.59
208.829	4136.95
213.708	4675.4
218.585	4605.71
223.459	4113.25
228.33	3392.6
233.199	2398.2
238.066	1856.39
242.93	1355.39
247.792	858.829
252.651	555.229
257.508	407.239
262.363	178.923
267.215	105.663
272.064	91.9541
276.912	24.2891
281.756	71.7793
286.598	113.408
291.438	43.2559
296.276	150.269
301.111	143.112
305.943	52.0972
310.773	70.2734
315.601	117.356
320.426	52.6685
325.248	30.2964
330.068	57.9141
334.886	18.8184
339.701	35.1103
344.514	54.9912
349.324	9.82764
354.132	31.4551
358.938	53.0947
363.741	58.8984
368.541	98.4302
373.339	143.458
378.135	91.9404
382.928	132.007
387.718	247.936
392.506	203.616
397.292	269.103
402.075	236.127
406.856	232.298
411.634	295.502
416.41	245.964
421.183	294.613
425.954	265.332
430.722	283.617
435.488	339.904
440.251	290.793
445.012	295.479
449.77	274.72
454.526	285.073
459.28	356.686
464.03	202.856
468.779	292.386
473.525	304.057
478.268	300.779
483.009	279.728
487.747	258.935
492.483	224.652
497.217	170.991
501.948	230.904
506.676	197.765
511.402	262.616
516.125	154.691
520.846	161.939
525.565	138.861
530.281	127.384
534.994	175.061
539.705	174.687
544.413	71.7832
549.119	149.749
553.822	101.134
558.523	129.981
563.222	112.887
567.917	187.939
572.611	139.089
577.302	26.1851
581.99	106.284
586.676	3.31445
591.359	82.5171
596.04	46.5444
600.718	85.707
605.394	98.6738
610.067	169.597
614.737	136.535
619.406	230.078
624.071	208.703
628.734	209.47
633.395	181.674
638.053	184.66
642.708	145.175
647.361	123.796
652.012	117.739
656.66	143.211
661.305	449.391
665.948	873.282
670.588	881.704
675.226	833.43
679.861	704.757
684.494	309.921
689.124	237.332
693.752	235.985
698.377	73.1479
702.999	108.626
707.619	6.60498
712.237	80.2398
716.852	205.36
721.464	88.3662
726.074	127.543
730.681	78.2427
735.286	21.5347
739.888	53.5464
744.488	77.5127
749.085	102.095
753.68	34.1143
758.272	14.5908
762.861	34.6831
767.448	82.063
772.033	55.4473
776.614	108.168
781.194	112.684
785.77	18.5127
790.345	62.7759
794.916	171.633
799.485	19.8291
804.052	18.0601
808.616	121.172
813.177	59.7485
817.736	45.8472
822.292	164.105
826.846	450.966
831.397	904.559
835.945	1214.11
840.491	455.81
845.035	229.05
849.576	118.232
854.114	116.579
858.65	4.92139
863.183	65.3633
867.713	181.764
872.241	80.4131
876.767	9.67188
881.29	66.1768
885.81	37.3169
890.328	47.3286
894.843	11.5337
899.356	19.9355
903.866	143.486
908.373	46.5615
912.878	154.766
917.38	13.1582
921.88	116.435
926.377	195.15
930.872	50.5527
935.364	110.061
939.853	87.4141
944.34	56.7207
948.824	40.2725
953.306	26.3193
957.785	11.2305
962.261	50.7978
966.735	24.9072
971.207	71.3213
975.675	3.53223
980.141	108.501
984.605	223.382
989.066	210.963
993.524	53.4482
997.98	46.2734
1002.43	163.53
1006.88	194.25
1011.33	151.346
1015.78	252.531
1020.22	121.039
1024.66	415.849
1029.1	481.539
1033.53	456.418
1037.97	626.252
1042.4	2168.99
1046.82	32347.9
1051.25	51200.6
1055.67	21815.4
1060.09	1349.82
1064.51	445.486
1068.92	301.86
1073.33	169.294
1077.74	263.453
1082.15	180.546
1086.55	156.507
1090.95	160.731
1095.35	216.588
1099.75	270.736
1104.14	173.691
1108.53	134.585
1112.92	149.892
1117.31	196.148
1121.69	200.93
1126.07	200.292
1130.45	221.391
1134.82	202.426
1139.19	18.8242
1143.57	263.163
1147.93	43.1494
1152.3	64.0469
1156.66	92.6543
1161.02	67.9668
1165.38	17.0342
1169.73	56.5684
1174.08	136.968
1178.43	33.8135
1182.78	26.1143
1187.12	42.1914
1191.46	117.004
1195.8	2.99023
1200.14	0.908203
1204.47	9.38184
1208.8	11.8672
1213.13	57.8125
1217.46	17.1045
1221.78	43.0664
1226.1	118.544
1230.42	44.9238
1234.73	2.58984
1239.04	1.0957
1243.35	102.561
1247.66	36.9102
1251.97	8.35547
1256.27	2.37402
1260.57	22.5518
1264.86	163.797
1269.16	163.256
1273.45	128.48
1277.74	290.994
1282.03	289.069
1286.31	486.66
1290.59	476.01
1294.87	401.648
1299.14	531.657
1303.42	669.604
1307.69	851.076
1311.95	947.999
1316.22	917.598
1320.48	1108.25
1324.74	1129.98
1329	1382.26
1333.26	1438.51
1337.51	1511.87
1341.76	1960.24
1346	2711.01
1350.25	3931.71
1354.49	5995.1
1358.73	7864.45
1362.96	7710.46
1367.2	6272.8
1371.43	5339.03
1375.66	4093.98
1379.88	2718.41
1384.11	1652.22
1388.33	894.432
1392.54	638.092
1396.76	549.237
1400.97	505.919
1405.18	463.15
1409.39	611.915
1413.59	702.026
1417.8	718.45
1421.99	812.157
1426.19	756.447
1430.38	725.898
1434.58	696.691
1438.77	783.829
1442.95	895.781
1447.13	1090.15
1451.32	1424.33
1455.49	1718.17
1459.67	2166.97
1463.84	2512.61
1468.01	2985.13
1472.18	3143.45
1476.35	3185.56
1480.51	2784.44
1484.67	2415.12
1488.83	1606.6
1492.98	1176.86
1497.13	716.669
1501.28	467.097
1505.43	443.036
1509.57	395.43
1513.71	138.897
1517.85	93.8193
1521.99	44.6211
1526.12	169.199
1530.25	39.8291
1534.38	5.71875
1538.5	86.8828
1542.62	30.7988
1546.74	58.8047
1550.86	75.9951
1554.98	125.467
1559.09	21.3887
1563.2	157.91
1567.31	109.718
