Measurement: Raman, 514 nm, ccw, Raman Data Processed
Mineral: Cerussite
Rruff sample: R050023
Ideal chemistry: PbCO_3_
Locality: Mammoth - St Anthony mine, Tiger, Pinal County, Arizona, USA
Source: Eugene Schlepp
Description: Prismatic white single crystals
Measured chemistry: Pb_1.00_CO_3_ ; CO_2_ not measured but estimated by difference and stoichiometry
Pin_id: L00263
Orientation: Laser parallel to -c* (0 0 -1). Fiducial mark perpendicular to laser is parallel to a [1 0 0]
Raman shift (cm-1)	intensity
54.275	0
58.48	9.529
62.683	3.545
66.884	11.818
71.083	133.42
75.28	316.1
79.474	372.96
83.667	449.142
87.858	581.356
92.046	800.721
96.233	1108.72
100.418	1428.98
104.6	1725
108.781	2279.43
112.959	3306.02
117.136	4103.57
121.31	4321.94
125.482	4462.06
129.653	4546.06
133.821	3853.95
137.987	2649.02
142.152	1824.49
146.314	1386.06
150.474	1136.73
154.633	923.528
158.789	836.462
162.943	788.514
167.095	749.681
171.246	759.954
175.394	815.325
179.54	880.784
183.684	997.32
187.826	1196.91
191.967	1456.08
196.105	1788.23
200.241	2269.14
204.375	2833.92
208.507	3485.36
212.638	3846.35
216.766	3621.08
220.892	3135.5
225.016	2590.55
229.139	2128.44
233.259	1675.82
237.377	1320.77
241.493	1072.02
245.608	851.571
249.72	704.327
253.83	576.891
257.939	462.967
262.045	382.524
266.15	306.115
270.252	256.832
274.353	211.759
278.451	187.638
282.548	151.455
286.642	141.352
290.735	120.217
294.826	100.088
298.914	68.917
303.001	56.784
307.086	45.604
311.168	20.28
315.249	20.895
319.328	15.462
323.405	4.007
327.48	5.563
331.553	12.816
335.624	19.872
339.693	1.352
343.76	0.491
347.826	12.37
351.889	7.248
355.95	9.085
360.01	9.069
364.067	9.219
368.123	9.512
372.176	28.958
376.228	17.584
380.277	27.397
384.325	13.257
388.371	13.45
392.415	11.093
396.457	1.523
400.497	6.969
404.535	16.097
408.571	19.991
412.605	27.803
416.638	25.456
420.668	28.886
424.697	34.192
428.723	38.453
432.748	30.555
436.77	41.519
440.791	61.466
444.81	47.4
448.827	56.194
452.842	56.699
456.855	62.073
460.867	50.324
464.876	63.46
468.883	66.479
472.889	77.383
476.892	80.174
480.894	81.85
484.894	88.322
488.892	88.424
492.888	93.851
496.882	84.872
500.874	84.238
504.865	75.259
508.853	71.299
512.84	57.126
516.824	47.816
520.807	55.519
524.788	43.19
528.767	42.108
532.744	44.439
536.719	23.487
540.693	8.599
544.664	28.218
548.634	26.275
552.601	20.737
556.567	4.668
560.531	18.793
564.493	21.12
568.453	22.28
572.412	23.537
576.368	25.023
580.323	33.519
584.275	22.085
588.226	26.956
592.175	25.617
596.122	17.307
600.068	16.03
604.011	16.699
607.952	25.318
611.892	28.889
615.83	60.418
619.766	61.851
623.7	69.264
627.632	64.588
631.563	76.972
635.491	74.299
639.418	28.577
643.343	32.795
647.266	16.001
651.187	30.201
655.106	6.328
659.024	12.462
662.939	33.547
666.853	234.518
670.765	693.358
674.675	911.039
678.583	143.836
682.49	69.542
686.394	19.316
690.297	14.103
694.198	13.685
698.097	5.147
701.995	1.019
705.89	4.72
709.784	10.708
713.675	18.263
717.565	38.189
721.453	58.187
725.34	72.293
729.224	77.347
733.107	66.542
736.988	49.605
740.867	46.382
744.744	33.879
748.62	30.547
752.493	18.923
756.365	26.183
760.235	12.266
764.103	25.378
767.969	21.604
771.834	31.757
775.697	28.901
779.558	28.037
783.417	50.186
787.274	25.309
791.13	25.425
794.983	24.782
798.835	16.366
802.686	14.563
806.534	23.619
810.38	4.617
814.225	21.657
818.068	20.343
821.909	73.232
825.749	64.993
829.586	84.063
833.422	443.148
837.256	1736.21
841.088	621.235
844.919	184.029
848.748	77.986
852.575	40.902
856.4	35.728
860.223	22.12
864.045	17.06
867.864	26.101
871.682	13.156
875.499	20.21
879.313	15.261
883.126	0.695
886.937	11.349
890.746	8.622
894.553	5.376
898.359	6.37
902.163	11.642
905.965	15.682
909.765	0.247
913.564	10.135
917.361	5.054
921.156	11.966
924.949	22.869
928.74	18.761
932.53	29.641
936.318	31.509
940.104	21.366
943.889	1.79
947.672	4.964
951.453	0.838
955.232	12.623
959.01	7.359
962.785	2.09
966.559	6.161
970.332	9.447
974.102	2.76
977.871	10.901
981.638	6.544
985.404	47.173
989.167	41.791
992.929	53.396
996.689	61.992
1000.45	55.024
1004.2	59.672
1007.96	72.235
1011.71	52.247
1015.46	75.982
1019.21	86.518
1022.96	132.337
1026.71	164.15
1030.45	534.029
1034.19	260.195
1037.94	344.017
1041.68	512.298
1045.41	1086.65
1049.15	4033.72
1052.88	65035.8
1056.62	20024.1
1060.35	2521.07
1064.08	718.846
1067.8	401.585
1071.53	282.056
1075.25	196.391
1078.97	180.713
1082.7	128.022
1086.41	94.302
1090.13	122.589
1093.85	107.617
1097.56	118.429
1101.27	110.559
1104.98	132.766
1108.69	99.961
1112.4	89.093
1116.1	62.682
1119.81	62.228
1123.51	55.832
1127.21	47.678
1130.91	50.842
1134.61	41.021
1138.3	12.192
1141.99	13.358
1145.68	26.519
1149.38	5.67
1153.06	24.807
1156.75	23.939
1160.43	5.062
1164.12	4.172
1167.8	14.276
1171.48	8.371
1175.16	5.544
1178.83	5.525
1182.51	21.587
1186.18	3.367
1189.85	3.323
1193.52	4.288
1197.19	1.729
1200.86	19.27
1204.52	4.287
1208.19	4.306
1211.85	13.665
1215.51	11.638
1219.17	26.611
1222.82	13.592
1226.48	5.587
1230.13	5.599
1233.78	14.628
1237.43	0.663
1241.08	46.702
1244.73	34.75
1248.37	35.806
1252.01	45.869
1255.66	43.938
1259.3	56.014
1262.93	69.601
1266.57	81.205
1270.21	92.326
1273.84	116.462
1277.47	104.61
1281.1	133.769
1284.73	167.941
1288.36	173.127
1291.98	201.328
1295.6	233.099
1299.23	281.263
1302.85	329.522
1306.46	383.349
1310.08	447.462
1313.7	547.785
1317.31	566.837
1320.92	588.46
1324.53	625.866
1328.14	649.526
1331.75	641.366
1335.35	731.645
1338.96	776.163
1342.56	873.039
1346.16	1030.62
1349.76	1357.78
1353.36	1861.8
1356.95	2577.55
1360.55	3397.99
1364.14	3779.87
1367.73	3147.02
1371.32	2143.6
1374.91	1475.98
1378.49	995.977
1382.08	781.445
1385.66	605.939
1389.24	429.462
1392.82	281.015
1396.4	199.599
1399.97	157.214
1403.55	141.861
1407.12	134.542
1410.69	146.275
1414.26	152.053
1417.83	162.791
1421.4	173.784
1424.96	163.751
1428.53	140.809
1432.09	121.981
1435.65	108.304
1439.21	70.737
1442.76	54.244
1446.32	51.773
1449.87	47.31
1453.43	43.947
1456.98	39.711
1460.53	43.619
1464.07	42.687
1467.62	41.935
1471.16	53.385
1474.71	62.06
1478.25	41.977
1481.79	53.155
1485.32	36.65
1488.86	13.542
1492.39	4.907
1495.93	4.841
1499.46	11.477
1502.99	21.02
1506.52	9.77
1510.05	34.159
1513.57	40.712
1517.09	7.495
