Measurement: Raman, 514 nm, ccw, Raman Data Processed
Mineral: Cerussite
Rruff sample: R050011
Ideal chemistry: PbCO_3_
Locality: Daoping Lead and Zinc mine, Gongcheng, Guangxi, China
Source: Eugene Schlepp
Description: Colorless hexagonal bipyramidal crystals
Measured chemistry: Pb_1.00_CO_3_ ; CO_2_ not measured but estimated by difference and stoichiometry
Pin_id: L00082
Orientation: Laser parallel to -a* (-1 0 0). Fiducial mark perpendicular to laser is parallel to -b [0 -1 0]
Raman shift (cm-1)	intensity
102.712	0
106.902	145.1
111.09	163.481
115.277	465.526
119.461	1334.27
123.643	2279.7
127.823	3723.22
132.001	4933.03
136.176	4359.2
140.35	2949.86
144.521	2123.83
148.691	1852.36
152.858	1557.59
157.024	1048.23
161.187	821.296
165.348	764.042
169.507	639.273
173.664	552.569
177.819	586.065
181.971	502.914
186.122	486.206
190.271	302.222
194.417	344.064
198.562	302.201
202.704	207.645
206.844	208.976
210.983	168.627
215.119	221.56
219.253	135.175
223.385	248.271
227.515	188.561
231.643	38.104
235.769	173.236
239.893	162.846
244.014	217.048
248.134	97.335
252.252	181.143
256.367	180.539
260.481	103.921
264.592	41.344
268.702	74.628
272.809	34.12
276.915	9.296
281.018	18.101
285.119	51.789
289.218	50.158
293.316	9.218
297.411	109.282
301.504	46.675
305.595	112.134
309.684	67.605
313.771	80.269
317.856	21.081
321.939	73.729
326.02	20.021
330.099	3.425
334.176	12.529
338.251	118.352
342.323	73.956
346.394	179.269
350.463	184.435
354.53	199.432
358.594	145.897
362.657	73.651
366.718	188.32
370.777	133.168
374.833	97.381
378.888	20.782
382.941	144.829
386.992	109.073
391.04	101.991
395.087	37.677
399.132	61.31
403.174	154.526
407.215	52.016
411.254	131.296
415.29	183.982
419.325	226.385
423.358	41.837
427.389	69.722
431.417	151.16
435.444	152.398
439.469	203.321
443.492	83.527
447.512	122.738
451.531	212.389
455.548	222.144
459.563	74.894
463.576	81.498
467.587	310.083
471.596	121.507
475.603	102.793
479.608	141.51
483.611	325.201
487.612	287.298
491.611	144.371
495.608	192.274
499.603	189.39
503.596	153.439
507.587	181.454
511.577	164.375
515.564	10.993
519.549	286.297
523.533	252.488
527.514	48.435
531.493	133.799
535.471	142.264
539.447	197.818
543.42	282.693
547.392	206.945
551.362	8.148
555.329	83.366
559.295	115.216
563.259	49.497
567.221	170.984
571.181	45.171
575.139	142.012
579.095	254.422
583.049	109.819
587.002	101.04
590.952	163.268
594.9	205.564
598.847	221.787
602.792	33.424
606.734	126.407
610.675	152.726
614.614	199.419
618.55	80.356
622.485	141.318
626.418	268.747
630.349	300.342
634.279	131.244
638.206	42.333
642.131	236.661
646.055	277.306
649.976	337.253
653.896	177.716
657.814	237.857
661.729	18.058
665.643	80.598
669.555	230.731
673.465	149.172
677.373	119.112
681.28	205.843
685.184	174.636
689.087	123.989
692.987	182.947
696.886	52.251
700.783	40.562
704.677	68.281
708.57	144.111
712.462	22.227
716.351	69.734
720.238	43.301
724.124	24.441
728.007	100.486
731.889	428.352
735.769	115.562
739.647	63.824
743.523	91.16
747.397	228.566
751.269	105.783
755.139	173.107
759.008	10.287
762.875	72.842
766.739	44.457
770.602	151.65
774.463	138.531
778.323	104.186
782.18	142.896
786.035	229.934
789.889	366.648
793.741	133.17
797.591	10.146
801.439	77.117
805.285	63.969
809.129	180.607
812.971	144.162
816.812	352.324
820.651	168.686
824.488	247.836
828.323	316.807
832.156	504.736
835.987	1792.36
839.817	2589.25
843.644	576.129
847.47	110.414
851.294	256.105
855.116	290.885
858.936	408.857
862.755	315.775
866.571	264.922
870.386	22.133
874.199	465.758
878.01	702.746
881.82	259.959
885.627	171.541
889.433	208.916
893.236	26.416
897.038	164.176
900.838	311.896
904.637	108.953
908.433	346.76
912.228	163.77
916.021	206.895
919.812	454.836
923.601	152.941
927.388	301.084
931.174	222.854
934.958	31.078
938.739	308.771
942.52	287.076
946.298	255.252
950.074	303.799
953.849	94.248
957.622	102.689
961.393	21.285
965.162	350.908
968.93	410.24
972.696	136.742
976.459	54.883
980.222	36.367
983.982	27.916
987.74	161.104
991.497	230.711
995.252	296.543
999.005	129.219
1002.76	248.217
1006.51	291.418
1010.25	131.164
1014	371.217
1017.74	564.488
1021.49	555.48
1025.23	327.338
1028.96	180.049
1032.7	356.84
1036.44	577.711
1040.17	697.873
1043.9	758.154
1047.63	1299.71
1051.36	5081.5
1055.09	40333.6
1058.81	2914.29
1062.54	974.973
1066.26	834.744
1069.97	744.723
1073.69	725.021
1077.41	525.322
1081.12	275.428
1084.84	395.225
1088.55	524.953
1092.25	634.363
1095.96	593.318
1099.67	443.896
1103.37	253.01
1107.07	123.287
1110.77	103.078
1114.47	65.93
1118.16	362.955
1121.86	481.34
1125.55	444.674
1129.24	228.311
1132.93	142.342
1136.62	20.973
1140.31	147.625
1143.99	592.918
1147.67	685.188
1151.35	478.988
1155.03	434.932
1158.71	474.537
1162.39	9.398
1166.06	105.979
1169.73	132.242
1173.4	157.832
1177.07	494.162
1180.74	438.346
1184.4	285.066
1188.07	140.775
1191.73	128.795
1195.39	349.633
1199.05	171.145
1202.7	582.109
1206.36	572.592
1210.01	712.578
1213.66	651.684
1217.31	249.869
1220.96	407.633
1224.6	434.992
1228.25	381.939
1231.89	468.486
1235.53	1034.69
1239.17	840.58
1242.81	516.129
1246.44	290.955
1250.08	83.779
1253.71	289.057
1257.34	237.479
1260.97	419.441
1264.6	622.576
1268.22	798.764
1271.85	574.402
1275.47	164.979
1279.09	155.898
1282.71	55.566
1286.33	182.094
1289.94	329.482
1293.56	284.023
1297.17	290.643
1300.78	612.516
1304.39	287.463
1307.99	468.338
1311.6	171.383
1315.2	133.887
1318.8	34.902
1322.4	185.123
1326	39.723
1329.6	459.414
1333.19	508.766
1336.79	477.008
1340.38	345.279
1343.97	321.193
1347.56	158.088
1351.14	184.938
1354.73	341.363
1358.31	628.381
1361.89	1134.24
1365.47	1361.68
1369.05	1398.3
1372.63	1775.05
1376.2	1974.83
1379.78	1879.56
1383.35	1472.23
1386.92	664.145
1390.49	695.301
1394.05	626.186
1397.62	710.398
1401.18	718.76
1404.74	713.465
1408.3	811.715
1411.86	733.854
1415.42	394.141
1418.97	32.885
1422.53	340.471
1426.08	72.092
1429.63	259.793
1433.18	298.189
1436.72	547.477
1440.27	797.812
1443.81	957.992
1447.36	1087.35
1450.89	935.215
1454.43	981.453
1457.97	773.588
1461.51	684.633
1465.04	684.984
1468.57	1066.34
1472.1	1373.83
1475.63	1678.19
1479.16	1809.04
1482.68	1653.63
1486.21	1567.34
1489.73	1412.1
1493.25	791.27
1496.77	645.449
1500.29	114.832
1503.8	17.973
1507.32	41.695
1510.83	124.434
1514.34	1.945
