Measurement: Raman, 514 nm, ccw, Raman Data Processed
Mineral: Cerussite
Rruff sample: R060017
Ideal chemistry: PbCO_3_
Locality: Gonessa, Sardinia, Italy
Source: American Museum of Natural History
Description: White reticulated composite
Measured chemistry: Pb_1.00_CO_3_ C not measured but estimated by difference and stoichiometry
Pin_id: M00261
Orientation: Laser parallel to a* (1 0 0). Fiducial mark perpendicular to laser is parallel to b [0 1 0]
Raman shift (cm-1)	intensity
51.431	0
56.387	44.779
61.341	7.03223
66.292	292.689
71.241	1800.18
76.187	3064.94
81.131	4066.06
86.072	5655.05
91.012	7491.1
95.948	9130.47
100.883	9668.78
105.815	9448.8
110.744	8265.16
115.671	9408.75
120.596	10590.7
125.519	12754.8
130.439	13653.4
135.356	12209.4
140.271	10146.9
145.184	8963.8
150.094	7945.42
155.002	6687.94
159.908	5801.68
164.811	5443.47
169.711	5359.77
174.61	5179.57
179.505	4592.93
184.399	4000.15
189.29	3666.66
194.178	3309.55
199.064	3092.51
203.948	2599.91
208.829	2496.64
213.708	2272.17
218.585	2211.23
223.459	1949.87
228.33	2063.25
233.199	1835.24
238.066	1854.89
242.93	1685.71
247.792	1564.94
252.651	1375.68
257.508	1233.17
262.363	1042.17
267.215	998.989
272.064	804.211
276.912	686.59
281.756	644.267
286.598	577.328
291.438	621.947
296.276	418.435
301.111	430.406
305.943	348.365
310.773	448.06
315.601	373.143
320.426	274.673
325.248	175.695
330.068	220.125
334.886	39.3389
339.701	213.053
344.514	166.192
349.324	181.741
354.132	35.4551
358.938	77.1348
363.741	32.7217
368.541	39.9971
373.339	61
378.135	12.5
382.928	14.5625
387.718	1.44336
392.506	71.6787
397.292	57.5928
402.075	36.2969
406.856	119.581
411.634	42.8867
416.41	90.916
421.183	75.7705
425.954	64.5635
430.722	39.3721
435.488	7.02148
440.251	26.6719
445.012	34.6377
449.77	8.77441
454.526	92.9824
459.28	92.167
464.03	123.004
468.779	17.2549
473.525	85.9082
478.268	198.148
483.009	227.875
487.747	195.038
492.483	238.966
497.217	119.791
501.948	152.971
506.676	13.9219
511.402	159.842
516.125	233.561
520.846	79.6064
525.565	204.287
530.281	221.981
534.994	170.977
539.705	230.972
544.413	160.001
549.119	200.749
553.822	263.781
558.523	101.247
563.222	119.039
567.917	150.277
572.611	48.0781
577.302	173.22
581.99	388.563
586.676	195.182
591.359	245.413
596.04	243.648
600.718	35.2353
605.394	140.758
610.067	290.153
614.737	230.371
619.406	392.738
624.071	386.138
628.734	247.699
633.395	262.75
638.053	315.859
642.708	338.483
647.361	467.06
652.012	159.959
656.66	117.888
661.305	230.99
665.948	216.081
670.588	350.986
675.226	399.637
679.861	332.501
684.494	311.728
689.124	221.269
693.752	436.359
698.377	175.662
702.999	169.418
707.619	180.062
712.237	37.5537
716.852	133.137
721.464	163.274
726.074	173.591
730.681	197.695
735.286	11.5859
739.888	148.48
744.488	115.423
749.085	136.324
753.68	202.349
758.272	53.1631
762.861	124.738
767.448	14.8984
772.033	8.36523
776.614	83.3906
781.194	166.139
785.77	292.131
790.345	163.195
794.916	148.349
799.485	294.199
804.052	31.2646
808.616	163.728
813.177	262.623
817.736	307.463
822.292	472.586
826.846	909.945
831.397	2553.65
835.945	4166.88
840.491	1486.64
845.035	477.725
849.576	517.021
854.114	301.5
858.65	246.156
863.183	249.365
867.713	358.121
872.241	146.617
876.767	277.148
881.29	60.1719
885.81	10.6152
890.328	156.303
894.843	188.469
899.356	147.377
903.866	5.36523
908.373	55.7773
912.878	49.3789
917.38	118.557
921.88	43.127
926.377	125.527
930.872	22.2949
935.364	41.7246
939.853	228.457
944.34	53.2402
948.824	45.4004
953.306	204.982
957.785	59.4941
962.261	334.002
966.735	203.853
971.207	157.398
975.675	93.9844
980.141	265.629
984.605	96.2383
989.066	12.8574
993.524	191.756
997.98	335.889
1002.43	355.164
1006.88	193.336
1011.33	374.254
1015.78	194.256
1020.22	255.08
1024.66	369.076
1029.1	468.357
1033.53	383.637
1037.97	413.244
1042.4	1517.25
1046.82	17322
1051.25	41812.3
1055.67	22174.4
1060.09	1115.94
1064.51	426.443
1068.92	302.356
1073.33	367.44
1077.74	185.848
1082.15	269.701
1086.55	320.379
1090.95	246.369
1095.35	252.103
1099.75	296.31
1104.14	325.514
1108.53	333.201
1112.92	328.685
1117.31	650.104
1121.69	476.244
1126.07	354.18
1130.45	182.387
1134.82	162.225
1139.19	129.906
1143.57	148.42
1147.93	104.732
1152.3	117.799
1156.66	159.606
1161.02	79.8516
1165.38	104.264
1169.73	199.236
1174.08	53.0801
1178.43	28.6816
1182.78	160.014
1187.12	21.8027
1191.46	69.2734
1195.8	97.625
1200.14	75.9785
1204.47	0.708984
1208.8	175.211
1213.13	29.5117
1217.46	120.768
1221.78	269.971
1226.1	240.111
1230.42	51.7969
1234.73	125.678
1239.04	7.49609
1243.35	166.184
1247.66	88.8848
1251.97	146.43
1256.27	44.166
1260.57	243.885
1264.86	302.812
1269.16	48.8691
1273.45	27.1445
1277.74	224.315
1282.03	57.4805
1286.31	131.875
1290.59	155.494
1294.87	202.619
1299.14	207.336
1303.42	195.342
1307.69	311.981
1311.95	245.949
1316.22	375.522
1320.48	347.43
1324.74	233.34
1329	298.057
1333.26	277.408
1337.51	367.322
1341.76	250.512
1346	290.539
1350.25	657.812
1354.49	911.35
1358.73	1073.78
1362.96	1512.54
1367.2	1841.91
1371.43	2450.04
1375.66	2494.24
1379.88	1748.75
1384.11	1091.26
1388.33	658.104
1392.54	393.924
1396.76	283.219
1400.97	342.037
1405.18	437.387
1409.39	713.428
1413.59	692.139
1417.8	661.676
1421.99	924.025
1426.19	925.107
1430.38	1181
1434.58	1085.01
1438.77	1460.89
1442.95	1696.91
1447.13	2000.58
1451.32	2410.84
1455.49	3185.14
1459.67	3518.92
1463.84	4231.02
1468.01	4934.64
1472.18	5164.07
1476.35	5278.38
1480.51	4616.87
1484.67	4045.09
1488.83	2866.81
1492.98	2110.39
1497.13	1253.8
1501.28	982.988
1505.43	830.762
1509.57	404.902
1513.71	459.305
1517.85	382.42
1521.99	229.389
1526.12	83.6543
1530.25	258.357
1534.38	129.662
1538.5	124.654
1542.62	215.103
1546.74	189.85
1550.86	132.746
1554.98	389.295
1559.09	22.9863
1563.2	215.51
1567.31	159.963
