Measurement: Raman, 514 nm, ccw, Raman Data Processed
Mineral: Cerussite
Rruff sample: R040069
Ideal chemistry: PbCO_3_
Locality: Broken Hill, New South Wales, Australia
Source: University of Arizona Mineral Museum
Description: Reticulated composite of colorless tabular crystals
Measured chemistry: Pb_1.04_C_0.98_O_3_
Pin_id: M00046
Orientation: Laser parallel to -c* (0 0 -1). Fiducial mark perpendicular to laser is parallel to a [1 0 0]
Raman shift (cm-1)	intensity
50.93	0
55.142	7.244
59.352	7.115
63.56	31.609
67.766	236.862
71.97	881.938
76.172	1240.15
80.371	1205.44
84.569	1393.14
88.765	1739.81
92.959	2047.05
97.15	2275.51
101.34	2464.01
105.527	2723.41
109.713	3504.65
113.896	4290.65
118.077	4657.35
122.257	4519.67
126.434	4569.54
130.609	4232.52
134.782	3325.62
138.954	2445.99
143.123	1894.67
147.29	1570.68
151.455	1451.99
155.618	1295.61
159.779	1153.59
163.938	1107.91
168.095	1114.58
172.25	1150.55
176.403	1145.8
180.554	1216.29
184.703	1324.98
188.85	1444.86
192.995	1666.91
197.138	2054.14
201.279	2469.79
205.418	2920.44
209.554	3386.16
213.689	3558.71
217.822	3197.3
221.953	2726.12
226.082	2315.64
230.209	1875.24
234.334	1525.26
238.456	1253.41
242.577	1028.7
246.696	908.901
250.813	740.307
254.928	676.224
259.041	566.04
263.152	432.203
267.261	387.753
271.368	367.375
275.473	339.668
279.576	315.073
283.677	247.31
287.776	224.335
291.873	219.94
295.968	192.906
300.061	162.914
304.152	153.236
308.241	152.563
312.328	133.725
316.413	100.952
320.496	86.24
324.578	90.583
328.657	57.977
332.734	57.418
336.81	67.902
340.883	58.427
344.954	63.112
349.024	44.011
353.091	36.728
357.157	27.7
361.221	4.34
365.282	9.36
369.342	16.37
373.4	6.348
377.455	28.291
381.509	25.116
385.561	15.992
389.611	15.408
393.659	33.049
397.705	12.057
401.749	22.819
405.791	30.632
409.832	11.674
413.87	24.302
417.906	6.077
421.941	19.66
425.973	18.366
430.004	22.187
434.032	15.031
438.059	12.916
442.084	3.16
446.107	3.793
450.128	7.77
454.147	25.225
458.164	30.2
462.179	22.154
466.192	36.121
470.204	31.989
474.213	23.868
478.221	18.72
482.226	18.541
486.23	48.33
490.232	21.084
494.231	16.796
498.229	27.467
502.225	41.094
506.22	28.574
510.212	23.521
514.202	51.607
518.191	22.541
522.177	43.263
526.162	34.14
530.144	16.152
534.125	4.319
538.104	16.504
542.081	8.594
546.056	9.879
550.03	11.557
554.001	12.957
557.97	54.627
561.938	26.48
565.904	20.453
569.868	68.009
573.829	58.202
577.79	74.629
581.748	86.218
585.704	85.725
589.658	97.819
593.611	108.662
597.562	89.841
601.51	98.959
605.457	124.703
609.402	113.012
613.346	123.018
617.287	192.691
621.226	322.738
625.164	396.49
629.1	331.18
633.033	223.686
636.965	173.951
640.896	213.459
644.824	248.739
648.75	271.05
652.675	271.351
656.598	174.635
660.518	96.871
664.437	137.754
668.354	392.107
672.27	947.112
676.183	312.676
680.095	79.687
684.005	5.684
687.912	9.259
691.818	17.379
695.723	3.96
699.625	19.346
703.526	24.868
707.424	9.701
711.321	8.676
715.216	18.989
719.109	47.254
723.001	59.488
726.89	101.694
730.778	98.863
734.664	96.995
738.548	70.09
742.43	70.146
746.31	47.165
750.189	41.146
754.066	50.091
757.941	55.999
761.814	71.873
765.685	81.836
769.554	65.525
773.422	54.307
777.288	72.063
781.152	79.792
785.014	58.215
788.874	67.174
792.733	80.453
796.59	81.458
800.445	76.064
804.298	65.648
808.149	80.21
811.999	54.754
815.846	78.284
819.692	98.804
823.536	165.772
827.379	134.637
831.219	258.761
835.058	974.052
838.895	1249.59
842.73	401.471
846.563	233.998
850.395	283.931
854.225	285.081
858.053	380.454
861.879	306.914
865.703	254.372
869.526	187.827
873.347	144.281
877.166	156.738
880.983	148.089
884.798	130.691
888.612	115.187
892.424	129.631
896.234	169.118
900.042	150.641
903.849	133.167
907.654	113.696
911.457	114.23
915.258	61.769
919.058	53.314
922.855	30.864
926.651	83.423
930.446	72.003
934.238	80.598
938.029	96.204
941.818	56.828
945.605	66.481
949.39	85.146
953.174	73.821
956.956	67.503
960.736	30.198
964.514	38.911
968.291	31.649
972.066	29.427
975.839	3.759
979.61	11.918
983.38	19.949
987.147	49.84
990.914	60.758
994.678	64.692
998.441	170.636
1002.2	387.59
1005.96	137.603
1009.72	62.728
1013.47	77.266
1017.23	120.303
1020.98	155.874
1024.73	228.594
1028.48	295.874
1032.23	407.902
1035.97	220.938
1039.71	337.514
1043.46	635.032
1047.2	1507.09
1050.93	12442.3
1054.67	61068.3
1058.41	3960.41
1062.14	810.718
1065.87	398.291
1069.6	274.435
1073.33	208.268
1077.05	214.457
1080.78	239.343
1084.5	206.467
1088.22	150.596
1091.94	151.73
1095.66	147.869
1099.38	114.013
1103.09	63.161
1106.8	100.285
1110.51	138.407
1114.22	131.652
1117.93	67.787
1121.64	50.956
1125.34	13.129
1129.04	37.306
1132.74	19.488
1136.44	5.674
1140.14	34.865
1143.83	6.945
1147.53	16.765
1151.22	6.607
1154.91	28.466
1158.6	2.643
1162.29	21.736
1165.97	29.829
1169.65	44.928
1173.34	49.034
1177.02	14.146
1180.7	6.735
1184.37	8.387
1188.05	4.516
1191.72	17.346
1195.39	8.781
1199.06	3.107
1202.73	12.996
1206.4	5.109
1210.06	33.8
1213.73	21.262
1217.39	64.333
1221.05	55.416
1224.71	45.141
1228.36	42.618
1232.02	56.739
1235.67	109.874
1239.32	150.024
1242.97	81.191
1246.62	89.385
1250.27	104.607
1253.91	115.85
1257.56	117.113
1261.2	177.398
1264.84	234.708
1268.48	258.043
1272.12	249.349
1275.75	236.444
1279.38	222.792
1283.02	241.633
1286.65	212.99
1290.27	282.314
1293.9	357.503
1297.53	370.971
1301.15	356.461
1304.77	368.972
1308.39	482.508
1312.01	485.966
1315.63	589.554
1319.24	703.169
1322.86	699.503
1326.47	680.275
1330.08	690.46
1333.69	660.99
1337.29	638.241
1340.9	714.296
1344.5	842.041
1348.11	1059.92
1351.71	1363.83
1355.31	2029.8
1358.9	2736.8
1362.5	3427.85
1366.09	3308.96
1369.68	2398.12
1373.28	1587.34
1376.86	1097.62
1380.45	789.523
1384.04	628.952
1387.62	501.508
1391.2	380.316
1394.79	221.05
1398.37	201.606
1401.94	187.728
1405.52	232.709
1409.09	221.781
1412.67	200.954
1416.24	222.179
1419.81	192.453
1423.38	162.781
1426.94	177.165
1430.51	184.654
1434.07	191.235
1437.63	325.957
1441.19	421.754
1444.75	486.618
1448.31	501.551
1451.86	547.55
1455.41	594.593
1458.97	553.677
1462.52	449.788
1466.07	360.952
1469.61	362.243
1473.16	325.673
1476.7	359.252
1480.25	276.992
1483.79	322.896
1487.33	252.966
1490.86	222.222
1494.4	112.693
1497.93	68.435
1501.47	22.504
1505	23.052
1508.53	7.837
1512.06	18.283
1515.58	16.44
1519.11	12.593
1522.63	47.329
1526.15	64.587
