Measurement: Raman, 514 nm, ccw, Raman Data Processed
Mineral: Cerussite
Rruff sample: R040069
Ideal chemistry: PbCO_3_
Locality: Broken Hill, New South Wales, Australia
Source: University of Arizona Mineral Museum
Description: Reticulated composite of colorless tabular crystals
Measured chemistry: Pb_1.04_C_0.98_O_3_
Pin_id: M00419
Orientation: Laser parallel to -b* (0 -1 0). Fiducial mark perpendicular to laser is parallel to c [0 0 1]
Raman shift (cm-1)	intensity
50.93	0
55.142	69.085
59.352	105.45
63.56	7.064
67.766	103.963
71.97	520.631
76.172	712.873
80.371	627.016
84.569	735.617
88.765	1043.37
92.959	1331.08
97.15	1672.53
101.34	2188.6
105.527	2760.21
109.713	4135.27
113.896	5796.71
118.077	6259.48
122.257	5256.55
126.434	4528.01
130.609	4014.63
134.782	3080.34
138.954	2278.19
143.123	1762.23
147.29	1483.44
151.455	1280.8
155.618	1104.27
159.779	908.837
163.938	857.472
168.095	836.166
172.25	845.918
176.403	842.712
180.554	837.547
184.703	890.42
188.85	887.366
192.995	986.199
197.138	1164.91
201.279	1392.22
205.418	1683.38
209.554	2093.9
213.689	2324.47
217.822	2443.23
221.953	2445.11
226.082	2340.19
230.209	1897.23
234.334	1418.31
238.456	978.823
242.577	770.128
246.696	641.016
250.813	445.557
254.928	338.026
259.041	274.521
263.152	173.858
267.261	132.968
271.368	140.076
275.473	141.19
279.576	107.309
283.677	113.472
287.776	95.721
291.873	83.769
295.968	38.836
300.061	32.851
304.152	28.928
308.241	28.009
312.328	1.041
316.413	16.056
320.496	201.008
324.578	20.136
328.657	0.041
332.734	4.885
336.81	8.325
340.883	6.614
344.954	18.925
349.024	35.338
353.091	14.834
357.157	9.316
361.221	11.768
365.282	2.417
369.342	3.885
373.4	26.539
377.455	16.978
381.509	10.692
385.561	13.589
389.611	14.369
393.659	14.231
397.705	12.3
401.749	9.679
405.791	6.651
409.832	13.828
413.87	15.901
417.906	18.473
421.941	17.945
425.973	26.46
430.004	13.924
434.032	24.318
438.059	27.58
442.084	37.102
446.107	42.207
450.128	16.254
454.147	29.298
458.164	43.174
462.179	28.123
466.192	5.957
470.204	30.574
474.213	23.029
478.221	34.728
482.226	39.503
486.23	21.715
490.232	21.173
494.231	56.031
498.229	35.234
502.225	13.185
506.22	36.134
510.212	8.406
514.202	16.133
518.191	4.742
522.177	10.146
526.162	14.499
530.144	13.244
534.125	2.264
538.104	20.728
542.081	11.579
546.056	14.875
550.03	1.343
554.001	6.348
557.97	11.793
561.938	22.935
565.904	7.084
569.868	17.227
573.829	12.253
577.79	10.046
581.748	5.053
585.704	26.754
589.658	32.552
593.611	20.161
597.562	10.819
601.51	44.408
605.457	26.925
609.402	13.271
613.346	36.743
617.287	37.146
621.226	36.627
625.164	61.043
629.1	28.408
633.033	54.777
636.965	38.176
640.896	44.542
644.824	28.748
648.75	29.041
652.675	23.237
656.598	17.359
660.518	43.449
664.437	121.457
668.354	496.544
672.27	639.865
676.183	237.786
680.095	87.913
684.005	63.94
687.912	36.891
691.818	32.573
695.723	40.032
699.625	13.91
703.526	30.98
707.424	10.938
711.321	5.915
715.216	21.781
719.109	50.65
723.001	71.345
726.89	60.333
730.778	62.262
734.664	59.184
738.548	52.04
742.43	38.171
746.31	30.213
750.189	24.302
754.066	31.33
757.941	32.613
761.814	22.583
765.685	24.53
769.554	8.595
773.422	24.493
777.288	30.387
781.152	50.279
785.014	17.162
788.874	24.072
792.733	16.852
796.59	31.062
800.445	0.143
804.298	32.69
808.149	27.702
811.999	23.557
815.846	26.428
819.692	29.648
823.536	57.445
827.379	31.238
831.219	79.028
835.058	498.818
838.895	689.58
842.73	135.512
846.563	75.45
850.395	40.107
854.225	16.78
858.053	42.541
861.879	37.297
865.703	35.049
869.526	18.794
873.347	7.531
877.166	3.736
880.983	9.007
884.798	2.288
888.612	0.419
892.424	4.881
896.234	17.809
900.042	10.494
903.849	3.829
907.654	11.806
911.457	10.479
915.258	12.157
919.058	31.839
922.855	5.523
926.651	30.201
930.446	35.894
934.238	18.589
938.029	25.185
941.818	5.128
945.605	4.549
949.39	12.042
953.174	22.617
956.956	21.231
960.736	31.861
964.514	19.482
968.291	13.093
972.066	21.694
975.839	16.286
979.61	10.135
983.38	46.422
987.147	28.969
990.914	35.506
994.678	61.031
998.441	42.544
1002.2	54.953
1005.96	46.442
1009.72	54.862
1013.47	49.782
1017.23	66.218
1020.98	64.568
1024.73	83.061
1028.48	177.419
1032.23	265.129
1035.97	180.689
1039.71	299.968
1043.46	487.683
1047.2	1211.18
1050.93	8683.31
1054.67	51219.4
1058.41	3643.63
1062.14	738.006
1065.87	342.64
1069.6	209.913
1073.33	184.142
1077.05	149.92
1080.78	143.078
1084.5	96.4
1088.22	91.501
1091.94	93.461
1095.66	75.586
1099.38	77.694
1103.09	75.895
1106.8	85.967
1110.51	81.022
1114.22	68.582
1117.93	26.602
1121.64	34.566
1125.34	27.507
1129.04	24.477
1132.74	13.431
1136.44	40.371
1140.14	21.296
1143.83	35.206
1147.53	26.091
1151.22	40.953
1154.91	18.8
1158.6	23.634
1162.29	10.553
1165.97	6.765
1169.65	20.001
1173.34	24.754
1177.02	31.51
1180.7	26.823
1184.37	16.174
1188.05	26.558
1191.72	23.978
1195.39	22.561
1199.06	11.076
1202.73	39.574
1206.4	10.937
1210.06	12.527
1213.73	0.019
1217.39	6.425
1221.05	2.861
1224.71	24.294
1228.36	4.718
1232.02	30.139
1235.67	24.554
1239.32	5.966
1242.97	21.377
1246.62	16.79
1250.27	58.209
1253.91	72.63
1257.56	60.056
1261.2	54.488
1264.84	102.928
1268.48	88.381
1272.12	132.842
1275.75	105.302
1279.38	113.114
1283.02	136.313
1286.65	208.745
1290.27	230.864
1293.9	239.868
1297.53	295.944
1301.15	301.417
1304.77	370.819
1308.39	407.153
1312.01	462.607
1315.63	559.578
1319.24	605.044
1322.86	615.678
1326.47	660.718
1330.08	692.928
1333.69	779.5
1337.29	835.843
1340.9	911.002
1344.5	1031.64
1348.11	1315.21
1351.71	1799.92
1355.31	2576.44
1358.9	3623.22
1362.5	4698.04
1366.09	4565.78
1369.68	3417.68
1373.28	2225.63
1376.86	1492.63
1380.45	1041.7
1384.04	768.834
1387.62	577.059
1391.2	398.407
1394.79	340.115
1398.37	248.701
1401.94	227.452
1405.52	208.169
1409.09	200.919
1412.67	187.712
1416.24	204.549
1419.81	217.445
1423.38	170.44
1426.94	199.539
1430.51	172.724
1434.07	176.975
1437.63	150.299
1441.19	131.685
1444.75	138.136
1448.31	141.65
1451.86	155.22
1455.41	170.843
1458.97	179.508
1462.52	197.189
1466.07	242.909
1469.61	273.751
1473.16	329.731
1476.7	349.856
1480.25	368.129
1483.79	356.556
1487.33	273.153
1490.86	205.941
1494.4	178.957
1497.93	95.266
1501.47	41.93
1505	26.016
1508.53	30.632
1512.06	55.946
1515.58	26.208
1519.11	33.836
1522.63	63.525
1526.15	0
