Measurement: Raman, 514 nm, ccw, Raman Data Processed
Mineral: Cerussite
Rruff sample: R040069
Ideal chemistry: PbCO_3_
Locality: Broken Hill, New South Wales, Australia
Source: University of Arizona Mineral Museum
Description: Reticulated composite of colorless tabular crystals
Measured chemistry: Pb_1.04_C_0.98_O_3_
Pin_id: M00046
Orientation: Laser parallel to -c* (0 0 -1). Fiducial mark perpendicular to laser is parallel to a [1 0 0]
Raman shift (cm-1)	intensity
83.17	0
87.367	99.287
91.561	456.313
95.753	743.889
99.943	1238.47
104.132	1742.78
108.318	2549.45
112.502	4110.56
116.684	4904.16
120.864	4207.44
125.042	3463.57
129.218	3215.97
133.392	2432.32
137.564	1560.95
141.733	1082.01
145.901	893.131
150.067	752.049
154.231	568.216
158.392	408.399
162.552	343.161
166.71	304.639
170.865	359.019
175.019	447.347
179.171	437.687
183.32	419.566
187.468	490.016
191.614	636.101
195.757	804.705
199.899	1033.38
204.038	1419.93
208.176	1734.46
212.311	2103.71
216.445	2112.01
220.576	2150.51
224.706	1986.35
228.833	1664.27
232.959	1208.69
237.082	916.639
241.204	628.91
245.323	451.285
249.441	368.677
253.557	258.939
257.67	119.025
261.782	73.818
265.891	13.174
269.999	13.735
274.104	14.669
278.208	14.202
282.31	3.427
286.409	33.042
290.507	54.02
294.603	31.459
298.697	46.618
302.788	6.148
306.878	38.131
310.966	35.326
315.052	26.907
319.136	35.681
323.217	19.477
327.297	22.096
331.375	33.629
335.451	54.445
339.525	32.712
343.597	14.655
347.668	4.265
351.736	4.643
355.802	10.764
359.866	14.593
363.928	1.391
367.989	11.175
372.047	6.447
376.104	11.811
380.158	4.596
384.211	16.395
388.261	41.807
392.31	56.12
396.357	50.171
400.401	29.208
404.444	51.012
408.485	36.525
412.524	65.574
416.561	40.371
420.596	73.083
424.629	71.518
428.661	89.419
432.69	67.337
436.717	103.176
440.743	40.406
444.766	75.549
448.788	82.849
452.807	62.689
456.825	74.682
460.841	116.677
464.855	101.731
468.867	99.334
472.877	75.822
476.885	75.617
480.891	79.896
484.895	90.992
488.898	77.986
492.898	80.584
496.897	65.888
500.894	95.807
504.888	44.736
508.881	50.628
512.872	43.012
516.861	38.233
520.848	89.384
524.834	55.593
528.817	60.971
532.798	71.713
536.778	67.401
540.756	37.566
544.731	44.026
548.705	40.288
552.677	64.468
556.647	74.51
560.616	42.767
564.582	50.318
568.546	63.424
572.509	55.821
576.47	49.48
580.429	66.3
584.385	102.797
588.34	99.265
592.294	51.656
596.245	99.102
600.194	106.667
604.142	97.352
608.088	87.877
612.031	99.443
615.973	138.989
619.913	205.463
623.852	278.93
627.788	256.471
631.722	163.078
635.655	130.541
639.586	148.741
643.515	201.052
647.442	223.201
651.367	137.406
655.29	105.459
659.212	91.636
663.131	62.843
667.049	340.038
670.965	518.125
674.879	418.399
678.791	57.523
682.701	72.524
686.61	18.465
690.517	6.328
694.421	19.36
698.324	0.512
702.226	16.52
706.125	14.547
710.022	1.622
713.918	22.224
717.812	19.052
721.704	38.993
725.594	64.967
729.482	75.273
733.369	58.874
737.253	28.828
741.136	65.776
745.017	61.714
748.896	31.572
752.774	5.463
756.649	36.376
760.523	41.285
764.395	28.188
768.265	42.086
772.133	20.975
775.999	15.859
779.864	44.74
783.727	56.62
787.588	38.497
791.447	49.375
795.304	70.254
799.16	68.234
803.014	34.896
806.865	41.895
810.716	57.778
814.564	5.661
818.41	52.545
822.255	68.431
826.098	69.125
829.939	133.612
833.779	390.384
837.616	1079.11
841.452	377.293
845.286	176.68
849.118	184.675
852.948	194.143
856.777	217.816
860.604	247.748
864.429	178.684
868.252	125.625
872.073	118.572
875.893	81.539
879.711	112.502
883.527	88.499
887.341	79.498
891.154	67.429
894.964	106.485
898.773	107.557
902.58	87.644
906.386	94.747
910.189	63.745
913.991	72.847
917.791	62.968
921.59	23.095
925.386	23.233
929.181	57.399
932.974	53.581
936.765	59.768
940.555	53.965
944.343	21.187
948.129	30.411
951.913	38.608
955.695	18.836
959.476	3.067
963.255	83.305
967.032	39.55
970.807	29.799
974.581	9.046
978.353	0.296
982.123	8.434
985.892	39.845
989.658	66.131
993.423	58.42
997.187	90.733
1000.95	270.018
1004.71	116.301
1008.47	66.173
1012.22	6.159
1015.98	101.565
1019.73	149.17
1023.48	159.663
1027.23	196.968
1030.98	339.856
1034.72	169.209
1038.47	244.208
1042.21	421.476
1045.95	873.742
1049.69	3482.11
1053.43	54703.3
1057.16	7699.67
1060.89	998.446
1064.63	380.464
1068.36	208.128
1072.09	186.549
1075.81	193.257
1079.54	198.348
1083.26	177.422
1086.98	138.479
1090.7	116.571
1094.42	123.596
1098.14	136.975
1101.85	77.965
1105.57	71.859
1109.28	78.386
1112.99	53.321
1116.69	67.836
1120.4	48.729
1124.11	72.616
1127.81	30.45
1131.51	46.303
1135.21	15.139
1138.91	9.958
1142.6	20.246
1146.3	26.493
1149.99	47.195
1153.68	17.873
1157.37	18.507
1161.06	8.908
1164.74	25.364
1168.43	25.137
1172.11	29.608
1175.79	22.049
1179.47	38.474
1183.15	31.881
1186.82	7.726
1190.5	4.649
1194.17	19.014
1197.84	22.731
1201.51	17.523
1205.18	47.764
1208.84	26.971
1212.51	45.143
1216.17	38.308
1219.83	2.533
1223.49	10.619
1227.15	18.233
1230.8	20.9
1234.45	63.032
1238.11	123.164
1241.76	119.303
1245.41	73.445
1249.05	79.593
1252.7	78.75
1256.34	112.913
1259.99	72.087
1263.63	116.25
1267.27	180.457
1270.9	253.686
1274.54	191.796
1278.17	244.847
1281.81	219.946
1285.44	224.846
1289.07	185.858
1292.69	217.806
1296.32	324.048
1299.94	318.839
1303.56	342.357
1307.18	415.613
1310.8	504.88
1314.42	563.051
1318.04	532.222
1321.65	580.606
1325.26	612.97
1328.88	594.466
1332.48	623.939
1336.09	697.144
1339.7	781.077
1343.3	908.645
1346.9	1028.25
1350.51	1391.85
1354.11	1818.54
1357.7	2599.91
1361.3	3541.69
1364.89	3771.54
1368.49	3110.45
1372.08	2183.42
1375.67	1583.46
1379.26	1077.59
1382.84	791.813
1386.43	529.141
1390.01	392.651
1393.59	291.452
1397.17	180.659
1400.75	112.015
1404.33	236.677
1407.9	226.41
1411.47	272.245
1415.05	233.18
1418.62	230.205
1422.19	174.294
1425.75	225.449
1429.32	210.746
1432.88	242.091
1436.44	260.691
1440.01	303.32
1443.56	378.038
1447.12	460.854
1450.68	527.754
1454.23	545.736
1457.78	607.792
1461.34	648.9
1464.88	560.003
1468.43	525.243
1471.98	483.664
1475.52	511.274
1479.07	522.09
1482.61	516.119
1486.15	470.371
1489.68	380.871
1493.22	344.652
1496.76	229.778
1500.29	199.344
1503.82	115.429
1507.35	89.139
1510.88	63.642
1514.41	35.196
1517.93	12.184
1521.46	3.048
1524.98	4.683
