Measurement: Raman, 514 nm, ccw, Raman Data Processed
Mineral: Cerussite
Rruff sample: R050011
Ideal chemistry: PbCO_3_
Locality: Daoping Lead and Zinc mine, Gongcheng, Guangxi, China
Source: Eugene Schlepp
Description: Colorless hexagonal bipyramidal crystals
Measured chemistry: Pb_1.00_CO_3_ ; CO_2_ not measured but estimated by difference and stoichiometry
Pin_id: L00377
Orientation: Laser parallel to b* (0 1 0). Fiducial mark perpendicular to laser is parallel to -c [0 0 -1]
Raman shift (cm-1)	intensity
46.637	0
50.856	92.996
55.072	193.58
59.287	364.858
63.499	527.962
67.709	385.833
71.917	225.343
76.123	59.949
80.327	41.878
84.529	29.502
88.728	55.824
92.926	397.912
97.121	1101.54
101.314	2278.38
105.505	2521.25
109.694	2288.11
113.881	2411.92
118.066	2832.63
122.249	3872.21
126.43	5528.64
130.608	6574.89
134.785	6222.02
138.959	5199.81
143.131	4619.94
147.301	4235.19
151.469	3866.03
155.635	3271.21
159.799	2782.9
163.961	2561.09
168.121	2473.78
172.278	2592.97
176.434	2508.63
180.587	2222.78
184.739	1934.42
188.888	1692.53
193.035	1488.1
197.18	1414.12
201.324	1269.59
205.465	1206.49
209.603	1126.86
213.74	1118.53
217.875	1070.76
222.008	1003.06
226.139	993.109
230.267	1042.89
234.394	953.655
238.518	1010.63
242.641	1014.27
246.761	910.232
250.879	821.84
254.996	698.377
259.11	638.05
263.222	556.497
267.332	515.653
271.44	474.297
275.546	450.628
279.65	392.058
283.752	382.71
287.852	359.998
291.95	334.3
296.046	311.895
300.14	270.783
304.231	279.961
308.321	216.417
312.409	238.597
316.495	255.639
320.578	188.955
324.66	219.557
328.739	196.408
332.817	185.516
336.892	167.878
340.966	153.485
345.037	149.331
349.107	117.405
353.174	121.702
357.24	53.216
361.303	130.941
365.365	89.068
369.424	114.562
373.481	64.958
377.537	111.465
381.59	92.621
385.642	81.977
389.691	50.998
393.738	40.398
397.784	33.152
401.827	47.521
405.868	55.148
409.908	2.586
413.945	20.963
417.98	40.155
422.014	11.48
426.045	32.635
430.075	2.064
434.102	5.215
438.127	9.912
442.151	48.544
446.172	52.366
450.192	15.467
454.209	29.213
458.225	8.698
462.238	14.375
466.25	55.491
470.259	12.581
474.267	34.166
478.273	81.804
482.276	0.061
486.278	80.406
490.278	93.985
494.276	49.403
498.271	25.285
502.265	6.358
506.257	78.199
510.247	31.117
514.235	10.106
518.221	16.164
522.205	7.286
526.187	23.449
530.167	23.377
534.145	26.797
538.122	45.013
542.096	39.73
546.068	26.5
550.039	36.289
554.007	15.039
557.973	4.598
561.938	4.463
565.901	28.262
569.861	83.364
573.82	37.446
577.777	2.157
581.732	22.073
585.685	9.703
589.636	42.419
593.585	59.209
597.532	14.383
601.477	29.592
605.42	9.097
609.361	62.771
613.301	61.707
617.238	51.272
621.174	15.207
625.108	75.333
629.039	10.516
632.969	38.208
636.897	97.43
640.823	124.592
644.747	45.041
648.669	35.109
652.589	72.127
656.508	67.091
660.424	66.999
664.339	121.883
668.251	90.732
672.162	120.511
676.071	177.273
679.978	450.963
683.883	424.403
687.786	168.461
691.687	101.074
695.586	255.546
699.484	59.281
703.379	107.524
707.273	97.466
711.165	42.718
715.055	48.946
718.943	90.349
722.829	121.416
726.713	86.197
730.595	8.653
734.476	1.636
738.354	80.503
742.231	68.45
746.106	78.17
749.978	60.697
753.849	41.062
757.719	55.554
761.586	143.416
765.451	86.446
769.315	86.396
773.177	68.704
777.036	65.653
780.894	105.777
784.75	60.888
788.605	66.252
792.457	85.923
796.307	13.953
800.156	38.84
804.003	100.428
807.848	98.472
811.691	31.211
815.532	137.709
819.371	111.935
823.209	254.695
827.045	160.434
830.878	307.157
834.71	1599.86
838.54	3169.58
842.369	809.319
846.195	269.069
850.02	175.817
853.842	35.562
857.663	110.415
861.482	63.255
865.299	121.894
869.115	121.85
872.928	21.915
876.74	35.337
880.55	89.396
884.358	59.544
888.164	67.502
891.969	48.616
895.771	57.823
899.572	34.822
903.371	31.024
907.168	119.195
910.963	86.424
914.757	28.678
918.548	151.6
922.338	18.523
926.126	15.782
929.912	116.044
933.697	66.211
937.479	126.508
941.26	37.232
945.039	171.584
948.816	42.773
952.591	17.986
956.365	19.638
960.136	131.729
963.906	18.357
967.674	62.954
971.441	112.481
975.205	59.839
978.968	70.897
982.729	136.611
986.488	100.141
990.245	105.246
994	154.698
997.754	131.555
1001.51	162.902
1005.26	144.878
1009	138.826
1012.75	114.539
1016.5	204.378
1020.24	126.871
1023.98	197.395
1027.72	256.063
1031.46	498.434
1035.19	257.23
1038.93	367.409
1042.66	449.519
1046.39	913.375
1050.12	4160.35
1053.85	48538.5
1057.57	8144.85
1061.29	1335.23
1065.02	463.501
1068.74	357.55
1072.45	287.506
1076.17	241.191
1079.88	209.65
1083.6	214.096
1087.31	164.271
1091.02	211.174
1094.72	157.136
1098.43	137.182
1102.13	94.319
1105.84	209.607
1109.54	60.513
1113.24	43.741
1116.93	89.484
1120.63	80.693
1124.32	31.16
1128.01	113.126
1131.7	121.635
1135.39	160.879
1139.08	27.683
1142.76	90.425
1146.45	10.693
1150.13	91.193
1153.81	13.256
1157.48	54.325
1161.16	172.909
1164.84	55.783
1168.51	123.728
1172.18	76.958
1175.85	37.057
1179.52	24.991
1183.18	168.717
1186.85	83.238
1190.51	91.67
1194.17	6.931
1197.83	85.036
1201.48	113.018
1205.14	19.901
1208.79	31.659
1212.44	0.705
1216.09	33.797
1219.74	87.189
1223.39	99.481
1227.03	94.683
1230.68	50.8
1234.32	18.812
1237.96	38.709
1241.6	58.473
1245.23	125.08
1248.87	32.552
1252.5	102.808
1256.13	1.844
1259.76	75.477
1263.39	83.973
1267.02	48.373
1270.64	1.559
1274.26	121.104
1277.88	116.716
1281.5	7.399
1285.12	41.966
1288.74	2.456
1292.35	27.043
1295.96	38.731
1299.57	57.255
1303.18	12.624
1306.79	49.704
1310.4	75.572
1314	74.502
1317.6	73.978
1321.2	84.557
1324.8	90.052
1328.4	105.131
1331.99	3.261
1335.59	129.497
1339.18	135.38
1342.77	208.032
1346.36	253.707
1349.95	322.355
1353.53	412.988
1357.12	706.846
1360.7	846.013
1364.28	1165.78
1367.86	1455.92
1371.44	2136.74
1375.01	2929.9
1378.59	2968.22
1382.16	2276.55
1385.73	1533.72
1389.3	820.635
1392.87	536.233
1396.43	296.658
1399.99	216.032
1403.56	260.75
1407.12	159.054
1410.68	199.919
1414.23	385.97
1417.79	420.62
1421.34	319.154
1424.9	407.831
1428.45	286.674
1431.99	365.671
1435.54	174.75
1439.09	283.892
1442.63	293.123
1446.17	352.308
1449.71	331.305
1453.26	620.266
1456.79	609.485
1460.33	859.335
1463.86	989.949
1467.39	1161.86
1470.92	1164.84
1474.45	1261.22
1477.98	1193.2
1481.51	1118.81
1485.03	1005.7
1488.56	874.33
1492.08	555.211
1495.6	375.441
1499.11	305.515
1502.63	436.529
1506.14	343.441
1509.66	258.699
1513.17	276.854
1516.68	297.497
1520.19	0
