Measurement: Raman, 514 nm, ccw, Raman Data Processed
Mineral: Cerussite
Rruff sample: R060017
Ideal chemistry: PbCO_3_
Locality: Gonessa, Sardinia, Italy
Source: American Museum of Natural History
Description: White reticulated composite
Measured chemistry: Pb_1.00_CO_3_ C not measured but estimated by difference and stoichiometry
Pin_id: M00261
Orientation: Laser parallel to a* (1 0 0). Fiducial mark perpendicular to laser is parallel to b [0 1 0]
Raman shift (cm-1)	intensity
51.431	0
56.387	39.4327
61.341	349.815
66.292	3066.91
71.241	5491.37
76.187	4930.72
81.131	4998.35
86.072	6250.56
91.012	9264.48
95.948	12690.3
100.883	14930
105.815	12899.1
110.744	9330.48
115.671	8825.6
120.596	8569.23
125.519	8776.8
130.439	9463.27
135.356	9210.79
140.271	9590.79
145.184	10565.5
150.094	10778.2
155.002	9099.73
159.908	7164.12
164.811	6832.75
169.711	7512.08
174.61	7716.91
179.505	6470.02
184.399	5020.72
189.29	3742.7
194.178	3350.76
199.064	2965.47
203.948	2775.58
208.829	2884.9
213.708	2713.06
218.585	2778.03
223.459	2566.88
228.33	2589.5
233.199	2370.58
238.066	2193.58
242.93	2116.45
247.792	1593.71
252.651	1230.97
257.508	1002.51
262.363	555.966
267.215	309.88
272.064	339.397
276.912	265.982
281.756	241.734
286.598	184.374
291.438	78.626
296.276	42.2451
301.111	5.29297
305.943	165.124
310.773	51.5654
315.601	51.5303
320.426	7.72461
325.248	136.659
330.068	95.0918
334.886	54.084
339.701	86.1328
344.514	133.392
349.324	118.665
354.132	93.6816
358.938	75.3506
363.741	76.0107
368.541	94.3691
373.339	3.48828
378.135	21.1279
382.928	36.0508
387.718	96.9209
392.506	125.519
397.292	59.5478
402.075	7.18262
406.856	6.26562
411.634	60.5176
416.41	15.2773
421.183	157.418
425.954	17.4658
430.722	146.283
435.488	88.4238
440.251	53.1035
445.012	171.457
449.77	132.821
454.526	227.989
459.28	219.52
464.03	295.591
468.779	235.365
473.525	348.938
478.268	187.685
483.009	264.994
487.747	300.212
492.483	202.402
497.217	237.285
501.948	73.6357
506.676	358.675
511.402	161.071
516.125	329.884
520.846	125.798
525.565	273.022
530.281	206.144
534.994	201.575
539.705	122.258
544.413	226.691
549.119	202.126
553.822	196.56
558.523	142.463
563.222	167.093
567.917	292.001
572.611	106.732
577.302	194.16
581.99	207.499
586.676	204.69
591.359	55.9297
596.04	82.8799
600.718	222.524
605.394	217.01
610.067	332.487
614.737	309.657
619.406	236.421
624.071	474.569
628.734	285.448
633.395	235.37
638.053	230.395
642.708	241.281
647.361	253.685
652.012	157.717
656.66	115.787
661.305	199.077
665.948	292.607
670.588	680.635
675.226	806.087
679.861	1152.51
684.494	669.523
689.124	517.944
693.752	626.542
698.377	182.328
702.999	27.3848
707.619	138.914
712.237	129.384
716.852	9.19336
721.464	55.4932
726.074	15.8789
730.681	282.135
735.286	194.803
739.888	72.8135
744.488	10.2461
749.085	151.384
753.68	19.1875
758.272	66.8164
762.861	193.769
767.448	57.792
772.033	107.044
776.614	110.174
781.194	114.149
785.77	1.91406
790.345	40.9629
794.916	133.019
799.485	37.7285
804.052	166.231
808.616	102.679
813.177	82.7529
817.736	59.4453
822.292	189.57
826.846	493.017
831.397	979.942
835.945	1952.77
840.491	985.241
845.035	257.841
849.576	202.705
854.114	267.601
858.65	208.739
863.183	211.269
867.713	105.47
872.241	147.871
876.767	229.683
881.29	76.8311
885.81	33.5635
890.328	163.122
894.843	159.644
899.356	117.921
903.866	26.3818
908.373	162.647
912.878	222.935
917.38	85.6162
921.88	122.913
926.377	31.8457
930.872	19.8643
935.364	107.893
939.853	105.71
944.34	179.498
948.824	55.8008
953.306	140.249
957.785	77.8848
962.261	126.564
966.735	52.9219
971.207	42.126
975.675	58.1973
980.141	244.27
984.605	242.168
989.066	390.927
993.524	357.448
997.98	303.031
1002.43	263.316
1006.88	92.291
1011.33	106.424
1015.78	163.971
1020.22	274.462
1024.66	416.227
1029.1	488.958
1033.53	349.519
1037.97	463.757
1042.4	1048.18
1046.82	9686.6
1051.25	33255.4
1055.67	22245.2
1060.09	1226.83
1064.51	475.807
1068.92	234.766
1073.33	487.873
1077.74	205.971
1082.15	176.078
1086.55	281.602
1090.95	118
1095.35	318.592
1099.75	214.215
1104.14	225.773
1108.53	310.951
1112.92	340.408
1117.31	492.182
1121.69	684.684
1126.07	359.312
1130.45	5.97266
1134.82	36.5918
1139.19	139.83
1143.57	142.81
1147.93	122.371
1152.3	63.4785
1156.66	105.447
1161.02	157.014
1165.38	60.1621
1169.73	43.5098
1174.08	130.734
1178.43	98.5312
1182.78	137.633
1187.12	65.9297
1191.46	114.518
1195.8	102.637
1200.14	150.303
1204.47	86.3027
1208.8	16.5957
1213.13	184.309
1217.46	115.756
1221.78	80.8125
1226.1	8.95703
1230.42	21.0176
1234.73	66.2383
1239.04	116.904
1243.35	59.7012
1247.66	217.529
1251.97	29.3457
1256.27	38.5449
1260.57	111.043
1264.86	298.191
1269.16	127.606
1273.45	168.406
1277.74	14.7246
1282.03	76.4316
1286.31	83.3008
1290.59	309.498
1294.87	206.107
1299.14	204.707
1303.42	179.828
1307.69	418.906
1311.95	448.152
1316.22	411.676
1320.48	523.086
1324.74	622.807
1329	473.678
1333.26	495.297
1337.51	476.111
1341.76	864.916
1346	1058.76
1350.25	1435.27
1354.49	2263.17
1358.73	3334.8
1362.96	3722.36
1367.2	3999.6
1371.43	4342.64
1375.66	4075.82
1379.88	3013.52
1384.11	1587.21
1388.33	820.412
1392.54	499.846
1396.76	599.928
1400.97	344.674
1405.18	653.231
1409.39	817.998
1413.59	929.051
1417.8	1254.4
1421.99	991.639
1426.19	1315.03
1430.38	1187.67
1434.58	1362.28
1438.77	1646.15
1442.95	2136.79
1447.13	2544.09
1451.32	3073.3
1455.49	3982.71
1459.67	4833.32
1463.84	5520.03
1468.01	6117.78
1472.18	7119.58
1476.35	7188.46
1480.51	6598.65
1484.67	5249.04
1488.83	3944.6
1492.98	2777.5
1497.13	1871.93
1501.28	1341.56
1505.43	913
1509.57	768.332
1513.71	496.377
1517.85	312.879
1521.99	366.944
1526.12	237.778
1530.25	123.178
1534.38	290.502
1538.5	115.934
1542.62	67.7461
1546.74	330.523
1550.86	176.463
1554.98	467.732
1559.09	250.182
1563.2	260.32
1567.31	137.695
