Measurement: Raman, 514 nm, ccw, Raman Data Processed
Mineral: Cerussite
Rruff sample: R050023
Ideal chemistry: PbCO_3_
Locality: Mammoth - St Anthony mine, Tiger, Pinal County, Arizona, USA
Source: Eugene Schlepp
Description: Prismatic white single crystals
Measured chemistry: Pb_1.00_CO_3_ ; CO_2_ not measured but estimated by difference and stoichiometry
Pin_id: L00207
Orientation: Laser parallel to a* (1 0 0). Fiducial mark perpendicular to laser is parallel to b [0 1 0]
Raman shift (cm-1)	intensity
59.882	0
64.084	27.038
68.284	65.662
72.482	29.38
76.678	13.896
80.872	12.691
85.064	102.786
89.254	239.458
93.442	572.181
97.628	1227.58
101.812	2029.4
105.994	1984.44
110.174	2045.44
114.351	2055.27
118.527	2705.81
122.701	4064.99
126.873	5963.75
131.042	7003.01
135.21	6199.75
139.376	4904
143.539	4087.76
147.701	3670.75
151.861	3170.86
156.018	2590.1
160.174	2030.59
164.327	1852.27
168.479	1862.12
172.628	1899.19
176.776	1800.48
180.922	1586.94
185.065	1292.58
189.207	1019.37
193.346	946.295
197.484	802.348
201.619	741.671
205.753	660.162
209.884	646.691
214.014	636.232
218.141	566.463
222.267	561.287
226.391	566.846
230.512	521.449
234.632	524.332
238.749	542.204
242.865	546.918
246.979	459.116
251.09	390.319
255.2	354.684
259.308	307.29
263.414	204.586
267.517	178.997
271.619	188.849
275.719	154.402
279.817	108.957
283.913	116.974
288.007	111.536
292.099	70.723
296.189	71.055
300.277	54.366
304.363	49.699
308.447	31.221
312.529	27.708
316.609	40.246
320.687	26.83
324.764	15.459
328.838	11.129
332.91	20.835
336.981	37.575
341.049	19.345
345.116	3.145
349.18	40.218
353.243	19.058
357.304	3.086
361.362	24.178
365.419	3.148
369.474	31.998
373.527	3.5
377.578	21.301
381.627	25.476
385.674	18.719
389.719	12.14
393.762	3.057
397.804	9.767
401.843	19.728
405.881	7.442
409.916	27.635
413.95	2.351
417.981	29.446
422.011	2.15
426.039	10.741
430.065	7.163
434.089	35.001
438.111	15.797
442.131	5.437
446.149	3.686
450.166	33.993
454.18	31.387
458.193	14.001
462.203	4.463
466.212	61.012
470.219	60.457
474.224	39.874
478.227	38.263
482.228	49.622
486.227	59.972
490.224	63.273
494.22	45.535
498.213	41.782
502.205	73.204
506.194	46.409
510.182	42.384
514.168	46.392
518.152	69.373
522.134	60.499
526.114	40.348
530.093	8.704
534.069	14.598
538.044	32.25
542.017	64.986
545.987	4.447
549.956	40.69
553.923	33.972
557.889	60.224
561.852	31.035
565.813	18.05
569.773	27.476
573.731	93.713
577.686	60.564
581.64	3.898
585.593	0.486
589.543	62.575
593.491	71.365
597.438	19.532
601.382	9.638
605.325	23.328
609.266	29.244
613.205	35.983
617.142	45.293
621.078	43.257
625.011	70.755
628.943	94.452
632.872	72.035
636.8	65.578
640.726	25.083
644.651	80.549
648.573	82.977
652.494	43.369
656.412	28.724
660.329	21.037
664.244	38.312
668.157	68.306
672.069	165.522
675.978	94.712
679.886	379.84
683.792	141.82
687.696	82.237
691.598	166.92
695.498	222.849
699.397	27.942
703.293	32.933
707.188	21.876
711.081	23.708
714.972	8.262
718.862	4.995
722.749	63.007
726.635	75.817
730.519	84.5
734.401	34.044
738.281	4.21
742.16	26.875
746.036	50.702
749.911	43.391
753.784	15.043
757.655	7.078
761.525	43.693
765.392	57.523
769.258	51.451
773.122	68.065
776.984	25.772
780.844	2.275
784.703	30.544
788.56	68.244
792.415	44.937
796.268	34.601
800.119	35.282
803.969	37.951
807.816	74.772
811.662	90.431
815.506	91.719
819.349	82.704
823.189	212.694
827.028	239.359
830.865	548.029
834.7	2486.72
838.534	3361.41
842.365	699.013
846.195	187.732
850.023	110.433
853.85	120.159
857.674	78.899
861.497	25.184
865.318	19.914
869.137	39.852
872.955	87.167
876.77	84.966
880.584	31.768
884.396	21.656
888.207	18.626
892.015	15.973
895.822	40.905
899.627	87.866
903.43	69.787
907.232	7.267
911.032	4.365
914.83	20.394
918.626	53.404
922.42	18.43
926.213	30.786
930.004	8.235
933.793	3.348
937.581	52.723
941.366	52.823
945.15	42.928
948.932	57.049
952.713	37.215
956.491	4.65
960.268	26.496
964.044	71.683
967.817	83.959
971.589	41.138
975.359	32.304
979.127	24.452
982.893	15.72
986.658	53.165
990.421	80.737
994.183	88.202
997.942	45.681
1001.7	115.699
1005.46	69.185
1009.21	68.811
1012.96	135.118
1016.71	132.734
1020.46	146.307
1024.21	148.223
1027.96	201.928
1031.7	350.204
1035.44	261.369
1039.18	400.05
1042.92	546.59
1046.66	1246.65
1050.39	7722.67
1054.13	58252.8
1057.86	5653.84
1061.59	1005.96
1065.32	460.4
1069.05	330.2
1072.77	231.229
1076.49	152.635
1080.22	112.221
1083.94	137.993
1087.65	181.774
1091.37	177.543
1095.09	154.17
1098.8	138.344
1102.51	83.228
1106.22	69.213
1109.93	63.117
1113.63	95.544
1117.34	145.719
1121.04	109.558
1124.74	122.152
1128.44	81.69
1132.14	22.815
1135.84	29.348
1139.53	62.349
1143.22	89.117
1146.91	78.816
1150.61	91.142
1154.29	60.471
1157.98	11.463
1161.66	22.003
1165.35	40.92
1169.03	25.061
1172.71	65.76
1176.38	56.637
1180.06	106.365
1183.73	61.202
1187.41	18.251
1191.08	32.346
1194.75	12.036
1198.41	13.928
1202.08	98.582
1205.74	120.731
1209.41	92.692
1213.07	71.451
1216.73	36.036
1220.38	4.542
1224.04	2.304
1227.69	32.75
1231.35	78.652
1235	92.417
1238.65	101.999
1242.3	39.372
1245.94	20.553
1249.59	25.055
1253.23	6.937
1256.87	0.304
1260.51	69.602
1264.15	55.582
1267.78	112.437
1271.42	88.104
1275.05	41.494
1278.68	17.481
1282.31	22.329
1285.94	16.103
1289.56	5.156
1293.19	65.953
1296.81	79.132
1300.43	91.493
1304.05	76.098
1307.67	53.773
1311.29	63.83
1314.9	5.569
1318.52	5.233
1322.13	2.158
1325.74	19.539
1329.34	77.579
1332.95	77.94
1336.56	54.651
1340.16	1.85
1343.76	4.065
1347.36	45.472
1350.96	27.149
1354.56	107.856
1358.15	266.334
1361.74	448.459
1365.34	440.583
1368.93	526.691
1372.52	651.49
1376.1	762.7
1379.69	609.755
1383.27	364.412
1386.85	146.526
1390.43	45.592
1394.01	51.268
1397.59	28.845
1401.17	51.505
1404.74	70.779
1408.31	217.226
1411.88	277.531
1415.45	344.611
1419.02	408.802
1422.59	389.678
1426.15	403.426
1429.71	391.916
1433.28	383.761
1436.84	540.202
1440.39	695.028
1443.95	819.928
1447.5	1022.84
1451.06	1362.55
1454.61	1708.39
1458.16	2146.51
1461.71	2608.93
1465.26	3200.42
1468.8	3756.66
1472.34	4136.26
1475.89	4477.02
1479.43	4635.14
1482.97	4381.39
1486.5	3821.9
1490.04	2891.75
1493.57	2106.03
1497.11	1436.86
1500.64	876.818
1504.17	489.311
1507.69	219.654
1511.22	57.302
1514.74	10.546
1518.27	87.68
