Measurement: Raman, 514 nm, ccw, Raman Data Processed
Mineral: Cerussite
Rruff sample: R040069
Ideal chemistry: PbCO_3_
Locality: Broken Hill, New South Wales, Australia
Source: University of Arizona Mineral Museum
Description: Reticulated composite of colorless tabular crystals
Measured chemistry: Pb_1.04_C_0.98_O_3_
Pin_id: M00419
Orientation: Laser parallel to -b* (0 -1 0). Fiducial mark perpendicular to laser is parallel to c [0 0 1]
Raman shift (cm-1)	intensity
50.93	0
55.142	43.018
59.352	56.834
63.56	7.943
67.766	114.31
71.97	547.438
76.172	702.26
80.371	684.055
84.569	732.358
88.765	989.857
92.959	1185.31
97.15	1395.52
101.34	1582.35
105.527	1889.73
109.713	2457.57
113.896	3295.82
118.077	3852.42
122.257	3732.35
126.434	3711.64
130.609	3726
134.782	3021.42
138.954	2274
143.123	1708.77
147.29	1455.74
151.455	1290.9
155.618	1125.19
159.779	934.604
163.938	866.123
168.095	856.743
172.25	937.443
176.403	893.211
180.554	879.043
184.703	886.929
188.85	878.88
192.995	991.707
197.138	1140.7
201.279	1350.67
205.418	1611.36
209.554	1930.32
213.689	2115.08
217.822	1893.64
221.953	1713.64
226.082	1539.12
230.209	1215.59
234.334	898.838
238.456	700.209
242.577	562.629
246.696	434.546
250.813	334.146
254.928	271.489
259.041	200.974
263.152	153.697
267.261	85.034
271.368	116.411
275.473	119.515
279.576	100.815
283.677	79.135
287.776	65.758
291.873	68.127
295.968	46.471
300.061	53.818
304.152	38.261
308.241	27.603
312.328	7.989
316.413	8.362
320.496	11.725
324.578	5.044
328.657	22.675
332.734	5.423
336.81	16.086
340.883	7.901
344.954	20.699
349.024	0.588
353.091	12.465
357.157	8.653
361.221	0.247
365.282	5.154
369.342	17.057
373.4	4.022
377.455	1.84
381.509	20.685
385.561	9.758
389.611	18.91
393.659	18.887
397.705	2.929
401.749	3.826
405.791	2.378
409.832	12.508
413.87	19.222
417.906	10.986
421.941	22.525
425.973	18.136
430.004	26.528
434.032	12.948
438.059	39.092
442.084	29.255
446.107	8.441
450.128	32.449
454.147	33.481
458.164	35.431
462.179	24.426
466.192	21.341
470.204	31.184
474.213	40.279
478.221	22.636
482.226	40.735
486.23	17.7
490.232	30.282
494.231	53.505
498.229	35.508
502.225	24.342
506.22	30.395
510.212	25.947
514.202	19.006
518.191	6.266
522.177	8.439
526.162	18.376
530.144	24.942
534.125	14.034
538.104	2.134
542.081	6.4
546.056	2.15
550.03	18.23
554.001	9.456
557.97	1.141
561.938	10.823
565.904	3.052
569.868	3.391
573.829	15.698
577.79	20.641
581.748	13.862
585.704	21.041
589.658	30.078
593.611	36.175
597.562	19.231
601.51	24.196
605.457	21.122
609.402	3.991
613.346	30.889
617.287	32.766
621.226	38.592
625.164	51.325
629.1	52.083
633.033	52.88
636.965	46.618
640.896	38.322
644.824	24.985
648.75	18.661
652.675	14.276
656.598	30.839
660.518	15.462
664.437	65.879
668.354	293.33
672.27	764.878
676.183	235.347
680.095	69.371
684.005	32.766
687.912	10.644
691.818	32.51
695.723	77.574
699.625	23.639
703.526	14.902
707.424	5.983
711.321	18.242
715.216	22.634
719.109	39.85
723.001	67.25
726.89	64.602
730.778	69.037
734.664	65.419
738.548	32.717
742.43	43.039
746.31	25.295
750.189	35.386
754.066	41.041
757.941	20.402
761.814	32.795
765.685	46.449
769.554	24.743
773.422	16.31
777.288	51.578
781.152	32.108
785.014	52.436
788.874	20.658
792.733	20.786
796.59	20.015
800.445	17.211
804.298	29.397
808.149	5.605
811.999	12.065
815.846	13.26
819.692	22.464
823.536	54.727
827.379	33.841
831.219	55.993
835.058	422.267
838.895	593.484
842.73	106.632
846.563	54.672
850.395	38.824
854.225	17.008
858.053	30.189
861.879	12.365
865.703	29.535
869.526	14.7
873.347	0.145
877.166	11.004
880.983	14.148
884.798	5.289
888.612	0.427
892.424	9.558
896.234	12.675
900.042	13.206
903.849	21.898
907.654	17.003
911.457	22.067
915.258	3.166
919.058	2.73
922.855	6.367
926.651	15.459
930.446	34.549
934.238	17.614
938.029	23.531
941.818	20.599
945.605	8.388
949.39	25.691
953.174	12.74
956.956	1.191
960.736	6.873
964.514	14.939
968.291	0.997
972.066	19.06
975.839	4.11
979.61	20.154
983.38	11.192
987.147	32.223
990.914	40.247
994.678	13.263
998.441	34.241
1002.2	39.241
1005.96	60.044
1009.72	42.932
1013.47	46.908
1017.23	32.858
1020.98	45.916
1024.73	69.837
1028.48	184.723
1032.23	272.734
1035.97	185.485
1039.71	295.505
1043.46	495.017
1047.2	1179
1050.93	7989.77
1054.67	49804
1058.41	3231.85
1062.14	667.764
1065.87	357.963
1069.6	226.117
1073.33	176.226
1077.05	136.819
1080.78	137.512
1084.5	113.289
1088.22	92.074
1091.94	74.913
1095.66	101.32
1099.38	104.245
1103.09	85.01
1106.8	83.818
1110.51	89.524
1114.22	49.225
1117.93	44.915
1121.64	59.593
1125.34	29.259
1129.04	16.914
1132.74	22.559
1136.44	29.192
1140.14	34.817
1143.83	24.432
1147.53	7.039
1151.22	19.635
1154.91	1.218
1158.6	3.211
1162.29	6.348
1165.97	1.894
1169.65	4.427
1173.34	19.05
1177.02	2.445
1180.7	0.074
1184.37	16.619
1188.05	12.804
1191.72	1.216
1195.39	10.619
1199.06	13.007
1202.73	24.377
1206.4	13.267
1210.06	0.939
1213.73	22.377
1217.39	8.689
1221.05	7.997
1224.71	1.299
1228.36	7.587
1232.02	13.859
1235.67	4.877
1239.32	23.382
1242.97	34.64
1246.62	31.897
1250.27	23.154
1253.91	25.414
1257.56	71.676
1261.2	76.942
1264.84	87.213
1268.48	104.494
1272.12	112.784
1275.75	105.073
1279.38	131.359
1283.02	127.641
1286.65	141.681
1290.27	174.843
1293.9	222.016
1297.53	250.167
1301.15	277.202
1304.77	280.92
1308.39	337.081
1312.01	393.993
1315.63	458.021
1319.24	470.08
1322.86	520.359
1326.47	550.672
1330.08	577.685
1333.69	639.747
1337.29	673.538
1340.9	750.457
1344.5	890.784
1348.11	1066.22
1351.71	1474.69
1355.31	2150.02
1358.9	3018.87
1362.5	3806.23
1366.09	3665.6
1369.68	2710.19
1373.28	1801.79
1376.86	1200.45
1380.45	812.167
1384.04	601.933
1387.62	430.758
1391.2	330.653
1394.79	256.769
1398.37	220.057
1401.94	169.666
1405.52	188.122
1409.09	161.598
1412.67	183.099
1416.24	162.63
1419.81	155.206
1423.38	179.845
1426.94	128.544
1430.51	143.286
1434.07	94.089
1437.63	133.959
1441.19	132.869
1444.75	142.84
1448.31	129.879
1451.86	121.967
1455.41	120.095
1458.97	182.258
1462.52	200.439
1466.07	224.627
1469.61	270.896
1473.16	302.265
1476.7	320.742
1480.25	357.333
1483.79	328.043
1487.33	279.883
1490.86	250.863
1494.4	146.005
1497.93	92.35
1501.47	68.952
1505	30.856
1508.53	1.127
1512.06	21.87
1515.58	43.242
1519.11	0.477
1522.63	3.971
1526.15	36.724
