Measurement: Raman, 514 nm, ccw, Raman Data Processed
Mineral: Cerussite
Rruff sample: R050174
Ideal chemistry: PbCO_3_
Locality: Tsumeb mine, Tsumeb, Otavi District, Oshikoto, Namibia
Source: Marcus Origlieri
Description: Colorless single crystal
Measured chemistry: Pb_1.00_CO_3_ ; C not measured but estimated by difference and stoichiometry
Pin_id: L01652
Orientation: Laser parallel to -b* (0 -1 0). Fiducial mark perpendicular to laser is parallel to c [0 0 1]
Raman shift (cm-1)	intensity
51.431	0
56.387	92.9481
61.341	25.8473
66.292	327.921
71.241	1033.72
76.187	1886.69
81.131	2185.3
86.072	3463.85
91.012	6929.04
95.948	11419.7
100.883	17794.4
105.815	26892
110.744	15614.5
115.671	6918.45
120.596	4839.31
125.519	5259.46
130.439	7001.78
135.356	8918.62
140.271	8650.76
145.184	8554.23
150.094	9498.14
155.002	8243.41
159.908	5572.01
164.811	3793.98
169.711	2926.98
174.61	2787.93
179.505	2708.89
184.399	2424.95
189.29	1847.58
194.178	1389.74
199.064	1329.8
203.948	1358.51
208.829	1382
213.708	1446.27
218.585	1457.12
223.459	1054.69
228.33	811.657
233.199	599.465
238.066	469.486
242.93	382.241
247.792	260.545
252.651	225.626
257.508	161.031
262.363	150.96
267.215	76.7312
272.064	106.501
276.912	82.2687
281.756	40.1017
286.598	12.5128
291.438	18.6288
296.276	22.714
301.111	4.19849
305.943	5.73047
310.773	22.4855
315.601	39.4258
320.426	19.5751
325.248	15.7364
330.068	18.4026
334.886	30.8268
339.701	40.1941
344.514	8.33868
349.324	36.4626
354.132	10.5836
358.938	4.70819
363.741	1.00311
368.541	24.5601
373.339	19.0524
378.135	14.5704
382.928	32.8834
387.718	7.3139
392.506	66.3778
397.292	44.046
402.075	44.7424
406.856	46.0725
411.634	64.8033
416.41	48.2286
421.183	78.3387
425.954	96.0738
430.722	77.9783
435.488	84.7905
440.251	127.932
445.012	143.082
449.77	144.95
454.526	103.879
459.28	102.163
464.03	102.94
468.779	91.5919
473.525	117.089
478.268	126.705
483.009	119.175
487.747	121.981
492.483	139.637
497.217	87.4488
501.948	109.942
506.676	67.7257
511.402	91.6109
516.125	45.5787
520.846	74.8974
525.565	75.9271
530.281	79.2822
534.994	48.319
539.705	22.0624
544.413	36.2116
549.119	52.1373
553.822	55.8602
558.523	40.764
563.222	21.0642
567.917	42.8407
572.611	27.1541
577.302	41.2895
581.99	24.5682
586.676	28.6552
591.359	29.2783
596.04	46.9369
600.718	39.7617
605.394	51.5897
610.067	35.0964
614.737	10.9026
619.406	44.3783
624.071	42.6987
628.734	50.5145
633.395	80.5063
638.053	39.5546
642.708	36.9028
647.361	30.9775
652.012	15.1009
656.66	50.817
661.305	62.8803
665.948	34.6659
670.588	150.817
675.226	875.555
679.861	728.814
684.494	3323.51
689.124	313.159
693.752	19.9413
698.377	3.37573
702.999	16.1547
707.619	1.80176
712.237	9.73328
716.852	2.84534
721.464	14.9243
726.074	50.0315
730.681	23.801
735.286	23.9817
739.888	35.0043
744.488	44.4541
749.085	16.3295
753.68	24.3811
758.272	12.0222
762.861	18.6068
767.448	44.8961
772.033	48.2046
776.614	70.7695
781.194	48.9081
785.77	64.505
790.345	42.8555
794.916	45.3062
799.485	28.676
804.052	28.1084
808.616	27.8081
813.177	55.5504
817.736	56.7189
822.292	130.142
826.846	215.636
831.397	455.11
835.945	1052.43
840.491	3384.85
845.035	518.027
849.576	130.478
854.114	48.4571
858.65	25.8527
863.183	41.2406
867.713	3.36755
872.241	30.0016
876.767	18.3623
881.29	0.743652
885.81	7.19995
890.328	4.38306
894.843	19.0636
899.356	2.28369
903.866	29.1705
908.373	6.69897
912.878	11.7356
917.38	2.47327
921.88	12.0984
926.377	5.67773
930.872	11.217
935.364	20.7455
939.853	31.2527
944.34	4.36768
948.824	7.02942
953.306	27.3309
957.785	10.5771
962.261	13.7631
966.735	1.11267
971.207	69.9177
975.675	27.8807
980.141	77.7847
984.605	54.6357
989.066	51.4685
993.524	51.202
997.98	57.9134
1002.43	54.8956
1006.88	47.994
1011.33	70.0642
1015.78	36.446
1020.22	43.28
1024.66	99.0448
1029.1	160.815
1033.53	418.407
1037.97	206.424
1042.4	477.973
1046.82	1786.49
1051.25	9678.52
1055.67	64321.4
1060.09	7494.1
1064.51	753.181
1068.92	262.418
1073.33	196.967
1077.74	118.912
1082.15	109.928
1086.55	96.471
1090.95	98.7782
1095.35	128.999
1099.75	129.728
1104.14	88.1698
1108.53	73.3107
1112.92	82.366
1117.31	48.8506
1121.69	92.4087
1126.07	70.8901
1130.45	9.25891
1134.82	31.4979
1139.19	13.6354
1143.57	33.6012
1147.93	9.37561
1152.3	11.9249
1156.66	8.67114
1161.02	18.5543
1165.38	15.6122
1169.73	3.85376
1174.08	27.6899
1178.43	2.03296
1182.78	5.15466
1187.12	5.87769
1191.46	7.94226
1195.8	33.286
1200.14	14.665
1204.47	22.8405
1208.8	29.3208
1213.13	43.7933
1217.46	42.2573
1221.78	38.7045
1226.1	35.1409
1230.42	47.5741
1234.73	23.0248
1239.04	0.47937
1243.35	40.9376
1247.66	75.4148
1251.97	38.8785
1256.27	106.403
1260.57	115.303
1264.86	144.882
1269.16	167.791
1273.45	213.216
1277.74	248.457
1282.03	218.42
1286.31	265.484
1290.59	288.13
1294.87	294.754
1299.14	317.74
1303.42	401.137
1307.69	406.721
1311.95	514.977
1316.22	524.933
1320.48	559.115
1324.74	651.458
1329	596.015
1333.26	645.634
1337.51	656.408
1341.76	755.343
1346	861.447
1350.25	1086.73
1354.49	1501.2
1358.73	2116.87
1362.96	3023.74
1367.2	4103.53
1371.43	6096.84
1375.66	8430.45
1379.88	8268.21
1384.11	5427.22
1388.33	3107.62
1392.54	1816.14
1396.76	1167.92
1400.97	875.633
1405.18	735.483
1409.39	647.291
1413.59	632.53
1417.8	663.178
1421.99	708.848
1426.19	654.661
1430.38	653.667
1434.58	596.224
1438.77	440.45
1442.95	317.815
1447.13	233.736
1451.32	216.131
1455.49	207.006
1459.67	147.267
1463.84	154.93
1468.01	199.006
1472.18	189.522
1476.35	124.477
1480.51	78.8787
1484.67	121.733
1488.83	76.0502
1492.98	24.8198
1497.13	18.0016
1501.28	50.5264
1505.43	21.2662
1509.57	1.66431
1513.71	28.8866
1517.85	66.1992
1521.99	87.3102
1526.12	55.2584
1530.25	15.0918
1534.38	64.8782
1538.5	30.4203
1542.62	41.927
1546.74	5.40002
1550.86	77.1612
1554.98	72.6484
1559.09	6.1698
1563.2	78.1461
1567.31	51.0449
