Measurement: Raman, 514 nm, ccw, Raman Data Processed
Mineral: Cerussite
Rruff sample: R050011
Ideal chemistry: PbCO_3_
Locality: Daoping Lead and Zinc mine, Gongcheng, Guangxi, China
Source: Eugene Schlepp
Description: Colorless hexagonal bipyramidal crystals
Measured chemistry: Pb_1.00_CO_3_ ; CO_2_ not measured but estimated by difference and stoichiometry
Pin_id: L00082
Orientation: Laser parallel to -a* (-1 0 0). Fiducial mark perpendicular to laser is parallel to -b [0 -1 0]
Raman shift (cm-1)	intensity
94.324	0
98.519	1562.81
102.712	4259.52
106.902	2862.76
111.09	1223.52
115.277	1037.71
119.461	1233.43
123.643	1139.39
127.823	1245.33
132.001	1609.42
136.176	1599.07
140.35	1525.76
144.521	1798.8
148.691	2197.31
152.858	2062.8
157.024	1190.39
161.187	600.784
165.348	453.384
169.507	597.329
173.664	675.827
177.819	619.801
181.971	508.698
186.122	279.813
190.271	100.187
194.417	13.646
198.562	21.912
202.704	44.28
206.844	55.354
210.983	66.816
215.119	259.317
219.253	130.336
223.385	366.134
227.515	364.932
231.643	280.625
235.769	211.13
239.893	250.398
244.014	156.69
248.134	134.206
252.252	173.339
256.367	33.024
260.481	32.873
264.592	123.66
268.702	175.809
272.809	119.305
276.915	110.202
281.018	222.518
285.119	13.186
289.218	14.859
293.316	40.189
297.411	24.717
301.504	28.341
305.595	9.381
309.684	30.114
313.771	26.072
317.856	16.76
321.939	94.323
326.02	10.922
330.099	77.691
334.176	116.537
338.251	184.502
342.323	178.22
346.394	196.778
350.463	144.513
354.53	301.978
358.594	230.824
362.657	247.983
366.718	281.316
370.777	303.986
374.833	285.826
378.888	275.298
382.941	253.633
386.992	325.88
391.04	328.748
395.087	342.132
399.132	313.999
403.174	438.301
407.215	326.52
411.254	300.294
415.29	385.818
419.325	355.149
423.358	301.337
427.389	312.181
431.417	255.587
435.444	362.323
439.469	390.875
443.492	333.276
447.512	239.489
451.531	278.588
455.548	365.035
459.563	240.084
463.576	202.967
467.587	309.302
471.596	240.205
475.603	284.318
479.608	225.812
483.611	342.948
487.612	259.802
491.611	287.406
495.608	213.484
499.603	261.76
503.596	256.124
507.587	419.453
511.577	251.212
515.564	225.406
519.549	196.918
523.533	268.835
527.514	171.542
531.493	204.121
535.471	205.025
539.447	186.14
543.42	256.096
547.392	227.406
551.362	47.187
555.329	241.852
559.295	230.834
563.259	59.945
567.221	172.94
571.181	171.227
575.139	159.512
579.095	165.948
583.049	71.078
587.002	125.239
590.952	140.733
594.9	319.757
598.847	146.583
602.792	54.033
606.734	168.84
610.675	146.246
614.614	81.673
618.55	166.995
622.485	72.575
626.418	181.985
630.349	178.716
634.279	195.232
638.206	201.876
642.131	58.302
646.055	174.708
649.976	280.863
653.896	188.533
657.814	193.6
661.729	69.268
665.643	238.364
669.555	264.267
673.465	219.037
677.373	223.351
681.28	956.723
685.184	400.4
689.087	114.104
692.987	267.924
696.886	161.3
700.783	15.377
704.677	27.612
708.57	88.271
712.462	90.369
716.351	72.921
720.238	69.595
724.124	12.798
728.007	85.945
731.889	288.407
735.769	300.166
739.647	20.952
743.523	147.449
747.397	179.175
751.269	231.442
755.139	232.771
759.008	53.682
762.875	85.494
766.739	137.415
770.602	168.626
774.463	139.586
778.323	39.535
782.18	31.238
786.035	102.143
789.889	283.358
793.741	153.904
797.591	33.697
801.439	124.566
805.285	30.216
809.129	131.086
812.971	51.218
816.812	264.922
820.651	24.152
824.488	116.803
828.323	139.158
832.156	250.128
835.987	850.659
839.817	1091.38
843.644	293.328
847.47	93.548
851.294	163.394
855.116	201.741
858.936	150.903
862.755	200.935
866.571	145.804
870.386	65.638
874.199	368.366
878.01	467.112
881.82	235.083
885.627	153.51
889.433	1.229
893.236	80.506
897.038	108.547
900.838	196.775
904.637	233.816
908.433	232.264
912.228	100.646
916.021	39.332
919.812	317.719
923.601	236.266
927.388	474.76
931.174	200.658
934.958	118.539
938.739	176.896
942.52	345.15
946.298	203.082
950.074	361.209
953.849	239.842
957.622	17.283
961.393	93.832
965.162	291.939
968.93	361.264
972.696	214.453
976.459	202.086
980.222	36.865
983.982	20.213
987.74	59.162
991.497	190.803
995.252	330.816
999.005	224.725
1002.76	132.492
1006.51	103.705
1010.25	2.068
1014	370.102
1017.74	438.645
1021.49	545.359
1025.23	221.803
1028.96	320.039
1032.7	216.613
1036.44	491.117
1040.17	598.188
1043.9	682.764
1047.63	971.883
1051.36	3900.18
1055.09	28279.1
1058.81	2336.92
1062.54	775.258
1066.26	711.83
1069.97	738.039
1073.69	724.373
1077.41	500.797
1081.12	267.805
1084.84	333.305
1088.55	519.797
1092.25	704.861
1095.96	790.43
1099.67	415.934
1103.37	341.316
1107.07	215.387
1110.77	300.461
1114.47	124.625
1118.16	312.963
1121.86	545.783
1125.55	617.602
1129.24	316.521
1132.93	34.242
1136.62	42.338
1140.31	34.779
1143.99	506.666
1147.67	602.064
1151.35	513.162
1155.03	456.113
1158.71	447.928
1162.39	62.82
1166.06	14.404
1169.73	104.27
1173.4	293.664
1177.07	492.189
1180.74	558.621
1184.4	338.123
1188.07	219.664
1191.73	37.537
1195.39	318.389
1199.05	143.467
1202.7	408.037
1206.36	551.773
1210.01	615.049
1213.66	497.883
1217.31	210.299
1220.96	242.291
1224.6	163.865
1228.25	325.018
1231.89	495.779
1235.53	956.16
1239.17	826.191
1242.81	655.805
1246.44	184.457
1250.08	232.73
1253.71	91.758
1257.34	203.607
1260.97	120.471
1264.6	426.512
1268.22	656.154
1271.85	573.504
1275.47	222.055
1279.09	100.014
1282.71	30.381
1286.33	123.717
1289.94	157.346
1293.56	283.096
1297.17	554.033
1300.78	710.742
1304.39	420.102
1307.99	647.869
1311.6	145.131
1315.2	92.213
1318.8	118.828
1322.4	84.248
1326	272.014
1329.6	480.93
1333.19	725.637
1336.79	848.074
1340.38	531.295
1343.97	333.479
1347.56	506.389
1351.14	418.752
1354.73	629.963
1358.31	1112.59
1361.89	1634.35
1365.47	2077.19
1369.05	2209.39
1372.63	2592.34
1376.2	2576.88
1379.78	2314.91
1383.35	1601.25
1386.92	667.281
1390.49	632.869
1394.05	658.334
1397.62	603.031
1401.18	701.883
1404.74	889.527
1408.3	841.16
1411.86	775.625
1415.42	453.967
1418.97	60.977
1422.53	238
1426.08	73.562
1429.63	107.963
1433.18	409.121
1436.72	417.34
1440.27	725.188
1443.81	782.553
1447.36	1009.29
1450.89	1045.02
1454.43	809.506
1457.97	901.322
1461.51	774.428
1465.04	837.684
1468.57	1262.94
1472.1	1312.32
1475.63	1697.31
1479.16	1821.2
1482.68	2076.56
1486.21	1821.67
1489.73	1627.75
1493.25	1337.2
1496.77	861.266
1500.29	389.973
1503.8	15.076
1507.32	179.959
1510.83	5.191
1514.34	2.766
