Measurement: Raman, 514 nm, ccw, Raman Data Processed
Mineral: Cerussite
Rruff sample: R040069
Ideal chemistry: PbCO_3_
Locality: Broken Hill, New South Wales, Australia
Source: University of Arizona Mineral Museum
Description: Reticulated composite of colorless tabular crystals
Measured chemistry: Pb_1.04_C_0.98_O_3_
Pin_id: M00046
Orientation: Laser parallel to -c* (0 0 -1). Fiducial mark perpendicular to laser is parallel to a [1 0 0]
Raman shift (cm-1)	intensity
73.371	0
77.572	32.553
81.771	36.824
85.968	209.7
90.163	545.025
94.356	835.065
98.547	1086.29
102.736	1363.72
106.923	1685.92
111.107	2680.57
115.29	3577.25
119.471	3858.6
123.649	3718.47
127.826	3930.78
132.001	3774.72
136.173	2779.46
140.344	1921.85
144.512	1460.52
148.679	1289.22
152.843	1082.68
157.005	851.953
161.166	775.066
165.324	706.048
169.48	694.925
173.635	777.495
177.787	778.585
181.937	729.694
186.086	694.751
190.232	802.491
194.376	988.181
198.518	1166.1
202.659	1421.24
206.797	1907.29
210.933	2225.94
215.067	2232.53
219.199	1969.96
223.33	1837.82
227.458	1516.65
231.584	1117.91
235.708	809.464
239.83	625.918
243.951	460.108
248.069	386.34
252.185	287.683
256.299	191.14
260.411	110.473
264.522	32.78
268.63	6.298
272.736	38.755
276.84	27.634
280.943	26.254
285.043	10.592
289.141	14.67
293.238	18.306
297.332	16.564
301.425	18.216
305.515	13.518
309.603	25.33
313.69	19.58
317.774	23.025
321.857	33.419
325.938	27.11
330.016	35.114
334.093	14.461
338.168	6.973
342.24	23.865
346.311	0.908
350.38	7.431
354.447	1.197
358.512	5.126
362.575	21.752
366.636	18.331
370.695	17.622
374.752	1.741
378.807	2.749
382.86	29.485
386.911	55.269
390.961	55.968
395.008	28.631
399.053	54.874
403.097	47.071
407.138	33.978
411.178	40.624
415.216	55.531
419.251	43.697
423.285	51.678
427.317	64.36
431.347	80.529
435.375	84.041
439.401	67.86
443.425	62.168
447.447	54.67
451.468	77.457
455.486	88.812
459.502	99.314
463.517	63.516
467.53	52.443
471.54	69.086
475.549	67.404
479.556	44.06
483.561	62.068
487.564	89.247
491.565	79.958
495.564	62.239
499.562	66.879
503.557	55.995
507.55	70.016
511.542	77.561
515.532	71.41
519.52	51.776
523.505	73.363
527.489	40.263
531.472	30.175
535.452	22.239
539.43	47.071
543.406	26.122
547.381	45.311
551.354	34.01
555.324	42.386
559.293	52.297
563.26	40.202
567.225	20.245
571.188	52.221
575.15	45.824
579.109	53.467
583.067	69.51
587.022	65.644
590.976	67.488
594.928	67.717
598.878	53.8
602.826	77.005
606.773	66.052
610.717	68.975
614.66	101.004
618.6	140.114
622.539	239.136
626.476	224.224
630.411	167.303
634.344	119.359
638.276	120.331
642.205	128.274
646.133	148.126
650.059	144.011
653.983	114.9
657.905	49.848
661.825	24.726
665.743	144.597
669.66	462.423
673.574	939.002
677.487	114.463
681.398	25.903
685.307	15.664
689.215	2.223
693.12	23.036
697.024	26.669
700.925	0.692
704.825	7.345
708.723	6.084
712.62	1.456
716.514	10.045
720.407	34.484
724.297	57.037
728.186	93.606
732.073	60.168
735.959	61.723
739.842	26.26
743.724	20.798
747.603	56.328
751.481	6.853
755.357	33.37
759.232	7.88
763.104	26.382
766.975	42.878
770.844	25.367
774.711	56.85
778.576	1.328
782.439	18.801
786.301	18.271
790.161	28.738
794.019	41.202
797.875	65.663
801.729	50.085
805.582	4.541
809.432	12.995
813.281	37.451
817.128	52.91
820.974	35.362
824.817	78.186
828.659	96.417
832.499	176.759
836.337	878.531
840.173	471.727
844.008	186.509
847.841	80.206
851.672	110.133
855.501	165.183
859.328	192.68
863.154	160.198
866.978	113.719
870.8	63.245
874.62	75.776
878.438	93.319
882.255	64.878
886.07	51.425
889.883	42.918
893.694	40.51
897.504	73.007
901.312	74.603
905.118	51.172
908.922	60.792
912.724	36.42
916.525	2.005
920.324	0.653
924.121	38.306
927.916	52.979
931.71	38.672
935.502	49.38
939.292	34.099
943.08	15.821
946.867	7.57
950.652	27.34
954.435	26.112
958.216	57.889
961.995	18.673
965.773	2.467
969.549	18.266
973.323	11.058
977.096	0.149
980.867	13.646
984.636	15.452
988.403	29.266
992.169	27.084
995.932	50.904
999.694	178.722
1003.46	156.537
1007.21	53.462
1010.97	43.416
1014.73	46.243
1018.48	104.401
1022.23	125.766
1025.98	160.223
1029.73	390.158
1033.47	258.482
1037.22	253.255
1040.96	428.236
1044.7	714.282
1048.44	2172.45
1052.18	38523.6
1055.92	25500.4
1059.65	2261.97
1063.38	600.586
1067.11	339.455
1070.84	205.647
1074.57	192.552
1078.3	206.214
1082.02	191.646
1085.74	135.274
1089.46	123.06
1093.18	116.656
1096.9	97.459
1100.61	124.044
1104.33	109.59
1108.04	123.832
1111.75	72.191
1115.46	69.513
1119.16	46.993
1122.87	33.455
1126.57	42.902
1130.28	81.331
1133.98	26.745
1137.67	52.143
1141.37	3.477
1145.07	26.119
1148.76	12.799
1152.45	2.511
1156.14	6.25
1159.83	24.979
1163.52	5.18
1167.2	13.354
1170.88	7.491
1174.56	2.357
1178.24	12.759
1181.92	2.148
1185.6	57.918
1189.27	0.036
1192.95	19.013
1196.62	14.035
1200.29	8.103
1203.95	25.198
1207.62	21.33
1211.29	17.511
1214.95	24.275
1218.61	29.048
1222.27	45.813
1225.93	2.431
1229.58	9.686
1233.24	15.052
1236.89	50.787
1240.54	51.526
1244.19	56.268
1247.84	96.015
1251.48	99.767
1255.13	86.524
1258.77	104.289
1262.41	88.066
1266.05	102.859
1269.69	182.672
1273.33	185.241
1276.96	209.396
1280.59	245.511
1284.23	223.222
1287.86	265.397
1291.48	260.764
1295.11	335.448
1298.73	283.757
1302.36	345.398
1305.98	470.175
1309.6	507.863
1313.22	567.262
1316.83	676.858
1320.45	699.681
1324.06	694.385
1327.67	670.589
1331.28	681.578
1334.89	656.933
1338.5	770.66
1342.1	931.854
1345.7	1120.6
1349.31	1470.78
1352.91	2088.82
1356.5	2903.05
1360.1	3839.99
1363.7	4541.36
1367.29	3822.79
1370.88	2647.28
1374.47	1776.84
1378.06	1248.48
1381.65	926.22
1385.23	737.062
1388.82	553.027
1392.4	338.416
1395.98	297.846
1399.56	213.624
1403.13	196.668
1406.71	186.925
1410.28	229.247
1413.86	197.638
1417.43	248.088
1421	257.599
1424.56	252.187
1428.13	254.869
1431.69	274.688
1435.26	267.649
1438.82	280.752
1442.38	269.945
1445.94	362.24
1449.49	340.626
1453.05	499.094
1456.6	518.638
1460.15	558.244
1463.7	551.863
1467.25	626.543
1470.8	663.403
1474.34	642.455
1477.88	652.72
1481.43	585.214
1484.97	489.94
1488.51	415.916
1492.04	315.173
1495.58	203.767
1499.11	148.795
1502.64	118.349
1506.17	153.531
1509.7	90.496
1513.23	89.489
1516.76	85.875
1520.28	84.241
1523.81	60.172
1527.33	0
