Measurement: Raman, 514 nm, ccw, Raman Data Processed
Mineral: Cerussite
Rruff sample: R060017
Ideal chemistry: PbCO_3_
Locality: Gonessa, Sardinia, Italy
Source: American Museum of Natural History
Description: White reticulated composite
Measured chemistry: Pb_1.00_CO_3_ C not measured but estimated by difference and stoichiometry
Pin_id: M00430
Orientation: Laser parallel to c* (0 0 1). Fiducial mark perpendicular to laser is parallel to a [1 0 0]
Raman shift (cm-1)	intensity
51.431	0
56.387	60.4613
61.341	1434.83
66.292	7770.76
71.241	11707.2
76.187	8094.58
81.131	5986.13
86.072	6166.51
91.012	8233.16
95.948	10520.7
100.883	11691.7
105.815	11525.9
110.744	11501.8
115.671	11878.4
120.596	10798.9
125.519	9313.46
130.439	8580.2
135.356	7885.2
140.271	7114.99
145.184	6951.71
150.094	6068.6
155.002	4551.31
159.908	3733.31
164.811	3726.04
169.711	3987.54
174.61	3920.41
179.505	3294.21
184.399	2718.12
189.29	2472.31
194.178	2614.88
199.064	3025.52
203.948	3476.91
208.829	4070.09
213.708	4396.74
218.585	4235.5
223.459	3892.74
228.33	3236.11
233.199	2440.97
238.066	1822.69
242.93	1391.12
247.792	941.497
252.651	625.809
257.508	367.478
262.363	124.072
267.215	55.2275
272.064	20.915
276.912	43.3247
281.756	113.905
286.598	111.493
291.438	108.819
296.276	86.5723
301.111	110.722
305.943	79.1367
310.773	52.6977
315.601	80.291
320.426	39.6025
325.248	92.7441
330.068	4.10059
334.886	14.9893
339.701	99.7666
344.514	5.63428
349.324	81.6807
354.132	21.3589
358.938	161.409
363.741	86.8916
368.541	54.648
373.339	169.581
378.135	265.509
382.928	267.666
387.718	241.899
392.506	246.265
397.292	291.557
402.075	256.18
406.856	350.37
411.634	322.669
416.41	265.297
421.183	310.26
425.954	327.875
430.722	322.072
435.488	334.164
440.251	384.476
445.012	330.416
449.77	366.605
454.526	339.546
459.28	301.648
464.03	305.918
468.779	271.425
473.525	226.077
478.268	312.459
483.009	312.034
487.747	274.509
492.483	293.455
497.217	131.731
501.948	226.193
506.676	291.461
511.402	215.704
516.125	164.252
520.846	177.741
525.565	114.931
530.281	64.8345
534.994	109.123
539.705	98.939
544.413	124.943
549.119	200.731
553.822	151.096
558.523	50.8477
563.222	111.609
567.917	109.323
572.611	75.415
577.302	80.0166
581.99	135.627
586.676	85.751
591.359	166.872
596.04	119.284
600.718	110.755
605.394	64.6431
610.067	0.016602
614.737	207.793
619.406	138.578
624.071	239.449
628.734	244.315
633.395	209.502
638.053	174.211
642.708	90.7466
647.361	41.3398
652.012	56.9531
656.66	81.3643
661.305	403.385
665.948	936.034
670.588	1214.2
675.226	831.793
679.861	677.993
684.494	330.229
689.124	239.851
693.752	355.756
698.377	15.21
702.999	19.1113
707.619	128.237
712.237	39.5957
716.852	197.429
721.464	116.429
726.074	90.9238
730.681	29.1997
735.286	85.9165
739.888	133.774
744.488	86.936
749.085	60.9961
753.68	82.7915
758.272	80.084
762.861	2.85303
767.448	74.2212
772.033	56.3784
776.614	151.662
781.194	49.7476
785.77	11.1426
790.345	4.43018
794.916	29.5801
799.485	2.29883
804.052	20.9458
808.616	149.013
813.177	39.2095
817.736	74.2891
822.292	169.372
826.846	384.011
831.397	898.291
835.945	1194.3
840.491	423.288
845.035	222.367
849.576	10.0513
854.114	137.482
858.65	56.9204
863.183	69.5644
867.713	93.374
872.241	64.6904
876.767	80.5537
881.29	110.525
885.81	53.5483
890.328	143.52
894.843	8.94971
899.356	84.7466
903.866	78.5249
908.373	59.0454
912.878	36.4487
917.38	53.2988
921.88	28.8481
926.377	72.98
930.872	58.2612
935.364	22.8852
939.853	130.527
944.34	8.25879
948.824	49.7593
953.306	74.8955
957.785	128.882
962.261	79.7373
966.735	76.4312
971.207	67.9463
975.675	14.706
980.141	199.807
984.605	144.923
989.066	103.532
993.524	186.967
997.98	188.483
1002.43	102.815
1006.88	87.3218
1011.33	154.392
1015.78	97.9668
1020.22	277.953
1024.66	322.131
1029.1	564.315
1033.53	459.532
1037.97	755.792
1042.4	2109.76
1046.82	31732.5
1051.25	55354.2
1055.67	22107
1060.09	1485.63
1064.51	572.082
1068.92	387.893
1073.33	265.962
1077.74	167.028
1082.15	184.847
1086.55	360.099
1090.95	205.761
1095.35	178.809
1099.75	177.434
1104.14	239.144
1108.53	153.129
1112.92	35.4482
1117.31	237.375
1121.69	122.499
1126.07	139.934
1130.45	120.262
1134.82	38.0586
1139.19	57.4258
1143.57	37.9336
1147.93	78.0938
1152.3	67.2637
1156.66	41.3867
1161.02	22.3057
1165.38	41.8867
1169.73	40.8213
1174.08	19.1191
1178.43	56.8555
1182.78	105.906
1187.12	53.7617
1191.46	55.1328
1195.8	23.7666
1200.14	8.89941
1204.47	41.7246
1208.8	29.793
1213.13	54.542
1217.46	138.858
1221.78	66.8516
1226.1	120.233
1230.42	45.2559
1234.73	52.1787
1239.04	20.6025
1243.35	162.342
1247.66	52.3818
1251.97	120.232
1256.27	23.0986
1260.57	178.703
1264.86	227.612
1269.16	109.109
1273.45	48.832
1277.74	183.679
1282.03	237.719
1286.31	149.741
1290.59	403.423
1294.87	445.14
1299.14	580.448
1303.42	820.754
1307.69	793.075
1311.95	817
1316.22	1061.02
1320.48	983.486
1324.74	1112.88
1329	1205.48
1333.26	1399.67
1337.51	1551.07
1341.76	1972.32
1346	2631.57
1350.25	4010.25
1354.49	6141.18
1358.73	7879.84
1362.96	7877.1
1367.2	6379.29
1371.43	5142.24
1375.66	4114.67
1379.88	2740.97
1384.11	1475.52
1388.33	1108.41
1392.54	650.864
1396.76	539.062
1400.97	438.726
1405.18	464.12
1409.39	781.34
1413.59	661.57
1417.8	769.14
1421.99	873.197
1426.19	978.78
1430.38	832.429
1434.58	908.527
1438.77	1002.91
1442.95	1300.36
1447.13	1447.92
1451.32	1864.83
1455.49	2171.68
1459.67	2781.2
1463.84	3382.02
1468.01	3684.67
1472.18	4098.37
1476.35	3953.03
1480.51	3781.66
1484.67	2930.28
1488.83	2288.89
1492.98	1578.48
1497.13	920.9
1501.28	525.017
1505.43	514.751
1509.57	308.012
1513.71	277.527
1517.85	90.8115
1521.99	40.9443
1526.12	70.0117
1530.25	196.149
1534.38	16.4463
1538.5	178.614
1542.62	43.0518
1546.74	89.8574
1550.86	252.198
1554.98	74.6064
1559.09	259.695
1563.2	161.163
1567.31	116.992
