Measurement: Raman, 514 nm, ccw, Raman Data Processed
Mineral: Cerussite
Rruff sample: R050023
Ideal chemistry: PbCO_3_
Locality: Mammoth - St Anthony mine, Tiger, Pinal County, Arizona, USA
Source: Eugene Schlepp
Description: Prismatic white single crystals
Measured chemistry: Pb_1.00_CO_3_ ; CO_2_ not measured but estimated by difference and stoichiometry
Pin_id: L00220
Orientation: Laser parallel to b* (0 1 0). Fiducial mark perpendicular to laser is parallel to c [0 0 1]
Raman shift (cm-1)	intensity
54.534	0
58.758	28.764
62.979	38.707
67.198	11.972
71.415	41.499
75.63	145.399
79.842	177.87
84.053	369.553
88.26	818.464
92.466	1841.98
96.67	4968.76
100.871	11874.4
105.07	12313.5
109.267	6474.66
113.461	3951.79
117.653	3393.69
121.843	3192.32
126.031	3733.81
130.217	4616.2
134.4	4678.6
138.581	4532.58
142.76	5179.63
146.937	5997.64
151.112	5532.68
155.284	4335.89
159.454	3117.2
163.622	2304.58
167.787	2084.05
171.951	2118.6
176.112	2180.23
180.271	2047.98
184.428	1655.78
188.583	1341.91
192.735	1214.52
196.885	1197.6
201.033	1317.96
205.179	1591.13
209.323	1750.88
213.464	1948.46
217.603	1826.77
221.741	1458.26
225.875	1168.88
230.008	946.806
234.139	800.388
238.267	637.894
242.393	557.972
246.517	479.707
250.639	409.702
254.759	284.179
258.876	231.905
262.991	205.726
267.104	134.509
271.215	136.216
275.324	107.105
279.431	75.988
283.535	61.973
287.638	36.854
291.738	36.84
295.836	40.536
299.932	30.274
304.025	4.036
308.117	2.39
312.206	3.185
316.293	21.279
320.378	4.788
324.461	6.428
328.542	3.623
332.621	4.289
336.697	3.787
340.772	2.666
344.844	8.452
348.914	20.776
352.982	12.098
357.048	30.551
361.111	12.245
365.173	0.041
369.232	6.993
373.29	17.934
377.345	9.612
381.398	2.991
385.449	0.402
389.497	4.088
393.544	9.916
397.589	5.979
401.631	8.949
405.672	29.785
409.71	3.428
413.746	29.943
417.78	15.345
421.812	23.611
425.842	29.717
429.869	32.787
433.895	31.718
437.918	39.618
441.94	36.322
445.959	28.971
449.976	35.595
453.991	60.054
458.004	54.227
462.015	43.256
466.024	52.115
470.031	55.882
474.035	56.552
478.038	53.367
482.038	70.687
486.037	58.641
490.033	76.746
494.027	57.203
498.019	73.722
502.009	62.192
505.997	75.156
509.983	39.464
513.967	57.403
517.949	41.448
521.929	54.348
525.906	40.7
529.882	30.55
533.855	42.59
537.827	50.392
541.796	14.73
545.764	10.222
549.729	34.985
553.692	34.285
557.653	31.213
561.612	32.762
565.569	24.511
569.524	30.018
573.477	19.644
577.428	22.172
581.377	26.865
585.324	21.449
589.269	9.08
593.212	20.783
597.152	36.336
601.091	23.837
605.028	11.19
608.962	8.683
612.895	27.084
616.825	33.893
620.754	39.251
624.68	35.62
628.605	47.933
632.527	41.174
636.447	47.016
640.366	37.37
644.282	24.813
648.196	32.341
652.109	7.422
656.019	24.747
659.927	26.963
663.834	32.104
667.738	90.198
671.64	263.326
675.54	665.316
679.439	687.483
683.335	2220.48
687.229	227.474
691.121	56.441
695.012	90.457
698.9	19.433
702.786	2.351
706.67	7.238
710.552	19.221
714.433	12.351
718.311	25.351
722.187	39.406
726.061	69.599
729.934	64.735
733.804	54.99
737.672	60.192
741.539	13.692
745.403	18.767
749.265	24.994
753.126	16.31
756.984	28.404
760.84	31.482
764.695	20.509
768.547	19.783
772.398	33.117
776.246	39.359
780.093	21.577
783.937	38.774
787.78	13.032
791.621	2.775
795.459	12.693
799.296	13.921
803.131	4.215
806.964	16.97
810.795	20.99
814.623	4.179
818.45	11.365
822.275	65.593
826.098	68.756
829.92	96.902
833.739	396.178
837.556	1183.9
841.371	577.513
845.184	134.659
848.996	52.808
852.805	26.961
856.613	27.074
860.418	17.202
864.222	11.142
868.023	14.58
871.823	13.865
875.621	32.214
879.417	4.596
883.211	1.001
887.003	14.405
890.793	32.818
894.581	8.226
898.367	11.636
902.152	3.712
905.934	9.522
909.714	4.868
913.493	10.218
917.27	1.572
921.044	2.883
924.817	7.857
928.588	24.113
932.357	21.552
936.124	28.579
939.889	20.127
943.652	2.183
947.414	12.306
951.173	7.24
954.931	4.446
958.686	28.071
962.44	17.096
966.192	21.036
969.942	29.092
973.69	33.03
977.436	28.937
981.18	12.875
984.922	10.348
988.663	51.342
992.401	43.974
996.138	58.041
999.873	59.477
1003.61	71.318
1007.34	78.321
1011.07	77.382
1014.79	68.578
1018.52	101.968
1022.24	91.906
1025.96	138.761
1029.68	245.068
1033.4	215.298
1037.12	257.641
1040.83	408.668
1044.54	795.516
1048.25	2562.74
1051.96	48185.5
1055.67	13502.3
1059.37	1394.04
1063.08	499.049
1066.78	270.638
1070.48	239.102
1074.17	189.921
1077.87	127.436
1081.56	116.877
1085.26	91.048
1088.94	97.585
1092.63	110.697
1096.32	133.645
1100	80.783
1103.69	130.683
1107.37	88.582
1111.05	77.516
1114.72	40.37
1118.4	69.15
1122.07	70.823
1125.74	52.307
1129.41	34.074
1133.08	38.477
1136.75	17.965
1140.41	13.377
1144.07	16.706
1147.73	4.96
1151.39	1.873
1155.05	10.832
1158.7	3.938
1162.36	4.81
1166.01	1.574
1169.66	8.087
1173.3	14.756
1176.95	5.56
1180.59	3.467
1184.24	1.536
1187.88	6.457
1191.52	9.694
1195.15	5.93
1198.79	9.266
1202.42	6.676
1206.05	6.119
1209.68	26.399
1213.31	26.891
1216.93	25.362
1220.56	54.811
1224.18	0.753
1227.8	35.686
1231.42	10.126
1235.04	10.719
1238.65	10.949
1242.26	28.307
1245.88	32.632
1249.48	51.924
1253.09	85.185
1256.7	71.417
1260.3	34.587
1263.9	60.711
1267.51	96.865
1271.11	101.998
1274.7	136.008
1278.3	148.506
1281.89	185.32
1285.48	146.503
1289.07	203.345
1292.66	195.441
1296.25	216.037
1299.83	238.266
1303.41	312.422
1306.99	390.502
1310.57	406.539
1314.15	423.958
1317.73	441.381
1321.3	387.159
1324.87	395.901
1328.44	434.552
1332.01	443.302
1335.58	529.181
1339.14	597.05
1342.71	772.893
1346.27	922.537
1349.83	1218.49
1353.39	1610.87
1356.94	2110.5
1360.5	2520.38
1364.05	3062.21
1367.6	3919.54
1371.15	5205.57
1374.7	5496.7
1378.24	4249
1381.79	2633.23
1385.33	1651.57
1388.87	1033.92
1392.41	687.318
1395.95	474.748
1399.48	403.243
1403.02	335.821
1406.55	389.508
1410.08	425.444
1413.61	464.678
1417.13	509.251
1420.66	500.145
1424.18	447.296
1427.7	436.699
1431.22	306.42
1434.74	277.326
1438.26	175.364
1441.77	176.495
1445.28	198.608
1448.79	176.897
1452.3	303.547
1455.81	333.607
1459.32	400.137
1462.82	454.202
1466.32	485.84
1469.82	519.076
1473.32	510.954
1476.82	479.545
1480.32	441.006
1483.81	311.582
1487.3	190.503
1490.79	157.034
1494.28	88.547
1497.77	52.628
1501.25	21.155
1504.74	43.468
1508.22	23.932
1511.7	16.79
