Measurement: Raman, 514 nm, ccw, Raman Data Processed
Mineral: Cerussite
Rruff sample: R050023
Ideal chemistry: PbCO_3_
Locality: Mammoth - St Anthony mine, Tiger, Pinal County, Arizona, USA
Source: Eugene Schlepp
Description: Prismatic white single crystals
Measured chemistry: Pb_1.00_CO_3_ ; CO_2_ not measured but estimated by difference and stoichiometry
Pin_id: L00207
Orientation: Laser parallel to a* (1 0 0). Fiducial mark perpendicular to laser is parallel to b [0 1 0]
Raman shift (cm-1)	intensity
66.884	0
71.083	3.445
75.28	28.93
79.474	49.865
83.667	53.633
87.858	122.683
92.046	256.113
96.233	404.075
100.418	475.416
104.6	580.478
108.781	912.786
112.959	983.817
117.136	1172.11
121.31	1367.41
125.482	1986.53
129.653	2623.56
133.821	2522.49
137.987	1945.33
142.152	1434
146.314	1052.2
150.474	910.755
154.633	782.073
158.789	677.265
162.943	553.463
167.095	577.721
171.246	560.063
175.394	632.483
179.54	598.987
183.684	587.256
187.826	606.381
191.967	661.873
196.105	794.441
200.241	920.28
204.375	1117.94
208.507	1364.09
212.638	1569.73
216.766	1473.68
220.892	1202.61
225.016	941.032
229.139	686.784
233.259	499.865
237.377	384.163
241.493	278.351
245.608	245.118
249.72	200.734
253.83	168.731
257.939	114.619
262.045	116.523
266.15	56.094
270.252	47.685
274.353	44.244
278.451	66.971
282.548	31.744
286.642	18.57
290.735	7.289
294.826	2.555
298.914	1.773
303.001	2.951
307.086	8.681
311.168	3.691
315.249	11.996
319.328	21.483
323.405	10.043
327.48	4.679
331.553	5.373
335.624	5.114
339.693	16.882
343.76	17.745
347.826	7.617
351.889	12.202
355.95	2.941
360.01	0.266
364.067	0.508
368.123	9.99
372.176	4.565
376.228	7.114
380.277	5.508
384.325	3.56
388.371	30.275
392.415	10.953
396.457	24.844
400.497	22.634
404.535	20.12
408.571	29.858
412.605	15.2
416.638	36.638
420.668	42.931
424.697	41.983
428.723	52.022
432.748	39.947
436.77	52.753
440.791	38.488
444.81	59.173
448.827	26.929
452.842	58.364
456.855	49.58
460.867	60.388
464.876	45.25
468.883	56.711
472.889	44.562
476.892	67.831
480.894	69.828
484.894	62.4
488.892	66.23
492.888	70.418
496.882	60.087
500.874	52.89
504.865	40.982
508.853	56.646
512.84	41.425
516.824	41.67
520.807	23.278
524.788	27.869
528.767	17.002
532.744	27.877
536.719	13.019
540.693	28.739
544.664	20.205
548.634	22.193
552.601	3.713
556.567	15.946
560.531	33.894
564.493	5.456
568.453	23.496
572.412	11.623
576.368	26.594
580.323	43.492
584.275	25.565
588.226	31.104
592.175	29.69
596.122	28.421
600.068	24.917
604.011	34.532
607.952	16.68
611.892	30.197
615.83	43.68
619.766	66.145
623.7	84.527
627.632	78.949
631.563	59.255
635.491	36.571
639.418	33.358
643.343	49.246
647.266	48.571
651.187	45.871
655.106	26.157
659.024	19.385
662.939	22.624
666.853	84.826
670.765	220.145
674.675	607.366
678.583	86.481
682.49	8.6
686.394	8.625
690.297	11.148
694.198	84.338
698.097	39.338
701.995	7.554
705.89	11.45
709.784	9.298
713.675	15.42
717.565	30.427
721.453	60.373
725.34	41.513
729.224	52.653
733.107	52.033
736.988	42.128
740.867	19.517
744.744	25.74
748.62	26.079
752.493	14.295
756.365	14.531
760.235	0.24
764.103	32.107
767.969	10.987
771.834	9.319
775.697	31.732
779.558	26.042
783.417	24.348
787.274	13.662
791.13	15.967
794.983	35.287
798.835	33.599
802.686	21.936
806.534	24.345
810.38	4.687
814.225	6.065
818.068	10.872
821.909	41.546
825.749	15.195
829.586	33.579
833.422	131.954
837.256	622.266
841.088	207.529
844.919	78.174
848.748	45.203
852.575	30.593
856.4	33.541
860.223	18.268
864.045	18.612
867.864	17.78
871.682	3.794
875.499	30.645
879.313	31.093
883.126	20.559
886.937	10.046
890.746	5.451
894.553	1.073
898.359	4.391
902.163	17.161
905.965	8.724
909.765	5.278
913.564	6.19
917.361	0.391
921.156	19.99
924.949	15.589
928.74	8.183
932.53	5.807
936.318	15.437
940.104	31.068
943.889	6.697
947.672	21.322
951.453	30.955
955.232	15.588
959.01	14.213
962.785	0.18
966.559	9.561
970.332	13.003
974.102	3.405
977.871	14.161
981.638	13.711
985.404	12.244
989.167	34.763
992.929	45.38
996.689	42.13
1000.45	45.758
1004.2	48.318
1007.96	30.065
1011.71	41.586
1015.46	56.317
1019.21	62.874
1022.96	90.9
1026.71	95.646
1030.45	184.366
1034.19	135.903
1037.94	191.917
1041.68	310.543
1045.41	648.401
1049.15	2186.97
1052.88	39180.4
1056.62	11148.8
1060.35	1391.55
1064.08	410.793
1067.8	243.325
1071.53	172.275
1075.25	146.075
1078.97	121.962
1082.7	98.29
1086.41	85.304
1090.13	89.51
1093.85	92.308
1097.56	93.05
1101.27	107.856
1104.98	104.53
1108.69	101.19
1112.4	73.974
1116.1	54.029
1119.81	54.404
1123.51	59.339
1127.21	51.536
1130.91	57.794
1134.61	51.007
1138.3	51.201
1141.99	44.342
1145.68	41.426
1149.38	35.452
1153.06	32.421
1156.75	21.333
1160.43	19.187
1164.12	39.982
1167.8	25.719
1171.48	17.394
1175.16	12.997
1178.83	12.462
1182.51	11.973
1186.18	5.325
1189.85	30.573
1193.52	20.737
1197.19	1.813
1200.86	9.8
1204.52	16.72
1208.19	1.423
1211.85	23.357
1215.51	8.937
1219.17	2.672
1222.82	20.22
1226.48	3.7
1230.13	8.89
1233.78	7.468
1237.43	15.778
1241.08	16.019
1244.73	1.188
1248.37	14.277
1252.01	0.679
1255.66	0.878
1259.3	10.173
1262.93	7.659
1266.57	9.162
1270.21	30.943
1273.84	43.687
1277.47	31.391
1281.1	54.056
1284.73	62.684
1288.36	63.164
1291.98	69.467
1295.6	79.838
1299.23	80.24
1302.85	120.379
1306.46	146.743
1310.08	198.972
1313.7	219.198
1317.31	217.783
1320.92	234.566
1324.53	253.311
1328.14	200.241
1331.75	227.281
1335.35	277.217
1338.96	294.724
1342.56	325.017
1346.16	452.273
1349.76	596.296
1353.36	858.446
1356.95	1246.99
1360.55	1670.84
1364.14	1838.75
1367.73	1434.09
1371.32	893.254
1374.91	575.821
1378.49	346.042
1382.08	239.203
1385.66	161.296
1389.24	83.871
1392.82	24.984
1396.4	7.917
1399.97	36.805
1403.55	11.711
1407.12	14.155
1410.69	37.465
1414.26	100.558
1417.83	160.661
1421.4	129.807
1424.96	127.058
1428.53	139.467
1432.09	131.034
1435.65	151.732
1439.21	178.557
1442.76	210.301
1446.32	277.755
1449.87	343.995
1453.43	460.445
1456.98	644.188
1460.53	750.525
1464.07	938.504
1467.62	1078.08
1471.16	1247.89
1474.71	1389.98
1478.25	1432.35
1481.79	1407.03
1485.32	1256.89
1488.86	1012.41
1492.39	749.076
1495.93	525.276
1499.46	326.252
1502.99	188.865
1506.52	105.54
1510.05	69.051
1513.57	6.626
1517.09	0.184
