Measurement: Raman, 514 nm, ccw, Raman Data Processed
Mineral: Cerussite
Rruff sample: R050011
Ideal chemistry: PbCO_3_
Locality: Daoping Lead and Zinc mine, Gongcheng, Guangxi, China
Source: Eugene Schlepp
Description: Colorless hexagonal bipyramidal crystals
Measured chemistry: Pb_1.00_CO_3_ ; CO_2_ not measured but estimated by difference and stoichiometry
Pin_id: L00519
Orientation: Laser parallel to -c* (0 0 -1). Fiducial mark perpendicular to laser is parallel to a [1 0 0]
Raman shift (cm-1)	intensity
46.637	0
50.856	165.722
55.072	297.219
59.287	440.237
63.499	445.066
67.709	194.844
71.917	89.625
76.123	3.41
80.327	21.354
84.529	75.96
88.728	278.091
92.926	819.862
97.121	1645.05
101.314	2438.31
105.505	2906.51
109.694	3788.59
113.881	5563.51
118.066	6658.24
122.249	6038.75
126.43	5403.98
130.608	5083.93
134.785	4227.8
138.959	3261.28
143.131	2680.95
147.301	2186.38
151.469	1932.56
155.635	1789.12
159.799	1645.12
163.961	1453.54
168.121	1444.37
172.278	1529.63
176.434	1431.3
180.587	1371.51
184.739	1562.12
188.888	1542.08
193.035	1601.38
197.18	1855
201.324	2231.94
205.465	2390.21
209.603	2846.86
213.74	3333.66
217.875	3405.51
222.008	2973.1
226.139	2763.81
230.267	2667.28
234.394	2054.13
238.518	1478.18
242.641	1261.77
246.761	1046.79
250.879	927.356
254.996	765.935
259.11	712.505
263.222	680.428
267.332	570.596
271.44	464.205
275.546	481.611
279.65	436.589
283.752	373.799
287.852	327.104
291.95	338.642
296.046	311.485
300.14	164.531
304.231	266.155
308.321	227.345
312.409	265.38
316.495	160.126
320.578	174.045
324.66	145.879
328.739	154.126
332.817	96.114
336.892	93.669
340.966	149.387
345.037	117.25
349.107	23.26
353.174	51.332
357.24	92.703
361.303	102.286
365.365	53.116
369.424	81.678
373.481	100.598
377.537	38.637
381.59	11.571
385.642	66.051
389.691	19.693
393.738	114.502
397.784	1.374
401.827	14.731
405.868	23.684
409.908	32
413.945	12.219
417.98	34.288
422.014	56.544
426.045	35.881
430.075	8.711
434.102	6.555
438.127	81.667
442.151	49.084
446.172	105.821
450.192	23.373
454.209	21.031
458.225	8.573
462.238	15.104
466.25	58.388
470.259	33.056
474.267	110.659
478.273	32.152
482.276	15.3
486.278	20.105
490.278	32.535
494.276	46.397
498.271	55.328
502.265	38.816
506.257	33.65
510.247	102.959
514.235	97.238
518.221	14.465
522.205	2.643
526.187	64.775
530.167	16.802
534.145	45.992
538.122	32.388
542.096	71.845
546.068	98.538
550.039	26.782
554.007	13.619
557.973	49.06
561.938	1.091
565.901	46.156
569.861	30.513
573.82	87.371
577.777	76.445
581.732	127.131
585.685	88.575
589.636	18.067
593.585	4.52
597.532	59.113
601.477	119.148
605.42	50.676
609.361	54.117
613.301	77.131
617.238	104.797
621.174	181.456
625.108	72.751
629.039	99.229
632.969	128.042
636.897	146.399
640.823	74.936
644.747	70.079
648.669	57.01
652.589	63.254
656.508	107.966
660.424	180.876
664.339	87.337
668.251	204.837
672.162	570.154
676.071	810.297
679.978	140.731
683.883	87.846
687.786	70.716
691.687	63.338
695.586	108.312
699.484	40.36
703.379	17.77
707.273	40.088
711.165	42.84
715.055	76.855
718.943	122.494
722.829	128.388
726.713	29.718
730.595	29.375
734.476	94.998
738.354	107.546
742.231	29.183
746.106	2.585
749.978	50.57
753.849	96.433
757.719	100.673
761.586	30.476
765.451	17.473
769.315	114.263
773.177	28.475
777.036	164.491
780.894	89.361
784.75	87.218
788.605	2.147
792.457	77.165
796.307	138.718
800.156	114.342
804.003	73.865
807.848	122.986
811.691	86.118
815.532	188.472
819.371	76.817
823.209	124.469
827.045	64.176
830.878	39.27
834.71	352.711
838.54	1584.09
842.369	491.413
846.195	161.537
850.02	56.364
853.842	115.126
857.663	108.254
861.482	87.521
865.299	113.098
869.115	106.328
872.928	24.138
876.74	4.713
880.55	83.782
884.358	144.28
888.164	2.944
891.969	6.497
895.771	82.079
899.572	77.351
903.371	70.093
907.168	232.883
910.963	135.698
914.757	71.846
918.548	21.85
922.338	85.936
926.126	53.621
929.912	163.386
933.697	187.203
937.479	39.938
941.26	52.638
945.039	100.365
948.816	149.943
952.591	228.913
956.365	208.643
960.136	52.378
963.906	43.113
967.674	32.118
971.441	26.857
975.205	163.479
978.968	100.701
982.729	138.479
986.488	27.469
990.245	83.656
994	56.305
997.754	177.319
1001.51	221.814
1005.26	105.67
1009	121.912
1012.75	44.829
1016.5	149.473
1020.24	260.412
1023.98	356.588
1027.72	238.381
1031.46	637.187
1035.19	247.86
1038.93	424.471
1042.66	524.873
1046.39	1055.39
1050.12	3221.77
1053.85	55288.8
1057.57	10508.1
1061.29	1357.49
1065.02	544.43
1068.74	509.484
1072.45	385.639
1076.17	471.506
1079.88	387.782
1083.6	311.054
1087.31	176.729
1091.02	270.399
1094.72	166.179
1098.43	282.232
1102.13	327.911
1105.84	365.225
1109.54	260.622
1113.24	35.74
1116.93	91.259
1120.63	118.7
1124.32	205.919
1128.01	372.181
1131.7	335.708
1135.39	270.318
1139.08	65.101
1142.76	3.049
1146.45	121.75
1150.13	136.393
1153.81	211.07
1157.48	205.147
1161.16	278.99
1164.84	72.702
1168.51	46.295
1172.18	70.265
1175.85	7.066
1179.52	145.976
1183.18	138.858
1186.85	121.552
1190.51	274.075
1194.17	186.381
1197.83	38.53
1201.48	29.462
1205.14	27.658
1208.79	43.941
1212.44	195.396
1216.09	266.723
1219.74	327.931
1223.39	129.009
1227.03	100.049
1230.68	150.556
1234.32	81.067
1237.96	151.458
1241.6	281.759
1245.23	261.929
1248.87	151.627
1252.5	121.507
1256.13	131.214
1259.76	47.811
1263.39	12.679
1267.02	16.706
1270.64	211.008
1274.26	319.552
1277.88	398.411
1281.5	236.899
1285.12	182.295
1288.74	39.703
1292.35	58.185
1295.96	98.077
1299.57	166.172
1303.18	343.787
1306.79	391.528
1310.4	619.23
1314	592.673
1317.6	484.636
1321.2	420.75
1324.8	547.534
1328.4	420.556
1331.99	467.355
1335.59	552.07
1339.18	764.584
1342.77	1030.38
1346.36	1213.2
1349.95	1316.34
1353.53	1631.58
1357.12	2517
1360.7	3172.73
1364.28	3428.07
1367.86	2813.16
1371.44	2040.51
1375.01	1577.06
1378.59	1262.06
1382.16	998.124
1385.73	784.881
1389.3	400.051
1392.87	185.271
1396.43	226.645
1399.99	100.455
1403.56	135.518
1407.12	210.586
1410.68	335.338
1414.23	441.078
1417.79	586.825
1421.34	332.644
1424.9	328.543
1428.45	194.516
1431.99	200.62
1435.54	163.176
1439.09	93.253
1442.63	149.757
1446.17	286.356
1449.71	333.407
1453.26	630.562
1456.79	597.836
1460.33	635.523
1463.86	454.988
1467.39	318.175
1470.92	354.346
1474.45	10.668
1477.98	155.784
1481.51	230.984
1485.03	262.729
1488.56	413.795
1492.08	293.916
1495.6	484.613
1499.11	412.716
1502.63	434.394
1506.14	477.259
1509.66	141.568
1513.17	162.66
1516.68	72.728
1520.19	0
