Measurement: Raman, 514 nm, ccw, Raman Data Processed
Mineral: Cerussite
Rruff sample: R050298
Ideal chemistry: PbCO_3_
Locality: Bunker Hill mine, Shoshone County, Idaho, USA
Source: Eugene Schlepp
Description: Group of colorless tabular crystals
Measured chemistry: Pb_1.00_CO_3_
Pin_id: L01888
Orientation: Laser parallel to b* (0 1 0). Fiducial mark perpendicular to laser is parallel to -c [0 0 -1]
Raman shift (cm-1)	intensity
51.431	0
56.387	49.1443
61.341	18.65
66.292	635.426
71.241	2707.08
76.187	4863.07
81.131	3796.71
86.072	3083.98
91.012	2864.32
95.948	2744.52
100.883	2942.16
105.815	3137.36
110.744	2364.46
115.671	1893.92
120.596	1873.41
125.519	2240.86
130.439	3067.44
135.356	3674.78
140.271	2569.7
145.184	1762.17
150.094	1412.97
155.002	1180.06
159.908	913.462
164.811	741.998
169.711	733.525
174.61	719.96
179.505	784.276
184.399	832.754
189.29	970.757
194.178	1132.08
199.064	1384.64
203.948	1771.83
208.829	2304.32
213.708	2967.55
218.585	3067.04
223.459	2210.13
228.33	1501.75
233.199	1041.63
238.066	805.331
242.93	689.23
247.792	525.069
252.651	435.706
257.508	397.11
262.363	281.839
267.215	209.125
272.064	193
276.912	132.321
281.756	62.7117
286.598	71.6594
291.438	44.1702
296.276	21.7338
301.111	30.1989
305.943	44.7781
310.773	6.79883
315.601	22.5007
320.426	29.6639
325.248	10.4362
330.068	24.1594
334.886	16.2378
339.701	15.0161
344.514	31.0161
349.324	13.9222
354.132	12.2357
358.938	38.1653
363.741	15.6556
368.541	20.9838
373.339	43.5332
378.135	1.27869
382.928	2.76502
387.718	14.0714
392.506	5.05042
397.292	2.85156
402.075	2.33142
406.856	35.7838
411.634	46.7278
416.41	19.7059
421.183	87.9894
425.954	34.0926
430.722	70.4
435.488	37.6431
440.251	58.3639
445.012	72.7311
449.77	92.0509
454.526	73.3218
459.28	62.9759
464.03	80.4852
468.779	70.1571
473.525	80.1869
478.268	112.075
483.009	79.4191
487.747	131.27
492.483	75.2102
497.217	86.7113
501.948	83.6832
506.676	95.9401
511.402	56.9436
516.125	61.4922
520.846	88.6813
525.565	14.8563
530.281	78.2012
534.994	81.6217
539.705	31.0581
544.413	37.7022
549.119	57.5173
553.822	21.16
558.523	44.8834
563.222	43.5122
567.917	22.7771
572.611	12.1493
577.302	49.1804
581.99	69.2963
586.676	40.0608
591.359	40.7438
596.04	30.0393
600.718	72.554
605.394	46.3193
610.067	21.4074
614.737	87.6144
619.406	55.0437
624.071	90.4325
628.734	66.6747
633.395	71.8699
638.053	83.1031
642.708	46.3464
647.361	68.5183
652.012	35.3708
656.66	39.6056
661.305	33.8608
665.948	14.9614
670.588	141.26
675.226	960.635
679.861	206.61
684.494	355.197
689.124	67.0166
693.752	13.5188
698.377	22.5699
702.999	1.16003
707.619	1.08545
712.237	68.6871
716.852	5.84875
721.464	76.4888
726.074	137.983
730.681	108.42
735.286	55.6773
739.888	1.22595
744.488	67.4616
749.085	41.937
753.68	29.5508
758.272	7.12048
762.861	8.88892
767.448	31.7413
772.033	47.3788
776.614	43.2408
781.194	71.9857
785.77	86.6697
790.345	53.3269
794.916	18.3093
799.485	9.9292
804.052	22.3615
808.616	15.3098
813.177	32.4485
817.736	48.1054
822.292	43.7853
826.846	28.6234
831.397	99.4299
835.945	362.156
840.491	1286.85
845.035	268.649
849.576	107.319
854.114	32.538
858.65	82.8731
863.183	36.6691
867.713	70.4785
872.241	34.3751
876.767	7.875
881.29	46.9745
885.81	65.7297
890.328	29.6033
894.843	62.327
899.356	4.63232
903.866	25.2844
908.373	48.9286
912.878	5.5404
917.38	12.1133
921.88	34.6665
926.377	50.2028
930.872	26.7202
935.364	60.2272
939.853	9.77466
944.34	48.3105
948.824	32.8057
953.306	34.2415
957.785	16.3013
962.261	65.1255
966.735	21.5299
971.207	10.9193
975.675	68.3291
980.141	49.7419
984.605	5.41028
989.066	5.00586
993.524	47.2131
997.98	14.994
1002.43	6.99927
1006.88	74.4595
1011.33	5.0603
1015.78	48.7616
1020.22	4.90649
1024.66	66.847
1029.1	101.723
1033.53	324.973
1037.97	218.649
1042.4	315.548
1046.82	783.038
1051.25	4277.71
1055.67	59975.4
1060.09	4959.3
1064.51	597.92
1068.92	209.513
1073.33	163.1
1077.74	111.347
1082.15	59.3495
1086.55	64.4724
1090.95	56.5037
1095.35	139.144
1099.75	55.3456
1104.14	82.5347
1108.53	59.0553
1112.92	55.511
1117.31	8.28369
1121.69	52.669
1126.07	27.7004
1130.45	11.6589
1134.82	37.4314
1139.19	73.2847
1143.57	22.4424
1147.93	39.8325
1152.3	15.4827
1156.66	42.2305
1161.02	17.9578
1165.38	36.6626
1169.73	45.7954
1174.08	27.9651
1178.43	30.5901
1182.78	28.1401
1187.12	23.8198
1191.46	53.4158
1195.8	74.9944
1200.14	32.4575
1204.47	59.0168
1208.8	16.4971
1213.13	28.9939
1217.46	77.4922
1221.78	1.90137
1226.1	1.28857
1230.42	16.679
1234.73	38.0305
1239.04	14.6863
1243.35	37.5911
1247.66	56.2644
1251.97	46.6235
1256.27	38.325
1260.57	10.8796
1264.86	81.5132
1269.16	26.0098
1273.45	42.3975
1277.74	111.998
1282.03	105.487
1286.31	140.193
1290.59	121.952
1294.87	113.206
1299.14	176.1
1303.42	188.963
1307.69	206.003
1311.95	271.115
1316.22	280.297
1320.48	311.286
1324.74	319.591
1329	400.858
1333.26	328.279
1337.51	410.763
1341.76	380.315
1346	499.266
1350.25	615.223
1354.49	837.751
1358.73	1188.62
1362.96	1553.69
1367.2	1586.74
1371.43	1672.9
1375.66	2066.98
1379.88	1983.39
1384.11	1318.4
1388.33	867.225
1392.54	442.043
1396.76	271.947
1400.97	244.98
1405.18	116.149
1409.39	184.461
1413.59	199.927
1417.8	207.47
1421.99	217.293
1426.19	236.148
1430.38	146.988
1434.58	173.296
1438.77	177.594
1442.95	128.941
1447.13	87.4756
1451.32	96.7129
1455.49	49.1641
1459.67	178.777
1463.84	138.698
1468.01	144.855
1472.18	184.465
1476.35	138.049
1480.51	202.89
1484.67	86.9373
1488.83	115.182
1492.98	96.6152
1497.13	18.2188
1501.28	14.9385
1505.43	11.7715
1509.57	9.75317
1513.71	71.0859
1517.85	77.7915
1521.99	71.8872
1526.12	73.3713
1530.25	103.276
1534.38	84.645
1538.5	128.564
1542.62	20.8357
1546.74	94.0166
1550.86	91.6428
1554.98	83.5496
1559.09	64.0044
1563.2	47.1284
1567.31	43.2119
