Measurement: Raman, 514 nm, ccw, Raman Data Processed
Mineral: Cerussite
Rruff sample: R050023
Ideal chemistry: PbCO_3_
Locality: Mammoth - St Anthony mine, Tiger, Pinal County, Arizona, USA
Source: Eugene Schlepp
Description: Prismatic white single crystals
Measured chemistry: Pb_1.00_CO_3_ ; CO_2_ not measured but estimated by difference and stoichiometry
Pin_id: L00207
Orientation: Laser parallel to a* (1 0 0). Fiducial mark perpendicular to laser is parallel to b [0 1 0]
Raman shift (cm-1)	intensity
64.084	0
68.284	9.842
72.482	1.725
76.678	24.155
80.872	33.422
85.064	96.851
89.254	269.244
93.442	543.481
97.628	840.128
101.812	1090.31
105.994	1198.47
110.174	1464.05
114.351	1524.45
118.527	1958.31
122.701	2739.4
126.873	3912.53
131.042	4669.68
135.21	4486.99
139.376	4128.45
143.539	4398.94
147.701	5349.18
151.861	5727.35
156.018	4917.46
160.174	3854.68
164.327	3729.08
168.479	4485.69
172.628	5143.51
176.776	5070.51
180.922	4199.67
185.065	3051.97
189.207	2333.57
193.346	1856.14
197.484	1664.91
201.619	1578.03
205.753	1600.79
209.884	1745.1
214.014	1723.67
218.141	1557.14
222.267	1307.65
226.391	1204.19
230.512	1193.94
234.632	1293.88
238.749	1453.31
242.865	1559.67
246.979	1439.39
251.09	1072.93
255.2	777.066
259.308	549.129
263.414	397.159
267.517	265.508
271.619	201.585
275.719	180.113
279.817	141.353
283.913	117.926
288.007	86.297
292.099	63.523
296.189	62.829
300.277	32.012
304.363	20.399
308.447	12.708
312.529	7.24
316.609	8.819
320.687	8.135
324.764	4.161
328.838	2.742
332.91	22.43
336.981	11.595
341.049	7.091
345.116	17.238
349.18	17.525
353.243	7.898
357.304	8.349
361.362	2.732
365.419	13.977
369.474	17.004
373.527	3.2
377.578	17.949
381.627	24.392
385.674	1.107
389.719	7.882
393.762	24.217
397.804	2.31
401.843	8.672
405.881	29.833
409.916	3.944
413.95	15.145
417.981	13.776
422.011	28.339
426.039	18.792
430.065	16.938
434.089	18.935
438.111	22.909
442.131	19.668
446.149	26.406
450.166	51.078
454.18	36.637
458.193	58.949
462.203	63.142
466.212	50.223
470.219	63.187
474.224	54.913
478.227	60.451
482.228	77.47
486.227	73.553
490.224	82.638
494.22	58.957
498.213	64.408
502.205	71.577
506.194	61.993
510.182	45.059
514.168	55.554
518.152	71.144
522.134	43.595
526.114	50.615
530.093	44.221
534.069	44.554
538.044	41.353
542.017	24.683
545.987	14.98
549.956	27.496
553.923	32.46
557.889	23.772
561.852	24.609
565.813	40.672
569.773	6.766
573.731	16.841
577.686	34.166
581.64	36.343
585.593	36.106
589.543	42.057
593.491	22.401
597.438	47.469
601.382	27.645
605.325	23.874
609.266	21.572
613.205	30.817
617.142	41.327
621.078	74.674
625.011	75.819
628.943	73.995
632.872	58.256
636.8	66.613
640.726	43.785
644.651	30.92
648.573	65.461
652.494	49.751
656.412	7.246
660.329	21.342
664.244	13.276
668.157	86.028
672.069	446.888
675.978	265.901
679.886	133.712
683.792	38.483
687.696	53.371
691.598	416.276
695.498	809.624
699.397	98.232
703.293	4.754
707.188	20.902
711.081	17.593
714.972	6.765
718.862	4.599
722.749	45.318
726.635	48.66
730.519	35.363
734.401	43.407
738.281	29.127
742.16	2.948
746.036	33.519
749.911	17.455
753.784	27.131
757.655	5.1
761.525	3.045
765.392	3.765
769.258	24.702
773.122	53.79
776.984	1.213
780.844	2.794
784.703	12.867
788.56	2.9
792.415	18.905
796.268	29.938
800.119	45.005
803.969	34.041
807.816	12.982
811.662	5.965
815.506	20.996
819.349	36.026
823.189	75.242
827.028	74.527
830.865	185.593
834.7	908.627
838.534	1520.65
842.365	338.719
846.195	76.762
850.023	60.819
853.85	53.891
857.674	72.864
861.497	87.714
865.318	55.953
869.137	13.238
872.955	32.076
876.77	10.302
880.584	6.579
884.396	6.098
888.207	16.254
892.015	27.656
895.822	17.057
899.627	26.397
903.43	3.889
907.232	8.367
911.032	24.99
914.83	34.176
918.626	10.649
922.42	16.144
926.213	39.568
930.004	24.996
933.793	4.43
937.581	17.919
941.366	21.351
945.15	20.694
948.932	34.133
952.713	31.569
956.491	27.553
960.268	46.244
964.044	18.635
967.817	9.061
971.589	2.314
975.359	3.15
979.127	32.749
982.893	28.417
986.658	62.019
990.421	26.479
994.183	55.408
997.942	86.132
1001.7	115.678
1005.46	84.598
1009.21	78.745
1012.96	61.96
1016.71	77.686
1020.46	125.57
1024.21	148.509
1027.96	206.627
1031.7	390.151
1035.44	202.832
1039.18	323.146
1042.92	511.919
1046.66	1183.68
1050.39	7014.25
1054.13	59079.5
1057.86	7154.3
1061.59	1099.9
1065.32	445.162
1069.05	311.615
1072.77	238.028
1076.49	191.214
1080.22	176.681
1083.94	158.247
1087.65	152.845
1091.37	126.773
1095.09	164.152
1098.8	109.176
1102.51	142.053
1106.22	133.723
1109.93	140.428
1113.63	111.972
1117.34	69.933
1121.04	122.181
1124.74	65.099
1128.44	58.006
1132.14	63.573
1135.84	63.898
1139.53	75.842
1143.22	56.083
1146.91	72.228
1150.61	57.913
1154.29	54.272
1157.98	43.427
1161.66	2.628
1165.35	45.089
1169.03	11.604
1172.71	18.886
1176.38	8.893
1180.06	40.595
1183.73	1.981
1187.41	36.835
1191.08	2.007
1194.75	3.437
1198.41	0.167
1202.08	17.823
1205.74	7.558
1209.41	46.047
1213.07	6.341
1216.73	49.414
1220.38	8.272
1224.04	0.916
1227.69	1.641
1231.35	9.626
1235	2.252
1238.65	10.744
1242.3	13.419
1245.94	27.443
1249.59	32.68
1253.23	20.616
1256.87	28.607
1260.51	33.193
1264.15	54.563
1267.78	73.791
1271.42	66.705
1275.05	45.416
1278.68	49.916
1282.31	14.27
1285.94	5.623
1289.56	21.191
1293.19	82.951
1296.81	84.601
1300.43	64.766
1304.05	112.505
1307.67	120.066
1311.29	128.106
1314.9	160.27
1318.52	153.276
1322.13	134.724
1325.74	124.221
1329.34	134.719
1332.95	129.568
1336.56	139.22
1340.16	170.683
1343.76	174.243
1347.36	310.277
1350.96	478.099
1354.56	748.578
1358.15	1170.45
1361.74	1558.3
1365.34	1581.48
1368.93	1084.42
1372.52	712.058
1376.1	448.367
1379.69	214.352
1383.27	146.095
1386.85	30.561
1390.43	93.99
1394.01	124.209
1397.59	128.882
1401.17	32.383
1404.74	69.916
1408.31	230.177
1411.88	453.294
1415.45	579.593
1419.02	744.966
1422.59	780.468
1426.15	770.352
1429.71	744.674
1433.28	788.491
1436.84	903.882
1440.39	1152.8
1443.95	1395.18
1447.5	1832.06
1451.06	2338.32
1454.61	2949.68
1458.16	3706.91
1461.71	4307.16
1465.26	5087.74
1468.8	5974
1472.34	6629.54
1475.89	7114.36
1479.43	7253.4
1482.97	6968.49
1486.5	6001.44
1490.04	4641.06
1493.57	3409.33
1497.11	2339.62
1500.64	1510.53
1504.17	899.275
1507.69	468.296
1511.22	206.725
1514.74	84.204
1518.27	17.235
1521.79	55.045
