Measurement: Raman, 514 nm, ccw, Raman Data Processed
Mineral: Cerussite
Rruff sample: R050174
Ideal chemistry: PbCO_3_
Locality: Tsumeb mine, Tsumeb, Otavi District, Oshikoto, Namibia
Source: Marcus Origlieri
Description: Colorless single crystal
Measured chemistry: Pb_1.00_CO_3_ ; C not measured but estimated by difference and stoichiometry
Pin_id: L00917
Orientation: Laser parallel to a* (1 0 0). Fiducial mark perpendicular to laser is parallel to -b [0 -1 0]
Raman shift (cm-1)	intensity
51.431	0
56.387	9.05377
61.341	9.51227
66.292	471.964
71.241	2161.93
76.187	4072.06
81.131	3492.84
86.072	2986.33
91.012	2772.15
95.948	2724.33
100.883	2443.39
105.815	2410.43
110.744	2590.76
115.671	3219.95
120.596	4374.77
125.519	4345.52
130.439	4788.59
135.356	5311.26
140.271	3969.9
145.184	2576.59
150.094	1921.16
155.002	1608.7
159.908	1273.03
164.811	1126.01
169.711	993.62
174.61	1007.29
179.505	1030.37
184.399	984.039
189.29	970.006
194.178	1011.11
199.064	1180.37
203.948	1387.83
208.829	1770.31
213.708	2241.02
218.585	2306.6
223.459	2052.44
228.33	1706.65
233.199	1335.51
238.066	901.342
242.93	604.448
247.792	445.742
252.651	347.991
257.508	241.341
262.363	154.031
267.215	136.82
272.064	64.5122
276.912	51.0384
281.756	46.7029
286.598	4.46307
291.438	27.8727
296.276	0.762512
301.111	6.67438
305.943	11.3483
310.773	3.52063
315.601	9.33075
320.426	23.7308
325.248	15.0859
330.068	12.5695
334.886	42.3843
339.701	28.5547
344.514	4.14661
349.324	30.8925
354.132	4.78278
358.938	11.7829
363.741	3.08063
368.541	12.2284
373.339	4.61481
378.135	23.1353
382.928	16.4972
387.718	19.8796
392.506	24.4825
397.292	23.4529
402.075	32.8129
406.856	30.8245
411.634	52.6808
416.41	68.6968
421.183	78.152
425.954	87.8323
430.722	52.006
435.488	87.6394
440.251	77.9148
445.012	79.6927
449.77	101.998
454.526	79.0838
459.28	113.617
464.03	93.827
468.779	101.833
473.525	112.973
478.268	114.781
483.009	120.701
487.747	96.5567
492.483	114.578
497.217	75.6132
501.948	99.0532
506.676	72.7472
511.402	69.8029
516.125	35.9817
520.846	49.8302
525.565	45.0095
530.281	60.74
534.994	35.6719
539.705	22.7275
544.413	27.2085
549.119	6.12103
553.822	28.6195
558.523	25.9089
563.222	29.2484
567.917	26.4956
572.611	21.3945
577.302	28.1777
581.99	17.9149
586.676	30.5723
591.359	27.6291
596.04	39.5469
600.718	23.9722
605.394	39.0989
610.067	20.4307
614.737	46.5519
619.406	68.8783
624.071	55.2655
628.734	63.687
633.395	67.1979
638.053	38.7876
642.708	33.4366
647.361	28.096
652.012	20.7933
656.66	10.7858
661.305	23.4973
665.948	64.9225
670.588	283.167
675.226	903.894
679.861	118.934
684.494	54.5779
689.124	4.84387
693.752	17.9407
698.377	76.1885
702.999	1.15997
707.619	5.99615
712.237	19.3871
716.852	23.2406
721.464	56.5971
726.074	104.339
730.681	62.0185
735.286	80.8031
739.888	50.61
744.488	50.9813
749.085	32.0625
753.68	18.1363
758.272	8.66174
762.861	21.6431
767.448	35.6707
772.033	42.8129
776.614	9.15137
781.194	56.9067
785.77	42.8594
790.345	25.8042
794.916	44.1864
799.485	16.8516
804.052	27.8143
808.616	28.1069
813.177	10.7269
817.736	28.7432
822.292	48.2071
826.846	52.6481
831.397	66.7711
835.945	263.035
840.491	1037.17
845.035	145.193
849.576	61.1719
854.114	41.3086
858.65	7.5379
863.183	13.6806
867.713	25.8474
872.241	23.0719
876.767	0.236572
881.29	4.5846
885.81	13.5821
890.328	12.2805
894.843	7.83771
899.356	6.96246
903.866	32.3749
908.373	15.7227
912.878	3.62524
917.38	13.4374
921.88	36.4967
926.377	29.5577
930.872	32.646
935.364	32.7502
939.853	22.8801
944.34	28.9963
948.824	19.0686
953.306	20.1275
957.785	31.1693
962.261	39.1901
966.735	2.19025
971.207	17.172
975.675	15.1276
980.141	15.0915
984.605	25.943
989.066	19.7936
993.524	32.9409
997.98	23.7705
1002.43	33.5361
1006.88	33.4076
1011.33	26.4745
1015.78	26.3418
1020.22	39.864
1024.66	83.3723
1029.1	113.722
1033.53	239.189
1037.97	167.918
1042.4	362.122
1046.82	1066.97
1051.25	6882.69
1055.67	64841.2
1060.09	5834.78
1064.51	675.368
1068.92	248.381
1073.33	146.827
1077.74	99.6217
1082.15	93.4844
1086.55	103.223
1090.95	71.9213
1095.35	89.5396
1099.75	74.6305
1104.14	84.3502
1108.53	78.8184
1112.92	77.3355
1117.31	64.4606
1121.69	40.1621
1126.07	24.6924
1130.45	29.2172
1134.82	51.6331
1139.19	29.8926
1143.57	18.1101
1147.93	36.2272
1152.3	8.25732
1156.66	33.198
1161.02	12.9452
1165.38	8.20923
1169.73	5.61774
1174.08	16.8321
1178.43	2.75836
1182.78	11.4438
1187.12	19.764
1191.46	12.866
1195.8	6.15521
1200.14	8.28851
1204.47	14.4317
1208.8	13.079
1213.13	7.68903
1217.46	25.2383
1221.78	21.7246
1226.1	8.86615
1230.42	9.51916
1234.73	4.23663
1239.04	11.9866
1243.35	21.2313
1247.66	17.4325
1251.97	19.6306
1256.27	17.4236
1260.57	2.61292
1264.86	38.7849
1269.16	65.6218
1273.45	27.4414
1277.74	70.7205
1282.03	51.5003
1286.31	83.2737
1290.59	78.2476
1294.87	141.626
1299.14	153.138
1303.42	230.398
1307.69	224.072
1311.95	273.116
1316.22	337.711
1320.48	383.048
1324.74	362.798
1329	385.703
1333.26	462.954
1337.51	456.843
1341.76	542.369
1346	642.66
1350.25	972.594
1354.49	1524.3
1358.73	2255.22
1362.96	3039.38
1367.2	2700.25
1371.43	1823.35
1375.66	1075.56
1379.88	742.292
1384.11	453.197
1388.33	284.275
1392.54	177.535
1396.76	112.003
1400.97	96.6941
1405.18	107.728
1409.39	217.881
1413.59	265.317
1417.8	327.048
1421.99	369.212
1426.19	393.626
1430.38	345.025
1434.58	377.853
1438.77	436.846
1442.95	466.049
1447.13	602.504
1451.32	723.757
1455.49	953.406
1459.67	1255.85
1463.84	1542.68
1468.01	1931.42
1472.18	2175.52
1476.35	2273.99
1480.51	2367.8
1484.67	2037.96
1488.83	1636.48
1492.98	1173.34
1497.13	803.55
1501.28	581.061
1505.43	361.815
1509.57	245.716
1513.71	196.042
1517.85	123.037
1521.99	124.726
1526.12	60.1411
1530.25	43.3391
1534.38	26.4032
1538.5	3.47278
1542.62	8.1767
1546.74	22.763
1550.86	7.12958
1554.98	21.9612
1559.09	40.7071
1563.2	16.9547
1567.31	0.672668
