Measurement: Raman, 514 nm, ccw, Raman Data Processed
Mineral: Cerussite
Rruff sample: R050023
Ideal chemistry: PbCO_3_
Locality: Mammoth - St Anthony mine, Tiger, Pinal County, Arizona, USA
Source: Eugene Schlepp
Description: Prismatic white single crystals
Measured chemistry: Pb_1.00_CO_3_ ; CO_2_ not measured but estimated by difference and stoichiometry
Pin_id: L00263
Orientation: Laser parallel to -c* (0 0 -1). Fiducial mark perpendicular to laser is parallel to a [1 0 0]
Raman shift (cm-1)	intensity
54.275	0
58.48	26.961
62.683	36.968
66.884	7.598
71.083	42.283
75.28	128.697
79.474	151.497
83.667	191.245
87.858	317.936
92.046	645.977
96.233	1012.08
100.418	1617.85
104.6	2295.86
108.781	3504.83
112.959	5697.56
117.136	7381.92
121.31	6687.82
125.482	5492.89
129.653	4721.4
133.821	3850.05
137.987	2784.24
142.152	2014.38
146.314	1581.39
150.474	1253.35
154.633	1023.3
158.789	869.264
162.943	780.241
167.095	724.232
171.246	736.105
175.394	752.254
179.54	796.274
183.684	821.283
187.826	875.379
191.967	1003.32
196.105	1160.92
200.241	1488.03
204.375	1898.13
208.507	2339.62
212.638	2725.13
216.766	2919.84
220.892	2980.61
225.016	3008.58
229.139	2570.02
233.259	1915.67
237.377	1348.49
241.493	1019.92
245.608	703.034
249.72	538.042
253.83	446.164
257.939	308.809
262.045	240.427
266.15	201.071
270.252	122.634
274.353	142.295
278.451	104.938
282.548	69.526
286.642	58.009
290.735	36.617
294.826	39.133
298.914	14.749
303.001	16.889
307.086	30.102
311.168	11.151
315.249	2.145
319.328	22.051
323.405	17.366
327.48	13.801
331.553	1.358
335.624	16.973
339.693	6.746
343.76	7.594
347.826	7.594
351.889	15.637
355.95	7.866
360.01	2.356
364.067	4.054
368.123	18.899
372.176	0.854
376.228	16.923
380.277	6.576
384.325	11.035
388.371	20.251
392.415	22.517
396.457	14.51
400.497	9.466
404.535	28.29
408.571	19.923
412.605	40.315
416.638	23.622
420.668	45.832
424.697	31.869
428.723	52.808
432.748	51.659
436.77	55.383
440.791	58.054
444.81	58.64
448.827	52.078
452.842	54.332
456.855	54.41
460.867	54.227
464.876	62.197
468.883	65.545
472.889	69.024
476.892	79.363
480.894	84.923
484.894	78.212
488.892	77.861
492.888	63.683
496.882	65.698
500.874	65.748
504.865	58.109
508.853	47.703
512.84	39.653
516.824	39.925
520.807	43.135
524.788	39.618
528.767	16.781
532.744	11.047
536.719	2.389
540.693	8.477
544.664	19.981
548.634	13.478
552.601	15.816
556.567	10.901
560.531	8.061
564.493	9.644
568.453	30.257
572.412	13.718
576.368	20.244
580.323	29.912
584.275	12.351
588.226	23.972
592.175	13.532
596.122	13.977
600.068	8.383
604.011	19.767
607.952	17.149
611.892	19.361
615.83	27.559
619.766	31.723
623.7	39.907
627.632	46.053
631.563	47.236
635.491	53.369
639.418	30.544
643.343	16.71
647.266	14.878
651.187	1.986
655.106	4.125
659.024	17.296
662.939	55.43
666.853	410.513
670.765	674.503
674.675	710.536
678.583	115.61
682.49	64.662
686.394	2.598
690.297	10.447
694.198	40.343
698.097	14.305
701.995	5.339
705.89	8.638
709.784	9.709
713.675	3.405
717.565	25.421
721.453	47.42
725.34	64.325
729.224	66.054
733.107	59.433
736.988	44.707
740.867	38.468
744.744	23.596
748.62	30.514
752.493	18.475
756.365	14.512
760.235	10.938
764.103	14.163
767.969	26.353
771.834	26.54
775.697	40.862
779.558	17.062
783.417	37.259
787.274	24.463
791.13	13.659
794.983	10.863
798.835	12.042
802.686	14.436
806.534	21.598
810.38	15.037
814.225	8.18
818.068	8.41
821.909	47.604
825.749	20.769
829.586	59.928
833.422	269.067
837.256	977.2
841.088	350.292
844.919	108.414
848.748	41.533
852.575	26.647
856.4	24.698
860.223	9.119
864.045	20.856
867.864	5.889
871.682	15.976
875.499	26.062
879.313	4.14
883.126	11.212
886.937	1.284
890.746	0.013
894.553	2.446
898.359	3.48
902.163	3.41
905.965	6.657
909.765	4.281
913.564	7.77
917.361	5.171
921.156	11.853
924.949	13.856
928.74	22.843
932.53	18.813
936.318	19.706
940.104	22.706
943.889	16.622
947.672	23.527
951.453	0.583
955.232	4.279
959.01	23.128
962.785	1.045
966.559	2.754
970.332	14.379
974.102	26.119
977.871	23.841
981.638	21.543
985.404	29.227
989.167	51.892
992.929	57.539
996.689	77.167
1000.45	67.784
1004.2	55.374
1007.96	57.079
1011.71	49.621
1015.46	75.167
1019.21	88.41
1022.96	99.911
1026.71	126.969
1030.45	405.305
1034.19	206.765
1037.94	271.381
1041.68	411.437
1045.41	855.463
1049.15	3186.38
1052.88	58126.3
1056.62	16555.4
1060.35	2199.94
1064.08	578.792
1067.8	330.922
1071.53	228.397
1075.25	169.522
1078.97	148.548
1082.7	144.119
1086.41	115.756
1090.13	81.812
1093.85	122.849
1097.56	104.849
1101.27	118.624
1104.98	120.541
1108.69	92.443
1112.4	75.681
1116.1	62.747
1119.81	49.586
1123.51	52.41
1127.21	48.229
1130.91	25.028
1134.61	25.82
1138.3	32.592
1141.99	22.343
1145.68	20.074
1149.38	19.785
1153.06	8.476
1156.75	22.147
1160.43	23.797
1164.12	15.428
1167.8	12.03
1171.48	6.606
1175.16	5.154
1178.83	0.318
1182.51	5.83
1186.18	6.384
1189.85	0.002
1193.52	17.652
1197.19	12.373
1200.86	8.155
1204.52	3.985
1208.19	6.845
1211.85	8.735
1215.51	8.341
1219.17	21.43
1222.82	22.524
1226.48	37.624
1230.13	15.732
1233.78	22.851
1237.43	31.968
1241.08	18.076
1244.73	25.176
1248.37	27.452
1252.01	39.359
1255.66	65.444
1259.3	77.528
1262.93	78.62
1266.57	121.713
1270.21	147.803
1273.84	130.891
1277.47	162.979
1281.1	181.068
1284.73	204.16
1288.36	214.257
1291.98	271.364
1295.6	306.474
1299.23	352.587
1302.85	411.577
1306.46	495.743
1310.08	587.906
1313.7	662.279
1317.31	708.47
1320.92	772.127
1324.53	782.939
1328.14	803.9
1331.75	861.782
1335.35	960.788
1338.96	1071.85
1342.56	1223.96
1346.16	1491.38
1349.76	1966.89
1353.36	2676.75
1356.95	3796.83
1360.55	5134.77
1364.14	5712.02
1367.73	4731.33
1371.32	3191.76
1374.91	2144.4
1378.49	1416.61
1382.08	1010.92
1385.66	780.239
1389.24	551.581
1392.82	369.946
1396.4	288.336
1399.97	235.23
1403.55	203.194
1407.12	203.667
1410.69	191.172
1414.26	198.715
1417.83	181.312
1421.4	217.973
1424.96	205.727
1428.53	147.641
1432.09	137.777
1435.65	117.775
1439.21	90.904
1442.76	70.308
1446.32	57.956
1449.87	65.606
1453.43	65.379
1456.98	96.321
1460.53	124.454
1464.07	137.807
1467.62	165.414
1471.16	186.314
1474.71	180.544
1478.25	177.118
1481.79	168.055
1485.32	127.435
1488.86	97.377
1492.39	82.993
1495.93	52.424
1499.46	35.853
1502.99	20.572
1506.52	24.009
1510.05	15.821
1513.57	21.683
1517.09	16.801
