Measurement: Raman, 514 nm, ccw, Raman Data Processed
Mineral: Cerussite
Rruff sample: R050174
Ideal chemistry: PbCO_3_
Locality: Tsumeb mine, Tsumeb, Otavi District, Oshikoto, Namibia
Source: Marcus Origlieri
Description: Colorless single crystal
Measured chemistry: Pb_1.00_CO_3_ ; C not measured but estimated by difference and stoichiometry
Pin_id: L00917
Orientation: Laser parallel to a* (1 0 0). Fiducial mark perpendicular to laser is parallel to -b [0 -1 0]
Raman shift (cm-1)	intensity
51.431	0
56.387	26.6867
61.341	21.6858
66.292	227.845
71.241	1271.89
76.187	2596.62
81.131	2213.56
86.072	2040.78
91.012	2191.88
95.948	2412.69
100.883	3019.72
105.815	3744.12
110.744	3094.22
115.671	2937.47
120.596	3554.77
125.519	3774.2
130.439	4610.73
135.356	5428.8
140.271	4711.03
145.184	4401.67
150.094	5161.64
155.002	5868.81
159.908	4710.13
164.811	3625.32
169.711	3711.31
174.61	4711.13
179.505	5001.71
184.399	4050.03
189.29	2805.93
194.178	1996.36
199.064	1630.56
203.948	1479.24
208.829	1482.49
213.708	1619.09
218.585	1677.1
223.459	1469.35
228.33	1381.08
233.199	1350.03
238.066	1342.41
242.93	1415.72
247.792	1451.46
252.651	1088.16
257.508	699.285
262.363	422.994
267.215	287.713
272.064	169.782
276.912	123.31
281.756	96.1785
286.598	48.9845
291.438	63.5093
296.276	3.97937
301.111	22.9449
305.943	30.3181
310.773	16.5373
315.601	19.3921
320.426	25.0046
325.248	30.3145
330.068	20.6392
334.886	4.32324
339.701	7.76965
344.514	28.9182
349.324	25.3695
354.132	24.7827
358.938	10.1517
363.741	1.41821
368.541	10.7965
373.339	33.3789
378.135	38.0701
382.928	19.0044
387.718	0.158569
392.506	56.6412
397.292	0.035156
402.075	5.75378
406.856	42.3042
411.634	50.2289
416.41	48.4631
421.183	68.1262
425.954	50.7897
430.722	59.3694
435.488	36.5767
440.251	100.72
445.012	100.82
449.77	108.181
454.526	85.3987
459.28	108.989
464.03	118.013
468.779	55.275
473.525	92.3423
478.268	60.6045
483.009	149.675
487.747	108.362
492.483	80.4565
497.217	112.932
501.948	73.0289
506.676	61.2406
511.402	71.8648
516.125	84.3238
520.846	27.7444
525.565	44.8191
530.281	56.4933
534.994	40.361
539.705	24.1606
544.413	34.4785
549.119	42.4578
553.822	39.5452
558.523	52.3101
563.222	37.8816
567.917	14.9717
572.611	36.5269
577.302	59.6899
581.99	7.00391
586.676	73.5049
591.359	25.4054
596.04	49.5083
600.718	48.5576
605.394	12.3031
610.067	28.4041
614.737	48.2837
619.406	46.4875
624.071	65.3248
628.734	40.8129
633.395	82.5984
638.053	74.5287
642.708	28.3619
647.361	16.0107
652.012	50.8314
656.66	8.29236
661.305	1.30395
665.948	28.7678
670.588	183.679
675.226	532.811
679.861	174.786
684.494	278.519
689.124	72.1021
693.752	297.962
698.377	616.624
702.999	47.5088
707.619	19.9402
712.237	26.8846
716.852	17.7291
721.464	52.9202
726.074	75.9482
730.681	113.845
735.286	40.8348
739.888	38.4196
744.488	23.933
749.085	40.7776
753.68	2.42859
758.272	17.6085
762.861	2.66333
767.448	45.7281
772.033	33.8105
776.614	46.8994
781.194	50.9347
785.77	49.9055
790.345	44.0714
794.916	2.90344
799.485	43.7412
804.052	81.1493
808.616	0.55481
813.177	38.5819
817.736	48.9512
822.292	55.1864
826.846	107.394
831.397	117.629
835.945	520.018
840.491	1553.29
845.035	210.527
849.576	54.8404
854.114	14.2579
858.65	2.50427
863.183	42.8131
867.713	67.0953
872.241	42.3651
876.767	47.6438
881.29	20.9576
885.81	7.6781
890.328	43.9703
894.843	12.118
899.356	20.4927
903.866	59.9277
908.373	36.408
912.878	36.8726
917.38	16.498
921.88	66.1237
926.377	5.69751
930.872	54.1345
935.364	85.275
939.853	0.4198
944.34	61.861
948.824	5.29443
953.306	36.6564
957.785	52.9736
962.261	34.2976
966.735	32.654
971.207	28.95
975.675	49.1323
980.141	43.4554
984.605	5.51685
989.066	50.5516
993.524	71.4727
997.98	36.783
1002.43	66.1217
1006.88	51.1855
1011.33	85.751
1015.78	38.5884
1020.22	63.2168
1024.66	70.5302
1029.1	100.045
1033.53	368.493
1037.97	195.046
1042.4	319.635
1046.82	780.273
1051.25	4551.45
1055.67	56945.8
1060.09	5247.56
1064.51	565.896
1068.92	199.856
1073.33	171.929
1077.74	94.616
1082.15	101.765
1086.55	97.4955
1090.95	106.486
1095.35	54.0452
1099.75	113.359
1104.14	104.099
1108.53	93.8121
1112.92	84.4136
1117.31	104.409
1121.69	109.772
1126.07	86.0393
1130.45	51.2211
1134.82	30.028
1139.19	30.683
1143.57	17.184
1147.93	57.4149
1152.3	21.3495
1156.66	46.2163
1161.02	22.0975
1165.38	19.2826
1169.73	33.4158
1174.08	7.28943
1178.43	26.1449
1182.78	2.8894
1187.12	4.1991
1191.46	11.1885
1195.8	17.0823
1200.14	4.08044
1204.47	12.3685
1208.8	15.7828
1213.13	19.5829
1217.46	41.9082
1221.78	67.8433
1226.1	24.1436
1230.42	29.105
1234.73	30.9722
1239.04	43.8596
1243.35	0.479736
1247.66	5.69019
1251.97	8.02515
1256.27	40.7437
1260.57	5.41797
1264.86	43.9336
1269.16	1.59448
1273.45	18.8933
1277.74	0.047119
1282.03	37.9895
1286.31	21.9546
1290.59	62.1677
1294.87	56.3711
1299.14	134.36
1303.42	89.553
1307.69	79.3897
1311.95	181.306
1316.22	201.028
1320.48	253.542
1324.74	144.994
1329	212.92
1333.26	203.69
1337.51	220.57
1341.76	287.017
1346	418.938
1350.25	577.828
1354.49	981.963
1358.73	1554.53
1362.96	2185.61
1367.2	1980.95
1371.43	1526.53
1375.66	1182.46
1379.88	896.4
1384.11	567.964
1388.33	310.488
1392.54	179.58
1396.76	125.006
1400.97	186.835
1405.18	283.102
1409.39	469.821
1413.59	567.01
1417.8	886.722
1421.99	890.055
1426.19	869.03
1430.38	882.816
1434.58	970.386
1438.77	1047.27
1442.95	1227.61
1447.13	1651.1
1451.32	2023.09
1455.49	2558.61
1459.67	3300.75
1463.84	4088.52
1468.01	4838.95
1472.18	5624.94
1476.35	6032.65
1480.51	6037.02
1484.67	5489.07
1488.83	4385.76
1492.98	3060.08
1497.13	2158.03
1501.28	1463.48
1505.43	970.283
1509.57	747.361
1513.71	526.215
1517.85	384.255
1521.99	258.54
1526.12	188.143
1530.25	189.15
1534.38	140.701
1538.5	33.0466
1542.62	31.7021
1546.74	37.2241
1550.86	16.8084
1554.98	74.5493
1559.09	3.76245
1563.2	48.9636
1567.31	22.2888
