Measurement: Raman, 514 nm, ccw, Raman Data Processed
Mineral: Cerussite
Rruff sample: R050174
Ideal chemistry: PbCO_3_
Locality: Tsumeb mine, Tsumeb, Otavi District, Oshikoto, Namibia
Source: Marcus Origlieri
Description: Colorless single crystal
Measured chemistry: Pb_1.00_CO_3_ ; C not measured but estimated by difference and stoichiometry
Pin_id: L01652
Orientation: Laser parallel to -b* (0 -1 0). Fiducial mark perpendicular to laser is parallel to c [0 0 1]
Raman shift (cm-1)	intensity
51.431	0
56.387	9.96201
61.341	41.0406
66.292	1044.19
71.241	3348.72
76.187	6415.71
81.131	4941.22
86.072	3718.5
91.012	3262.79
95.948	3124.59
100.883	3327.12
105.815	3788.39
110.744	2480.59
115.671	1652.15
120.596	1637.09
125.519	2001.82
130.439	2907.53
135.356	3305.78
140.271	2397.02
145.184	1644.6
150.094	1309.81
155.002	1063.41
159.908	774.515
164.811	629.503
169.711	564.063
174.61	599.263
179.505	627.065
184.399	672.108
189.29	847.552
194.178	1135.96
199.064	1487.4
203.948	1880.2
208.829	2363.91
213.708	2850.42
218.585	2771.23
223.459	1940.21
228.33	1303.86
233.199	937.724
238.066	740.129
242.93	579.006
247.792	431.668
252.651	329.78
257.508	249.318
262.363	187.334
267.215	132.936
272.064	114.165
276.912	82.7056
281.756	41.3837
286.598	19.5795
291.438	34.895
296.276	18.264
301.111	0.356995
305.943	10.835
310.773	16.4967
315.601	22.2965
320.426	14.2342
325.248	51.3376
330.068	33.5068
334.886	39.4212
339.701	41.4301
344.514	19.1218
349.324	6.7663
354.132	8.52148
358.938	14.679
363.741	1.68237
368.541	18.4752
373.339	2.73779
378.135	18.3079
382.928	6.15552
387.718	28.7446
392.506	29.3268
397.292	23.4385
402.075	39.4465
406.856	44.2021
411.634	60.4938
416.41	69.6786
421.183	69.4695
425.954	93.9597
430.722	105.705
435.488	102.137
440.251	111.45
445.012	98.7593
449.77	96.3564
454.526	115.614
459.28	109.62
464.03	118.25
468.779	119.862
473.525	105.919
478.268	84.4595
483.009	109.447
487.747	75.7798
492.483	116.294
497.217	98.8715
501.948	83.8241
506.676	91.9381
511.402	82.2539
516.125	74.8351
520.846	76.2688
525.565	58.5629
530.281	52.8859
534.994	59.2258
539.705	52.2158
544.413	41.7894
549.119	40.5178
553.822	41.4079
558.523	30.4516
563.222	41.2175
567.917	20.9119
572.611	24.9172
577.302	57.5342
581.99	39.0086
586.676	36.3439
591.359	34.2599
596.04	26.6415
600.718	40.7695
605.394	28.8728
610.067	31.958
614.737	34.0894
619.406	54.1105
624.071	76.1927
628.734	76.4087
633.395	53.6882
638.053	33.9927
642.708	59.3282
647.361	33.7065
652.012	19.0994
656.66	14.3929
661.305	27.8449
665.948	59.1536
670.588	137.533
675.226	1023.25
679.861	210.886
684.494	369.31
689.124	18.7945
693.752	12.4726
698.377	0.140259
702.999	22.3762
707.619	7.04474
712.237	37.3148
716.852	28.0906
721.464	67.8844
726.074	86.6796
730.681	71.44
735.286	69.1221
739.888	19.6763
744.488	43.3738
749.085	47.7258
753.68	31.5698
758.272	21.9382
762.861	8.22803
767.448	11.206
772.033	40.4012
776.614	27.405
781.194	6.76691
785.77	32.6061
790.345	22.4982
794.916	4.52972
799.485	28.5997
804.052	21.665
808.616	4.03674
813.177	8.13831
817.736	24.8087
822.292	47.4949
826.846	74.2916
831.397	119.337
835.945	398.26
840.491	1257.51
845.035	223.504
849.576	39.8375
854.114	53.452
858.65	41.9009
863.183	11.0758
867.713	16.2522
872.241	4.73895
876.767	42.6685
881.29	19.1847
885.81	7.5545
890.328	2.2605
894.843	2.00067
899.356	8.24902
903.866	12.4929
908.373	14.7278
912.878	26.9495
917.38	8.15643
921.88	8.35785
926.377	32.5511
930.872	19.7283
935.364	62.2196
939.853	13.0608
944.34	19.227
948.824	17.1632
953.306	3.70111
957.785	6.617
962.261	19.42
966.735	7.43011
971.207	4.42621
975.675	11.422
980.141	39.3809
984.605	15.2975
989.066	0.815125
993.524	40.4974
997.98	44.4302
1002.43	21.3887
1006.88	56.7506
1011.33	34.4199
1015.78	21.9512
1020.22	10.8162
1024.66	45.2031
1029.1	123.537
1033.53	313.784
1037.97	154.512
1042.4	365.724
1046.82	1478.42
1051.25	8353.39
1055.67	56311.7
1060.09	5488.09
1064.51	549.323
1068.92	210.749
1073.33	129.332
1077.74	72.8681
1082.15	83.9052
1086.55	88.0519
1090.95	81.2338
1095.35	88.9967
1099.75	77.8234
1104.14	69.177
1108.53	48.4156
1112.92	33.5077
1117.31	13.8123
1121.69	0.244629
1126.07	16.3395
1130.45	16.9058
1134.82	27.4321
1139.19	1.39575
1143.57	26.9872
1147.93	33.2756
1152.3	10.4353
1156.66	15.5964
1161.02	7.54492
1165.38	35.7606
1169.73	10.7723
1174.08	2.24091
1178.43	5.71594
1182.78	30.6452
1187.12	0.460754
1191.46	10.4108
1195.8	22.2698
1200.14	9.23883
1204.47	1.70514
1208.8	33.6284
1213.13	15.3375
1217.46	7.05042
1221.78	25.7764
1226.1	42.514
1230.42	3.74243
1234.73	14.9778
1239.04	8.69495
1243.35	25.4325
1247.66	48.1759
1251.97	19.4753
1256.27	46.6553
1260.57	43.9827
1264.86	54.6473
1269.16	31.4182
1273.45	88.8546
1277.74	100.862
1282.03	63.262
1286.31	93.295
1290.59	137.347
1294.87	97.252
1299.14	126.178
1303.42	180.111
1307.69	204.426
1311.95	255.828
1316.22	299.143
1320.48	366.545
1324.74	336.092
1329	348.896
1333.26	354.557
1337.51	414.674
1341.76	453.473
1346	499.292
1350.25	651.225
1354.49	914.231
1358.73	1263.2
1362.96	1574.26
1367.2	1751.59
1371.43	2031.69
1375.66	2567.25
1379.88	2374.78
1384.11	1577.39
1388.33	957.132
1392.54	518.226
1396.76	335.409
1400.97	236.452
1405.18	223.634
1409.39	220.938
1413.59	187.362
1417.8	233.451
1421.99	239.144
1426.19	223.955
1430.38	241.945
1434.58	165.112
1438.77	143.458
1442.95	94.8639
1447.13	65.385
1451.32	55.7542
1455.49	25.3483
1459.67	76.1183
1463.84	70.0381
1468.01	32.1344
1472.18	54.4193
1476.35	9.86951
1480.51	40.4832
1484.67	28.2492
1488.83	27.1703
1492.98	21.2544
1497.13	25.4695
1501.28	17.829
1505.43	26.3186
1509.57	3.08594
1513.71	37.7284
1517.85	10.1569
1521.99	13.2706
1526.12	13.0237
1530.25	54.7653
1534.38	16.1072
1538.5	25.1877
1542.62	30.0504
1546.74	52.7579
1550.86	37.5029
1554.98	33.0951
1559.09	22.5126
1563.2	31.4941
1567.31	63.4486
