Measurement: Raman, 514 nm, ccw, Raman Data Processed
Mineral: Cerussite
Rruff sample: R060017
Ideal chemistry: PbCO_3_
Locality: Gonessa, Sardinia, Italy
Source: American Museum of Natural History
Description: White reticulated composite
Measured chemistry: Pb_1.00_CO_3_ C not measured but estimated by difference and stoichiometry
Pin_id: M00430
Orientation: Laser parallel to c* (0 0 1). Fiducial mark perpendicular to laser is parallel to a [1 0 0]
Raman shift (cm-1)	intensity
51.431	0
56.387	22.0675
61.341	1436.46
66.292	6892.85
71.241	10307.9
76.187	7404.46
81.131	5663.27
86.072	6250.53
91.012	8349.82
95.948	10574.2
100.883	11734.3
105.815	10859.1
110.744	10085
115.671	10159.6
120.596	9299.78
125.519	8107.98
130.439	7620.56
135.356	6854.75
140.271	5992.42
145.184	5468.45
150.094	4537.48
155.002	3418.06
159.908	2765.28
164.811	2636.8
169.711	2738.49
174.61	2805.14
179.505	2435.77
184.399	2321.57
189.29	2387.66
194.178	2788.7
199.064	3442.45
203.948	4018.87
208.829	4514.9
213.708	4497.17
218.585	4190.91
223.459	3573.89
228.33	2890.56
233.199	2146.24
238.066	1606.62
242.93	1119.66
247.792	879.631
252.651	491.812
257.508	395.383
262.363	236.565
267.215	121.498
272.064	66.625
276.912	42.2607
281.756	63.2246
286.598	44.4326
291.438	161.103
296.276	104.929
301.111	4.02051
305.943	127.939
310.773	93.6333
315.601	112.091
320.426	120.822
325.248	121.022
330.068	52.8169
334.886	105.855
339.701	10.4204
344.514	23.0669
349.324	61.2485
354.132	14.439
358.938	10.2856
363.741	1.72168
368.541	24.7622
373.339	106.358
378.135	40.2227
382.928	75.8823
387.718	207.659
392.506	230.523
397.292	203.81
402.075	167.993
406.856	121.817
411.634	205.458
416.41	290.731
421.183	170.672
425.954	176.619
430.722	239.809
435.488	132.878
440.251	320.545
445.012	203.975
449.77	226.307
454.526	276.933
459.28	232.738
464.03	286.234
468.779	245.331
473.525	293.794
478.268	285.38
483.009	116.251
487.747	256.056
492.483	318.26
497.217	297.456
501.948	236.5
506.676	164.011
511.402	71.4233
516.125	123.876
520.846	147.301
525.565	123.642
530.281	109.712
534.994	184.969
539.705	141.703
544.413	174.892
549.119	134.582
553.822	145.551
558.523	47.4409
563.222	286.73
567.917	122.172
572.611	30.0615
577.302	118.099
581.99	175.705
586.676	115.864
591.359	70.4326
596.04	37.0024
600.718	149.432
605.394	96.3525
610.067	208.955
614.737	197.053
619.406	208.832
624.071	305.378
628.734	274.402
633.395	228.375
638.053	150.726
642.708	235.81
647.361	86.5566
652.012	142.49
656.66	122.875
661.305	393.175
665.948	870.125
670.588	888.309
675.226	780.496
679.861	743.112
684.494	258.522
689.124	163.707
693.752	204.709
698.377	121.512
702.999	69.6367
707.619	16.6611
712.237	157.476
716.852	87.6816
721.464	148.128
726.074	145.062
730.681	168.197
735.286	1.82422
739.888	34.1973
744.488	11.2315
749.085	85.0752
753.68	102.118
758.272	127.324
762.861	123.221
767.448	81.8496
772.033	155.951
776.614	105.832
781.194	60.1318
785.77	17.7979
790.345	43.1865
794.916	102.938
799.485	21.3223
804.052	60.1504
808.616	11.0146
813.177	14.8057
817.736	132.296
822.292	130.155
826.846	240.837
831.397	961.066
835.945	1333.02
840.491	415.449
845.035	144.87
849.576	134.323
854.114	40.2402
858.65	66.1934
863.183	68.4853
867.713	149.602
872.241	104.786
876.767	63.4004
881.29	80.8867
885.81	146.065
890.328	61.873
894.843	102.571
899.356	21.0996
903.866	13.706
908.373	175.69
912.878	4.42578
917.38	43.4629
921.88	101.947
926.377	6.27441
930.872	8.41504
935.364	24.2139
939.853	18.2529
944.34	140.009
948.824	24.4658
953.306	60.5527
957.785	151.51
962.261	12.3574
966.735	64.918
971.207	132.345
975.675	215.166
980.141	163.551
984.605	125.506
989.066	42.3779
993.524	143.977
997.98	201.155
1002.43	63.4863
1006.88	124.223
1011.33	55.2402
1015.78	115.474
1020.22	41.5371
1024.66	376.269
1029.1	427.967
1033.53	495.26
1037.97	801.445
1042.4	2051.61
1046.82	33049.5
1051.25	47742.2
1055.67	19600.4
1060.09	1380.14
1064.51	609.282
1068.92	349.954
1073.33	171.826
1077.74	175.672
1082.15	272.984
1086.55	287.164
1090.95	285.633
1095.35	196.395
1099.75	187.379
1104.14	165.688
1108.53	182.045
1112.92	208.928
1117.31	107.744
1121.69	324.053
1126.07	169.419
1130.45	79.3545
1134.82	50.7783
1139.19	106.73
1143.57	41.5449
1147.93	114.262
1152.3	154.556
1156.66	116.903
1161.02	96.9805
1165.38	94.1748
1169.73	45.2041
1174.08	12.3193
1178.43	146.023
1182.78	94.3203
1187.12	48.294
1191.46	51.0352
1195.8	22.3311
1200.14	56.1357
1204.47	151.451
1208.8	159.524
1213.13	88.9414
1217.46	157.225
1221.78	115.076
1226.1	74.8564
1230.42	92.6006
1234.73	83.1475
1239.04	164.072
1243.35	158.214
1247.66	47.418
1251.97	73.8252
1256.27	6.92383
1260.57	145.914
1264.86	173.848
1269.16	8.68262
1273.45	113.818
1277.74	219.115
1282.03	271.925
1286.31	325.767
1290.59	277.549
1294.87	491.793
1299.14	380.024
1303.42	520.843
1307.69	784.327
1311.95	900.972
1316.22	809.227
1320.48	826.691
1324.74	874.047
1329	930.879
1333.26	1022.22
1337.51	1314.97
1341.76	1634.1
1346	2171.78
1350.25	3090.7
1354.49	4735.94
1358.73	6122.1
1362.96	6186.05
1367.2	5180.29
1371.43	4475.89
1375.66	3781.71
1379.88	2361.17
1384.11	1462.78
1388.33	709.972
1392.54	581.893
1396.76	450.205
1400.97	186.929
1405.18	304.164
1409.39	450.931
1413.59	352.264
1417.8	418.01
1421.99	840.684
1426.19	583.076
1430.38	465.334
1434.58	490.656
1438.77	608.594
1442.95	625.881
1447.13	650.994
1451.32	1028.86
1455.49	1021.55
1459.67	1341.38
1463.84	1633.06
1468.01	1955.74
1472.18	1903.27
1476.35	1882.55
1480.51	1972.62
1484.67	1496.46
1488.83	1022.05
1492.98	753.443
1497.13	563.268
1501.28	244.666
1505.43	344.125
1509.57	219.32
1513.71	265.029
1517.85	201.227
1521.99	146.926
1526.12	110.189
1530.25	111.139
1534.38	113.959
1538.5	220.027
1542.62	56.9121
1546.74	121.594
1550.86	217.445
1554.98	137.76
1559.09	157.269
1563.2	110.371
1567.31	168.506
