Measurement: Raman, 514 nm, ccw, Raman Data Processed
Mineral: Cerussite
Rruff sample: R040069
Ideal chemistry: PbCO_3_
Locality: Broken Hill, New South Wales, Australia
Source: University of Arizona Mineral Museum
Description: Reticulated composite of colorless tabular crystals
Measured chemistry: Pb_1.04_C_0.98_O_3_
Pin_id: M00419
Orientation: Laser parallel to -b* (0 -1 0). Fiducial mark perpendicular to laser is parallel to c [0 0 1]
Raman shift (cm-1)	intensity
50.93	0
55.142	69.314
59.352	73.831
63.56	3.169
67.766	135.775
71.97	647.223
76.172	924.818
80.371	865.73
84.569	955.43
88.765	1231.55
92.959	1542.79
97.15	1792.91
101.34	2142.79
105.527	2513.34
109.713	3419.47
113.896	4488.09
118.077	4932.14
122.257	4638.56
126.434	4576.33
130.609	4175.19
134.782	3175.17
138.954	2257.33
143.123	1615.77
147.29	1324.51
151.455	1129.45
155.618	1000.62
159.779	861.963
163.938	820.428
168.095	853.004
172.25	872.663
176.403	900.398
180.554	942.207
184.703	1076.08
188.85	1204.12
192.995	1413.1
197.138	1789.53
201.279	2288.6
205.418	2678.17
209.554	3223.87
213.689	3457.44
217.822	3116.37
221.953	2714.01
226.082	2353.46
230.209	1890.89
234.334	1448.75
238.456	1113.91
242.577	890.73
246.696	760.383
250.813	618.353
254.928	502.195
259.041	375.513
263.152	301.254
267.261	227.831
271.368	206.209
275.473	230.175
279.576	187.533
283.677	169.932
287.776	138.278
291.873	141.713
295.968	107.083
300.061	95.476
304.152	60.969
308.241	51.402
312.328	47.862
316.413	16.212
320.496	7.608
324.578	9.152
328.657	21.038
332.734	5.242
336.81	7.609
340.883	12.475
344.954	7.409
349.024	13.405
353.091	19.407
357.157	21.391
361.221	3.462
365.282	28.43
369.342	15.276
373.4	28.148
377.455	33.093
381.509	26.343
385.561	24.588
389.611	8.74
393.659	13.869
397.705	6.463
401.749	9.802
405.791	5.975
409.832	0.908
413.87	16.653
417.906	3.994
421.941	10.098
425.973	21.128
430.004	21.988
434.032	29.676
438.059	29.441
442.084	14.031
446.107	5.496
450.128	24.858
454.147	28.19
458.164	21.454
462.179	23.672
466.192	27.891
470.204	43.841
474.213	34.777
478.221	46.622
482.226	26.227
486.23	52.686
490.232	37.023
494.231	47.362
498.229	35.191
502.225	42.658
506.22	25.147
510.212	36.678
514.202	12.55
518.191	8.265
522.177	26.182
526.162	11.989
530.144	20.448
534.125	1.395
538.104	18.463
542.081	11.313
546.056	7.038
550.03	27.032
554.001	2.131
557.97	11.419
561.938	14.683
565.904	37.841
569.868	8.111
573.829	17.346
577.79	3.39
581.748	26.291
585.704	34.137
589.658	37.851
593.611	26.69
597.562	21.366
601.51	27.903
605.457	10.524
609.402	23.038
613.346	25.646
617.287	58.208
621.226	57.682
625.164	58.094
629.1	68.534
633.033	73.92
636.965	68.3
640.896	44.639
644.824	28.927
648.75	24.173
652.675	23.356
656.598	20.144
660.518	16.991
664.437	104.075
668.354	387.06
672.27	917.117
676.183	357.648
680.095	83.617
684.005	52.6
687.912	11.249
691.818	6.17
695.723	9.648
699.625	2.762
703.526	5.146
707.424	16.679
711.321	2.715
715.216	40.158
719.109	72.929
723.001	87.826
726.89	78.661
730.778	79.517
734.664	72.372
738.548	60.186
742.43	32.035
746.31	29.056
750.189	46.035
754.066	29.783
757.941	35.624
761.814	25.493
765.685	42.465
769.554	30.497
773.422	43.189
777.288	52.905
781.152	48.608
785.014	37.313
788.874	27.935
792.733	26.57
796.59	22.316
800.445	5.801
804.298	35.444
808.149	10.077
811.999	11.753
815.846	29.435
819.692	57.125
823.536	86.865
827.379	72.405
831.219	129.609
835.058	908.109
838.895	1139.48
842.73	273.642
846.563	104.374
850.395	67.672
854.225	47.235
858.053	42.79
861.879	50.339
865.703	22.88
869.526	16.412
873.347	17.937
877.166	8.454
880.983	10.038
884.798	0.543
888.612	36.943
892.424	21.423
896.234	1.894
900.042	16.356
903.849	7.189
907.654	4.249
911.457	22.667
915.258	19.066
919.058	11.46
922.855	24.852
926.651	4.237
930.446	38.617
934.238	14.992
938.029	27.305
941.818	29.675
945.605	15.017
949.39	21.368
953.174	34.746
956.956	1.941
960.736	34.418
964.514	6.231
968.291	3.115
972.066	20.46
975.839	11.801
979.61	35.139
983.38	21.471
987.147	47.792
990.914	47.108
994.678	33.417
998.441	48.718
1002.2	73.012
1005.96	40.299
1009.72	79.579
1013.47	60.811
1017.23	82.775
1020.98	67.235
1024.73	125.581
1028.48	238.856
1032.23	363.985
1035.97	232.433
1039.71	393.339
1043.46	681.462
1047.2	1557.03
1050.93	12299.3
1054.67	61986.9
1058.41	5010.05
1062.14	925.192
1065.87	423.736
1069.6	269.02
1073.33	187.78
1077.05	154.35
1080.78	164.727
1084.5	123.694
1088.22	100.204
1091.94	111.153
1095.66	103.232
1099.38	97.157
1103.09	86.578
1106.8	92.673
1110.51	98.76
1114.22	47.817
1117.93	64.616
1121.64	49.681
1125.34	58.739
1129.04	27.79
1132.74	36.835
1136.44	61.874
1140.14	40.906
1143.83	23.933
1147.53	16.954
1151.22	13.029
1154.91	8.976
1158.6	0.024
1162.29	4.965
1165.97	23.95
1169.65	11.927
1173.34	13.896
1177.02	2.863
1180.7	2.168
1184.37	0.793
1188.05	0.255
1191.72	15.687
1195.39	1.626
1199.06	8.446
1202.73	1.529
1206.4	17.628
1210.06	9.747
1213.73	32.875
1217.39	19.028
1221.05	4.805
1224.71	26.639
1228.36	4.475
1232.02	36.311
1235.67	37.144
1239.32	6.974
1242.97	35.806
1246.62	21.641
1250.27	40.483
1253.91	39.33
1257.56	54.183
1261.2	101.043
1264.84	87.91
1268.48	84.782
1272.12	113.656
1275.75	84.531
1279.38	103.396
1283.02	113.93
1286.65	157.81
1290.27	249.396
1293.9	221.281
1297.53	268.169
1301.15	290.798
1304.77	352.562
1308.39	368.463
1312.01	418.026
1315.63	514.932
1319.24	535.49
1322.86	592.428
1326.47	643.373
1330.08	642.734
1333.69	672.595
1337.29	706.607
1340.9	788.373
1344.5	893.617
1348.11	1125.09
1351.71	1496.13
1355.31	2136.19
1358.9	2930.28
1362.5	3769.37
1366.09	3607.14
1369.68	2742.3
1373.28	1790.48
1376.86	1259.7
1380.45	925.029
1384.04	623.325
1387.62	492.847
1391.2	409.254
1394.79	242.64
1398.37	258.809
1401.94	197.837
1405.52	178.879
1409.09	197.946
1412.67	181.032
1416.24	147.145
1419.81	171.282
1423.38	176.451
1426.94	162.649
1430.51	82.891
1434.07	138.196
1437.63	119.571
1441.19	140.995
1444.75	82.451
1448.31	95.951
1451.86	132.478
1455.41	83.024
1458.97	87.576
1462.52	62.146
1466.07	72.773
1469.61	96.472
1473.16	105.247
1476.7	127.108
1480.25	132.058
1483.79	97.099
1487.33	115.237
1490.86	101.484
1494.4	34.873
1497.93	25.436
1501.47	10.2
1505	3.798
1508.53	7.503
1512.06	4.812
1515.58	15.264
1519.11	34.005
1522.63	5.186
