Measurement: Raman, 514 nm, ccw, Raman Data Processed
Mineral: Cerussite
Rruff sample: R060017
Ideal chemistry: PbCO_3_
Locality: Gonessa, Sardinia, Italy
Source: American Museum of Natural History
Description: White reticulated composite
Measured chemistry: Pb_1.00_CO_3_ C not measured but estimated by difference and stoichiometry
Pin_id: M00261
Orientation: Laser parallel to a* (1 0 0). Fiducial mark perpendicular to laser is parallel to b [0 1 0]
Raman shift (cm-1)	intensity
51.431	0
56.387	101.824
61.341	107.165
66.292	2011.86
71.241	4017.23
76.187	3642.51
81.131	3592.16
86.072	4039.72
91.012	5040.78
95.948	6209.18
100.883	7427.35
105.815	7794.89
110.744	8343.27
115.671	9436.27
120.596	9598.81
125.519	8296.83
130.439	7798.37
135.356	7095.4
140.271	6122.15
145.184	5781.59
150.094	5271.01
155.002	4743.37
159.908	4314.75
164.811	4017.47
169.711	3883.62
174.61	3894.21
179.505	3667.84
184.399	3492.33
189.29	3253.64
194.178	3108.17
199.064	3558.62
203.948	3612.49
208.829	3888.15
213.708	4360.64
218.585	4325.93
223.459	4069.18
228.33	3735.97
233.199	3019.86
238.066	2342.63
242.93	2040.63
247.792	1531.46
252.651	1214.53
257.508	1213.96
262.363	982.726
267.215	847.16
272.064	791.163
276.912	577.995
281.756	554.841
286.598	500.196
291.438	374.227
296.276	321.449
301.111	330.685
305.943	281.067
310.773	326.543
315.601	244.688
320.426	87.3603
325.248	107.865
330.068	10.5312
334.886	142.199
339.701	32.3516
344.514	13.1035
349.324	40.29
354.132	176.422
358.938	106.231
363.741	1.47852
368.541	13.8613
373.339	39.7637
378.135	53.1885
382.928	30.9854
387.718	28.4287
392.506	88.3027
397.292	24.6367
402.075	61.0185
406.856	7.03418
411.634	19.3506
416.41	100.625
421.183	57.3916
425.954	21.8926
430.722	81.7549
435.488	30.2734
440.251	62.752
445.012	56.4941
449.77	51.1533
454.526	139.168
459.28	34.3018
464.03	30.5303
468.779	2.80664
473.525	175.222
478.268	131.057
483.009	125.231
487.747	83.4756
492.483	190.699
497.217	229.058
501.948	88.0625
506.676	10.7559
511.402	134.629
516.125	126.169
520.846	175.702
525.565	191.324
530.281	209.173
534.994	139.003
539.705	270.406
544.413	223.597
549.119	54.1582
553.822	184.605
558.523	505.434
563.222	149.985
567.917	126.219
572.611	254.119
577.302	225.81
581.99	199.462
586.676	73.5781
591.359	280.169
596.04	295.927
600.718	164.303
605.394	240.228
610.067	195.016
614.737	271.981
619.406	351.3
624.071	213.981
628.734	86.0166
633.395	219.828
638.053	127.204
642.708	152.939
647.361	347.031
652.012	260.134
656.66	261.344
661.305	122.551
665.948	322.86
670.588	736.637
675.226	875.709
679.861	504.887
684.494	249.456
689.124	275.178
693.752	219.023
698.377	233.552
702.999	59.377
707.619	222.891
712.237	47.7676
716.852	167.535
721.464	9.94531
726.074	223.918
730.681	20.6836
735.286	157.379
739.888	44.7676
744.488	190.865
749.085	104.201
753.68	132.566
758.272	50.0137
762.861	189.225
767.448	47.5742
772.033	18.8066
776.614	153.553
781.194	275.572
785.77	42.4863
790.345	239.637
794.916	133.799
799.485	126.428
804.052	119.754
808.616	81.1602
813.177	44.3711
817.736	121.566
822.292	156.518
826.846	125.143
831.397	393.805
835.945	810.262
840.491	538.809
845.035	333.383
849.576	134.236
854.114	329.812
858.65	171.012
863.183	223.908
867.713	206.934
872.241	202.836
876.767	106.803
881.29	32.5391
885.81	168.185
890.328	232.398
894.843	159.697
899.356	154.357
903.866	200.141
908.373	287.182
912.878	177.873
917.38	95.8359
921.88	196.334
926.377	149.975
930.872	231.022
935.364	105.891
939.853	271.488
944.34	119.379
948.824	79.8516
953.306	7.83398
957.785	214.637
962.261	311.455
966.735	222.523
971.207	49.9883
975.675	201.106
980.141	114.727
984.605	149.338
989.066	198.732
993.524	10.959
997.98	214.328
1002.43	102.934
1006.88	273.281
1011.33	303.473
1015.78	140.545
1020.22	209.984
1024.66	207.685
1029.1	263.15
1033.53	313.572
1037.97	259.062
1042.4	930.316
1046.82	5318.38
1051.25	22918.6
1055.67	26704.5
1060.09	1450.31
1064.51	565.768
1068.92	328.922
1073.33	190.777
1077.74	226.356
1082.15	246.014
1086.55	268.848
1090.95	353.373
1095.35	259.582
1099.75	184.217
1104.14	355.228
1108.53	282.535
1112.92	221.516
1117.31	463.635
1121.69	383.31
1126.07	298.656
1130.45	135.59
1134.82	232.197
1139.19	219.56
1143.57	67.4629
1147.93	216.219
1152.3	200.523
1156.66	14.9844
1161.02	67.2109
1165.38	72.207
1169.73	127.943
1174.08	151.482
1178.43	67.2891
1182.78	97.4102
1187.12	118.984
1191.46	27.4375
1195.8	19.75
1200.14	169.709
1204.47	207.465
1208.8	50.8359
1213.13	93.5723
1217.46	168.844
1221.78	7.82812
1226.1	138.182
1230.42	137.596
1234.73	88.291
1239.04	21.0039
1243.35	78.8906
1247.66	18.6992
1251.97	185.514
1256.27	149.297
1260.57	209.045
1264.86	114.426
1269.16	107.074
1273.45	228.685
1277.74	8.0957
1282.03	303.494
1286.31	268.721
1290.59	239.908
1294.87	160.131
1299.14	264.518
1303.42	468.174
1307.69	409.201
1311.95	295.481
1316.22	471.977
1320.48	609.391
1324.74	858.887
1329	702.465
1333.26	677.441
1337.51	690.867
1341.76	843.057
1346	1030.97
1350.25	1664.56
1354.49	2501.29
1358.73	3734.35
1362.96	3934.4
1367.2	3734.6
1371.43	2970.93
1375.66	2444.98
1379.88	1584.31
1384.11	928.939
1388.33	640.027
1392.54	486.297
1396.76	116.926
1400.97	23.9648
1405.18	421.098
1409.39	175.981
1413.59	242.463
1417.8	401.49
1421.99	536.269
1426.19	471.522
1430.38	665.588
1434.58	635.303
1438.77	546.178
1442.95	711.519
1447.13	827.688
1451.32	1080.37
1455.49	1358.68
1459.67	1830.64
1463.84	1998.68
1468.01	2422.64
1472.18	2462.37
1476.35	2584.82
1480.51	2485.93
1484.67	2189.81
1488.83	1694.38
1492.98	1106.87
1497.13	583.045
1501.28	604.375
1505.43	260.158
1509.57	436.471
1513.71	388.83
1517.85	175.596
1521.99	60.7852
1526.12	247.465
1530.25	410.758
1534.38	109.811
1538.5	253.959
1542.62	135.82
1546.74	93.0156
1550.86	251.133
1554.98	133.408
1559.09	3.78516
1563.2	203.81
1567.31	346.853
