Measurement: Raman, 514 nm, ccw, Raman Data Processed
Mineral: Cerussite
Rruff sample: R050011
Ideal chemistry: PbCO_3_
Locality: Daoping Lead and Zinc mine, Gongcheng, Guangxi, China
Source: Eugene Schlepp
Description: Colorless hexagonal bipyramidal crystals
Measured chemistry: Pb_1.00_CO_3_ ; CO_2_ not measured but estimated by difference and stoichiometry
Pin_id: L00082
Orientation: Laser parallel to -a* (-1 0 0). Fiducial mark perpendicular to laser is parallel to -b [0 -1 0]
Raman shift (cm-1)	intensity
46.637	0
50.856	0.635
55.072	101.758
59.287	203.494
63.499	203.401
67.709	84.713
71.917	49.767
76.123	79.242
80.327	75.42
84.529	77.396
88.728	295.412
92.926	956.363
97.121	2070.93
101.314	3328.85
105.505	3912.99
109.694	4950.29
113.881	6960.67
118.066	8202.11
122.249	7493.54
126.43	6711.93
130.608	6165.25
134.785	5127.13
138.959	4064.42
143.131	3318.05
147.301	2725.98
151.469	2467.11
155.635	2308.82
159.799	2018.06
163.961	1854.84
168.121	1818.17
172.278	1890.05
176.434	1735.5
180.587	1693.5
184.739	1718.01
188.888	1688.01
193.035	1690.51
197.18	1817.53
201.324	1968.02
205.465	2026.97
209.603	2251.51
213.74	2561.26
217.875	2726.75
222.008	2789.34
226.139	3035.9
230.267	2866.33
234.394	2295.4
238.518	1748.89
242.641	1501.13
246.761	1303.35
250.879	1104.71
254.996	915.707
259.11	885.465
263.222	821.393
267.332	638.707
271.44	560.419
275.546	577.614
279.65	566.066
283.752	430.883
287.852	439.075
291.95	426.303
296.046	387.368
300.14	332.534
304.231	358.937
308.321	362.845
312.409	300.892
316.495	260.229
320.578	227.847
324.66	228.743
328.739	197.938
332.817	173.403
336.892	208.098
340.966	269.31
345.037	151.519
349.107	96.971
353.174	146.649
357.24	128.589
361.303	69.7
365.365	54.253
369.424	89.907
373.481	94.612
377.537	107.507
381.59	9.192
385.642	55.612
389.691	76.225
393.738	97.207
397.784	26.027
401.827	9.254
405.868	112.568
409.908	55.469
413.945	101.121
417.98	31.557
422.014	39.641
426.045	62.421
430.075	84.684
434.102	53.807
438.127	43.928
442.151	100.265
446.172	20.119
450.192	0.661
454.209	11.97
458.225	64.374
462.238	35.183
466.25	4.232
470.259	54.832
474.267	105.084
478.273	44.66
482.276	64.409
486.278	22.132
490.278	38.834
494.276	15.645
498.271	15.472
502.265	29.281
506.257	56.426
510.247	57.334
514.235	25.312
518.221	15.334
522.205	51.602
526.187	46.395
530.167	48.346
534.145	33.8
538.122	29.64
542.096	50.982
546.068	89.947
550.039	21.348
554.007	15.983
557.973	6.109
561.938	17.777
565.901	26.848
569.861	52.228
573.82	10.46
577.777	26.838
581.732	33.844
585.685	3.946
589.636	2.742
593.585	39.223
597.532	101.187
601.477	75.208
605.42	43.129
609.361	53.287
613.301	10.621
617.238	212.034
621.174	120.694
625.108	112.551
629.039	40.911
632.969	31.274
636.897	248.646
640.823	96.865
644.747	46.654
648.669	24.772
652.589	119.712
656.508	161.971
660.424	141.485
664.339	87.594
668.251	290.255
672.162	513.82
676.071	398.26
679.978	198.836
683.883	212.722
687.786	130.801
691.687	114.946
695.586	71.73
699.484	63.404
703.379	12.28
707.273	7.876
711.165	6.033
715.055	75.904
718.943	160.792
722.829	88.507
726.713	37.664
730.595	115.26
734.476	170.27
738.354	121.62
742.231	43.127
746.106	7.486
749.978	119.264
753.849	178.92
757.719	182.395
761.586	112.41
765.451	20.118
769.315	59.59
773.177	157.536
777.036	222.15
780.894	91.252
784.75	47.206
788.605	46.853
792.457	167.053
796.307	35.846
800.156	90.79
804.003	51.451
807.848	89.01
811.691	70.892
815.532	244.646
819.371	211.063
823.209	187.966
827.045	103.347
830.878	143.535
834.71	419.693
838.54	917.534
842.369	515.208
846.195	181.105
850.02	93.922
853.842	71.712
857.663	163.724
861.482	148.225
865.299	142.813
869.115	129.039
872.928	49.747
876.74	54.936
880.55	172.012
884.358	198.232
888.164	129.5
891.969	47.774
895.771	80.037
899.572	56.604
903.371	162.807
907.168	181.187
910.963	253.573
914.757	42.979
918.548	6.768
922.338	69.192
926.126	170.609
929.912	215.921
933.697	164.957
937.479	98.345
941.26	4.288
945.039	46.028
948.816	172.384
952.591	311.195
956.365	172.511
960.136	116.916
963.906	48.682
967.674	65.481
971.441	113.278
975.205	207.896
978.968	78.312
982.729	114.767
986.488	44.582
990.245	60.454
994	15.987
997.754	159.093
1001.51	338.297
1005.26	74.376
1009	120.667
1012.75	8.979
1016.5	173.569
1020.24	191.188
1023.98	356.597
1027.72	393.398
1031.46	645.319
1035.19	212.611
1038.93	349.161
1042.66	620.671
1046.39	1333.06
1050.12	3943.12
1053.85	56488.4
1057.57	10684.3
1061.29	1624.85
1065.02	610.768
1068.74	552.384
1072.45	432.691
1076.17	439.812
1079.88	395.832
1083.6	269.457
1087.31	186.597
1091.02	283.594
1094.72	183.862
1098.43	252.852
1102.13	391.342
1105.84	348.137
1109.54	253.393
1113.24	106.547
1116.93	21.697
1120.63	173.885
1124.32	228.165
1128.01	292.979
1131.7	381.318
1135.39	237.256
1139.08	82.996
1142.76	17.421
1146.45	44.493
1150.13	225.342
1153.81	255.65
1157.48	227.974
1161.16	244.677
1164.84	111.018
1168.51	10.857
1172.18	6.857
1175.85	98.958
1179.52	234.583
1183.18	309.985
1186.85	255.128
1190.51	170.05
1194.17	74.777
1197.83	60.673
1201.48	76.431
1205.14	47.483
1208.79	91.213
1212.44	254.752
1216.09	258.103
1219.74	271.233
1223.39	54.184
1227.03	46.971
1230.68	109.601
1234.32	32.077
1237.96	204.316
1241.6	216.32
1245.23	378.127
1248.87	299.751
1252.5	241.187
1256.13	112.371
1259.76	25.951
1263.39	4.723
1267.02	90.52
1270.64	270.946
1274.26	430.884
1277.88	360.581
1281.5	199.757
1285.12	62.825
1288.74	20.202
1292.35	34.17
1295.96	18.173
1299.57	185.19
1303.18	378.456
1306.79	356.846
1310.4	504.7
1314	510.799
1317.6	396.89
1321.2	373.663
1324.8	319.787
1328.4	253.005
1331.99	378.742
1335.59	633.248
1339.18	709.173
1342.77	870.52
1346.36	920.394
1349.95	1096.22
1353.53	1161.8
1357.12	1666.91
1360.7	2332.85
1364.28	2906.28
1367.86	2633
1371.44	2379.34
1375.01	2517.73
1378.59	2408.26
1382.16	1724.34
1385.73	1268.22
1389.3	684.928
1392.87	259.676
1396.43	80.175
1399.99	35.057
1403.56	178.136
1407.12	234.903
1410.68	402.572
1414.23	558.108
1417.79	563.594
1421.34	369.061
1424.9	364.64
1428.45	290.225
1431.99	66.127
1435.54	57.807
1439.09	88.367
1442.63	294.594
1446.17	360.738
1449.71	567.173
1453.26	723.771
1456.79	820.674
1460.33	861.206
1463.86	763.324
1467.39	711.057
1470.92	634.756
1474.45	481.953
1477.98	615.192
1481.51	640.839
1485.03	584.215
1488.56	727.628
1492.08	621.979
1495.6	598.6
1499.11	450.637
1502.63	519.432
1506.14	329.066
1509.66	258.808
1513.17	0
