Measurement: Raman, 514 nm, ccw, Raman Data Processed
Mineral: Cerussite
Rruff sample: R050298
Ideal chemistry: PbCO_3_
Locality: Bunker Hill mine, Shoshone County, Idaho, USA
Source: Eugene Schlepp
Description: Group of colorless tabular crystals
Measured chemistry: Pb_1.00_CO_3_
Pin_id: L01724
Orientation: Laser parallel to c* (0 0 1). Fiducial mark perpendicular to laser is parallel to a [1 0 0]
Raman shift (cm-1)	intensity
51.431	0
56.387	12.1253
61.341	46.0306
66.292	1494.69
71.241	5641.5
76.187	7296.4
81.131	4876.47
86.072	3572.46
91.012	3492.79
95.948	3838.54
100.883	4553.51
105.815	5306.8
110.744	6078.92
115.671	7475.91
120.596	8681.59
125.519	7189.72
130.439	5885.43
135.356	5138.77
140.271	3894.42
145.184	3028.26
150.094	2685.83
155.002	2468.92
159.908	1901.24
164.811	1593.51
169.711	1507.69
174.61	1665.1
179.505	1706.9
184.399	1510.06
189.29	1392.51
194.178	1447.06
199.064	1752.83
203.948	1924.11
208.829	2423.64
213.708	3018.35
218.585	3217.97
223.459	3218.46
228.33	3158.6
233.199	2599.03
238.066	1770.16
242.93	1310.12
247.792	971.774
252.651	639.809
257.508	498.317
262.363	315.559
267.215	259.632
272.064	95.8667
276.912	177.673
281.756	148.429
286.598	145.547
291.438	61.2734
296.276	56.4829
301.111	10.7307
305.943	63.8508
310.773	25.1575
315.601	62.2327
320.426	33.2554
325.248	15.3369
330.068	3.30151
334.886	47.6431
339.701	36.5098
344.514	44.7778
349.324	17.8528
354.132	96.584
358.938	41.2341
363.741	30.7637
368.541	23.9236
373.339	36.5168
378.135	24.8538
382.928	49.8013
387.718	45.0361
392.506	61.3784
397.292	3.86499
402.075	138.159
406.856	108.255
411.634	140.544
416.41	170.268
421.183	119.92
425.954	93.8347
430.722	126.115
435.488	115.291
440.251	252.84
445.012	114.843
449.77	148.554
454.526	114.381
459.28	177.283
464.03	223.469
468.779	139.228
473.525	152.467
478.268	191.237
483.009	147.964
487.747	187.567
492.483	155.936
497.217	136.158
501.948	154.513
506.676	198.888
511.402	198.326
516.125	151.536
520.846	105.088
525.565	137.234
530.281	128.446
534.994	117.269
539.705	3.53565
544.413	81.8198
549.119	72.1079
553.822	63.3438
558.523	147.648
563.222	0.129395
567.917	126.199
572.611	146.294
577.302	40.2988
581.99	120.553
586.676	106.007
591.359	93.4326
596.04	49.6025
600.718	84.8926
605.394	168.466
610.067	134.75
614.737	168.204
619.406	148.968
624.071	101.245
628.734	224.041
633.395	97.3452
638.053	203.041
642.708	158.36
647.361	50.3706
652.012	66.5005
656.66	64.5996
661.305	103.945
665.948	191.782
670.588	634.915
675.226	863.303
679.861	377.928
684.494	212.026
689.124	33.0557
693.752	140.716
698.377	196.258
702.999	10.3721
707.619	30.8501
712.237	88.2788
716.852	42.397
721.464	47.5
726.074	44.1333
730.681	103.03
735.286	70.8603
739.888	119.457
744.488	54.311
749.085	69.063
753.68	98.4341
758.272	34.1543
762.861	68.1802
767.448	134.24
772.033	35.0391
776.614	15.3003
781.194	12.9512
785.77	29.6396
790.345	40.4434
794.916	36.811
799.485	4.97217
804.052	57.2656
808.616	6.48096
813.177	61.7148
817.736	31.3765
822.292	112.814
826.846	122.476
831.397	178.757
835.945	489.947
840.491	1064.8
845.035	254.726
849.576	132.314
854.114	99.4307
858.65	80.6987
863.183	106.855
867.713	57.9863
872.241	107.106
876.767	35.1914
881.29	19.2529
885.81	113.543
890.328	91.5757
894.843	82.3706
899.356	99.8076
903.866	10.8003
908.373	28.3306
912.878	122.439
917.38	2.85986
921.88	16.9062
926.377	117.443
930.872	121.162
935.364	99.9961
939.853	30.7842
944.34	119.222
948.824	63.0923
953.306	123.001
957.785	135.599
962.261	4.92481
966.735	58.2012
971.207	86.4873
975.675	102.718
980.141	95.9048
984.605	113.034
989.066	19.9551
993.524	137.043
997.98	182.922
1002.43	94.7363
1006.88	151.485
1011.33	62.7754
1015.78	172.417
1020.22	171.477
1024.66	133.488
1029.1	216.331
1033.53	352.698
1037.97	223.463
1042.4	424.587
1046.82	1474.85
1051.25	12183.7
1055.67	52938.7
1060.09	8802.42
1064.51	773.545
1068.92	259.646
1073.33	175.276
1077.74	147.042
1082.15	173.893
1086.55	91.8579
1090.95	83.8359
1095.35	191.331
1099.75	153.026
1104.14	124.594
1108.53	112.627
1112.92	80.5762
1117.31	151.172
1121.69	141.795
1126.07	151.502
1130.45	155.132
1134.82	174.688
1139.19	100.172
1143.57	70.5952
1147.93	59.9121
1152.3	16.8789
1156.66	7.97998
1161.02	66.9644
1165.38	7.16064
1169.73	8.62207
1174.08	34.3643
1178.43	31.9311
1182.78	49.3628
1187.12	75.3716
1191.46	101.378
1195.8	64.3506
1200.14	80.5327
1204.47	103.204
1208.8	52.7661
1213.13	56.2905
1217.46	124.822
1221.78	31.4106
1226.1	20.0747
1230.42	4.38428
1234.73	55.085
1239.04	35.4141
1243.35	49.0727
1247.66	17.5986
1251.97	124.142
1256.27	84.7407
1260.57	26.3814
1264.86	83.0693
1269.16	39.8306
1273.45	127.711
1277.74	215.549
1282.03	295.526
1286.31	173.841
1290.59	155.001
1294.87	400.178
1299.14	399.455
1303.42	377.698
1307.69	416.678
1311.95	489.861
1316.22	649.757
1320.48	657.705
1324.74	807.755
1329	810.001
1333.26	900.345
1337.51	981.704
1341.76	1092.77
1346	1422.57
1350.25	1783.9
1354.49	2813.02
1358.73	4307.36
1362.96	5463.83
1367.2	5195.48
1371.43	3695.32
1375.66	2476.13
1379.88	1674.37
1384.11	1210.82
1388.33	650.481
1392.54	416.37
1396.76	328.965
1400.97	262.927
1405.18	148.226
1409.39	298.204
1413.59	442.608
1417.8	245.249
1421.99	200.201
1426.19	344.015
1430.38	392.008
1434.58	232.28
1438.77	297.759
1442.95	292.372
1447.13	306.902
1451.32	429.975
1455.49	491.736
1459.67	579.875
1463.84	790.41
1468.01	804.536
1472.18	1127.05
1476.35	1045.73
1480.51	1157.35
1484.67	1046.07
1488.83	778.924
1492.98	630.108
1497.13	466.608
1501.28	250.524
1505.43	240.794
1509.57	149.388
1513.71	69.5762
1517.85	90.4785
1521.99	50.8945
1526.12	59.4697
1530.25	117.617
1534.38	1.6709
1538.5	156.273
1542.62	134.607
1546.74	69.9394
1550.86	160.75
1554.98	88.0352
1559.09	36.706
1563.2	5.05762
1567.31	96.3769
