Measurement: Raman, 514 nm, ccw, Raman Data Processed
Mineral: Cerussite
Rruff sample: R050174
Ideal chemistry: PbCO_3_
Locality: Tsumeb mine, Tsumeb, Otavi District, Oshikoto, Namibia
Source: Marcus Origlieri
Description: Colorless single crystal
Measured chemistry: Pb_1.00_CO_3_ ; C not measured but estimated by difference and stoichiometry
Pin_id: L00917
Orientation: Laser parallel to a* (1 0 0). Fiducial mark perpendicular to laser is parallel to -b [0 -1 0]
Raman shift (cm-1)	intensity
51.431	0
56.387	44.959
61.341	10.6934
66.292	48.138
71.241	86.1973
76.187	240.365
81.131	454.479
86.072	862.284
91.012	1399.6
95.948	1971.21
100.883	2873.71
105.815	3330.68
110.744	2455.84
115.671	2172.96
120.596	2640.84
125.519	4020.38
130.439	6594.59
135.356	8308.16
140.271	6431.45
145.184	4663.6
150.094	3801.59
155.002	3112.52
159.908	2446.28
164.811	1890.85
169.711	1772.33
174.61	1763.49
179.505	1718.25
184.399	1357.6
189.29	1100.25
194.178	958.084
199.064	899.864
203.948	774.825
208.829	627.921
213.708	577.221
218.585	547.563
223.459	521.084
228.33	450.999
233.199	505.155
238.066	461.481
242.93	465.104
247.792	462.548
252.651	359.076
257.508	264.183
262.363	186.865
267.215	193.41
272.064	150.47
276.912	120.159
281.756	133.64
286.598	86.6598
291.438	77.3751
296.276	51.7383
301.111	52.322
305.943	41.5874
310.773	12.8904
315.601	21.167
320.426	12.3336
325.248	3.44568
330.068	6.86292
334.886	1.4397
339.701	8.26868
344.514	14.6975
349.324	8.96533
354.132	22.9861
358.938	13.1321
363.741	38.428
368.541	41.15
373.339	14.6855
378.135	12.9882
382.928	1.5697
387.718	16.5044
392.506	2.16748
397.292	0.185791
402.075	3.2616
406.856	14.4845
411.634	17.273
416.41	34.335
421.183	15.7289
425.954	4.92444
430.722	52.8029
435.488	58.5117
440.251	16.0814
445.012	31.5575
449.77	63.9616
454.526	14.6422
459.28	24.9814
464.03	41.6825
468.779	40.6497
473.525	53.6864
478.268	75.1969
483.009	86.2548
487.747	109.091
492.483	70.3247
497.217	67.9871
501.948	4.99243
506.676	54.6659
511.402	67.6428
516.125	94.3608
520.846	19.632
525.565	68.8027
530.281	31.2438
534.994	56.4582
539.705	23.3023
544.413	28.7504
549.119	50.5914
553.822	23.076
558.523	25.3308
563.222	92.7577
567.917	43.6179
572.611	31.7158
577.302	24.3036
581.99	32.807
586.676	40.1114
591.359	56.5094
596.04	31.7537
600.718	61.704
605.394	54.7281
610.067	51.6194
614.737	14.4955
619.406	13.4357
624.071	58.3716
628.734	83.0703
633.395	58.7681
638.053	34.4512
642.708	21.0756
647.361	25.6959
652.012	67.2675
656.66	54.8348
661.305	66.8697
665.948	57.7977
670.588	35.8003
675.226	169.739
679.861	86.5582
684.494	196.817
689.124	67.3057
693.752	182.302
698.377	167.024
702.999	34.9023
707.619	41.602
712.237	19.6339
716.852	8.39685
721.464	48.8131
726.074	82.0143
730.681	56.2352
735.286	104.094
739.888	44.2899
744.488	80.8894
749.085	67.7056
753.68	37.3981
758.272	0.758789
762.861	27.524
767.448	40.4019
772.033	47.5244
776.614	49.8706
781.194	73.1873
785.77	43.239
790.345	28.2866
794.916	15.0682
799.485	61.9186
804.052	31.4834
808.616	55.1843
813.177	86.0125
817.736	53.1773
822.292	103.418
826.846	264.674
831.397	355.13
835.945	1376.54
840.491	4067.17
845.035	558.449
849.576	144.843
854.114	92.5558
858.65	41.8706
863.183	41.1272
867.713	42.4576
872.241	0.189087
876.767	24.1766
881.29	13.5779
885.81	12.9972
890.328	60.4409
894.843	19.6565
899.356	39.0745
903.866	54.5845
908.373	22.9268
912.878	7.56128
917.38	81.134
921.88	54.7151
926.377	33.3021
930.872	55.8932
935.364	61.4471
939.853	34.0367
944.34	14.6929
948.824	39.4209
953.306	42.1589
957.785	3.11731
962.261	10.6626
966.735	67.405
971.207	62.1233
975.675	56.8143
980.141	55.516
984.605	11.2119
989.066	19.8967
993.524	43.5613
997.98	21.3185
1002.43	49.1572
1006.88	68.6925
1011.33	62.6442
1015.78	87.2669
1020.22	92.7827
1024.66	33.3121
1029.1	116.041
1033.53	301.906
1037.97	137.507
1042.4	326.451
1046.82	707.215
1051.25	4087.96
1055.67	60116.2
1060.09	4562.5
1064.51	559.394
1068.92	254.146
1073.33	115.378
1077.74	106.425
1082.15	89.3801
1086.55	84.9513
1090.95	110.213
1095.35	121.389
1099.75	111.187
1104.14	67.9891
1108.53	92.6462
1112.92	105.952
1117.31	98.5017
1121.69	90.6462
1126.07	48.5669
1130.45	43.0259
1134.82	23.2484
1139.19	62.3375
1143.57	66.8762
1147.93	25.7001
1152.3	4.41882
1156.66	46.9956
1161.02	21.422
1165.38	4.27905
1169.73	60.8579
1174.08	19.0959
1178.43	43.7006
1182.78	17.3119
1187.12	14.8207
1191.46	12.7671
1195.8	12.5264
1200.14	2.24365
1204.47	1.85254
1208.8	10.2446
1213.13	40.5708
1217.46	44.2556
1221.78	16.2061
1226.1	8.76123
1230.42	5.61255
1234.73	30.948
1239.04	22.2356
1243.35	35.4548
1247.66	34.386
1251.97	19.6995
1256.27	20.7752
1260.57	47.7126
1264.86	60.3513
1269.16	62.5601
1273.45	67.1819
1277.74	70.012
1282.03	10.3184
1286.31	21.3852
1290.59	28.019
1294.87	38.5767
1299.14	56.1694
1303.42	32.5437
1307.69	61.3652
1311.95	80.9514
1316.22	71.1052
1320.48	41.4944
1324.74	31.074
1329	74.5173
1333.26	100.357
1337.51	30.3892
1341.76	4.55054
1346	45.666
1350.25	47.0928
1354.49	156.279
1358.73	327.66
1362.96	356.658
1367.2	442.318
1371.43	590.105
1375.66	705.982
1379.88	737.702
1384.11	445.62
1388.33	258.14
1392.54	230.487
1396.76	115.088
1400.97	189.383
1405.18	242.54
1409.39	446.996
1413.59	555.791
1417.8	697.074
1421.99	697.548
1426.19	743.539
1430.38	758.079
1434.58	786.282
1438.77	873.196
1442.95	1169.49
1447.13	1247.55
1451.32	1669.02
1455.49	2149.91
1459.67	2752.3
1463.84	3368.18
1468.01	4021.48
1472.18	4617.23
1476.35	4973.5
1480.51	5016.23
1484.67	4400.42
1488.83	3581.13
1492.98	2527.32
1497.13	1750.95
1501.28	1140.97
1505.43	849.286
1509.57	547.769
1513.71	437.822
1517.85	303.76
1521.99	215.628
1526.12	199.485
1530.25	63.4099
1534.38	110.511
1538.5	120.986
1542.62	43.2334
1546.74	5.29736
1550.86	22.8777
1554.98	67.5491
1559.09	1.38013
1563.2	30.99
1567.31	47.9456
