Measurement: Raman, 514 nm, ccw, Raman Data Processed
Mineral: Cerussite
Rruff sample: R060017
Ideal chemistry: PbCO_3_
Locality: Gonessa, Sardinia, Italy
Source: American Museum of Natural History
Description: White reticulated composite
Measured chemistry: Pb_1.00_CO_3_ C not measured but estimated by difference and stoichiometry
Pin_id: M00240
Orientation: Laser parallel to b* (0 1 0). Fiducial mark perpendicular to laser is parallel to c [0 0 1]
Raman shift (cm-1)	intensity
51.431	0
56.387	22.3632
61.341	716.332
66.292	4385.28
71.241	7740.07
76.187	6060.65
81.131	4692.98
86.072	4826.65
91.012	6480.02
95.948	8145.94
100.883	9733.36
105.815	10446.3
110.744	11201.6
115.671	12227.5
120.596	11237.8
125.519	9194.52
130.439	7705.55
135.356	6132.93
140.271	4953.68
145.184	4208.38
150.094	3695.82
155.002	2823.99
159.908	2330.84
164.811	2088.01
169.711	2289.09
174.61	2175.96
179.505	2049.2
184.399	1862.18
189.29	1917.32
194.178	2244.36
199.064	2688.7
203.948	3283.84
208.829	3851.53
213.708	4167.15
218.585	4310.13
223.459	4075.67
228.33	3482.88
233.199	2430.35
238.066	1752.72
242.93	1350
247.792	892.378
252.651	584.565
257.508	476.885
262.363	224.739
267.215	160.212
272.064	86.8638
276.912	47.6804
281.756	19.2346
286.598	4.36816
291.438	50.1296
296.276	46.636
301.111	122.823
305.943	26.2127
310.773	57.0723
315.601	73.2644
320.426	23.0371
325.248	90.376
330.068	88.5181
334.886	60.0305
339.701	74.8755
344.514	10.9509
349.324	11.918
354.132	32.6892
358.938	7.46362
363.741	3.60474
368.541	34.823
373.339	0.374268
378.135	112.106
382.928	135.504
387.718	94.1311
392.506	131.338
397.292	100.603
402.075	96.3884
406.856	94.4741
411.634	176.732
416.41	161.348
421.183	238.514
425.954	145.137
430.722	247.382
435.488	315.882
440.251	194.695
445.012	212.9
449.77	286.251
454.526	238.273
459.28	274.194
464.03	253.05
468.779	233.943
473.525	303.793
478.268	251.179
483.009	190.223
487.747	274.83
492.483	156.217
497.217	147.511
501.948	194.191
506.676	199.973
511.402	67.2212
516.125	147.526
520.846	55.6924
525.565	136.471
530.281	191.074
534.994	20.1777
539.705	98.9106
544.413	71.8076
549.119	119.796
553.822	102.616
558.523	56.2749
563.222	40.4302
567.917	78.1133
572.611	63.3872
577.302	45.8984
581.99	193.395
586.676	172.362
591.359	68.4541
596.04	41.3486
600.718	105.278
605.394	45.6977
610.067	108.872
614.737	102.933
619.406	90.8794
624.071	136.51
628.734	116.112
633.395	72.3633
638.053	106.03
642.708	66.5425
647.361	89.8237
652.012	23.6577
656.66	83.5981
661.305	291.449
665.948	713.552
670.588	839.486
675.226	524.405
679.861	571.836
684.494	232.889
689.124	66.5312
693.752	134.909
698.377	33.9477
702.999	11.0815
707.619	66.7573
712.237	64.1768
716.852	191.083
721.464	93.4033
726.074	156.666
730.681	161.418
735.286	62.8003
739.888	106.721
744.488	121.769
749.085	0.815918
753.68	2.18603
758.272	57.5645
762.861	135.199
767.448	87.0791
772.033	21.8213
776.614	60.7139
781.194	118.148
785.77	119.756
790.345	94.1636
794.916	85.3921
799.485	57.7769
804.052	37.0029
808.616	131.011
813.177	167.84
817.736	102.958
822.292	145.644
826.846	384.149
831.397	773.083
835.945	1292.38
840.491	624.415
845.035	159.059
849.576	48.7739
854.114	137.53
858.65	133.002
863.183	81.4263
867.713	100.809
872.241	125.107
876.767	105.396
881.29	124.464
885.81	39.2554
890.328	143.439
894.843	110.863
899.356	57.9678
903.866	57.7812
908.373	146.474
912.878	58.1172
917.38	36.1069
921.88	78.5151
926.377	82.1421
930.872	89.7842
935.364	111.173
939.853	74.9282
944.34	45.124
948.824	12.2114
953.306	48.3105
957.785	7.15527
962.261	152.9
966.735	64.521
971.207	74.0371
975.675	135.901
980.141	113.389
984.605	151.604
989.066	154.417
993.524	165.503
997.98	177.25
1002.43	119.306
1006.88	220.358
1011.33	127.69
1015.78	106.891
1020.22	200.777
1024.66	321.088
1029.1	400.79
1033.53	440.493
1037.97	487.459
1042.4	1730.25
1046.82	15950.8
1051.25	52415.4
1055.67	24581.2
1060.09	1418.47
1064.51	689.727
1068.92	331.42
1073.33	324.783
1077.74	230.059
1082.15	220.855
1086.55	174.535
1090.95	105.048
1095.35	65.395
1099.75	63.0239
1104.14	211.239
1108.53	159.076
1112.92	214.595
1117.31	251.008
1121.69	86.1602
1126.07	188.372
1130.45	45.3984
1134.82	77.2319
1139.19	65.9014
1143.57	3.32324
1147.93	55.5083
1152.3	87.7251
1156.66	54.5361
1161.02	31.061
1165.38	93.4043
1169.73	19.3906
1174.08	25.5117
1178.43	48.895
1182.78	2.3291
1187.12	47.394
1191.46	20.1128
1195.8	54.6016
1200.14	28.0151
1204.47	10.2969
1208.8	1.50049
1213.13	7.1167
1217.46	14.5884
1221.78	65.6431
1226.1	88.355
1230.42	30.8755
1234.73	20.5918
1239.04	83.6499
1243.35	76.6841
1247.66	77.2925
1251.97	71.2246
1256.27	105.204
1260.57	107.602
1264.86	92.2373
1269.16	93.3867
1273.45	145.97
1277.74	156.282
1282.03	275.47
1286.31	188.565
1290.59	314.053
1294.87	350.842
1299.14	452.853
1303.42	572.746
1307.69	610.285
1311.95	579.641
1316.22	685.717
1320.48	826.953
1324.74	897.598
1329	942.911
1333.26	1036.82
1337.51	1262.58
1341.76	1388.92
1346	1933.07
1350.25	2815.04
1354.49	4237.15
1358.73	5532.13
1362.96	5786.31
1367.2	5250.54
1371.43	4731.11
1375.66	4089.03
1379.88	2886.3
1384.11	1765.93
1388.33	1005.95
1392.54	727.357
1396.76	558.183
1400.97	305.509
1405.18	556.314
1409.39	534.185
1413.59	635.173
1417.8	542.32
1421.99	554.487
1426.19	645.313
1430.38	643.87
1434.58	600.812
1438.77	525.439
1442.95	685.929
1447.13	896.185
1451.32	911.133
1455.49	1292.73
1459.67	1522.03
1463.84	1856.04
1468.01	2100.86
1472.18	2362.78
1476.35	2382.57
1480.51	2173.47
1484.67	1695.08
1488.83	1477.41
1492.98	922.378
1497.13	523.858
1501.28	509.924
1505.43	305.526
1509.57	119.52
1513.71	212.402
1517.85	268.551
1521.99	130
1526.12	118.808
1530.25	72.0635
1534.38	5.09961
1538.5	123.59
1542.62	25.5908
1546.74	100.384
1550.86	125.454
1554.98	143.241
1559.09	61.0352
1563.2	31.6455
1567.31	68.5381
