Measurement: Raman, 514 nm, ccw, Raman Data Processed
Mineral: Cerussite
Rruff sample: R050298
Ideal chemistry: PbCO_3_
Locality: Bunker Hill mine, Shoshone County, Idaho, USA
Source: Eugene Schlepp
Description: Group of colorless tabular crystals
Measured chemistry: Pb_1.00_CO_3_
Pin_id: L01888
Orientation: Laser parallel to b* (0 1 0). Fiducial mark perpendicular to laser is parallel to -c [0 0 -1]
Raman shift (cm-1)	intensity
51.431	0
56.387	79.7882
61.341	17.6209
66.292	334.321
71.241	1505.07
76.187	2971.2
81.131	2663.38
86.072	2923.98
91.012	4519.57
95.948	7700.96
100.883	15610
105.815	26439.3
110.744	15147
115.671	6507.48
120.596	4259.75
125.519	4150.56
130.439	5402.68
135.356	6701.81
140.271	6493.62
145.184	6881.37
150.094	7949.88
155.002	7237.07
159.908	4867.09
164.811	3242.57
169.711	2646.45
174.61	2455.67
179.505	2628.06
184.399	2362.55
189.29	1789.02
194.178	1362.04
199.064	1357.52
203.948	1449.38
208.829	1631.78
213.708	1869.33
218.585	1835.11
223.459	1411.24
228.33	1016.76
233.199	771.429
238.066	580.014
242.93	489.432
247.792	339.769
252.651	317.922
257.508	280.633
262.363	198.865
267.215	194.637
272.064	95.6023
276.912	113.966
281.756	190.499
286.598	127.207
291.438	77.1309
296.276	7.66772
301.111	18.7766
305.943	51.177
310.773	46.1043
315.601	13.926
320.426	52.3086
325.248	85.3984
330.068	44.3799
334.886	2.47583
339.701	6.23877
344.514	3.81006
349.324	7.71411
354.132	47.9641
358.938	7.74585
363.741	6.91382
368.541	11.1003
373.339	20.8125
378.135	59.2512
382.928	39.6497
387.718	45.4456
392.506	37.9448
397.292	45.1616
402.075	42.7812
406.856	52.023
411.634	26.6218
416.41	82.2644
421.183	64.8777
425.954	47.0369
430.722	134.127
435.488	74.175
440.251	113.626
445.012	131.496
449.77	86.9285
454.526	129.613
459.28	85.3765
464.03	68.8101
468.779	98.5854
473.525	72.6865
478.268	86.3591
483.009	154.193
487.747	103.609
492.483	168.578
497.217	90.6655
501.948	120.37
506.676	113.522
511.402	74.689
516.125	100.128
520.846	35.4724
525.565	66.8931
530.281	43.9595
534.994	85.8748
539.705	40.8826
544.413	57.7773
549.119	122.897
553.822	2.01978
558.523	15.1077
563.222	89.416
567.917	61.3235
572.611	84.6519
577.302	75.9124
581.99	23.8113
586.676	46.0855
591.359	76.3945
596.04	65.0215
600.718	86.4497
605.394	32.0784
610.067	31.4031
614.737	90.6401
619.406	144.493
624.071	99.7727
628.734	176.473
633.395	5.62939
638.053	95.971
642.708	56.3123
647.361	52.7241
652.012	29.6853
656.66	92.4009
661.305	13.2732
665.948	90.2615
670.588	107.527
675.226	598.755
679.861	625.314
684.494	3112.96
689.124	340.56
693.752	79.0569
698.377	95.0005
702.999	0.172119
707.619	21.8535
712.237	30.9751
716.852	29.5877
721.464	20.2827
726.074	154.917
730.681	90.0215
735.286	39.8965
739.888	19.8518
744.488	29.6421
749.085	70.5779
753.68	6.53442
758.272	49.0732
762.861	57.2056
767.448	74.3025
772.033	59.3543
776.614	81.2373
781.194	8.0542
785.77	57.448
790.345	55.2117
794.916	19.113
799.485	70.7461
804.052	41.3306
808.616	16.7583
813.177	87.7566
817.736	114.495
822.292	120.111
826.846	162.901
831.397	179.681
835.945	780.499
840.491	2509.68
845.035	366.23
849.576	186.676
854.114	99.0122
858.65	85.654
863.183	70.5432
867.713	57.1599
872.241	2.19458
876.767	11.5425
881.29	81.9617
885.81	58.54
890.328	24.9861
894.843	4.4707
899.356	54.6065
903.866	0.993408
908.373	43.5232
912.878	57.0837
917.38	71.531
921.88	39.1311
926.377	4.75757
930.872	33.876
935.364	85.0176
939.853	51.5151
944.34	57.9477
948.824	132.315
953.306	11.2817
957.785	43.0354
962.261	40.2871
966.735	54.3533
971.207	67.6533
975.675	2.6106
980.141	27.5427
984.605	89.6045
989.066	49.4192
993.524	44.1069
997.98	60.748
1002.43	81.7876
1006.88	68.7229
1011.33	103.478
1015.78	37.4797
1020.22	80.3655
1024.66	120.429
1029.1	162.159
1033.53	388.735
1037.97	199.037
1042.4	332.728
1046.82	799.552
1051.25	4269.89
1055.67	61017.2
1060.09	5677.04
1064.51	601.29
1068.92	302.188
1073.33	223.233
1077.74	207.12
1082.15	134.89
1086.55	167.447
1090.95	109.019
1095.35	101.034
1099.75	58.5754
1104.14	118.281
1108.53	118.136
1112.92	97.279
1117.31	79.0371
1121.69	107.772
1126.07	67.9692
1130.45	87.6572
1134.82	41.05
1139.19	82.2249
1143.57	26.25
1147.93	35.8816
1152.3	35.8218
1156.66	54.4397
1161.02	1.9834
1165.38	14.5847
1169.73	49.3755
1174.08	11.5276
1178.43	28.2398
1182.78	40.8208
1187.12	36.813
1191.46	50.346
1195.8	42.0147
1200.14	32.5271
1204.47	27.5527
1208.8	126.527
1213.13	17.6448
1217.46	66.1746
1221.78	48.9902
1226.1	64.6885
1230.42	14.206
1234.73	15.0713
1239.04	51.5742
1243.35	82.261
1247.66	63.6882
1251.97	102.375
1256.27	14.0952
1260.57	122.858
1264.86	170.2
1269.16	134.422
1273.45	162.11
1277.74	101.234
1282.03	193.359
1286.31	227.562
1290.59	228.726
1294.87	353.499
1299.14	366.159
1303.42	256.217
1307.69	348.949
1311.95	481.213
1316.22	502.804
1320.48	548.19
1324.74	544.719
1329	510.376
1333.26	549.168
1337.51	594.145
1341.76	694.397
1346	716.66
1350.25	956.101
1354.49	1272.08
1358.73	1875.9
1362.96	2462.5
1367.2	3277.84
1371.43	4758.31
1375.66	6700.04
1379.88	6959.99
1384.11	4606.19
1388.33	2550.63
1392.54	1454.7
1396.76	968.394
1400.97	721.763
1405.18	496.478
1409.39	482.56
1413.59	532.721
1417.8	605.508
1421.99	501.673
1426.19	618.192
1430.38	505.174
1434.58	383.974
1438.77	432.903
1442.95	339.22
1447.13	233.161
1451.32	187.565
1455.49	233.345
1459.67	226.596
1463.84	193.356
1468.01	286.647
1472.18	181.511
1476.35	129.823
1480.51	197.593
1484.67	208.802
1488.83	64.3989
1492.98	153.422
1497.13	3.85059
1501.28	68.6812
1505.43	79.832
1509.57	24.209
1513.71	127.183
1517.85	10.9819
1521.99	21.6186
1526.12	74.1133
1530.25	87.5166
1534.38	23.0752
1538.5	145.488
1542.62	96.4922
1546.74	23.1411
1550.86	149.816
1554.98	77.1694
1559.09	2.03955
1563.2	60.852
1567.31	56.4531
