Measurement: Raman, 514 nm, ccw, Raman Data Processed
Mineral: Cerussite
Rruff sample: R050023
Ideal chemistry: PbCO_3_
Locality: Mammoth - St Anthony mine, Tiger, Pinal County, Arizona, USA
Source: Eugene Schlepp
Description: Prismatic white single crystals
Measured chemistry: Pb_1.00_CO_3_ ; CO_2_ not measured but estimated by difference and stoichiometry
Pin_id: L00220
Orientation: Laser parallel to b* (0 1 0). Fiducial mark perpendicular to laser is parallel to c [0 0 1]
Raman shift (cm-1)	intensity
51.717	0
55.942	26.872
60.165	58.429
64.386	2.182
68.604	32.177
72.82	196.559
77.034	281.624
81.246	375.227
85.455	546.537
89.663	751.978
93.868	1183.24
98.07	1929.08
102.271	2588.16
106.469	2219.22
110.665	1824.08
114.859	1775.61
119.05	1859.7
123.24	2558.3
127.427	3408.6
131.612	3891.59
135.794	3184.43
139.975	2281.67
144.153	1726.85
148.329	1502.14
152.503	1279.46
156.674	1087.85
160.843	893.303
165.011	788.833
169.175	827.429
173.338	810.087
177.499	798.799
181.657	927.557
185.813	1001.35
189.967	1084.59
194.119	1411.67
198.268	1744.77
202.415	2154.68
206.561	2626.09
210.703	3257.48
214.844	3415.79
218.983	2786.03
223.119	2043.21
227.253	1588.53
231.385	1224.06
235.515	966.399
239.643	833.249
243.768	729.322
247.891	580.899
252.012	506.388
256.131	448.428
260.248	373.167
264.363	297.932
268.475	208.753
272.585	211.892
276.693	191.885
280.799	154.763
284.903	151.762
289.005	123.729
293.104	80.593
297.201	81.449
301.296	43.492
305.389	58.298
309.48	27.135
313.569	30.752
317.655	6.297
321.74	17.794
325.822	4.246
329.902	0.635
333.98	3.981
338.056	2.748
342.129	23.466
346.201	20.294
350.27	5.166
354.337	1.167
358.402	12.242
362.465	2.556
366.526	4.65
370.585	12.451
374.642	13.983
378.696	22.26
382.748	34.18
386.799	8.302
390.847	2.541
394.893	4.804
398.936	5.532
402.978	25.913
407.018	25.284
411.055	22.033
415.091	23.141
419.124	26.115
423.155	45.061
427.184	25.957
431.211	24.664
435.236	22.263
439.259	37.792
443.28	29.366
447.298	35.631
451.315	46.458
455.329	36.579
459.341	28.527
463.352	54.364
467.36	46.101
471.366	57.74
475.37	66.28
479.372	72.725
483.371	62.075
487.369	65.006
491.365	74.28
495.358	67.214
499.35	52.637
503.339	73.225
507.326	50.381
511.311	47.873
515.295	65.851
519.276	55.35
523.255	33.876
527.232	27.409
531.207	19.288
535.179	38.972
539.15	24.055
543.119	15.148
547.086	14.935
551.05	2.862
555.013	10.329
558.973	6.331
562.932	18.389
566.888	3.463
570.842	11.049
574.795	23.343
578.745	20.905
582.693	28.891
586.639	23.721
590.583	31.589
594.525	14.122
598.465	2.89
602.403	28.63
606.339	4.725
610.273	2.325
614.205	25.524
618.135	61.069
622.063	70.514
625.989	66.952
629.912	59.354
633.834	85.858
637.754	85.324
641.671	36.739
645.587	3.161
649.501	32.949
653.412	18.403
657.322	10.615
661.23	20.865
665.135	11.072
669.039	110.18
672.94	819.37
676.84	494.461
680.738	271.471
684.633	198.398
688.527	37.257
692.418	8.855
696.308	3.334
700.195	9.293
704.081	6.048
707.964	7.131
711.846	7.161
715.726	13.857
719.603	39.01
723.479	74.717
727.352	87.368
731.224	58.608
735.094	56.763
738.961	33.211
742.827	32.256
746.691	12.747
750.552	39.852
754.412	36.02
758.27	38.204
762.125	23.735
765.979	34.791
769.831	37.181
773.681	26.328
777.529	21.482
781.375	36.617
785.219	35.744
789.06	22.909
792.901	16.257
796.739	33.363
800.575	7.65
804.409	13.366
808.241	15.362
812.071	30.268
815.899	23.793
819.726	21.856
823.55	58.908
827.372	26.985
831.193	127.029
835.011	678.074
838.828	1496.14
842.642	297.181
846.455	69.189
850.266	69.018
854.075	8.957
857.881	29.926
861.686	46.573
865.489	2.248
869.29	21.306
873.089	17.387
876.886	12.482
880.682	24.57
884.475	11.65
888.266	11.733
892.056	2.815
895.843	4.091
899.629	-1.054
903.413	2.096
907.194	11.177
910.974	25.277
914.752	15.306
918.528	3.651
922.302	25.371
926.074	8.384
929.844	19.388
933.613	13.383
937.379	21.374
941.144	16.359
944.906	32.342
948.667	9.311
952.426	19.787
956.183	22.74
959.938	24.518
963.691	0.455
967.442	0.352
971.191	23.167
974.939	12.051
978.684	19.926
982.428	19.792
986.169	3.647
989.909	30.491
993.647	19.326
997.383	46.151
1001.12	53.967
1004.85	54.776
1008.58	41.691
1012.31	77.481
1016.03	67.273
1019.76	82.828
1023.48	70.195
1027.2	174.951
1030.92	415.159
1034.64	221.004
1038.36	381.136
1042.07	580.306
1045.78	1338.18
1049.49	6926.26
1053.2	64603
1056.9	6213.55
1060.61	1087.69
1064.31	467.286
1068.01	300.436
1071.71	227.005
1075.41	162.542
1079.1	122.077
1082.79	88.075
1086.48	106.556
1090.17	117.751
1093.86	132.95
1097.55	83.401
1101.23	85.851
1104.91	76.29
1108.59	61.717
1112.27	62.015
1115.95	35.217
1119.62	52.581
1123.3	44.955
1126.97	44.286
1130.63	24.634
1134.3	16.932
1137.97	26.256
1141.63	25.584
1145.29	29.866
1148.95	30.155
1152.61	15.432
1156.27	17.688
1159.92	29.348
1163.57	24.872
1167.22	11.713
1170.87	17.383
1174.52	14.455
1178.16	13.478
1181.81	4.444
1185.45	10.433
1189.09	21.458
1192.73	27.532
1196.36	17.662
1200	18.169
1203.63	7.011
1207.26	27.849
1210.89	31.681
1214.52	28.542
1218.14	25.41
1221.77	9.284
1225.39	32.164
1229.01	6.95
1232.62	6.925
1236.24	38.781
1239.86	52.631
1243.47	44.478
1247.08	28.322
1250.69	17.164
1254.3	35.004
1257.9	60.843
1261.5	51.676
1265.11	65.532
1268.71	78.387
1272.3	88.245
1275.9	115.107
1279.49	96.974
1283.09	118.848
1286.68	113.731
1290.27	154.627
1293.86	163.536
1297.44	245.446
1301.03	251.267
1304.61	300.176
1308.19	335.4
1311.77	368.376
1315.34	379.704
1318.92	383.646
1322.49	389.673
1326.06	423.077
1329.63	497.424
1333.2	489.081
1336.77	459.451
1340.33	576.893
1343.89	620.2
1347.46	808.585
1351.02	1062.51
1354.57	1451.11
1358.13	1821.89
1361.68	2056.68
1365.23	1995.46
1368.79	2189.19
1372.33	2497.42
1375.88	2243.77
1379.43	1624.51
1382.97	1053.91
1386.51	659.012
1390.05	448.128
1393.59	319.264
1397.13	262.42
1400.66	250.597
1404.19	217.796
1407.72	224.025
1411.25	243.31
1414.78	260.725
1418.31	236.235
1421.83	281.839
1425.36	253.581
1428.88	225.553
1432.39	159.602
1435.91	169.682
1439.43	138.765
1442.94	97.865
1446.45	106.071
1449.96	119.422
1453.47	75.916
1456.98	99.57
1460.48	49.411
1463.99	52.466
1467.49	62.749
1470.99	67.276
1474.49	80.051
1477.99	57.123
1481.48	57.569
1484.97	51.458
1488.46	45.867
1491.95	29.895
1495.44	1.316
1498.93	28.444
1502.41	10.453
1505.9	0.586
1509.38	0.07
1512.86	0
