Measurement: Raman, 514 nm, ccw, Raman Data Processed
Mineral: Cerussite
Rruff sample: R060017
Ideal chemistry: PbCO_3_
Locality: Gonessa, Sardinia, Italy
Source: American Museum of Natural History
Description: White reticulated composite
Measured chemistry: Pb_1.00_CO_3_ C not measured but estimated by difference and stoichiometry
Pin_id: M00240
Orientation: Laser parallel to b* (0 1 0). Fiducial mark perpendicular to laser is parallel to c [0 0 1]
Raman shift (cm-1)	intensity
51.431	0
56.387	24.1379
61.341	70.8552
66.292	587.547
71.241	1395.76
76.187	2074.33
81.131	3216.83
86.072	5312.64
91.012	8610.52
95.948	10789.8
100.883	10799.8
105.815	8661.61
110.744	7391.92
115.671	8843.5
120.596	11055.4
125.519	12513
130.439	12008
135.356	10500.1
140.271	9221.61
145.184	8557.56
150.094	7389.8
155.002	6036.63
159.908	5017.56
164.811	5000.21
169.711	4935.46
174.61	4551.84
179.505	3829.29
184.399	2991.84
189.29	2577.7
194.178	2234.82
199.064	2123.08
203.948	1816.15
208.829	1770.34
213.708	1679.44
218.585	1563.95
223.459	1488.28
228.33	1453.81
233.199	1306.78
238.066	1307.81
242.93	1111.6
247.792	1029.44
252.651	756.514
257.508	645.086
262.363	453.965
267.215	243.16
272.064	389.999
276.912	169.972
281.756	280.482
286.598	172.014
291.438	82.4136
296.276	99.1665
301.111	144.831
305.943	98.3564
310.773	2.77637
315.601	8.27979
320.426	7.3291
325.248	67.0649
330.068	90.3306
334.886	123.784
339.701	17.6216
344.514	68.8257
349.324	28.5933
354.132	33.1084
358.938	11.6514
363.741	51.9644
368.541	62.3262
373.339	56.3906
378.135	84.2192
382.928	25.667
387.718	68.2935
392.506	35.23
397.292	11.356
402.075	34.6431
406.856	27.7783
411.634	60.0122
416.41	88.7861
421.183	12.3711
425.954	29.7656
430.722	99.9853
435.488	57.8696
440.251	103.707
445.012	56.98
449.77	111.955
454.526	33.4082
459.28	2.86572
464.03	250.468
468.779	52.062
473.525	76.0122
478.268	312.121
483.009	216.81
487.747	261.156
492.483	266.342
497.217	202.246
501.948	197.337
506.676	192.326
511.402	67.8716
516.125	180.844
520.846	178.192
525.565	122.469
530.281	228.414
534.994	205.383
539.705	222.15
544.413	118.075
549.119	151.011
553.822	186.062
558.523	169.149
563.222	238.578
567.917	137.825
572.611	115.384
577.302	169.794
581.99	22.4619
586.676	150.185
591.359	18.6006
596.04	173.033
600.718	65.2353
605.394	138.094
610.067	156.39
614.737	230.852
619.406	152.415
624.071	80.4766
628.734	149.418
633.395	216.803
638.053	149.245
642.708	128.713
647.361	166.37
652.012	109.477
656.66	161.623
661.305	80.6318
665.948	328.152
670.588	433.775
675.226	685.921
679.861	750.736
684.494	354.206
689.124	408.611
693.752	416.614
698.377	18.6523
702.999	41.5713
707.619	66.8994
712.237	28.0449
716.852	40.0244
721.464	120.603
726.074	95.791
730.681	31.8828
735.286	59.9912
739.888	128.375
744.488	40.9336
749.085	38.25
753.68	37.834
758.272	73.8672
762.861	30.4414
767.448	77.5019
772.033	109.281
776.614	164.38
781.194	7.23633
785.77	73.1826
790.345	181.713
794.916	97.3066
799.485	68.1191
804.052	172.515
808.616	122.228
813.177	239.69
817.736	234.973
822.292	397.142
826.846	1112.17
831.397	3643.44
835.945	3237.3
840.491	949.807
845.035	250.32
849.576	83.5244
854.114	176.875
858.65	62.2236
863.183	91.7559
867.713	19.7334
872.241	5.60352
876.767	17.8369
881.29	103.015
885.81	45.957
890.328	6.00879
894.843	119.956
899.356	9.90039
903.866	269.077
908.373	32.7422
912.878	56.4609
917.38	143.831
921.88	34.9522
926.377	33.8867
930.872	38.206
935.364	32.3594
939.853	11.0293
944.34	31.0693
948.824	33.8906
953.306	52.1953
957.785	98.5234
962.261	73.3603
966.735	9.55176
971.207	61.6143
975.675	206.537
980.141	101.4
984.605	124.297
989.066	124.054
993.524	138.815
997.98	175.256
1002.43	191.702
1006.88	176.289
1011.33	183.005
1015.78	67.9473
1020.22	149.452
1024.66	406.631
1029.1	532.537
1033.53	435.266
1037.97	644.912
1042.4	2113.24
1046.82	33376.4
1051.25	46767.7
1055.67	13733.5
1060.09	961.178
1064.51	311.215
1068.92	268.265
1073.33	293.79
1077.74	268.696
1082.15	201.364
1086.55	153.121
1090.95	275.107
1095.35	336.697
1099.75	95.916
1104.14	117.538
1108.53	167.96
1112.92	83.2451
1117.31	334.852
1121.69	333.272
1126.07	193.643
1130.45	175.399
1134.82	149.035
1139.19	108.39
1143.57	59.8447
1147.93	131.47
1152.3	239.957
1156.66	35.1201
1161.02	7.92188
1165.38	123.397
1169.73	3.36523
1174.08	150.44
1178.43	4.82715
1182.78	81.3711
1187.12	98.9805
1191.46	69.2022
1195.8	35.7383
1200.14	9.05469
1204.47	132.655
1208.8	143.606
1213.13	180.498
1217.46	40.4463
1221.78	127.991
1226.1	42.7588
1230.42	101.861
1234.73	19.8965
1239.04	84.7559
1243.35	209.296
1247.66	17.2324
1251.97	8.96484
1256.27	115.096
1260.57	301.528
1264.86	6.73242
1269.16	150.627
1273.45	23.3477
1277.74	148.673
1282.03	217.121
1286.31	124.499
1290.59	244.89
1294.87	160.822
1299.14	95.1025
1303.42	298.619
1307.69	178.9
1311.95	268.638
1316.22	242.747
1320.48	291.044
1324.74	229.087
1329	357.202
1333.26	394.037
1337.51	479.051
1341.76	506.287
1346	636.611
1350.25	943.758
1354.49	1451.33
1358.73	1978.61
1362.96	2506.1
1367.2	3202.03
1371.43	3882.2
1375.66	3986.58
1379.88	2713.57
1384.11	1346.49
1388.33	691.512
1392.54	558.045
1396.76	336.182
1400.97	576.496
1405.18	486.865
1409.39	693.889
1413.59	802.674
1417.8	756.283
1421.99	900.777
1426.19	847.291
1430.38	887.035
1434.58	980.199
1438.77	1067.27
1442.95	1328.78
1447.13	1423.28
1451.32	1927.48
1455.49	2603.34
1459.67	3181.04
1463.84	3742.85
1468.01	4217.53
1472.18	4645.24
1476.35	4676.23
1480.51	4224.64
1484.67	3413.14
1488.83	2550.8
1492.98	1734.52
1497.13	1110.24
1501.28	818.9
1505.43	411.305
1509.57	405.918
1513.71	250.783
1517.85	175.674
1521.99	211.728
1526.12	225.106
1530.25	96.9277
1534.38	63.457
1538.5	118.689
1542.62	120.975
1546.74	165.023
1550.86	169.516
1554.98	243.481
1559.09	183.312
1563.2	347.904
1567.31	138.756
