Measurement: Raman, 514 nm, ccw, Raman Data Processed
Mineral: Cerussite
Rruff sample: R050174
Ideal chemistry: PbCO_3_
Locality: Tsumeb mine, Tsumeb, Otavi District, Oshikoto, Namibia
Source: Marcus Origlieri
Description: Colorless single crystal
Measured chemistry: Pb_1.00_CO_3_ ; C not measured but estimated by difference and stoichiometry
Pin_id: L01652
Orientation: Laser parallel to -b* (0 -1 0). Fiducial mark perpendicular to laser is parallel to c [0 0 1]
Raman shift (cm-1)	intensity
51.431	0
56.387	36.6889
61.341	2.81262
66.292	17.1128
71.241	79.4276
76.187	186.647
81.131	431.97
86.072	955.679
91.012	1901.68
95.948	2932.94
100.883	3851.78
105.815	5316.41
110.744	3988.79
115.671	3043.43
120.596	3486.62
125.519	5025.37
130.439	7341.68
135.356	9054.28
140.271	7203.52
145.184	5109.56
150.094	3970.41
155.002	3183.96
159.908	2354.18
164.811	1805.01
169.711	1496.45
174.61	1348.09
179.505	1288.89
184.399	1136.59
189.29	988.44
194.178	795.561
199.064	782.717
203.948	744.422
208.829	577.139
213.708	547.939
218.585	504.592
223.459	487.011
228.33	414.955
233.199	397.924
238.066	396.018
242.93	384.737
247.792	281.115
252.651	260.879
257.508	230.682
262.363	189.377
267.215	164.046
272.064	133.556
276.912	101.969
281.756	101.101
286.598	86.3471
291.438	52.358
296.276	33.7867
301.111	54.5738
305.943	19.7002
310.773	44.5997
315.601	26.8948
320.426	45.3016
325.248	5.41596
330.068	7.93878
334.886	28.3536
339.701	14.2874
344.514	0.955505
349.324	0.513184
354.132	31.8265
358.938	8.92071
363.741	10.8097
368.541	3.69727
373.339	23.4037
378.135	11.4695
382.928	20.6608
387.718	14.8102
392.506	3.38489
397.292	0.641785
402.075	10.7507
406.856	10.9232
411.634	2.28565
416.41	34.8281
421.183	4.36713
425.954	19.1233
430.722	31.9477
435.488	63.9413
440.251	30.328
445.012	17.6407
449.77	45.9266
454.526	24.7581
459.28	41.1942
464.03	60.1201
468.779	67.3531
473.525	60.2866
478.268	86.822
483.009	90.6379
487.747	72.4136
492.483	69.0241
497.217	82.7051
501.948	55.3141
506.676	48.2361
511.402	62.3739
516.125	54.2923
520.846	37.3647
525.565	53.1979
530.281	67.3266
534.994	0.412231
539.705	18.9607
544.413	21.0072
549.119	47.9805
553.822	2.58008
558.523	0.214355
563.222	43.0646
567.917	15.4352
572.611	26.1181
577.302	26.6598
581.99	40.8791
586.676	54.6157
591.359	32.5167
596.04	5.34314
600.718	48.1739
605.394	34.9363
610.067	57.187
614.737	14.8373
619.406	62.5151
624.071	27.129
628.734	39.7302
633.395	44.2978
638.053	39.8419
642.708	17.3917
647.361	13.8645
652.012	43.3745
656.66	13.887
661.305	24.4007
665.948	45.9237
670.588	72.7859
675.226	250.622
679.861	157.755
684.494	706.7
689.124	98.658
693.752	21.7818
698.377	33.674
702.999	14.1479
707.619	6.21301
712.237	31.1838
716.852	22.0781
721.464	20.4947
726.074	34.9161
730.681	71.3008
735.286	55.2835
739.888	41.597
744.488	5.97705
749.085	41.4358
753.68	0.170532
758.272	13.338
762.861	36.208
767.448	49.113
772.033	24.1907
776.614	41.5366
781.194	34.1114
785.77	37.4103
790.345	45.6375
794.916	75.4955
799.485	8.7865
804.052	56.1947
808.616	52.5547
813.177	71.2571
817.736	87.7679
822.292	154.163
826.846	289.548
831.397	758.942
835.945	1584.4
840.491	4392.03
845.035	664.299
849.576	152.676
854.114	65.1173
858.65	38.5638
863.183	47.0057
867.713	34.4437
872.241	2.60785
876.767	33.0476
881.29	1.48199
885.81	29.3857
890.328	2.22308
894.843	37.2328
899.356	22.7099
903.866	32.2204
908.373	26.7595
912.878	19.696
917.38	29.8328
921.88	28.3666
926.377	57.9295
930.872	16.5038
935.364	6.06073
939.853	56.6243
944.34	25.1863
948.824	35.7361
953.306	25.2062
957.785	52.6559
962.261	42.4513
966.735	8.48285
971.207	37.864
975.675	4.21881
980.141	44.5637
984.605	55.9124
989.066	39.2001
993.524	58.4528
997.98	57.6694
1002.43	39.9927
1006.88	72.7229
1011.33	78.5697
1015.78	91.5779
1020.22	70.9548
1024.66	73.3674
1029.1	122.804
1033.53	385.702
1037.97	212.277
1042.4	444.374
1046.82	1733.2
1051.25	9061.83
1055.67	60651.6
1060.09	6023.07
1064.51	612.383
1068.92	229.333
1073.33	134.339
1077.74	153.607
1082.15	91.4457
1086.55	118.07
1090.95	105.104
1095.35	74.0939
1099.75	94.6226
1104.14	48.4729
1108.53	69.1554
1112.92	91.87
1117.31	47.4426
1121.69	56.0162
1126.07	50.5227
1130.45	54.9628
1134.82	23.3348
1139.19	21.6298
1143.57	22.8601
1147.93	3.9939
1152.3	24.0493
1156.66	17.0111
1161.02	26.8558
1165.38	8.41809
1169.73	33.8578
1174.08	6.46362
1178.43	35.8197
1182.78	17.9748
1187.12	29.1238
1191.46	18.88
1195.8	1.01843
1200.14	24.1311
1204.47	65.6271
1208.8	6.31885
1213.13	5.03332
1217.46	5.59436
1221.78	22.1997
1226.1	17.7899
1230.42	47.353
1234.73	21.8981
1239.04	16.4386
1243.35	0.020508
1247.66	58.4961
1251.97	30.0461
1256.27	16.6063
1260.57	46.5398
1264.86	63.6205
1269.16	62.6066
1273.45	79.4062
1277.74	76.2275
1282.03	84.8208
1286.31	77.916
1290.59	108.221
1294.87	161.573
1299.14	141.663
1303.42	164.393
1307.69	211.924
1311.95	231.705
1316.22	266.208
1320.48	290.346
1324.74	216.715
1329	316.166
1333.26	263.635
1337.51	266.32
1341.76	308.896
1346	398.356
1350.25	414.347
1354.49	695.444
1358.73	925.003
1362.96	1356.33
1367.2	1926.77
1371.43	2804.34
1375.66	4004.05
1379.88	4004.89
1384.11	2620.87
1388.33	1449.99
1392.54	897.263
1396.76	615.704
1400.97	434.685
1405.18	371.512
1409.39	354.535
1413.59	338.771
1417.8	410.819
1421.99	363.578
1426.19	390.624
1430.38	359.983
1434.58	330.634
1438.77	270.775
1442.95	214.133
1447.13	149.644
1451.32	131.955
1455.49	105.573
1459.67	164.483
1463.84	148.645
1468.01	196.083
1472.18	212.781
1476.35	131.747
1480.51	139.987
1484.67	151.51
1488.83	75.3013
1492.98	92.3726
1497.13	75.6879
1501.28	29.2434
1505.43	53.0007
1509.57	48.8889
1513.71	5.10779
1517.85	17.816
1521.99	31.0343
1526.12	2.20862
1530.25	18.1244
1534.38	2.08862
1538.5	5.77844
1542.62	19.3837
1546.74	21.7966
1550.86	22.7056
1554.98	32.9685
1559.09	7.06824
1563.2	4.11279
1567.31	0.093262
