Measurement: Raman, 514 nm, ccw, Raman Data Processed
Mineral: Chabazite-Ca
Rruff sample: R050075
Ideal chemistry: Ca_2_Al_4_Si_8_O_24_13H_2_O
Locality: Victoria, Australia
Source: Rock Currier
Description: White pseudohexagonal crystals
Measured chemistry: (Ca_0.79_Na_0.22_K_0.14_)_Σ=1.15_(Si_4.08_Al_1.92_)O_12_·6H_2_O
Pin_id: L00465
Orientation: Laser parallel to a* (1 0 0). Fiducial mark perpendicular to laser is parallel to c [0 0 1]
Raman shift (cm-1)	intensity
244.655	0
247.394	387.973
250.132	604.236
252.869	340.061
255.605	13.867
258.34	165.006
261.075	159.572
263.808	440.932
266.541	329.506
269.273	217.723
272.004	67.936
274.734	88.836
277.463	222.756
280.192	366.596
282.919	453.461
285.646	583.152
288.372	526.461
291.097	617.146
293.821	727.016
296.544	915.945
299.266	1131.98
301.988	1217.17
304.709	1313.47
307.428	1380.81
310.147	1648.06
312.865	2057.14
315.583	2846.98
318.299	3410.53
321.015	3836.72
323.729	4075.51
326.443	4647.85
329.156	5102.49
331.868	5628.26
334.579	5888.08
337.29	5414.01
339.999	4775.09
342.708	4276.27
345.416	3971.85
348.123	3483.26
350.829	2825.02
353.534	2531.75
356.239	1964.36
358.942	1576.58
361.645	1657.46
364.347	1506.04
367.048	1495.06
369.748	1225.16
372.448	905.352
375.146	717.625
377.844	921.98
380.54	1034.43
383.236	1167
385.932	1061.7
388.626	966.527
391.319	911.471
394.012	1350.52
396.704	1594.65
399.394	1595.86
402.084	1650.14
404.774	1829.5
407.462	2038.49
410.15	2604.75
412.836	2888.4
415.522	3427.47
418.207	3841.21
420.891	4413.99
423.575	5417.45
426.257	6845.44
428.939	8272.14
431.619	9888.08
434.299	11474.2
436.978	13603.7
439.657	16754.4
442.334	19776.5
445.011	23112.3
447.687	26312.3
450.361	29277.7
453.036	31520
455.709	33292.6
458.381	35255.3
461.053	35750.4
463.724	35570.5
466.394	35063.8
469.063	35934.6
471.731	37492.6
474.398	39779.7
477.065	41025
479.731	40511.1
482.396	39385
485.06	37518
487.723	33793.3
490.385	29172.1
493.047	24624.2
495.708	20066
498.368	16669.9
501.027	14017.8
503.685	11663.8
506.342	9311.83
508.999	7634.9
511.655	6139.27
514.31	5254.97
516.964	4501.57
519.617	3877.92
522.27	3146.45
524.921	2688.65
527.572	2114.19
530.222	2119.52
532.871	1884.71
535.52	1600.58
538.167	1419.68
540.814	1053.54
543.46	1065.39
546.105	913.252
548.749	816.123
551.393	522.982
554.035	357.822
556.677	156.678
559.318	357.523
561.958	455.309
564.597	280.074
567.236	108.855
569.874	5.664
572.511	213.422
575.147	316.162
577.782	147.891
580.416	199.615
583.05	142.295
585.683	321.916
588.315	290.471
590.946	209.947
593.576	97.344
596.206	41.67
598.834	30.893
601.462	39.971
604.089	3.189
606.715	215.627
609.341	224.492
611.965	126.871
614.589	111.217
617.212	0.912
619.834	152.729
622.456	214.775
625.076	94.275
627.696	103.895
630.315	43.83
632.933	24.508
635.551	14.143
638.167	110.969
640.783	107.881
643.398	466.586
646.012	517.094
648.625	288.406
651.237	402.52
653.849	535.24
656.46	502.221
659.07	461.824
661.679	436.299
664.288	421.025
666.895	377.256
669.502	284.771
672.108	313.5
674.713	232.213
677.318	303.68
679.921	275.795
682.524	370.373
685.126	374.688
687.727	353.305
690.328	352.799
692.927	447.438
695.526	551.158
698.124	667.541
700.721	661.785
703.318	815.49
705.913	875.857
708.508	1014.8
711.102	988.939
713.695	870.252
716.288	716.215
718.879	960.184
721.47	1147.05
724.06	1029.24
726.649	1136.6
729.238	873.494
731.825	940.08
734.412	1018.36
736.998	1110.09
739.584	878.609
742.168	1082.24
744.752	1176.39
747.334	1241.27
749.916	1291.96
752.498	1290.27
755.078	1490.98
757.658	1594.85
760.237	1581.36
762.815	1555.02
765.392	1609.01
767.969	1629.93
770.544	1661.92
773.119	1643.82
775.693	1486.36
778.267	1563.07
780.839	1466.92
783.411	1596.79
785.982	1629.84
788.552	1437.02
791.122	1583.17
793.69	1462.18
796.258	1277.68
798.825	890.824
801.391	899.389
803.957	688.014
806.522	522.613
809.085	502.908
811.649	188.887
814.211	126.525
816.772	333.82
819.333	97.773
821.893	171.312
824.452	32.873
827.011	14.799
829.568	49.771
832.125	59.797
834.681	113.805
837.236	196.711
839.791	51.625
842.345	96.15
844.898	19.727
847.45	10.496
850.001	9.445
852.552	24.162
855.102	115.594
857.651	21.848
860.199	56.486
862.746	20.543
865.293	28.016
867.839	68.051
870.384	27.766
872.928	53.871
875.472	57.949
878.015	31.453
880.557	149.523
883.098	45.695
885.639	19.268
888.178	178.824
890.717	92.619
893.256	45.143
895.793	170.402
898.33	31.414
900.865	303.182
903.401	240.725
905.935	99.068
908.468	74.189
911.001	203.113
913.533	335.934
916.064	467.664
918.595	235.334
921.124	160.027
923.653	245.955
926.182	330.338
928.709	314.908
931.236	294.445
933.761	347.934
936.286	456.33
938.811	422.615
941.334	554.816
943.857	482.908
946.379	767.877
948.9	707.717
951.421	685.422
953.94	818.961
956.459	678.326
958.978	867.514
961.495	999.688
964.012	961.955
966.527	1140.16
969.043	1115.5
971.557	1292.77
974.071	1268.42
976.583	1312.93
979.095	1501.06
981.607	1698.48
984.117	1770.92
986.627	1731.74
989.136	1606.09
991.644	1759.62
994.152	2035.09
996.659	2182.32
999.165	2153.01
1001.67	2355.5
1004.17	2485
1006.68	2420.16
1009.18	2548.85
1011.68	2659.22
1014.18	2784.71
1016.68	2857.69
1019.18	2826.7
1021.68	3017.24
1024.18	2951.78
1026.68	2889.04
1029.18	3121.92
1031.67	2972.26
1034.17	2909.93
1036.66	3103.97
1039.16	3150.95
1041.65	3013.34
1044.14	3253.68
1046.63	3234.61
1049.12	3359.28
1051.62	3437.68
1054.11	3640.56
1056.59	3832.95
1059.08	4083.28
1061.57	4067.01
1064.06	4278.04
1066.54	4558.44
1069.03	4929.2
1071.51	5171
1073.99	5130.92
1076.47	5530.95
1078.96	5789.96
1081.44	5803.88
1083.92	5723.55
1086.4	5792.46
1088.88	6186.11
1091.36	6042.9
1093.83	6114.57
1096.31	6044.29
1098.79	6055.52
1101.26	6044.85
1103.73	5926.25
1106.21	5811.55
1108.68	5763.81
1111.15	5678.08
1113.62	5215.42
1116.1	5212.02
1118.57	5251.97
1121.04	5161.58
1123.5	4942.78
1125.97	4502.6
1128.44	4536.8
1130.9	4397.43
1133.37	4310.55
1135.83	3846.06
1138.3	3798.19
1140.76	3836.79
1143.22	3849.81
1145.69	3358.2
1148.15	3023.88
1150.61	3060.83
1153.07	3110.97
1155.53	2588.35
1157.98	2457.93
1160.44	2373.75
1162.9	2263.62
1165.35	1740.65
1167.81	1588.8
1170.26	1811.1
1172.72	1504.58
1175.17	1259.29
1177.62	1014.57
1180.07	1027.49
1182.52	880.109
1184.97	612.443
1187.42	584.479
1189.87	613.209
1192.32	480.633
1194.77	211.744
1197.21	129.541
1199.66	502.053
1202.1	359.334
1204.55	147.463
1206.99	49.451
1209.43	262.736
1211.88	242.201
1214.32	55.078
1216.76	29.447
1219.2	202.424
1221.64	273.164
1224.07	89.658
1226.51	7.301
1228.95	83.211
1231.38	238.881
1233.82	44.695
1236.26	146.924
1238.69	379.422
1241.12	225.998
1243.56	0.818
1245.99	0
