Measurement: Raman, 514 nm, ccw, Raman Data Processed
Mineral: Chabazite-Ca
Rruff sample: R050014
Ideal chemistry: Ca_2_Al_4_Si_8_O_24_13H_2_O
Locality: Tablo Mountain, Baja California, Mexico
Source: University of Arizona Mineral Museum
Description: Light tan colored rhombohedral single crystals
Measured chemistry: (Ca_0.72_Mg_0.11_K_0.09_Sr_0.06_Na_0.01_)_Σ=1_(Si_4.12_Al_1.88_)O_12_·6H_2_O
Pin_id: M00165
Orientation: Laser parallel to (-1 -1 -1). Fiducial mark perpendicular to laser is parallel to [-1 1 0]
Raman shift (cm-1)	intensity
105.815	0
110.744	540.051
115.671	1753.4
120.596	2480.41
125.519	3420.54
130.439	4526.7
135.356	5761.53
140.271	7051.63
145.184	7121.71
150.094	5004.5
155.002	4019.06
159.908	3696.74
164.811	3988.39
169.711	4667.09
174.61	5230.14
179.505	5633.23
184.399	5401.87
189.29	4954.14
194.178	4065.45
199.064	3460.46
203.948	2521.09
208.829	1378.05
213.708	901.049
218.585	507.818
223.459	177.928
228.33	361.727
233.199	145.182
238.066	314.584
242.93	577.418
247.792	303.111
252.651	306.719
257.508	86.4238
262.363	61.8496
267.215	507.951
272.064	846.791
276.912	1204.31
281.756	1525.25
286.598	2079.09
291.438	2499.78
296.276	3269
301.111	3853.75
305.943	4319.15
310.773	5347.98
315.601	6421.15
320.426	7283.34
325.248	7828.15
330.068	7977.56
334.886	7503.5
339.701	6677.59
344.514	5710.7
349.324	4859.9
354.132	4309.58
358.938	3995.86
363.741	3793.92
368.541	3246.39
373.339	3143.42
378.135	2828.1
382.928	2648.4
387.718	2583.49
392.506	2363.14
397.292	2329.56
402.075	2305.2
406.856	2652.7
411.634	3451.35
416.41	4179.18
421.183	5776.46
425.954	7607.63
430.722	10546.9
435.488	14401.3
440.251	18848.4
445.012	23845.8
449.77	28592.4
454.526	30999.9
459.28	31376.3
464.03	30479.4
468.779	30357.5
473.525	31451.4
478.268	32098.2
483.009	29168.7
487.747	24031.2
492.483	18130.7
497.217	13211.2
501.948	9396.44
506.676	6532.7
511.402	4770.77
516.125	3318.8
520.846	2333.1
525.565	1678.89
530.281	1176.01
534.994	780.344
539.705	652.125
544.413	451.81
549.119	396.33
553.822	201.309
558.523	228.266
563.222	160.164
567.917	240.252
572.611	572.336
577.302	186.338
581.99	29.9238
586.676	324.734
591.359	167.316
596.04	188.49
600.718	90.9316
605.394	22.5273
610.067	127.182
614.737	304.238
619.406	11.9609
624.071	5.71875
628.734	261.805
633.395	560.416
638.053	271.19
642.708	380.201
647.361	348.438
652.012	239.824
656.66	191.312
661.305	185.273
665.948	242.951
670.588	168.215
675.226	134.348
679.861	444.883
684.494	314.057
689.124	427.051
693.752	458.875
698.377	448.836
702.999	721.463
707.619	725.422
712.237	876.961
716.852	842.676
721.464	819.422
726.074	840.572
730.681	941.094
735.286	850.006
739.888	1168.74
744.488	1410.7
749.085	1496.63
753.68	1398.35
758.272	1727.64
762.861	1524.63
767.448	1618.64
772.033	1471.48
776.614	1575.4
781.194	1348.5
785.77	1169.99
790.345	1082.28
794.916	892.732
799.485	366.879
804.052	287.295
808.616	146.707
813.177	65.6953
817.736	27.3633
822.292	70.9512
826.846	4.36523
831.397	127.904
835.945	112.943
840.491	124.162
845.035	10.3691
849.576	100.838
854.114	101.971
858.65	180.443
863.183	211.523
867.713	243.293
872.241	153.641
876.767	155.769
881.29	11.6094
885.81	93.5664
890.328	53.5742
894.843	37.582
899.356	13.6621
903.866	171.846
908.373	329.33
912.878	148.758
917.38	145.051
921.88	229.234
926.377	167.381
930.872	425.539
935.364	517.789
939.853	344.549
944.34	178.402
948.824	693.955
953.306	810.619
957.785	767.262
962.261	911.062
966.735	832.631
971.207	1093.26
975.675	1066.93
980.141	1187.66
984.605	1564.52
989.066	1675.94
993.524	1687.68
997.98	1864.31
1002.43	2059.43
1006.88	2277.33
1011.33	2206.95
1015.78	2268.49
1020.22	2278.31
1024.66	2386.1
1029.1	2702.1
1033.53	2326.16
1037.97	2624.78
1042.4	2767.18
1046.82	2734.61
1051.25	3324.55
1055.67	3484.55
1060.09	3812.82
1064.51	4339.77
1068.92	4377.57
1073.33	4280.31
1077.74	4321.52
1082.15	4735.57
1086.55	4862.72
1090.95	4635.45
1095.35	4248.43
1099.75	4169.08
1104.14	3891.46
1108.53	3686.78
1112.92	3670.76
1117.31	3762.6
1121.69	3281.52
1126.07	3502.01
1130.45	3239.43
1134.82	2631.4
1139.19	2299.76
1143.57	1953.18
1147.93	1978.82
1152.3	1707.02
1156.66	1329.05
1161.02	1458.79
1165.38	1169.87
1169.73	626.156
1174.08	809.863
1178.43	518.711
1182.78	344.496
1187.12	209.637
1191.46	452.969
1195.8	149.156
1200.14	221
1204.47	49.8164
1208.8	125.777
1213.13	230.195
1217.46	137.109
1221.78	46.7734
1226.1	73.4062
1230.42	6.21094
1234.73	5.81641
1239.04	47.9805
1243.35	97.9375
1247.66	207.848
1251.97	106.34
1256.27	91.3047
1260.57	118.773
1264.86	123.637
1269.16	327.281
1273.45	212.574
1277.74	95.4336
1282.03	71.8203
1286.31	54.2227
1290.59	212.691
1294.87	244.098
1299.14	84.875
1303.42	184.32
1307.69	295.82
1311.95	186.465
1316.22	434.977
1320.48	363.391
1324.74	150.289
1329	245.144
1333.26	381.516
1337.51	336.106
1341.76	331.047
1346	384.383
1350.25	359.273
1354.49	373.309
1358.73	525.273
1362.96	523.898
1367.2	469.414
1371.43	417.766
1375.66	511.121
1379.88	302.316
1384.11	140.812
1388.33	320.664
1392.54	230.574
1396.76	204.078
1400.97	213.191
1405.18	329.43
1409.39	305.551
1413.59	190.559
1417.8	210.277
1421.99	245.152
1426.19	153.922
1430.38	274.406
1434.58	675.488
1438.77	249.773
1442.95	445.031
1447.13	452.363
1451.32	347.672
1455.49	532.871
1459.67	246.246
1463.84	303.106
1468.01	323.926
1472.18	172.809
1476.35	183.891
1480.51	315.676
1484.67	100.207
1488.83	50.6719
1492.98	372.394
1497.13	202.769
1501.28	383.766
1505.43	156.231
1509.57	315.285
1513.71	101.602
1517.85	231.297
1521.99	305.734
1526.12	492.316
1530.25	282.453
1534.38	351.797
1538.5	407.336
1542.62	166.902
1546.74	381.719
1550.86	317.141
1554.98	36.2031
1559.09	230.523
1563.2	303.504
1567.31	319.606
1571.41	0.417969
