Measurement: Raman, 514 nm, ccw, Raman Data Processed
Mineral: Chabazite-Ca
Rruff sample: R050075
Ideal chemistry: Ca_2_Al_4_Si_8_O_24_13H_2_O
Locality: Victoria, Australia
Source: Rock Currier
Description: White pseudohexagonal crystals
Measured chemistry: (Ca_0.79_Na_0.22_K_0.14_)_Σ=1.15_(Si_4.08_Al_1.92_)O_12_·6H_2_O
Pin_id: L00209
Orientation: Laser parallel to c* (0 0 1). Fiducial mark perpendicular to laser is parallel to b [0 1 0]
Raman shift (cm-1)	intensity
235.063	0
239.175	15.807
243.286	232.617
247.394	412.369
251.501	103.414
255.605	339.861
259.708	225.342
263.808	53.795
267.907	84.57
272.004	78.703
276.099	486.125
280.192	452.24
284.283	484.566
288.372	864.684
292.459	1305.57
296.544	1460.31
300.627	1397.7
304.709	1661.54
308.788	1851.3
312.865	2099.82
316.941	2339.03
321.015	3242.07
325.086	3710.55
329.156	3976.31
333.224	3882.21
337.29	4135.16
341.354	3664.95
345.416	2970.93
349.476	2332.59
353.534	2152.15
357.591	1976.19
361.645	1363.48
365.698	1156.96
369.748	1151.62
373.797	1308.45
377.844	1002.5
381.889	978.764
385.932	1338.25
389.973	1643.93
394.012	1550.79
398.049	1574.01
402.084	1979.04
406.118	2112.78
410.15	2136.27
414.179	2330.2
418.207	3037.47
422.233	4371
426.257	5295.82
430.279	6467.58
434.299	8548.23
438.318	11524.5
442.334	14880.8
446.349	17836.4
450.361	21874.7
454.372	25122.8
458.381	26974.5
462.388	26934
466.394	27534.7
470.397	29735.1
474.398	32064.1
478.398	33070.1
482.396	31236
486.391	28390.1
490.385	23607.2
494.377	17832.4
498.368	13130.6
502.356	9986.96
506.342	7460.72
510.327	5716.69
514.31	4320.73
518.291	3293.8
522.27	2581.3
526.247	2205
530.222	1855.79
534.196	1305.35
538.167	1375.41
542.137	1042.96
546.105	759.518
550.071	601.189
554.035	458.91
557.998	477.641
561.958	362.426
565.917	175.307
569.874	70.738
573.829	102.209
577.782	152.209
581.733	67.143
585.683	76.988
589.63	44.889
593.576	48.693
597.52	120.342
601.462	79.203
605.402	132.35
609.341	111.242
613.277	75.105
617.212	13.691
621.145	47.322
625.076	69.156
629.006	108.795
632.933	66.445
636.859	51.787
640.783	56.816
644.705	332.529
648.625	389.941
652.543	399.051
656.46	462.6
660.375	234.297
664.288	245.27
668.199	377.529
672.108	154.551
676.016	197.986
679.921	147.334
683.825	294.023
687.727	377.777
691.628	409.311
695.526	463.982
699.423	464.338
703.318	664.348
707.211	598.234
711.102	827.516
714.992	810.615
718.879	662.176
722.765	867.697
726.649	942.766
730.532	943.742
734.412	896.752
738.291	704.66
742.168	896.09
746.043	1014.7
749.916	1116.73
753.788	1007.52
757.658	1101.47
761.526	1341.04
765.392	1436.04
769.257	1482.98
773.119	1341.8
776.98	1262.83
780.839	1335.83
784.697	1483.08
788.552	1327.95
792.406	1272.46
796.258	1067.8
800.108	754.33
803.957	700.689
807.804	534.543
811.649	296.885
815.492	161.506
819.333	123.576
823.173	11.506
827.011	233.107
830.847	131.934
834.681	138.197
838.514	142.541
842.345	22.543
846.174	19.785
850.001	232.824
853.827	213.738
857.651	58.115
861.473	129.799
865.293	56.266
869.112	116.547
872.928	182.607
876.744	48.854
880.557	37.58
884.369	93.668
888.178	65.59
891.987	330.426
895.793	377.787
899.598	296.652
903.401	168.201
907.202	53.533
911.001	168.361
914.799	422.217
918.595	449.086
922.389	341.977
926.182	168.746
929.972	193.299
933.761	322.773
937.549	467.092
941.334	797.188
945.118	688.068
948.9	652.744
952.681	345.219
956.459	580.496
960.236	894.588
964.012	1041.24
967.785	1203.21
971.557	1159.58
975.327	832.82
979.095	859.439
982.862	1157
986.627	1636.7
990.39	1822.28
994.152	1730.04
997.912	1604.48
1001.67	1765.88
1005.43	2114.75
1009.18	2391.03
1012.93	2620.14
1016.68	2640.52
1020.43	2575.53
1024.18	2506.23
1027.93	2494.55
1031.67	2553.39
1035.42	2844.34
1039.16	3210.69
1042.9	3060.7
1046.63	2967.03
1050.37	2706.47
1054.11	2838.26
1057.84	3279.81
1061.57	3814.01
1065.3	4334.27
1069.03	4428.64
1072.75	4278.31
1076.47	4185.98
1080.2	4345.92
1083.92	4585.22
1087.64	5142.46
1091.36	5314.09
1095.07	5171.88
1098.79	4758.76
1102.5	4260.99
1106.21	4370.67
1109.92	4374.76
1113.62	4511.42
1117.33	4708.09
1121.04	4444.99
1124.74	4432.97
1128.44	3705.27
1132.14	3172.68
1135.83	3110.43
1139.53	3425.42
1143.22	3339.42
1146.92	3374.39
1150.61	2767.4
1154.3	2113.5
1157.98	1859.74
1161.67	1459.98
1165.35	1494
1169.04	1457.51
1172.72	1942.58
1176.4	1693.23
1180.07	1169.54
1183.75	662.436
1187.42	212.943
1191.1	160.102
1194.77	117.93
1198.44	556.428
1202.1	1142.24
1205.77	898.594
1209.43	484.852
1213.1	285.541
1216.76	89.674
1220.42	7.227
1224.07	25.182
1227.73	519.627
1231.38	1090.7
1235.04	987.562
1238.69	651.029
1242.34	455.111
1245.99	82.709
1249.63	88.283
1253.28	74.1
1256.92	468.871
1260.56	974.299
1264.2	1351.57
1267.84	1014.19
1271.48	927.803
1275.11	330.033
1278.74	0
