Measurement: Raman, 514 nm, ccw, Raman Data Processed
Mineral: Chabazite-Ca
Rruff sample: R050075
Ideal chemistry: Ca_2_Al_4_Si_8_O_24_13H_2_O
Locality: Victoria, Australia
Source: Rock Currier
Description: White pseudohexagonal crystals
Measured chemistry: (Ca_0.79_Na_0.22_K_0.14_)_Σ=1.15_(Si_4.08_Al_1.92_)O_12_·6H_2_O
Pin_id: L00465
Orientation: Laser parallel to a* (1 0 0). Fiducial mark perpendicular to laser is parallel to c [0 0 1]
Raman shift (cm-1)	intensity
237.805	0
240.545	326.875
243.286	273.514
246.025	111.451
248.763	120.045
251.501	125.969
254.237	283.637
256.973	360.822
259.708	327.846
262.442	201.867
265.175	5.496
267.907	55.574
270.639	77.42
273.369	388.271
276.099	413.793
278.828	212.824
281.556	363.213
284.283	412.801
287.009	606.441
289.734	960.027
292.459	967.527
295.183	1135.94
297.905	1012.23
300.627	922.33
303.348	1244.16
306.069	1495.66
308.788	1893.78
311.507	2022.47
314.224	2124.7
316.941	2407.42
319.657	3085.63
322.372	3669.22
325.086	4226.1
327.8	4570.24
330.512	4558.69
333.224	4660.25
335.935	4597.95
338.645	4502.77
341.354	4219.15
344.062	3574.23
346.769	2957.8
349.476	2614.1
352.182	2195.82
354.887	2039.8
357.591	1903.94
360.294	1736.25
362.996	1419.68
365.698	1110.23
368.398	981.914
371.098	1152.71
373.797	1175.63
376.495	1180.67
379.192	949.828
381.889	901.115
384.584	1012.52
387.279	1266.05
389.973	1495.69
392.666	1499.44
395.358	1475.3
398.049	1564.28
400.74	1551.29
403.429	2052.18
406.118	2249.5
408.806	2327.25
411.493	2466.19
414.179	2811.5
416.865	3197.88
419.549	4016.35
422.233	4706.83
424.916	5252.56
427.598	5995.86
430.279	7403.18
432.959	8862.2
435.639	10898
438.318	12664.7
440.996	14921.9
443.673	16959.5
446.349	19127.6
449.024	22286.3
451.699	24914.8
454.372	26609.5
457.045	27879.9
459.717	28563.9
462.388	29678.9
465.059	30633.9
467.728	32430.6
470.397	33926.4
473.065	34854.9
475.732	36835.6
478.398	38649.1
481.063	38943.1
483.728	36359.2
486.391	32843.3
489.054	28681.5
491.716	24346.7
494.377	20601
497.038	17505.4
499.697	13941.8
502.356	11458.3
505.014	9225.85
507.671	7737.44
510.327	6585.06
512.982	5382.73
515.637	4336.99
518.291	3419.08
520.944	3209.16
523.596	2675.43
526.247	2385.59
528.897	1982.68
531.547	1518.85
534.196	1369.09
536.844	1221.38
539.491	1248.76
542.137	917.23
544.783	714.707
547.427	634.26
550.071	454.861
552.714	547.488
555.356	432.16
557.998	358.869
560.638	130.596
563.278	110.34
565.917	184.156
568.555	238.078
571.192	179.012
573.829	56.957
576.464	137.99
579.099	5.02
581.733	182.049
584.366	45.059
586.999	6.072
589.63	131.906
592.261	19.016
594.891	105.896
597.52	31.691
600.148	28.701
602.776	225.205
605.402	37.008
608.028	29.064
610.653	38.994
613.277	108.283
615.901	93.85
618.523	32.373
621.145	143.447
623.766	162.363
626.386	1.184
629.006	11.9
631.624	128.525
634.242	201.061
636.859	220.498
639.475	308.848
642.09	239.111
644.705	442.287
647.318	598.369
649.931	478.357
652.543	484.248
655.155	468.045
657.765	381
660.375	327.107
662.984	428.43
665.592	384.375
668.199	287.42
670.805	90.314
673.411	362.889
676.016	370.686
678.62	230.111
681.223	221.172
683.825	403.5
686.427	537.025
689.028	503.254
691.628	422.547
694.227	383.52
696.825	514.992
699.423	682.996
702.02	764.768
704.616	690.91
707.211	559.006
709.805	700.256
712.399	743.012
714.992	899.186
717.584	867.252
720.175	683.434
722.765	781.693
725.355	793.219
727.944	803.818
730.532	791.297
733.119	798.096
735.705	539.48
738.291	662.307
740.876	799.328
743.46	706.033
746.043	737.986
748.626	837.715
751.207	959.717
753.788	940.891
756.368	894.857
758.947	888.828
761.526	1103.39
764.104	1103.81
766.68	1148.05
769.257	1032.53
771.832	906.727
774.406	1054.45
776.98	1090.93
779.553	1062.39
782.125	1220.74
784.697	1433.57
787.267	1488.77
789.837	1430.22
792.406	1497.6
794.974	1155.42
797.542	1077.04
800.108	1177.48
802.674	1030.73
805.239	602.793
807.804	544.668
810.367	409.355
812.93	421.85
815.492	186.145
818.053	117.223
820.613	266.092
823.173	175.75
825.732	52.625
828.29	91.826
830.847	41.533
833.403	55.207
835.959	49.555
838.514	91.52
841.068	38.967
843.621	54.719
846.174	22.797
848.726	76.184
851.277	57.025
853.827	46.971
856.376	108.928
858.925	93.227
861.473	68.994
864.02	12.793
866.566	16.725
869.112	33.527
871.656	11.404
874.2	206.889
876.744	115.633
879.286	133.264
881.828	20.018
884.369	80.441
886.909	29.568
889.448	110.234
891.987	172.879
894.524	50.354
897.061	109.648
899.598	25.811
902.133	18.156
904.668	138.711
907.202	221.535
909.735	116.26
912.267	265.914
914.799	250.506
917.33	12
919.86	109.41
922.389	197.803
924.918	320.16
927.445	79.449
929.972	330.676
932.499	399.84
935.024	296.904
937.549	304.871
940.073	340.656
942.596	345.506
945.118	328.184
947.64	366.762
950.161	450.248
952.681	483.641
955.2	625.934
957.719	549.125
960.236	732.197
962.753	698.148
965.27	666.725
967.785	975.234
970.3	1063.71
972.814	899.26
975.327	1088.49
977.84	1052.18
980.351	1210.26
982.862	1339.48
985.372	1365.04
987.882	1506.95
990.39	1614.44
992.898	1512.29
995.405	1695.28
997.912	1739.85
1000.42	1927.19
1002.92	2079.75
1005.43	2176.88
1007.93	2049.81
1010.43	2180.34
1012.93	2282.78
1015.43	2330.13
1017.93	2453.05
1020.43	2522.67
1022.93	2538.73
1025.43	2407.85
1027.93	2596.03
1030.42	2625.5
1032.92	2707.26
1035.42	2662.02
1037.91	2626.87
1040.4	2756.82
1042.9	2680.39
1045.39	2659.07
1047.88	2842.52
1050.37	2819.44
1052.86	2851.79
1055.35	3076.78
1057.84	3043.61
1060.33	3233.5
1062.81	3504.37
1065.3	3736.04
1067.78	3867.87
1070.27	3768.56
1072.75	4146.75
1075.23	4314.4
1077.72	4481.18
1080.2	4363.62
1082.68	4506.62
1085.16	4768.71
1087.64	4683.11
1090.12	4529.4
1092.59	4717.66
1095.07	4857.14
1097.55	4719.07
1100.02	4569.54
1102.5	4342.35
1104.97	4725.06
1107.44	4498.61
1109.92	4284.75
1112.39	4036.83
1114.86	4137.89
1117.33	4128.93
1119.8	3803.04
1122.27	3688.49
1124.74	3920.25
1127.2	3787.28
1129.67	3379.69
1132.14	3096.36
1134.6	3364.31
1137.07	3365.58
1139.53	3100.1
1141.99	2512.21
1144.45	2453.69
1146.92	2687.77
1149.38	2416.1
1151.84	2246.61
1154.3	2058.35
1156.76	2070.27
1159.21	1761.33
1161.67	1508.56
1164.13	1490.95
1166.58	1532.44
1169.04	1262.95
1171.49	746.572
1173.94	963.287
1176.4	1100.1
1178.85	789.008
1181.3	584.148
1183.75	727.691
1186.2	651.689
1188.65	488.182
1191.1	285.17
1193.54	208.65
1195.99	160.641
1198.44	199.135
1200.88	40.895
1203.33	30.537
1205.77	205.463
1208.21	22.088
1210.65	2.062
1213.1	214.621
1215.54	429.062
1217.98	123.377
1220.42	43.354
1222.86	175.928
1225.29	337.283
1227.73	174.281
1230.17	37.324
1232.6	51.43
1235.04	393.52
1237.47	267.436
1239.91	6.627
1242.34	79.732
1244.77	228.342
1247.2	92.086
1249.63	0.088
1252.06	0
