Measurement: Raman, 514 nm, ccw, Raman Data Processed
Mineral: Chabazite-Ca
Rruff sample: R050014
Ideal chemistry: Ca_2_Al_4_Si_8_O_24_13H_2_O
Locality: Tablo Mountain, Baja California, Mexico
Source: University of Arizona Mineral Museum
Description: Light tan colored rhombohedral single crystals
Measured chemistry: (Ca_0.72_Mg_0.11_K_0.09_Sr_0.06_Na_0.01_)_Σ=1_(Si_4.12_Al_1.88_)O_12_·6H_2_O
Pin_id: M00165
Orientation: Laser parallel to (-1 -1 -1). Fiducial mark perpendicular to laser is parallel to [-1 1 0]
Raman shift (cm-1)	intensity
105.815	0
110.744	5.73438
115.671	1206.05
120.596	1514.05
125.519	2898.9
130.439	4225.57
135.356	6111.75
140.271	9793.3
145.184	11796.9
150.094	7534.22
155.002	5799.93
159.908	4846.73
164.811	4898.19
169.711	5058.08
174.61	5309.78
179.505	5699.95
184.399	5267.89
189.29	5088.15
194.178	4376.62
199.064	4120.38
203.948	2821.51
208.829	1971.01
213.708	1643.8
218.585	921.031
223.459	587.076
228.33	247.756
233.199	153.188
238.066	493.91
242.93	9.99023
247.792	418.81
252.651	454.928
257.508	145.434
262.363	172.682
267.215	399.162
272.064	621.039
276.912	831.26
281.756	1373.28
286.598	1786.64
291.438	1987.62
296.276	2472.07
301.111	2602.45
305.943	2923.71
310.773	3497.42
315.601	4082.35
320.426	4816.32
325.248	5040.24
330.068	5489.95
334.886	5089.53
339.701	4626.58
344.514	3980.5
349.324	3832.4
354.132	3142.77
358.938	3159.57
363.741	2725.07
368.541	2804.87
373.339	2567.9
378.135	2636.19
382.928	2569.83
387.718	2647
392.506	2765.36
397.292	2566.6
402.075	2829.29
406.856	2555.66
411.634	2915.97
416.41	3144.74
421.183	4048.03
425.954	5222.33
430.722	6564.79
435.488	8728.93
440.251	11416.2
445.012	14202
449.77	16906.2
454.526	18959.1
459.28	20375.7
464.03	21356.2
468.779	23332.8
473.525	25241.9
478.268	26237.5
483.009	24601.7
487.747	19986.3
492.483	15454.8
497.217	11114.6
501.948	7912.93
506.676	5658.55
511.402	4428.37
516.125	3052.34
520.846	2296.35
525.565	1811.97
530.281	1307.06
534.994	1139.81
539.705	782.781
544.413	658.09
549.119	344.75
553.822	279.371
558.523	269.398
563.222	8.90039
567.917	46.4785
572.611	252.301
577.302	72.5762
581.99	161.037
586.676	105.342
591.359	83.0664
596.04	1.39844
600.718	76.1172
605.394	254.211
610.067	164.445
614.737	94.5234
619.406	36.3848
624.071	195.383
628.734	560.545
633.395	810.971
638.053	750.6
642.708	771.564
647.361	733.709
652.012	639.031
656.66	302.471
661.305	171.033
665.948	406.213
670.588	247.576
675.226	290.957
679.861	285.055
684.494	251.356
689.124	472.127
693.752	181.402
698.377	503.334
702.999	714.094
707.619	564.461
712.237	632.504
716.852	481.139
721.464	740.178
726.074	860.646
730.681	727.695
735.286	750.633
739.888	527.852
744.488	517.023
749.085	671.102
753.68	500.148
758.272	928.18
762.861	745.812
767.448	918.902
772.033	1022.1
776.614	852.269
781.194	1053.82
785.77	975.664
790.345	1145.4
794.916	1027.34
799.485	702.031
804.052	432.059
808.616	275.891
813.177	411.004
817.736	152.215
822.292	0.621094
826.846	6.10938
831.397	14.6836
835.945	188.731
840.491	65.3633
845.035	57.7383
849.576	90.5508
854.114	398.465
858.65	26.0117
863.183	73.2188
867.713	25.832
872.241	169.695
876.767	283.625
881.29	175.508
885.81	84.1641
890.328	9.33203
894.843	64.4375
899.356	95.5664
903.866	9.89453
908.373	92.5625
912.878	77.875
917.38	25.7148
921.88	173.281
926.377	118.625
930.872	28.1953
935.364	292.754
939.853	413.762
944.34	424.051
948.824	623.379
953.306	538.91
957.785	731.18
962.261	750.266
966.735	875.281
971.207	1034.45
975.675	1218.97
980.141	1247.33
984.605	1295.31
989.066	1583.78
993.524	1567.04
997.98	1824.38
1002.43	2206.84
1006.88	1946.22
1011.33	2118.83
1015.78	2267.8
1020.22	2242.64
1024.66	2136.4
1029.1	2350.95
1033.53	2407.96
1037.97	2295.41
1042.4	2440.7
1046.82	2320.57
1051.25	2398.44
1055.67	2775.09
1060.09	2722.64
1064.51	2906.35
1068.92	3063.75
1073.33	3120.66
1077.74	3299.75
1082.15	3035.7
1086.55	3003.62
1090.95	3374.04
1095.35	3319.91
1099.75	3066.42
1104.14	3040.37
1108.53	2860.2
1112.92	3053.76
1117.31	3190.45
1121.69	2924.56
1126.07	2655.91
1130.45	2765.53
1134.82	2034.67
1139.19	2072.45
1143.57	1976.78
1147.93	1783.63
1152.3	1354.31
1156.66	1516.41
1161.02	997.848
1165.38	1070.39
1169.73	781.25
1174.08	752.738
1178.43	577.684
1182.78	180.949
1187.12	75.4805
1191.46	254.656
1195.8	192.984
1200.14	83.3164
1204.47	136.418
1208.8	214.562
1213.13	3.42188
1217.46	99.9492
1221.78	140.676
1226.1	105.504
1230.42	274.277
1234.73	56.7773
1239.04	121.297
1243.35	95.4258
1247.66	286.543
1251.97	144.594
1256.27	206.68
1260.57	24.6875
1264.86	170.441
1269.16	283.394
1273.45	172.453
1277.74	117.875
1282.03	221.984
1286.31	6.40234
1290.59	4.42188
1294.87	110.965
1299.14	279.051
1303.42	51.0625
1307.69	287.609
1311.95	78.4336
1316.22	519.66
1320.48	367.055
1324.74	235.207
1329	240.773
1333.26	153.777
1337.51	205.473
1341.76	191.492
1346	465.258
1350.25	482.793
1354.49	143.606
1358.73	99.3281
1362.96	625.402
1367.2	479.871
1371.43	71.8203
1375.66	421.082
1379.88	429.168
1384.11	47.1523
1388.33	279.793
1392.54	92.8164
1396.76	25.1641
1400.97	237.031
1405.18	2.73047
1409.39	577.785
1413.59	199.609
1417.8	374.18
1421.99	200.465
1426.19	396.199
1430.38	26.6094
1434.58	316.219
1438.77	415.856
1442.95	491.848
1447.13	406.863
1451.32	487.828
1455.49	576.969
1459.67	455.254
1463.84	434.539
1468.01	225.34
1472.18	605.863
1476.35	660.559
1480.51	63.9492
1484.67	882.285
1488.83	554.016
1492.98	101.867
1497.13	194.809
1501.28	350.543
1505.43	395.676
1509.57	236.758
1513.71	256.824
1517.85	213.176
1521.99	421.156
1526.12	516.231
1530.25	116.812
1534.38	535.984
1538.5	401.699
1542.62	27.6211
1546.74	347.223
1550.86	184.211
1554.98	31.332
1559.09	317.328
1563.2	189.644
1567.31	292.477
1571.41	160.699
