Measurement: Raman, 514 nm, ccw, Raman Data Processed
Mineral: Chabazite-Ca
Rruff sample: R050014
Ideal chemistry: Ca_2_Al_4_Si_8_O_24_13H_2_O
Locality: Tablo Mountain, Baja California, Mexico
Source: University of Arizona Mineral Museum
Description: Light tan colored rhombohedral single crystals
Measured chemistry: (Ca_0.72_Mg_0.11_K_0.09_Sr_0.06_Na_0.01_)_Σ=1_(Si_4.12_Al_1.88_)O_12_·6H_2_O
Pin_id: M00242
Orientation: Laser parallel to (-1 1 0). Fiducial mark perpendicular to laser is parallel to [1 1 1]
Raman shift (cm-1)	intensity
105.815	0
110.744	39.625
115.671	1930.61
120.596	2522.99
125.519	4636.89
130.439	7931.77
135.356	14436.4
140.271	28455.8
145.184	19899.9
150.094	11459.2
155.002	8859.23
159.908	6783.87
164.811	6507.38
169.711	6108
174.61	5746.26
179.505	5970.95
184.399	5379.19
189.29	4962.86
194.178	4635.89
199.064	3548.97
203.948	2682.22
208.829	1249.69
213.708	996.621
218.585	369.586
223.459	108.978
228.33	3.78125
233.199	280.209
238.066	453.643
242.93	354.164
247.792	506.932
252.651	180.5
257.508	6.07617
262.363	457.818
267.215	715.807
272.064	1221.62
276.912	2262.38
281.756	2596.48
286.598	2159.53
291.438	2142.4
296.276	2492.61
301.111	2810.45
305.943	2930.93
310.773	3646.2
315.601	4357.25
320.426	5138.41
325.248	5740.61
330.068	5863.79
334.886	5796.33
339.701	5200.75
344.514	4737.86
349.324	4234.24
354.132	3949.86
358.938	3553.36
363.741	3454.78
368.541	2992.18
373.339	2992.83
378.135	2949.43
382.928	2837.41
387.718	3434.24
392.506	3215.63
397.292	3293.79
402.075	3259.07
406.856	2896.98
411.634	3220.83
416.41	3865.23
421.183	4555.25
425.954	5771.31
430.722	7991.33
435.488	10006.5
440.251	13139.6
445.012	16529.6
449.77	19928
454.526	22081.8
459.28	24091.7
464.03	26425.1
468.779	28888.2
473.525	31000.2
478.268	30622.3
483.009	26663.2
487.747	20308.3
492.483	14901.7
497.217	10491.9
501.948	7604.19
506.676	5676.92
511.402	4824.1
516.125	3368.6
520.846	2735.89
525.565	2254.1
530.281	1301.23
534.994	1090.23
539.705	609.394
544.413	534.764
549.119	257.211
553.822	254.338
558.523	196.584
563.222	263.815
567.917	114.848
572.611	121.652
577.302	51.2676
581.99	34.5234
586.676	37.1016
591.359	276.539
596.04	36.0898
600.718	118.973
605.394	9.91016
610.067	33.668
614.737	40.4023
619.406	437.856
624.071	790.719
628.734	1296.39
633.395	2189.97
638.053	1977.38
642.708	1952.35
647.361	1413.96
652.012	813.129
656.66	714.75
661.305	582.188
665.948	438.047
670.588	196.676
675.226	486.16
679.861	15.0742
684.494	515.945
689.124	415.973
693.752	412.281
698.377	547.039
702.999	552.711
707.619	651.527
712.237	958.453
716.852	791.09
721.464	621.086
726.074	472.715
730.681	487.453
735.286	98.0547
739.888	490.082
744.488	19.5312
749.085	256.066
753.68	275.465
758.272	377.711
762.861	496.246
767.448	456.215
772.033	570.633
776.614	890.383
781.194	947.652
785.77	1175.14
790.345	1125.33
794.916	924.473
799.485	511.887
804.052	741.109
808.616	167.941
813.177	337.07
817.736	318.832
822.292	120.125
826.846	22.793
831.397	141.43
835.945	6.58984
840.491	209.852
845.035	49.668
849.576	58.1484
854.114	328.383
858.65	11.3242
863.183	91.1797
867.713	299.629
872.241	43.8594
876.767	179.957
881.29	171.09
885.81	166.195
890.328	304.18
894.843	293.5
899.356	64.7891
903.866	94.3906
908.373	301.379
912.878	282.703
917.38	246.828
921.88	109.543
926.377	368.047
930.872	143.473
935.364	288.809
939.853	481.094
944.34	434.078
948.824	413.211
953.306	489.219
957.785	690.516
962.261	734.559
966.735	749.316
971.207	563.809
975.675	870.602
980.141	1240.97
984.605	1380.21
989.066	1660.91
993.524	1577.86
997.98	1599.81
1002.43	1832.44
1006.88	1577.36
1011.33	2170.02
1015.78	1746.77
1020.22	2235.29
1024.66	1911.01
1029.1	1682.56
1033.53	2203.46
1037.97	2097.34
1042.4	2281.9
1046.82	1834.62
1051.25	2042.62
1055.67	2462.87
1060.09	2423.95
1064.51	2600.92
1068.92	2797.05
1073.33	2908.57
1077.74	2749.07
1082.15	2870.53
1086.55	3184.75
1090.95	3291.4
1095.35	3115.6
1099.75	2720.49
1104.14	2801.22
1108.53	2875.33
1112.92	2699.93
1117.31	2722.09
1121.69	2663.43
1126.07	2668.38
1130.45	2125.81
1134.82	2261.66
1139.19	1852.16
1143.57	1806.99
1147.93	1768.75
1152.3	1698.63
1156.66	1368.69
1161.02	1266.36
1165.38	1134.61
1169.73	746.992
1174.08	652.918
1178.43	560.008
1182.78	423.215
1187.12	293.691
1191.46	392.457
1195.8	177.129
1200.14	54.7031
1204.47	416.141
1208.8	40.0312
1213.13	140.832
1217.46	49.832
1221.78	66.6641
1226.1	110.469
1230.42	65.2422
1234.73	434.012
1239.04	63.7773
1243.35	5.24219
1247.66	193.281
1251.97	242.281
1256.27	48.4141
1260.57	245.93
1264.86	142.84
1269.16	381.648
1273.45	122.508
1277.74	48.7578
1282.03	30.7812
1286.31	18.0312
1290.59	387.539
1294.87	129.824
1299.14	263.793
1303.42	328.059
1307.69	566.191
1311.95	387.191
1316.22	493.012
1320.48	475.633
1324.74	245.035
1329	354.551
1333.26	444.656
1337.51	235.277
1341.76	184.676
1346	443.324
1350.25	514.152
1354.49	371.047
1358.73	500.445
1362.96	735.098
1367.2	432.606
1371.43	398.285
1375.66	257.602
1379.88	408.863
1384.11	469.004
1388.33	459.188
1392.54	343.312
1396.76	238.66
1400.97	39.4648
1405.18	449.043
1409.39	126.051
1413.59	151.356
1417.8	545.402
1421.99	52.6172
1426.19	460.062
1430.38	446.184
1434.58	868.453
1438.77	570.172
1442.95	560.441
1447.13	710.981
1451.32	316.844
1455.49	407.465
1459.67	663.711
1463.84	252.027
1468.01	348.848
1472.18	411.641
1476.35	549.738
1480.51	546.242
1484.67	320.211
1488.83	220.637
1492.98	514.523
1497.13	317.25
1501.28	149.363
1505.43	411.656
1509.57	431.293
1513.71	311.641
1517.85	246.637
1521.99	112.418
1526.12	368.234
1530.25	71.3008
1534.38	271.938
1538.5	398.688
1542.62	343.93
1546.74	127.957
1550.86	348.621
1554.98	650.398
1559.09	382.035
1563.2	228.684
1567.31	148.375
1571.41	1.05078
