Measurement: Raman, 514 nm, ccw, Raman Data Processed
Mineral: Chabazite-Ca
Rruff sample: R050014
Ideal chemistry: Ca_2_Al_4_Si_8_O_24_13H_2_O
Locality: Tablo Mountain, Baja California, Mexico
Source: University of Arizona Mineral Museum
Description: Light tan colored rhombohedral single crystals
Measured chemistry: (Ca_0.72_Mg_0.11_K_0.09_Sr_0.06_Na_0.01_)_Σ=1_(Si_4.12_Al_1.88_)O_12_·6H_2_O
Pin_id: M00242
Orientation: Laser parallel to (-1 1 0). Fiducial mark perpendicular to laser is parallel to [1 1 1]
Raman shift (cm-1)	intensity
105.815	0
110.744	311.914
115.671	2129.7
120.596	1846.41
125.519	3218.21
130.439	4611.43
135.356	7126.5
140.271	10556.1
145.184	9062.09
150.094	7114.97
155.002	5996.96
159.908	5278.76
164.811	5635.6
169.711	5753.21
174.61	5535.92
179.505	6083.21
184.399	5785.87
189.29	5270.31
194.178	5078.59
199.064	4367.72
203.948	3219.42
208.829	1530.62
213.708	1278.75
218.585	700.529
223.459	300.984
228.33	166.994
233.199	211.504
238.066	104.656
242.93	375.91
247.792	530.248
252.651	501.611
257.508	176.469
262.363	4.69727
267.215	578.981
272.064	852.266
276.912	1543.7
281.756	2051.22
286.598	2589.8
291.438	2924.74
296.276	3272.14
301.111	3828.04
305.943	4048.55
310.773	4808.68
315.601	5668.85
320.426	6374.84
325.248	6976.62
330.068	7044.73
334.886	6748.93
339.701	6067.77
344.514	5459.54
349.324	5034.34
354.132	4384.79
358.938	4172.31
363.741	3968.16
368.541	3681.55
373.339	3599.6
378.135	3423.13
382.928	3411.27
387.718	3379.82
392.506	3499.24
397.292	3278.62
402.075	3424.72
406.856	3493.02
411.634	3965.31
416.41	4693.87
421.183	5870.19
425.954	7400.4
430.722	9930.98
435.488	12855.4
440.251	16432.4
445.012	20434.7
449.77	23992.4
454.526	26797.4
459.28	28410.8
464.03	30123
468.779	32267.9
473.525	34273.3
478.268	33538
483.009	29373.1
487.747	22606.8
492.483	16646.7
497.217	11732.3
501.948	8464.81
506.676	5979.68
511.402	4509.25
516.125	3550.56
520.846	2713.5
525.565	2290.14
530.281	1580.27
534.994	1137.05
539.705	1096.69
544.413	721.072
549.119	428.482
553.822	353.791
558.523	240.602
563.222	240.857
567.917	100.6
572.611	70.1543
577.302	141.596
581.99	50.1445
586.676	158.846
591.359	136.695
596.04	16.5977
600.718	18.1816
605.394	152.106
610.067	186.191
614.737	18.0918
619.406	11.4512
624.071	208.033
628.734	450.31
633.395	669.182
638.053	589.75
642.708	954.979
647.361	637.768
652.012	567.029
656.66	364.773
661.305	453.822
665.948	314.193
670.588	286.967
675.226	151.373
679.861	282.147
684.494	414.072
689.124	452.949
693.752	529.547
698.377	553.254
702.999	426.815
707.619	686.328
712.237	885.531
716.852	706.453
721.464	725.125
726.074	760.609
730.681	581.996
735.286	672.66
739.888	628.707
744.488	535.293
749.085	562.547
753.68	874.492
758.272	830.883
762.861	1118.37
767.448	1108.62
772.033	1073.47
776.614	1240.22
781.194	1282.05
785.77	1524.61
790.345	1213.04
794.916	1246.39
799.485	908.789
804.052	669.133
808.616	288.496
813.177	182.519
817.736	363.363
822.292	4.33203
826.846	167.223
831.397	42.9609
835.945	4.11719
840.491	118.894
845.035	148.246
849.576	185.398
854.114	5.20312
858.65	22.8633
863.183	147.523
867.713	101.59
872.241	17.7461
876.767	132.066
881.29	126.699
885.81	55.9141
890.328	84.418
894.843	246.383
899.356	65.8203
903.866	236.539
908.373	102.949
912.878	139.969
917.38	423.594
921.88	379.043
926.377	480.426
930.872	311.707
935.364	266.918
939.853	462.18
944.34	529.602
948.824	739.973
953.306	652.316
957.785	723.609
962.261	936.891
966.735	1120.5
971.207	1163.43
975.675	1272.7
980.141	1417.14
984.605	1723.57
989.066	1973.77
993.524	2068.84
997.98	2212.21
1002.43	2199.11
1006.88	2729.98
1011.33	2572.7
1015.78	2674.52
1020.22	2704.08
1024.66	2346.93
1029.1	2486.31
1033.53	2524.89
1037.97	2436.61
1042.4	2690.2
1046.82	3064.58
1051.25	2906.72
1055.67	3321.97
1060.09	3169.11
1064.51	3649.31
1068.92	3732.84
1073.33	3755.74
1077.74	3988.64
1082.15	4160.43
1086.55	4308.5
1090.95	4170.54
1095.35	3950.15
1099.75	4058.68
1104.14	3831.82
1108.53	3583.39
1112.92	3297.54
1117.31	3608.58
1121.69	3624.79
1126.07	3155.03
1130.45	3012.03
1134.82	2904.94
1139.19	2432.47
1143.57	2401.84
1147.93	2046.25
1152.3	1714.64
1156.66	1782.07
1161.02	1477.91
1165.38	1604.36
1169.73	1305.82
1174.08	1091.49
1178.43	637.562
1182.78	565.496
1187.12	632.074
1191.46	462.75
1195.8	285.168
1200.14	166.449
1204.47	146.238
1208.8	55.9883
1213.13	71.5039
1217.46	89.0391
1221.78	60.3594
1226.1	74.9766
1230.42	153.367
1234.73	71.8047
1239.04	151.234
1243.35	434.555
1247.66	96.75
1251.97	106.898
1256.27	272.746
1260.57	109.988
1264.86	293.676
1269.16	53.9961
1273.45	118.016
1277.74	49.1172
1282.03	378.926
1286.31	397.266
1290.59	152.773
1294.87	6.86328
1299.14	330.797
1303.42	479.731
1307.69	58.2383
1311.95	287.512
1316.22	168.562
1320.48	27.375
1324.74	278.754
1329	385.832
1333.26	472.402
1337.51	474.965
1341.76	441.242
1346	231.477
1350.25	368.332
1354.49	257.535
1358.73	475.648
1362.96	538.023
1367.2	588.07
1371.43	317.977
1375.66	430.352
1379.88	1073.45
1384.11	375.496
1388.33	364.789
1392.54	239.504
1396.76	68.2617
1400.97	393.449
1405.18	429.117
1409.39	288.199
1413.59	75.4805
1417.8	287.894
1421.99	389.644
1426.19	133.398
1430.38	257.43
1434.58	331.941
1438.77	181.949
1442.95	255.871
1447.13	344.367
1451.32	288.5
1455.49	138.285
1459.67	536.383
1463.84	509.156
1468.01	64.3906
1472.18	667.543
1476.35	535.09
1480.51	205.508
1484.67	605.539
1488.83	370.25
1492.98	344.816
1497.13	77.1602
1501.28	150.598
1505.43	376.664
1509.57	8.99609
1513.71	175.816
1517.85	144.684
1521.99	239.844
1526.12	134.902
1530.25	398.199
1534.38	146.465
1538.5	285.461
1542.62	209.676
1546.74	208.07
1550.86	420.133
1554.98	533.184
1559.09	7.20703
1563.2	183.481
1567.31	423.488
1571.41	0.78125
