Measurement: Raman, 514 nm, ccw, Raman Data Processed
Mineral: Chabazite-Ca
Rruff sample: R050014
Ideal chemistry: Ca_2_Al_4_Si_8_O_24_13H_2_O
Locality: Tablo Mountain, Baja California, Mexico
Source: University of Arizona Mineral Museum
Description: Light tan colored rhombohedral single crystals
Measured chemistry: (Ca_0.72_Mg_0.11_K_0.09_Sr_0.06_Na_0.01_)_Σ=1_(Si_4.12_Al_1.88_)O_12_·6H_2_O
Pin_id: M00165
Orientation: Laser parallel to (-1 -1 -1). Fiducial mark perpendicular to laser is parallel to [-1 1 0]
Raman shift (cm-1)	intensity
105.815	0
110.744	34.2383
115.671	942.383
120.596	1543.6
125.519	2840.64
130.439	4748.15
135.356	6741.12
140.271	10623.9
145.184	13209.7
150.094	8869.18
155.002	6987.81
159.908	6018.97
164.811	5741.47
169.711	5520.55
174.61	5789.84
179.505	5694.48
184.399	5590.08
189.29	5221.3
194.178	4518.68
199.064	3926.44
203.948	2818.49
208.829	1871.79
213.708	1679.82
218.585	1029.62
223.459	341.463
228.33	42.0312
233.199	10.8438
238.066	142.201
242.93	458.275
247.792	376.088
252.651	527.693
257.508	135.156
262.363	8.54492
267.215	148.549
272.064	536.68
276.912	711.482
281.756	1011.42
286.598	1403.12
291.438	1803.2
296.276	2176.43
301.111	2292.97
305.943	2823.85
310.773	3566.02
315.601	4496.7
320.426	5436.94
325.248	6106.7
330.068	6183.74
334.886	5701.42
339.701	5182.94
344.514	4572.09
349.324	4123.52
354.132	3672.09
358.938	3136.98
363.741	3088.68
368.541	2839.34
373.339	2699.11
378.135	2750.28
382.928	2550.74
387.718	2759.15
392.506	2704.75
397.292	2797.44
402.075	2873.71
406.856	2868.15
411.634	3676.38
416.41	3889.93
421.183	5079.7
425.954	6072.86
430.722	8248.85
435.488	10491.5
440.251	13693.2
445.012	17043.2
449.77	20406.3
454.526	23077.4
459.28	25165.3
464.03	26694.5
468.779	29735.7
473.525	32924.8
478.268	33910.5
483.009	31441.7
487.747	25051.6
492.483	18505.3
497.217	13219.4
501.948	9627.99
506.676	6614.42
511.402	5280.91
516.125	3839.97
520.846	2810.93
525.565	2052.76
530.281	1655.98
534.994	1307.99
539.705	950.301
544.413	792.641
549.119	382.059
553.822	444.256
558.523	99.5703
563.222	166.44
567.917	37.5547
572.611	40.2832
577.302	55.6934
581.99	11.6367
586.676	33.873
591.359	173.07
596.04	106.022
600.718	34.5957
605.394	94.5566
610.067	116.766
614.737	47.8438
619.406	258.607
624.071	139.164
628.734	706.109
633.395	858.533
638.053	938.422
642.708	1153.65
647.361	902.156
652.012	751.93
656.66	704.394
661.305	547.148
665.948	433.504
670.588	240.918
675.226	408.691
679.861	371.785
684.494	453.609
689.124	242.738
693.752	711.789
698.377	540.973
702.999	828.781
707.619	641.82
712.237	795.258
716.852	720.617
721.464	447.957
726.074	674.453
730.681	337.195
735.286	397.91
739.888	622.231
744.488	424.309
749.085	245.516
753.68	562.293
758.272	584.434
762.861	478.621
767.448	568.156
772.033	801.184
776.614	1006.78
781.194	1327.1
785.77	1025.92
790.345	1148.09
794.916	936.035
799.485	805.391
804.052	602.797
808.616	211.742
813.177	28.6836
817.736	147.891
822.292	107.719
826.846	79.2305
831.397	234.703
835.945	155.93
840.491	160.148
845.035	0.863281
849.576	39.6523
854.114	173.809
858.65	46.8594
863.183	224.527
867.713	29.1523
872.241	191.109
876.767	48.4062
881.29	28.4883
885.81	53.0898
890.328	28.1484
894.843	3.43359
899.356	61.6328
903.866	18.1953
908.373	44.1289
912.878	278.019
917.38	156.996
921.88	44.8203
926.377	292.508
930.872	53.3164
935.364	200.582
939.853	387.07
944.34	437.797
948.824	426.242
953.306	807.301
957.785	698.676
962.261	611.508
966.735	843.699
971.207	1010.5
975.675	1088.23
980.141	1303.02
984.605	1615.89
989.066	1768.56
993.524	1517.24
997.98	1909.6
1002.43	2011.18
1006.88	2173.57
1011.33	1941.84
1015.78	2184.79
1020.22	2223.77
1024.66	2335.58
1029.1	2288.06
1033.53	2231.32
1037.97	2375.13
1042.4	2133.82
1046.82	2388.71
1051.25	2389.11
1055.67	2695.91
1060.09	2922.88
1064.51	3026.98
1068.92	2948.82
1073.33	3481.72
1077.74	3239.12
1082.15	2915.46
1086.55	3023.94
1090.95	3121.34
1095.35	2841.61
1099.75	3017.7
1104.14	3077.13
1108.53	3040.9
1112.92	2663.52
1117.31	2860.04
1121.69	2411.64
1126.07	2443.86
1130.45	2051.93
1134.82	2211.86
1139.19	1875.52
1143.57	1825.7
1147.93	1434.11
1152.3	1604.11
1156.66	1394.52
1161.02	1166.93
1165.38	1000.57
1169.73	641.234
1174.08	729.106
1178.43	479.629
1182.78	402.449
1187.12	221.316
1191.46	156.664
1195.8	229.59
1200.14	79.9766
1204.47	134.234
1208.8	98.0859
1213.13	24.2227
1217.46	213.207
1221.78	14.4805
1226.1	61.7266
1230.42	113.758
1234.73	501.602
1239.04	512.301
1243.35	27.8477
1247.66	65.6992
1251.97	6.57812
1256.27	34.2461
1260.57	77.418
1264.86	122.094
1269.16	166.668
1273.45	379.465
1277.74	251.91
1282.03	122.184
1286.31	183.738
1290.59	375.844
1294.87	125.602
1299.14	105.164
1303.42	10.0117
1307.69	189.93
1311.95	258.516
1316.22	387.812
1320.48	443.738
1324.74	32.5273
1329	275.637
1333.26	77.4609
1337.51	429.367
1341.76	401.848
1346	317.555
1350.25	136.625
1354.49	253.461
1358.73	323.152
1362.96	425.644
1367.2	323.125
1371.43	376.621
1375.66	191.547
1379.88	363.691
1384.11	249.547
1388.33	279.656
1392.54	295.5
1396.76	482.715
1400.97	178.293
1405.18	63.2617
1409.39	245.648
1413.59	108.144
1417.8	290.301
1421.99	360.059
1426.19	372.074
1430.38	257.473
1434.58	489.176
1438.77	534.062
1442.95	575.953
1447.13	223.977
1451.32	516.613
1455.49	220.715
1459.67	263.758
1463.84	356.902
1468.01	401.863
1472.18	436.469
1476.35	188.859
1480.51	536.086
1484.67	392.981
1488.83	390.672
1492.98	131.492
1497.13	197.273
1501.28	706.789
1505.43	737.227
1509.57	114.512
1513.71	458.832
1517.85	414.531
1521.99	446.277
1526.12	378.191
1530.25	248.332
1534.38	480.824
1538.5	317.918
1542.62	478.113
1546.74	250.762
1550.86	279.523
1554.98	656.836
1559.09	151.84
1563.2	183.586
1567.31	240.711
1571.41	23.1289
