Measurement: Raman, 514 nm, ccw, Raman Data Processed
Mineral: Chabazite-Ca
Rruff sample: R050075
Ideal chemistry: Ca_2_Al_4_Si_8_O_24_13H_2_O
Locality: Victoria, Australia
Source: Rock Currier
Description: White pseudohexagonal crystals
Measured chemistry: (Ca_0.79_Na_0.22_K_0.14_)_Σ=1.15_(Si_4.08_Al_1.92_)O_12_·6H_2_O
Pin_id: L00465
Orientation: Laser parallel to a* (1 0 0). Fiducial mark perpendicular to laser is parallel to c [0 0 1]
Raman shift (cm-1)	intensity
239.175	0
241.916	82.26
244.655	295.158
247.394	279.783
250.132	456.873
252.869	101.186
255.605	145.414
258.34	768.635
261.075	207.303
263.808	315.76
266.541	161.633
269.273	168.627
272.004	155.451
274.734	109.773
277.463	140.486
280.192	531.191
282.919	845.184
285.646	388.32
288.372	372.453
291.097	422.422
293.821	643.182
296.544	937.807
299.266	1089.32
301.988	1047.68
304.709	1066.81
307.428	1156.63
310.147	1394.07
312.865	1772.08
315.583	2400.63
318.299	2839.66
321.015	3051.13
323.729	3314.97
326.443	3564.11
329.156	4167.5
331.868	4492.1
334.579	4617.76
337.29	4381.37
339.999	3784.83
342.708	3358.59
345.416	3212.84
348.123	2959.11
350.829	2311.31
353.534	2001.41
356.239	1575.06
358.942	1317.02
361.645	1277.23
364.347	1367.54
367.048	1387.9
369.748	1007.31
372.448	682.766
375.146	705.281
377.844	756.879
380.54	829.586
383.236	1005.39
385.932	826.273
388.626	843.221
391.319	728.223
394.012	948.252
396.704	1341.31
399.394	1287.37
402.084	1212.69
404.774	1348.03
407.462	1492.76
410.15	2102.55
412.836	2298.26
415.522	2591.13
418.207	2993.74
420.891	3504.37
423.575	4264.35
426.257	5612.52
428.939	6457.9
431.619	7803.12
434.299	8816.53
436.978	10710.4
439.657	13125.5
442.334	15503.6
445.011	18335.5
447.687	20877.2
450.361	22727.1
453.036	24769.4
455.709	26300.1
458.381	27711.2
461.053	27978.6
463.724	27378.6
466.394	26977.8
469.063	27680.7
471.731	28976.7
474.398	30421.5
477.065	31224.8
479.731	30822.3
482.396	29768.9
485.06	28541.7
487.723	25543.4
490.385	22165.5
493.047	18665
495.708	15053.8
498.368	12714.9
501.027	10789.5
503.685	8779.83
506.342	7292.6
508.999	5770.23
511.655	4491.15
514.31	3937.9
516.964	3524.72
519.617	2833.38
522.27	2327.52
524.921	2039.65
527.572	1619.54
530.222	1800.19
532.871	1572.3
535.52	1203.26
538.167	1048.8
540.814	891.238
543.46	1016.75
546.105	621.014
548.749	688.207
551.393	380.572
554.035	352.703
556.677	306.818
559.318	449.9
561.958	625.92
564.597	203.914
567.236	56.912
569.874	243.908
572.511	228.824
575.147	301.699
577.782	312.49
580.416	199.176
583.05	306.801
585.683	357.381
588.315	354.908
590.946	169.357
593.576	207.744
596.206	57.9
598.834	32.281
601.462	179.326
604.089	27.822
606.715	15.227
609.341	118.834
611.965	258.836
614.589	276.49
617.212	24.539
619.834	228.871
622.456	177.697
625.076	108.033
627.696	136.496
630.315	48.625
632.933	24.5
635.551	53.83
638.167	65.547
640.783	124.725
643.398	297.703
646.012	323.49
648.625	272.098
651.237	280.516
653.849	541.656
656.46	509.686
659.07	299.314
661.679	203.881
664.288	229.215
666.895	326.096
669.502	207.568
672.108	297.77
674.713	116.92
677.318	128.498
679.921	159.213
682.524	231.287
685.126	240.141
687.727	346.531
690.328	323.67
692.927	258.34
695.526	454.199
698.124	423.461
700.721	510.275
703.318	633.152
705.913	691.586
708.508	821.328
711.102	694.547
713.695	594.229
716.288	784.809
718.879	701.561
721.47	616.236
724.06	824.838
726.649	866.213
729.238	894.99
731.825	801.25
734.412	788.434
736.998	946.703
739.584	727.771
742.168	922.609
744.752	990.592
747.334	1069.43
749.916	1039.9
752.498	1165.04
755.078	1248.55
757.658	1295.92
760.237	1268.96
762.815	1331.91
765.392	1170.32
767.969	1430.54
770.544	1426.1
773.119	1502.51
775.693	1087.1
778.267	1225.99
780.839	1275
783.411	1235.56
785.982	1034.34
788.552	1231.33
791.122	1159.22
793.69	1124.25
796.258	974.391
798.825	778.48
801.391	681.869
803.957	602.271
806.522	425.273
809.085	229.033
811.649	104.979
814.211	58.945
816.772	63.838
819.333	3.717
821.893	101.951
824.452	160.182
827.011	130.164
829.568	41.66
832.125	90.225
834.681	57.061
837.236	143.105
839.791	178.334
842.345	107.232
844.898	6.186
847.45	58.918
850.001	11.219
852.552	142.379
855.102	108.377
857.651	14.385
860.199	93.023
862.746	88.855
865.293	89.891
867.839	46.273
870.384	17.047
872.928	16.09
875.472	77.781
878.015	11.094
880.557	43.119
883.098	141.057
885.639	168.422
888.178	31.24
890.717	49.119
893.256	76.227
895.793	248.41
898.33	96.891
900.865	151.219
903.401	231.406
905.935	135.475
908.468	240.424
911.001	229.254
913.533	114.043
916.064	357.775
918.595	403.465
921.124	271.252
923.653	217.152
926.182	311.064
928.709	593.992
931.236	509.006
933.761	454.012
936.286	289.062
938.811	474.115
941.334	742.08
943.857	446.967
946.379	431.77
948.9	642.461
951.421	721.049
953.94	759.529
956.459	710.9
958.978	717.168
961.495	841.723
964.012	1033.26
966.527	909.027
969.043	687.133
971.557	1004.37
974.071	1236.59
976.583	1148.11
979.095	989.27
981.607	1186.57
984.117	1525.39
986.627	1325.51
989.136	1050.55
991.644	1280.52
994.152	1613.77
996.659	1704.84
999.165	1778.87
1001.67	1637.28
1004.17	1890.38
1006.68	1920.2
1009.18	1892.14
1011.68	1945.73
1014.18	2170.26
1016.68	2329
1019.18	2393.87
1021.68	2196.36
1024.18	2150.69
1026.68	2458.17
1029.18	2348.57
1031.67	2302.11
1034.17	2339.59
1036.66	2562
1039.16	2673.29
1041.65	2298.05
1044.14	2516.42
1046.63	2598.43
1049.12	2796.6
1051.62	2914.53
1054.11	2622.18
1056.59	3001.51
1059.08	3407.75
1061.57	3295.98
1064.06	3560.96
1066.54	3791.07
1069.03	3999
1071.51	4201.34
1073.99	4114.39
1076.47	4252.5
1078.96	5105.65
1081.44	4654.01
1083.92	4618.07
1086.4	4547.66
1088.88	4921.81
1091.36	5262
1093.83	4959.16
1096.31	4765.27
1098.79	4875.35
1101.26	4926.44
1103.73	4742.59
1106.21	4414.98
1108.68	4505.5
1111.15	4517.21
1113.62	4075.66
1116.1	3833.71
1118.57	3939.11
1121.04	4188.95
1123.5	3812
1125.97	3494.37
1128.44	3196.3
1130.9	3643.69
1133.37	3429.79
1135.83	2770.35
1138.3	2815.38
1140.76	3187.84
1143.22	3012.7
1145.69	2028.49
1148.15	2850.59
1150.61	1870.55
1153.07	2428.55
1155.53	2008.41
1157.98	1816.38
1160.44	2075.44
1162.9	1881.54
1165.35	1330.09
1167.81	982.246
1170.26	1326.06
1172.72	1456.61
1175.17	568.914
1177.62	480.988
1180.07	967.84
1182.52	1067.51
1184.97	550
1187.42	273.32
1189.87	615.492
1192.32	642.559
1194.77	27.613
1197.21	40.809
1199.66	508.34
1202.1	858.414
1204.55	141.184
1206.99	16.797
1209.43	695.43
1211.88	689.328
1214.32	13.195
1216.76	146.312
1219.2	826.902
1221.64	842.953
1224.07	200.254
1226.51	340.426
1228.95	724.031
1231.38	742.363
1233.82	14.473
