Measurement: Raman, 514 nm, ccw, Raman Data Processed
Mineral: Chabazite-Ca
Rruff sample: R050075
Ideal chemistry: Ca_2_Al_4_Si_8_O_24_13H_2_O
Locality: Victoria, Australia
Source: Rock Currier
Description: White pseudohexagonal crystals
Measured chemistry: (Ca_0.79_Na_0.22_K_0.14_)_Σ=1.15_(Si_4.08_Al_1.92_)O_12_·6H_2_O
Pin_id: L00209
Orientation: Laser parallel to c* (0 0 1). Fiducial mark perpendicular to laser is parallel to b [0 1 0]
Raman shift (cm-1)	intensity
240.545	0
243.286	180.863
246.025	104.691
248.763	8.223
251.501	272.371
254.237	365.887
256.973	458.35
259.708	336.287
262.442	136.035
265.175	18.537
267.907	21.756
270.639	14.879
273.369	416.904
276.099	348.408
278.828	279.48
281.556	396.973
284.283	410.754
287.009	668.682
289.734	1118.59
292.459	1193.39
295.183	1091.05
297.905	1107.62
300.627	953.053
303.348	1189.27
306.069	1673.21
308.788	1873.81
311.507	1867.02
314.224	2113.79
316.941	2219.11
319.657	2699.92
322.372	3163.23
325.086	3657.98
327.8	3965.02
330.512	3891.3
333.224	3915.64
335.935	3910
338.645	3926.66
341.354	3739.5
344.062	3309.75
346.769	2765.62
349.476	2153.43
352.182	1941.25
354.887	2052.3
357.591	1880.48
360.294	1743.81
362.996	1303.32
365.698	948.965
368.398	1017.72
371.098	1130.59
373.797	1157.58
376.495	1138.69
379.192	957.947
381.889	877.369
384.584	935.963
387.279	1395.73
389.973	1471.65
392.666	1562.71
395.358	1438.9
398.049	1433.21
400.74	1617.63
403.429	1880.05
406.118	2078.84
408.806	2053.48
411.493	2256.97
414.179	2289.43
416.865	2954.23
419.549	3758.05
422.233	4331.44
424.916	4926.9
427.598	5671.87
430.279	6688.51
432.959	8242.07
435.639	10364.6
438.318	12056.5
440.996	14079.6
443.673	15830.8
446.349	18429.7
449.024	21465
451.699	24327.9
454.372	25936.4
457.045	27008
459.717	27628.2
462.388	28660.4
465.059	29715.4
467.728	31460.1
470.397	32742.9
473.065	33463.9
475.732	35025.7
478.398	36401.1
481.063	36983.3
483.728	34982.7
486.391	31066
489.054	26901.4
491.716	23124.8
494.377	19215.3
497.038	16323.9
499.697	13036.5
502.356	10362.2
505.014	8580.92
507.671	7298.1
510.327	6217.27
512.982	5141.97
515.637	4059.43
518.291	3837.63
520.944	3036.65
523.596	2567.5
526.247	2447.04
528.897	1866.57
531.547	1551.13
534.196	1334.41
536.844	1385.46
539.491	1369.94
542.137	1069.29
544.783	759.648
547.427	741.033
550.071	529.414
552.714	505.773
555.356	502.109
557.998	380.422
560.638	60.734
563.278	56.055
565.917	265.439
568.555	222.877
571.192	309.371
573.829	48.141
576.464	62.305
579.099	105.742
581.733	191.182
584.366	154.615
586.999	21.943
589.63	174.527
592.261	18.699
594.891	357.92
597.52	39.061
600.148	10.064
602.776	114.002
605.402	30.264
608.028	89.637
610.653	61.631
613.277	40.559
615.901	241.734
618.523	0.551
621.145	290.406
623.766	343.266
626.386	336.031
629.006	186.701
631.624	128.271
634.242	206.729
636.859	326.043
639.475	390.217
642.09	396.281
644.705	442.229
647.318	456.059
649.931	645.771
652.543	460.361
655.155	333.188
657.765	385.473
660.375	356.77
662.984	372.816
665.592	188.25
668.199	124.324
670.805	78.924
673.411	221.482
676.016	97.238
678.62	240.369
681.223	196.898
683.825	105.141
686.427	333.178
689.028	497.119
691.628	450.691
694.227	364.322
696.825	468.941
699.423	546.285
702.02	641.025
704.616	667.211
707.211	509.229
709.805	544.023
712.399	645.834
714.992	904.916
717.584	739.826
720.175	831.49
722.765	795.797
725.355	690.326
727.944	815.168
730.532	913.418
733.119	815.6
735.705	613.379
738.291	669.354
740.876	762.857
743.46	758.42
746.043	702.002
748.626	864.838
751.207	981.49
753.788	1027.47
756.368	993.127
758.947	1024.81
761.526	1051.64
764.104	1109.81
766.68	1116.88
769.257	1193.25
771.832	1048.92
774.406	1089.75
776.98	1007.03
779.553	1196.44
782.125	1201.58
784.697	1320.41
787.267	1363.76
789.837	1243.66
792.406	1395.57
794.974	1189.56
797.542	1157.17
800.108	1067.7
802.674	823
805.239	615.074
807.804	323.914
810.367	217.52
812.93	262.883
815.492	280.992
818.053	68.848
820.613	199.742
823.173	103.57
825.732	116.734
828.29	70.895
830.847	102.033
833.403	159.883
835.959	156.758
838.514	12.139
841.068	39.24
843.621	99.889
846.174	19.385
848.726	118.926
851.277	144.115
853.827	236.885
856.376	130.371
858.925	187.582
861.473	193.566
864.02	234.328
866.566	183.869
869.112	92.164
871.656	120.791
874.2	181.127
876.744	87.078
879.286	111.967
881.828	25.559
884.369	66.922
886.909	36.084
889.448	254.035
891.987	122.795
894.524	17.355
897.061	141.73
899.598	236.979
902.133	82.096
904.668	94.064
907.202	4.955
909.735	123.68
912.267	332.291
914.799	246.805
917.33	78.777
919.86	148.656
922.389	164.043
924.918	144.445
927.445	125.936
929.972	73.32
932.499	348.596
935.024	486.771
937.549	411.85
940.073	297.842
942.596	236.723
945.118	428.492
947.64	426.115
950.161	340.602
952.681	449.945
955.2	742.15
957.719	742.219
960.236	874.65
962.753	1211.74
965.27	914.635
967.785	771.541
970.3	1006.52
972.814	955.463
975.327	983.299
977.84	1330.82
980.351	1320.87
982.862	1105.67
985.372	1263.2
987.882	1576.95
990.39	1714.66
992.898	1590.84
995.405	1637.13
997.912	1889.99
1000.42	2458.16
1002.92	2659.36
1005.43	2314.93
1007.93	2076.08
1010.43	2540.26
1012.93	2657.2
1015.43	2643.32
1017.93	2522.85
1020.43	2740.74
1022.93	3102.03
1025.43	2895.62
1027.93	2664.49
1030.42	2707.75
1032.92	2783.61
1035.42	2865.67
1037.91	2728.4
1040.4	2941.66
1042.9	3096.68
1045.39	3078.55
1047.88	2718.87
1050.37	2915
1052.86	3207.61
1055.35	3517.61
1057.84	3160.56
1060.33	3319.34
1062.81	3997.71
1065.3	4312.59
1067.78	4065.49
1070.27	4128.17
1072.75	4481.01
1075.23	4993.75
1077.72	4686.11
1080.2	4568.61
1082.68	4747.66
1085.16	5181.28
1087.64	5118.69
1090.12	4760.32
1092.59	5154.23
1095.07	5331.05
1097.55	5205.79
1100.02	4672.47
1102.5	4555.09
1104.97	5057.73
1107.44	4950.48
1109.92	4395.77
1112.39	4421.79
1114.86	4616.72
1117.33	4477.15
1119.8	3880.01
1122.27	3866.32
1124.74	4359.92
1127.2	4167.71
1129.67	3539.72
1132.14	3324.23
1134.6	3316.32
1137.07	3871.45
1139.53	2997.48
1141.99	2986.4
1144.45	2874.93
1146.92	3273.75
1149.38	2734.8
1151.84	2319.08
1154.3	2309.66
1156.76	2511.41
1159.21	2072.27
1161.67	1561.26
1164.13	1654.35
1166.58	2004.86
1169.04	1459
1171.49	941.84
1173.94	1089.44
1176.4	1555.81
1178.85	1029.9
1181.3	595.725
1183.75	684.322
1186.2	1091.73
1188.65	545.943
1191.1	69.012
1193.54	259.002
1195.99	642.016
1198.44	523.174
1200.88	90.324
1203.33	381.723
1205.77	736.463
1208.21	305.027
1210.65	29.383
1213.1	477.479
1215.54	814.943
1217.98	469.447
1220.42	44.943
1222.86	613.992
1225.29	785.611
1227.73	605.607
1230.17	21.514
1232.6	544.312
1235.04	952.941
