Measurement: Raman, 514 nm, ccw, Raman Data Processed
Mineral: Chabazite-Ca
Rruff sample: R050014
Ideal chemistry: Ca_2_Al_4_Si_8_O_24_13H_2_O
Locality: Tablo Mountain, Baja California, Mexico
Source: University of Arizona Mineral Museum
Description: Light tan colored rhombohedral single crystals
Measured chemistry: (Ca_0.72_Mg_0.11_K_0.09_Sr_0.06_Na_0.01_)_Σ=1_(Si_4.12_Al_1.88_)O_12_·6H_2_O
Pin_id: M00242
Orientation: Laser parallel to (-1 1 0). Fiducial mark perpendicular to laser is parallel to [1 1 1]
Raman shift (cm-1)	intensity
105.815	0
110.744	268.369
115.671	759.234
120.596	990.305
125.519	1917.82
130.439	3547.45
135.356	6744.41
140.271	15818.5
145.184	10379.7
150.094	4755.38
155.002	2959.39
159.908	2091.47
164.811	2184.42
169.711	2355.38
174.61	2448.01
179.505	2250.03
184.399	2121.45
189.29	2187.35
194.178	2211.54
199.064	1963.91
203.948	1268.81
208.829	656.537
213.708	438.365
218.585	233.863
223.459	38.8867
228.33	243.426
233.199	170.756
238.066	7.10156
242.93	157.133
247.792	149.68
252.651	194.674
257.508	279.744
262.363	45.9219
267.215	274.027
272.064	611.486
276.912	589.223
281.756	825.975
286.598	819.221
291.438	708.084
296.276	875.631
301.111	1058.55
305.943	1217.46
310.773	1468.7
315.601	1754.46
320.426	1943.4
325.248	2257.55
330.068	2296.54
334.886	2076.79
339.701	2087.93
344.514	1492.21
349.324	1245.62
354.132	1212.41
358.938	1196.26
363.741	1159.39
368.541	887.861
373.339	712.898
378.135	892.723
382.928	1003.21
387.718	1156.19
392.506	1289.78
397.292	1258.06
402.075	959.021
406.856	1027.56
411.634	1046.85
416.41	1065.47
421.183	1467.99
425.954	1887.44
430.722	2800.46
435.488	3924.58
440.251	5398.18
445.012	6552.94
449.77	8238.16
454.526	9281.47
459.28	9758.11
464.03	9862.47
468.779	9970.23
473.525	10657.4
478.268	10835.5
483.009	9134.87
487.747	7196.97
492.483	5537.81
497.217	3812.44
501.948	2797.89
506.676	2251.37
511.402	1820.34
516.125	1576.83
520.846	1213.38
525.565	870.481
530.281	666.932
534.994	635.998
539.705	434.41
544.413	570.396
549.119	205.127
553.822	7.6543
558.523	382.398
563.222	151.039
567.917	35.7598
572.611	185.516
577.302	51.627
581.99	63.2383
586.676	97.4414
591.359	121.537
596.04	88.9492
600.718	26.4961
605.394	13.1465
610.067	30.6328
614.737	367.065
619.406	345.648
624.071	752.865
628.734	876.285
633.395	1440.94
638.053	1316.61
642.708	1170.9
647.361	797.811
652.012	524.295
656.66	460.75
661.305	363.106
665.948	136.387
670.588	298.42
675.226	155.178
679.861	30.1602
684.494	212.879
689.124	117.174
693.752	156.182
698.377	217.588
702.999	259.629
707.619	182.535
712.237	496.996
716.852	126.33
721.464	612.309
726.074	243.242
730.681	283.641
735.286	436.309
739.888	219.656
744.488	470.504
749.085	218.012
753.68	380.871
758.272	373.262
762.861	406.231
767.448	469.352
772.033	534.523
776.614	720.156
781.194	393.172
785.77	499.461
790.345	332.043
794.916	438.523
799.485	482.719
804.052	429.008
808.616	226.715
813.177	424.41
817.736	458.973
822.292	509.727
826.846	165.262
831.397	468.527
835.945	206.203
840.491	254.766
845.035	228.969
849.576	28.5781
854.114	54.8555
858.65	195.484
863.183	234.324
867.713	108.195
872.241	16.1523
876.767	397.988
881.29	26.2773
885.81	129.113
890.328	86.7422
894.843	151.973
899.356	103.625
903.866	62.8477
908.373	6.79688
912.878	116.211
917.38	129.695
921.88	143.496
926.377	99.2266
930.872	288.574
935.364	183.566
939.853	149.66
944.34	178.582
948.824	7.40625
953.306	301.242
957.785	444.402
962.261	592.828
966.735	381.051
971.207	594.199
975.675	584
980.141	612.656
984.605	885.004
989.066	858.418
993.524	522.91
997.98	613.082
1002.43	687.566
1006.88	566.32
1011.33	832.137
1015.78	802.883
1020.22	648.141
1024.66	684.191
1029.1	794.148
1033.53	1056.33
1037.97	1031.62
1042.4	1579.05
1046.82	931.051
1051.25	1149.54
1055.67	1106.54
1060.09	1268.36
1064.51	1339.31
1068.92	1462.98
1073.33	1262
1077.74	1755.33
1082.15	1399.24
1086.55	1487.82
1090.95	1570.73
1095.35	1593.33
1099.75	1498.05
1104.14	1406.33
1108.53	1243.71
1112.92	1049.74
1117.31	1278.79
1121.69	1137.17
1126.07	1334
1130.45	1372.32
1134.82	1247.12
1139.19	1054.85
1143.57	948.535
1147.93	678.086
1152.3	574.039
1156.66	680.801
1161.02	553.941
1165.38	589.988
1169.73	214.406
1174.08	379.867
1178.43	0.535156
1182.78	222.164
1187.12	322.652
1191.46	124.836
1195.8	16.2734
1200.14	477.363
1204.47	127.801
1208.8	263.824
1213.13	69.9922
1217.46	52.3789
1221.78	287.898
1226.1	103.875
1230.42	88.3633
1234.73	279.519
1239.04	203.5
1243.35	146.289
1247.66	119.938
1251.97	427.508
1256.27	74.5742
1260.57	520.977
1264.86	133.902
1269.16	165.324
1273.45	4.875
1277.74	252.945
1282.03	421.609
1286.31	65.1992
1290.59	506.109
1294.87	454.887
1299.14	348.457
1303.42	434.356
1307.69	700.231
1311.95	701.113
1316.22	609.949
1320.48	350.695
1324.74	455.141
1329	375.391
1333.26	773.922
1337.51	286.809
1341.76	337.629
1346	613.891
1350.25	494.914
1354.49	303.109
1358.73	819.117
1362.96	722.219
1367.2	452.422
1371.43	617.523
1375.66	568.121
1379.88	558.113
1384.11	590.211
1388.33	378.922
1392.54	568.625
1396.76	272.836
1400.97	287.996
1405.18	644.207
1409.39	137.762
1413.59	585.262
1417.8	117.102
1421.99	155.535
1426.19	551.676
1430.38	440.215
1434.58	497.477
1438.77	640.266
1442.95	192.84
1447.13	596.527
1451.32	292.742
1455.49	436.926
1459.67	380.812
1463.84	431.148
1468.01	501.898
1472.18	27.6523
1476.35	312.07
1480.51	420.644
1484.67	252.035
1488.83	306.184
1492.98	446.445
1497.13	2.12891
1501.28	124.461
1505.43	218.148
1509.57	61.3477
1513.71	84.1133
1517.85	620.332
1521.99	216.969
1526.12	34.9531
1530.25	415.641
1534.38	294.457
1538.5	430.32
1542.62	119.336
1546.74	254.981
1550.86	333.121
1554.98	313.961
1559.09	213.043
1563.2	204.156
1567.31	186.527
1571.41	18.8594
