Measurement: Raman, 514 nm, ccw, Raman Data Processed
Mineral: Chabazite-Ca
Rruff sample: R050075
Ideal chemistry: Ca_2_Al_4_Si_8_O_24_13H_2_O
Locality: Victoria, Australia
Source: Rock Currier
Description: White pseudohexagonal crystals
Measured chemistry: (Ca_0.79_Na_0.22_K_0.14_)_Σ=1.15_(Si_4.08_Al_1.92_)O_12_·6H_2_O
Pin_id: L00209
Orientation: Laser parallel to c* (0 0 1). Fiducial mark perpendicular to laser is parallel to b [0 1 0]
Raman shift (cm-1)	intensity
239.175	0
241.916	118.041
244.655	192.232
247.394	504.518
250.132	466.818
252.869	250.793
255.605	153.635
258.34	137.754
261.075	26.016
263.808	237.131
266.541	385.6
269.273	259.963
272.004	8.916
274.734	11.816
277.463	201.52
280.192	581.713
282.919	849.553
285.646	1317.81
288.372	1024.3
291.097	1109.87
293.821	1197.5
296.544	1670.28
299.266	2015.17
301.988	2081.06
304.709	1957.85
307.428	1844.47
310.147	2020.83
312.865	2212.89
315.583	2825.59
318.299	3415.88
321.015	3431.71
323.729	3385.82
326.443	3963.15
329.156	4180.7
331.868	4649.46
334.579	4751.29
337.29	4325.07
339.999	3791.25
342.708	3450.99
345.416	3146.52
348.123	2766.39
350.829	2537.38
353.534	2121.07
356.239	1654.97
358.942	1238.01
361.645	1176.2
364.347	1405.53
367.048	1485.96
369.748	1176.48
372.448	1012.11
375.146	857.826
377.844	1045.67
380.54	1292.64
383.236	1394.76
385.932	1292.01
388.626	1408.37
391.319	1344.85
394.012	1503.43
396.704	1852.09
399.394	1727
402.084	1786.14
404.774	1724.69
407.462	1824.15
410.15	2138.51
412.836	2685.6
415.522	2936.81
418.207	3121.2
420.891	3743.09
423.575	4250.49
426.257	5810.27
428.939	7028.67
431.619	8486.09
434.299	9804.28
436.978	11495.1
439.657	14143.3
442.334	17184.5
445.011	19991.5
447.687	23149.2
450.361	25162.5
453.036	26991.6
455.709	28663.4
458.381	30451.8
461.053	30766
463.724	29963.6
466.394	28978.6
469.063	29083.7
471.731	30256.9
474.398	31916.4
477.065	32842.4
479.731	32107.7
482.396	30895
485.06	29536.9
487.723	26386.8
490.385	23217.2
493.047	19649.6
495.708	15857
498.368	12934.5
501.027	10922
503.685	9204.58
506.342	7579.2
508.999	6130.46
511.655	4701.97
514.31	4098.67
516.964	3729.05
519.617	3190.4
522.27	2405.36
524.921	2125.44
527.572	1623.53
530.222	1771.55
532.871	1611.66
535.52	1391.85
538.167	1085.05
540.814	846.793
543.46	666.947
546.105	680.309
548.749	715.816
551.393	426.139
554.035	296.426
556.677	39.697
559.318	282.938
561.958	243.186
564.597	322.408
567.236	238.674
569.874	19.068
572.511	58.17
575.147	334.371
577.782	186.508
580.416	0.562
583.05	96.564
585.683	190.523
588.315	205.455
590.946	216.391
593.576	143.219
596.206	114.045
598.834	54.502
601.462	134.852
604.089	1.016
606.715	57.117
609.341	192.604
611.965	270.609
614.589	73.213
617.212	26.236
619.834	81.662
622.456	45.445
625.076	51.525
627.696	130.328
630.315	264.963
632.933	149.43
635.551	32.727
638.167	50.832
640.783	132.76
643.398	454.508
646.012	438.082
648.625	364.479
651.237	371.701
653.849	458.799
656.46	394.307
659.07	338.588
661.679	388.842
664.288	216.385
666.895	172.371
669.502	380.404
672.108	300.25
674.713	114.523
677.318	59.676
679.921	181.738
682.524	266.578
685.126	345.287
687.727	394.477
690.328	206.637
692.927	210.689
695.526	408.957
698.124	503.814
700.721	515.527
703.318	451.328
705.913	569.668
708.508	752.568
711.102	744.082
713.695	676.545
716.288	562.76
718.879	755.457
721.47	727.152
724.06	955.766
726.649	898.629
729.238	778.967
731.825	789.295
734.412	1073.24
736.998	1020.12
739.584	848.939
742.168	956.984
744.752	1168.16
747.334	1249.88
749.916	1379.38
752.498	1431.5
755.078	1384.75
757.658	1543.34
760.237	1655.14
762.815	1752.67
765.392	1712.43
767.969	1602.76
770.544	1724.19
773.119	1824.21
775.693	1506.94
778.267	1499.66
780.839	1440.91
783.411	1532.97
785.982	1497.07
788.552	1307.56
791.122	1225.2
793.69	1091.14
796.258	1019.19
798.825	831.619
801.391	750.115
803.957	455.014
806.522	307.648
809.085	346.01
811.649	216.084
814.211	80.838
816.772	162.236
819.333	21.887
821.893	146.812
824.452	67.043
827.011	32.814
829.568	1.988
832.125	40.906
834.681	106.703
837.236	59.621
839.791	39.564
842.345	141.859
844.898	3.223
847.45	21.645
850.001	179.459
852.552	68.211
855.102	99.896
857.651	118.658
860.199	62.066
862.746	24.812
865.293	100.012
867.839	42.396
870.384	80.477
872.928	47.23
875.472	130.645
878.015	12.285
880.557	62.455
883.098	21.916
885.639	104.129
888.178	87.141
890.717	89.932
893.256	149.5
895.793	30.156
898.33	21.072
900.865	155.811
903.401	361.502
905.935	259.012
908.468	142.355
911.001	24.449
913.533	172.643
916.064	303.707
918.595	241.754
921.124	192.885
923.653	334.025
926.182	220.205
928.709	371.385
931.236	264.498
933.761	267.52
936.286	330.434
938.811	528.252
941.334	531.973
943.857	400.574
946.379	580.025
948.9	720.334
951.421	885.488
953.94	791.498
956.459	648.359
958.978	691.52
961.495	1042.21
964.012	805.463
966.527	875.354
969.043	979.373
971.557	1107.13
974.071	1271.23
976.583	910.322
979.095	1095.2
981.607	1367.39
984.117	1672.2
986.627	1411.53
989.136	1498.69
991.644	1616.9
994.152	1808.54
996.659	2058.03
999.165	1819.2
1001.67	2060.54
1004.17	2393.42
1006.68	2353.21
1009.18	2120.77
1011.68	2227.95
1014.18	2463.81
1016.68	2672.05
1019.18	2792.82
1021.68	2619.72
1024.18	2907.11
1026.68	3054.97
1029.18	2819.83
1031.67	2631.22
1034.17	2779.02
1036.66	2928.58
1039.16	3049.69
1041.65	2901.04
1044.14	2829.11
1046.63	3249.88
1049.12	3357.5
1051.62	3191.11
1054.11	3164.69
1056.59	3599.61
1059.08	4034.31
1061.57	3950.56
1064.06	3802.88
1066.54	4252.61
1069.03	4634.81
1071.51	4644.02
1073.99	4602.26
1076.47	5051.53
1078.96	5430.73
1081.44	5415.72
1083.92	5052.05
1086.4	5150.75
1088.88	5573.84
1091.36	5556.37
1093.83	5292.1
1096.31	5172.27
1098.79	5446.33
1101.26	5482.33
1103.73	5083.31
1106.21	4930.35
1108.68	5134.55
1111.15	5171.03
1113.62	4551.72
1116.1	4305.65
1118.57	4704.22
1121.04	4658.41
1123.5	4299.28
1125.97	3959.61
1128.44	4056.21
1130.9	4110.27
1133.37	3811.78
1135.83	3203.78
1138.3	3471.2
1140.76	3706.89
1143.22	3422.87
1145.69	3007.22
1148.15	2738.86
1150.61	2951.8
1153.07	2732.96
1155.53	1942.28
1157.98	2116.77
1160.44	2308.37
1162.9	2010.08
1165.35	1448.84
1167.81	1323.89
1170.26	1709.49
1172.72	1459.71
1175.17	698.619
1177.62	806.248
1180.07	1094.63
1182.52	1132.74
1184.97	357.578
1187.42	302.17
1189.87	782.516
1192.32	667.652
1194.77	28.625
1197.21	274.498
1199.66	790.389
1202.1	572.449
1204.55	40.115
1206.99	115.854
1209.43	540.477
1211.88	478.893
1214.32	12.289
1216.76	96.924
1219.2	658.137
1221.64	447.764
1224.07	41.861
1226.51	159.832
1228.95	576.902
1231.38	467.832
1233.82	4.705
1236.26	320.279
1238.69	0
