Measurement: Raman, 514 nm, ccw, Raman Data Processed
Mineral: Chalcopyrite
Rruff sample: R050222
Ideal chemistry: Cu^1+^Fe^3+^S_2_
Locality: Iron Cap mine, Landsman Camp, Graham County, Arizona, USA
Source: Bob Downs
Description: Group of brass yellow metallic tetrahedra, dark streaks represent alteration by bacteria where S is left behind
Measured chemistry: Cu_1.00_Fe_1.00_S_2.00_
Raman shift (cm-1)	intensity
122.592	0
126.758	65.626
130.922	260.259
135.083	737.068
139.243	1319.42
143.401	1770.43
147.557	2034.89
151.711	2185.16
155.863	2514.17
160.013	2817.33
164.161	3171.93
168.308	3808.34
172.452	4915.87
176.594	4690
180.734	4486.21
184.872	3631.63
189.008	3259.3
193.143	3041.79
197.275	2722.27
201.405	2757.1
205.534	3034.31
209.66	3925.23
213.784	4938.51
217.907	5309.02
222.027	4438.87
226.146	3402.43
230.263	2826.95
234.377	2472.12
238.49	1842.72
242.601	748.359
246.709	145.797
250.816	59.875
254.921	238.395
259.024	277.567
263.125	195.757
267.224	99.148
271.321	114.455
275.416	374.08
279.51	614.492
283.601	1162.59
287.69	2544.96
291.778	5636.55
295.863	10003.3
299.947	12270.7
304.029	9818.95
308.108	7736.36
312.186	5614.22
316.262	2982.49
320.336	2298.23
324.408	4512.7
328.478	8371.06
332.546	9992.53
336.612	9998.91
340.677	13910.2
344.739	33288.6
348.799	59566.1
352.858	43111
356.915	16158.3
360.969	8219.38
365.022	6155.25
369.073	5177
373.122	4558.59
377.169	4447.81
381.215	4283.36
385.258	4192.79
389.299	4361.39
393.339	4355.48
397.376	4256.6
401.412	3790.89
405.446	3174.45
409.478	2977.89
413.508	3161.28
417.536	3444.81
421.562	3401.09
425.586	3115.21
429.609	2743.78
433.629	2155.85
437.648	1971.18
441.665	1871.43
445.68	1972.53
449.693	1889.5
453.704	1203.29
457.713	375.848
461.721	68.111
465.726	12.016
469.73	21.763
473.731	36.193
477.731	32.298
481.729	16.06
485.725	47.577
489.72	18.745
493.712	42.489
497.703	42.832
501.691	96.792
505.678	116.448
509.663	194.617
513.646	272.528
517.627	270.17
521.607	260.582
525.584	170.793
529.56	82.772
533.534	47.479
537.506	7.094
541.476	48.023
545.444	40.435
549.41	15.333
553.375	35.338
557.337	53.699
561.298	114.792
565.257	157.634
569.214	181.244
573.17	251.871
577.123	298.986
581.075	398.739
585.024	502.974
588.972	662.484
592.918	824.395
596.863	1093.93
600.805	1293.47
604.746	1666.45
608.685	1871.58
612.621	2030.12
616.557	1960.12
620.49	1371.23
624.421	1070.06
628.351	1018.22
632.279	1284.23
636.205	1531.74
640.129	1565.44
644.051	1117.65
647.972	847.01
651.89	1015.66
655.807	1465.83
659.722	2204.09
663.636	3388.06
667.547	4220.93
671.457	3869.56
675.365	3150.78
679.271	2677.88
683.175	2363.32
687.077	2126.93
690.978	1986
694.877	1693.54
698.774	1220.02
702.669	706.093
706.562	414.524
710.454	271.837
714.344	193.651
718.232	197.076
722.118	148.123
726.002	99.546
729.885	66.155
733.766	45.095
737.645	33.455
741.522	38.509
745.397	6.17
749.271	26.401
753.143	56.823
757.013	41.049
760.881	1.924
764.748	7.937
768.613	1.654
772.476	36.221
776.337	1.35
780.196	38.038
784.054	14.563
787.91	28.836
791.764	20.746
795.616	12.34
799.467	8.96
803.316	59.341
807.163	23.566
811.008	4.705
814.851	35.119
818.693	38.714
822.533	13.589
826.371	21.272
830.208	11.012
834.042	34.45
837.875	15.927
841.706	21.565
845.536	11.567
849.363	6.437
853.189	17.677
857.013	20.825
860.836	0.008
864.656	36.17
868.475	20.732
872.292	1.746
876.108	19.845
879.922	4.067
883.733	2.393
887.544	41.518
891.352	51.458
895.159	1.657
898.964	35.828
902.767	60.513
906.568	39.18
910.368	67.401
914.166	89.654
917.962	60.795
921.757	89.127
925.55	93.883
929.341	63.561
933.13	74.682
936.918	115.13
940.703	76.49
944.488	49.18
948.27	122.451
952.051	70.76
955.83	99.004
959.607	132.754
963.383	105.1
967.156	110.064
970.928	89.306
974.699	105.007
978.468	89.809
982.234	148.893
986	149.536
989.763	179.282
993.525	113.498
997.285	116.741
1001.04	136.961
1004.8	137.937
1008.55	170.373
1012.31	132.029
1016.06	170.416
1019.81	140.338
1023.56	115.917
1027.31	100.33
1031.05	114.703
1034.79	117.953
1038.53	89.83
1042.27	125.404
1046.01	72.237
1049.75	73.756
1053.48	15.301
1057.22	69.525
1060.95	60.865
1064.68	74.424
1068.4	96.111
1072.13	87.708
1075.86	48.062
1079.58	77.592
1083.3	91.294
1087.02	26.745
1090.74	51.041
1094.45	24.385
1098.17	81.14
1101.88	3.685
1105.59	57.088
1109.3	35.255
1113.01	29.557
1116.71	36.562
1120.42	50.688
1124.12	163.283
1127.82	63.477
1131.52	30.022
1135.22	13.921
1138.91	14.89
1142.61	3.206
1146.3	3.341
1149.99	27.379
1153.68	46.305
1157.37	27.808
1161.06	53.136
1164.74	44.658
1168.42	34.296
1172.1	16.748
1175.78	7.965
1179.46	38.017
1183.14	75.097
1186.81	40.257
1190.48	53.144
1194.15	22.14
1197.83	57.88
1201.49	6.667
1205.16	38.345
1208.82	52.8
1212.49	15.333
1216.15	15.895
1219.81	56.377
1223.46	46.62
1227.12	11.792
1230.78	25.101
1234.43	32.817
1238.08	34.641
1241.73	1.416
1245.38	21.384
1249.03	34.932
1252.67	48.882
1256.31	28.528
1259.95	8.206
1263.6	8.721
1267.23	34.706
1270.87	4.837
1274.51	19.293
1278.14	4.5
1281.77	14.532
1285.4	18.482
1289.03	12.386
1292.66	29.419
1296.28	26.489
1299.91	27.272
1303.53	63.667
1307.15	42.677
1310.77	25.41
1314.38	28.294
1318	45.103
1321.61	61.631
1325.23	80.228
1328.84	32.978
1332.45	54.209
1336.06	28.471
1339.66	80.862
1343.27	50.158
1346.87	94.271
1350.47	108.361
1354.07	78.765
1357.67	48.811
1361.26	27.859
1364.86	84.853
1368.45	90.901
1372.04	58.266
1375.63	67.875
1379.22	75.496
1382.81	30.725
1386.39	45.286
1389.98	63.437
1393.56	5.671
1397.14	48.783
1400.72	7.948
1404.3	23.847
1407.87	45.451
1411.45	41.646
1415.02	5.343
1418.59	148.185
1422.16	69.833
1425.73	33.151
1429.29	70.389
1432.86	17.437
1436.42	42.637
1439.98	65.588
1443.54	99.33
1447.1	73.113
1450.66	87.06
1454.21	95.127
1457.77	88.457
1461.32	80.498
1464.87	75.457
1468.42	15.293
1471.96	34.163
1475.51	81.166
1479.06	97.689
1482.6	53.581
1486.14	55.14
1489.68	18.066
1493.22	82.698
1496.75	29.341
1500.29	45.471
1503.82	64.728
1507.35	28.286
1510.88	66.533
1514.41	69.941
1517.94	79.381
1521.46	98.565
1524.99	0.439
