Measurement: Raman, 514 nm, ccw, Raman Data Processed
Mineral: Chalcopyrite
Rruff sample: R050222
Ideal chemistry: Cu^1+^Fe^3+^S_2_
Locality: Iron Cap mine, Landsman Camp, Graham County, Arizona, USA
Source: Bob Downs
Description: Group of brass yellow metallic tetrahedra, dark streaks represent alteration by bacteria where S is left behind
Measured chemistry: Cu_1.00_Fe_1.00_S_2.00_
Raman shift (cm-1)	intensity
108.691	0
112.864	30.615
117.034	1043.46
121.203	213.789
125.369	890.395
129.534	2730.28
133.696	4669.27
137.857	8398.65
142.016	10154.1
146.172	12314.2
150.327	13702.2
154.48	14743.8
158.63	15811.8
162.779	18140.3
166.926	19823.5
171.07	22844
175.213	25179
179.354	24664.2
183.493	21560.6
187.63	18757.8
191.765	16744.6
195.898	15082.2
200.029	14266.6
204.158	15251.3
208.285	17924.2
212.41	23206.7
216.533	26334.7
220.654	23211.7
224.773	18188.7
228.891	14731.8
233.006	13194.9
237.119	10362
241.231	5858.3
245.34	2239.8
249.448	362.514
253.553	296.244
257.657	762.65
261.758	901.116
265.858	765.538
269.956	192.948
274.052	444.148
278.146	1070.45
282.237	2789.48
286.327	7156.41
290.416	17527.2
294.502	36046.1
298.586	50262.7
302.668	41544.4
306.749	26359.9
310.827	14586
314.903	7640.65
318.978	5655.06
323.051	12543.6
327.121	25674.5
331.19	31627
335.257	24276.7
339.322	19761.1
343.385	25316.3
347.446	40222.8
351.505	39001.5
355.563	22072.5
359.618	14859.7
363.672	13955.6
367.723	13492.1
371.773	13479.5
375.821	13311.9
379.866	13570.2
383.91	14055.6
387.952	14652.1
391.992	15939.7
396.031	16507.5
400.067	14964.2
404.101	12661.5
408.134	11087.4
412.165	10422.9
416.193	11140.7
420.22	12492.9
424.245	12372.7
428.268	11253.1
432.289	9857.99
436.309	8055.57
440.326	8093.08
444.342	8392.74
448.355	8384.3
452.367	6580.69
456.377	2727.84
460.385	693.744
464.391	70.776
468.395	100.588
472.398	96.032
476.398	46.169
480.397	26.416
484.394	166.092
488.389	225.112
492.382	281.606
496.373	382.662
500.362	464.264
504.349	606.493
508.335	903.469
512.319	1219.34
516.3	1528.3
520.28	1490.32
524.259	838.411
528.235	523.512
532.209	69.489
536.182	115.866
540.152	73.043
544.121	131.997
548.088	67.897
552.053	41.457
556.017	190.648
559.978	241.629
563.938	518.521
567.895	774.381
571.851	949.486
575.805	1393.26
579.758	1798.72
583.708	2157.9
587.657	2939.98
591.603	3720.81
595.548	4804.82
599.491	6098.11
603.432	7355.29
607.372	8782.77
611.309	9585.92
615.245	9616.63
619.179	7341.33
623.111	5091.27
627.041	4542.66
630.97	4922.31
634.896	5603.4
638.821	6186.34
642.744	4985.64
646.665	3556.97
650.584	3867.74
654.502	5723.29
658.418	8949.88
662.331	13881
666.244	18663
670.154	19017.8
674.062	15104.8
677.969	12809.2
681.874	11261.2
685.777	10070.6
689.678	9336.5
693.577	8104.72
697.475	6288.6
701.371	3902.54
705.265	2403.82
709.157	1534.16
713.047	1120.52
716.936	653.237
720.823	549.994
724.708	451.962
728.591	360.641
732.472	376.135
736.352	167.849
740.23	235.156
744.106	209.156
747.98	86.781
751.853	58.501
755.723	30.506
759.592	34.999
763.459	18.255
767.325	32.768
771.188	21.854
775.05	28.808
778.91	17.979
782.768	19.162
786.625	88.638
790.479	70.536
794.332	32.52
798.183	17.163
802.033	39.615
805.88	25.09
809.726	76.288
813.57	58.04
817.413	5.262
821.253	5.062
825.092	9.923
828.929	24.655
832.764	32.259
836.598	80.299
840.429	89.433
844.259	42.763
848.088	25.177
851.914	71.602
855.739	76.823
859.562	14.291
863.383	2.563
867.203	39.482
871.02	7.981
874.836	52.187
878.65	1.986
882.463	78.063
886.274	53.741
890.083	125.264
893.89	229.57
897.695	216.927
901.499	220.79
905.301	297.175
909.102	196.064
912.9	218.958
916.697	321.667
920.492	359.764
924.285	412.661
928.077	382.333
931.867	442.465
935.655	398.389
939.442	338.914
943.226	417.61
947.009	396.615
950.791	400.741
954.57	406.395
958.348	487.463
962.124	423.181
965.899	497.562
969.671	543.224
973.442	462.459
977.211	518.98
980.979	473.731
984.745	659.228
988.509	700.401
992.271	642.987
996.032	617.184
999.791	677.432
1003.55	594.952
1007.3	677.424
1011.06	693.812
1014.81	667.947
1018.56	692.947
1022.31	616.538
1026.06	512.159
1029.8	540.275
1033.55	511.847
1037.29	457.943
1041.03	487.971
1044.77	452.371
1048.5	480.573
1052.24	417.167
1055.97	380.07
1059.7	319.012
1063.43	299.855
1067.16	325.739
1070.89	342.789
1074.61	406.822
1078.34	393.721
1082.06	197.352
1085.78	270.532
1089.5	267.362
1093.21	39.328
1096.93	233.634
1100.64	214.164
1104.35	194.516
1108.06	174.125
1111.77	117.616
1115.48	45.731
1119.18	46.957
1122.89	81.237
1126.59	75.07
1130.29	125.299
1133.99	7.372
1137.68	49.689
1141.38	35.567
1145.07	28.965
1148.76	39.669
1152.45	24.216
1156.14	38.578
1159.83	111.99
1163.51	45.185
1167.19	125.528
1170.88	26.042
1174.56	33.218
1178.23	77.336
1181.91	77.872
1185.59	77.741
1189.26	80.929
1192.93	32.398
1196.6	69.971
1200.27	41.926
1203.94	98.562
1207.6	19.808
1211.27	31.91
1214.93	64.355
1218.59	55.106
1222.25	89.052
1225.9	110.11
1229.56	132.335
1233.21	116.622
1236.86	96.533
1240.51	21.388
1244.16	67.186
1247.81	8.304
1251.45	54.985
1255.1	40.857
1258.74	60.796
1262.38	38.616
1266.02	191.727
1269.66	42.536
1273.29	90.943
1276.93	178.559
1280.56	117.953
1284.19	27.273
1287.82	100.558
1291.45	92.805
1295.07	61.216
1298.7	79.226
1302.32	11.409
1305.94	9.431
1309.56	115.668
1313.18	40.756
1316.8	28.898
1320.41	39.994
1324.02	64.895
1327.63	10.489
1331.24	83.068
1334.85	122.486
1338.46	118.697
1342.06	190.295
1345.67	153.365
1349.27	199.442
1352.87	82.976
1356.47	29.393
1360.07	143.711
1363.66	150.219
1367.25	76.908
1370.85	179.281
1374.44	52.048
1378.03	56.935
1381.61	131.327
1385.2	157.014
1388.78	76.612
1392.37	230.694
1395.95	15.306
1399.53	147.056
1403.1	84.596
1406.68	32.867
1410.26	33.903
1413.83	39.882
1417.4	86.761
1420.97	29.614
1424.54	67.848
1428.1	14.356
1431.67	94.843
1435.23	171.224
1438.8	135.279
1442.36	222.641
1445.91	196.229
1449.47	65.6
1453.03	144.599
1456.58	178.783
1460.13	136.819
1463.68	118.604
1467.23	92.813
1470.78	112.665
1474.33	190.57
1477.87	222.943
1481.42	60.149
1484.96	78.521
1488.5	90.014
1492.04	188.79
1495.57	187.44
1499.11	135.674
1502.64	101.265
1506.17	77.204
1509.71	112.647
1513.23	198.25
1516.76	30.433
1520.29	6.053
