Measurement: Raman, 514 nm, ccw, Raman Data Processed
Mineral: Chalcopyrite
Rruff sample: R050222
Ideal chemistry: Cu^1+^Fe^3+^S_2_
Locality: Iron Cap mine, Landsman Camp, Graham County, Arizona, USA
Source: Bob Downs
Description: Group of brass yellow metallic tetrahedra, dark streaks represent alteration by bacteria where S is left behind
Measured chemistry: Cu_1.00_Fe_1.00_S_2.00_
Raman shift (cm-1)	intensity
100.34	0
104.516	313.846
108.691	570.074
112.864	256.451
117.034	1694.77
121.203	851.377
125.369	1614.07
129.534	3472.56
133.696	5190.93
137.857	8603.61
142.016	10494.7
146.172	12114.6
150.327	13279.3
154.48	14247.1
158.63	15581.7
162.779	17329
166.926	19024.3
171.07	21949.9
175.213	23856.6
179.354	24139.2
183.493	21383.7
187.63	17962.5
191.765	15864.1
195.898	14392.3
200.029	13645.9
204.158	14009.2
208.285	16759.9
212.41	21466
216.533	24850.6
220.654	21959.6
224.773	17282.2
228.891	14043.2
233.006	12502.2
237.119	9947.3
241.231	5570.21
245.34	2290.39
249.448	455.055
253.553	295.997
257.657	727.104
261.758	830.995
265.858	610.237
269.956	152.614
274.052	314.701
278.146	1049.28
282.237	2557.39
286.327	6242.3
290.416	15783.9
294.502	32864.5
298.586	47000.6
302.668	39199.5
306.749	24578.1
310.827	13429.5
314.903	6801.03
318.978	4849.19
323.051	10697.2
327.121	22862.6
331.19	28806.2
335.257	21854.1
339.322	17104.6
343.385	20059
347.446	29023.3
351.505	28683.9
355.563	17911.6
359.618	12742.9
363.672	12221.6
367.723	11853.5
371.773	11682.6
375.821	11885.6
379.866	12317.7
383.91	12855.7
387.952	13412.4
391.992	14282.6
396.031	15051.2
400.067	13552.7
404.101	11609.8
408.134	9814.03
412.165	9460.27
416.193	10242.1
420.22	11237.2
424.245	11270.9
428.268	10438.2
432.289	9197.44
436.309	7461.57
440.326	7186.55
444.342	7799.55
448.355	7756.41
452.367	6190.08
456.377	2691.54
460.385	581.807
464.391	66.75
468.395	91.089
472.398	22.806
476.398	74.534
480.397	16.907
484.394	75.506
488.389	259.459
492.382	338.951
496.373	344.071
500.362	458.831
504.349	562.303
508.335	723.669
512.319	1093.09
516.3	1244.6
520.28	1248.31
524.259	810.159
528.235	494.17
532.209	115.164
536.182	54.952
540.152	189.56
544.121	157.5
548.088	55.699
552.053	10.22
556.017	123.04
559.978	304.771
563.938	426.479
567.895	732.223
571.851	875.524
575.805	1230.86
579.758	1571.44
583.708	2006.01
587.657	2777.37
591.603	3354.37
595.548	4393.39
599.491	5457.69
603.432	6934.93
607.372	7984.55
611.309	8766.87
615.245	8818.2
619.179	6969.94
623.111	4724.42
627.041	4164.65
630.97	4362.32
634.896	5048.2
638.821	5582.73
642.744	4515.06
646.665	3354.54
650.584	3398.62
654.502	5261.43
658.418	8087.08
662.331	12608.6
666.244	17085.1
670.154	17660.8
674.062	14149.6
677.969	11771.4
681.874	10473.7
685.777	9337.56
689.678	8597.46
693.577	7628.27
697.475	5869.78
701.371	3746.33
705.265	2156.09
709.157	1362.05
713.047	890.042
716.936	576.605
720.823	470.896
724.708	330.974
728.591	299.417
732.472	182.81
736.352	134.105
740.23	80.57
744.106	168.455
747.98	62.394
751.853	14.26
755.723	69.12
759.592	47.346
763.459	76.983
767.325	109.046
771.188	30.549
775.05	3.431
778.91	69.163
782.768	14.016
786.625	19.839
790.479	36.272
794.332	59.291
798.183	16.074
802.033	4.414
805.88	62.664
809.726	54.333
813.57	21.618
817.413	2.483
821.253	24.852
825.092	22.262
828.929	54.128
832.764	42.974
836.598	45.714
840.429	94.989
844.259	0.32
848.088	13.692
851.914	13.794
855.739	22.562
859.562	60.81
863.383	26.152
867.203	27.12
871.02	51.104
874.836	48.745
878.65	25.954
882.463	51.364
886.274	90.568
890.083	141.228
893.89	126.95
897.695	101.72
901.499	181.598
905.301	203.087
909.102	234.65
912.9	210.81
916.697	322.677
920.492	302.721
924.285	335.211
928.077	309.775
931.867	377.271
935.655	362.877
939.442	381.38
943.226	323.563
947.009	342.407
950.791	396.543
954.57	328.467
958.348	370.07
962.124	398.504
965.899	484.448
969.671	435.447
973.442	432.527
977.211	451.691
980.979	518.472
984.745	574.938
988.509	539.141
992.271	563.961
996.032	555.963
999.791	526.823
1003.55	530.867
1007.3	579.783
1011.06	602.451
1014.81	511.667
1018.56	569.86
1022.31	549.775
1026.06	424.174
1029.8	470.161
1033.55	470.955
1037.29	401.47
1041.03	364.698
1044.77	272.616
1048.5	299.782
1052.24	299.396
1055.97	338.608
1059.7	297.718
1063.43	244.106
1067.16	205.565
1070.89	249.031
1074.61	179.886
1078.34	214.593
1082.06	331.884
1085.78	317.352
1089.5	251.04
1093.21	176.243
1096.93	210.993
1100.64	106.073
1104.35	244.166
1108.06	141.146
1111.77	145.259
1115.48	117.293
1119.18	127.264
1122.89	186.59
1126.59	121.673
1130.29	211.002
1133.99	153.324
1137.68	47.034
1141.38	57.548
1145.07	69.347
1148.76	42.705
1152.45	31.49
1156.14	58.952
1159.83	62.661
1163.51	90.055
1167.19	68.832
1170.88	51.762
1174.56	97.729
1178.23	59.2
1181.91	110.619
1185.59	98.178
1189.26	63.198
1192.93	59.565
1196.6	82.779
1200.27	7.128
1203.94	14.547
1207.6	57.473
1211.27	45.549
1214.93	64.941
1218.59	82.125
1222.25	43.941
1225.9	76.714
1229.56	12.394
1233.21	126.599
1236.86	23.052
1240.51	44.636
1244.16	76.438
1247.81	6.293
1251.45	102.454
1255.1	92.161
1258.74	137.951
1262.38	153.812
1266.02	76.41
1269.66	21.246
1273.29	63.245
1276.93	116.701
1280.56	19.318
1284.19	155.779
1287.82	56.976
1291.45	112.718
1295.07	218.441
1298.7	166.578
1302.32	112.011
1305.94	137.317
1309.56	58.734
1313.18	56.29
1316.8	85.384
1320.41	125.347
1324.02	38.952
1327.63	99.486
1331.24	182.073
1334.85	163.818
1338.46	107.526
1342.06	58.417
1345.67	104.467
1349.27	124.909
1352.87	130.123
1356.47	110.817
1360.07	118.045
1363.66	111.737
1367.25	145.302
1370.85	221.701
1374.44	70.487
1378.03	91.084
1381.61	43.698
1385.2	57.452
1388.78	25.845
1392.37	16.409
1395.95	39.323
1399.53	0.248
1403.1	176.963
1406.68	12.226
1410.26	20.781
1413.83	78.829
1417.4	5.368
1420.97	133.511
1424.54	137.379
1428.1	80.665
1431.67	71.773
1435.23	23.817
1438.8	126.881
1442.36	287.84
1445.91	128.836
1449.47	28.972
1453.03	93.767
1456.58	143.552
1460.13	136.461
1463.68	206.974
1467.23	86.749
1470.78	119.59
1474.33	76.413
1477.87	65.833
1481.42	82.914
1484.96	83.85
1488.5	90.001
1492.04	98.55
1495.57	67.131
1499.11	101.293
1502.64	80.971
1506.17	65.293
1509.71	10.159
1513.23	106.562
1516.76	145.453
1520.29	99.874
1523.81	0
