Measurement: Raman, 514 nm, ccw, Raman Data Processed
Mineral: Chenevixite
Rruff sample: R040166
Ideal chemistry: Cu^2+^(Fe^3+^,Al)(As^5+^O_4_)(OH)_2_
Locality: Volcanic Sunnyside mine, Santa Cruz County, Arizona, USA
Source: Andy Anderson
Description: Green earthy massive
Measured chemistry: Cu_2.00_(Fe^3+^_1.98_[box]_0.02_)_Σ=2_((As_0.94_S_0.06_)O_4_)_2_(OH)_4_·1.49H_2_O
Pin_id: L00378
Raman shift (cm-1)	intensity
88.728	0
92.926	0.274
97.121	304.249
101.314	1028.05
105.505	2435.84
109.694	3877.79
113.881	5111.84
118.066	4060.86
122.249	2853.14
126.43	2722.33
130.608	2281.52
134.785	2066.38
138.959	1819.75
143.131	1630.7
147.301	1248.43
151.469	272.15
155.635	258.683
159.799	454.089
163.961	244.079
168.121	301.312
172.278	2011.97
176.434	4686.29
180.587	6333.86
184.739	6894.58
188.888	7148.27
193.035	6924.56
197.18	6703.26
201.324	6344.61
205.465	5608.63
209.603	4992.24
213.74	4917.64
217.875	6226.58
222.008	8099.07
226.139	7345.13
230.267	4414.74
234.394	2257.86
238.518	1424.42
242.641	1814.35
246.761	2927.57
250.879	3913.98
254.996	4348.15
259.11	4050.83
263.222	3628.37
267.332	2698.14
271.44	1769.59
275.546	1271.83
279.65	1344.83
283.752	1969.18
287.852	2934.72
291.95	4076.19
296.046	4438.36
300.14	4353.53
304.231	4661.77
308.321	5213.08
312.409	4857.49
316.495	4584.93
320.578	4512.43
324.66	4584.88
328.739	4259.82
332.817	3829.68
336.892	3531.06
340.966	4104.96
345.037	6571.48
349.107	10170.5
353.174	12471.9
357.24	13875.6
361.303	13701.6
365.365	11489.7
369.424	8629.77
373.481	6001.77
377.537	4425.56
381.59	3581.1
385.642	3148.3
389.691	2977.09
393.738	2807.39
397.784	3139.13
401.827	3982.24
405.868	5196.67
409.908	6252.36
413.945	6699.26
417.98	8327.34
422.014	12206.8
426.045	19397.6
430.075	26789.7
434.102	30033
438.127	26447.5
442.151	20133.3
446.172	16210.2
450.192	14519.5
454.209	12404.3
458.225	9715.14
462.238	7649.65
466.25	6327.93
470.259	5412.18
474.267	5046.1
478.273	4616.61
482.276	4749.12
486.278	4857.46
490.278	5176.6
494.276	5322.23
498.271	4956.95
502.265	4203.24
506.257	3533.56
510.247	2805.91
514.235	2199.44
518.221	2010.51
522.205	1700.4
526.187	1238.21
530.167	932.199
534.145	818.854
538.122	634.361
542.096	586.247
546.068	684.689
550.039	747.829
554.007	647.448
557.973	875.77
561.938	942.435
565.901	925.504
569.861	838.119
573.82	755.247
577.777	636.856
581.732	413.911
585.685	337.377
589.636	273.22
593.585	298.407
597.532	263.905
601.477	108.683
605.42	53.708
609.361	20.934
613.301	12.217
617.238	171.62
621.174	132.131
625.108	211.51
629.039	208.065
632.969	209.95
636.897	128.252
640.823	95.869
644.747	245.646
648.669	147.895
652.589	146.423
656.508	25.286
660.424	113.392
664.339	50
668.251	23.91
672.162	73.957
676.071	54.015
679.978	41.52
683.883	90.433
687.786	148.653
691.687	245.344
695.586	137.66
699.484	297.597
703.379	318.242
707.273	355.636
711.165	481.81
715.055	528.804
718.943	584.652
722.829	773.369
726.713	764.962
730.595	931.44
734.476	951.812
738.354	1125.09
742.231	1381.28
746.106	1606.39
749.978	1820.44
753.849	2205.44
757.719	2449.4
761.586	3019.33
765.451	3722.99
769.315	4706.16
773.177	5743.69
777.036	6967.19
780.894	8629.62
784.75	10821.4
788.605	13293.3
792.457	15664
796.307	18449.8
800.156	21579.1
804.003	25134
807.848	26626.5
811.691	25057.5
815.532	22163.6
819.371	19075.2
823.209	17012.2
827.045	15693.2
830.878	15580.9
834.71	16334.1
838.54	17990.6
842.369	22001.5
846.195	28278.3
850.02	36275.3
853.842	41966.4
857.663	41437.4
861.482	34470.5
865.299	24294.2
869.115	16959.7
872.928	12275.6
876.74	9271.68
880.55	7137.91
884.358	6254.3
888.164	5280.83
891.969	4717.58
895.771	4094.51
899.572	3633.68
903.371	3014.06
907.168	2341.64
910.963	1918.43
914.757	1471.43
918.548	1090.67
922.338	861.219
926.126	699.22
929.912	534.915
933.697	428.411
937.479	408.845
941.26	341.292
945.039	340.71
948.816	310.087
952.591	390.407
956.365	430.403
960.136	358.362
963.906	333.002
967.674	315.123
971.441	312.628
975.205	524.754
978.968	774.725
982.729	811.458
986.488	1100.89
990.245	1235.96
994	1417.56
997.754	1588.18
1001.51	1719.9
1005.26	2032.06
1009	2331.87
1012.75	2741.23
1016.5	2920.69
1020.24	3071.53
1023.98	3017.68
1027.72	2729.79
1031.46	2354.88
1035.19	2292.05
1038.93	2103.56
1042.66	2045.32
1046.39	1924.17
1050.12	1717.91
1053.85	1520.96
1057.57	1213.53
1061.29	910.997
1065.02	711.854
1068.74	489.636
1072.45	356.265
1076.17	250.868
1079.88	198.329
1083.6	65.765
1087.31	13.285
1091.02	64.225
1094.72	37.364
1098.43	31.444
1102.13	37.745
1105.84	43.063
1109.54	26.169
1113.24	23.256
1116.93	23.799
1120.63	45.541
1124.32	189.181
1128.01	82.635
1131.7	24.477
1135.39	19.598
1139.08	92.916
1142.76	7.105
1146.45	28.668
1150.13	129.864
1153.81	75.454
1157.48	63.912
1161.16	59.035
1164.84	80.018
1168.51	58.833
1172.18	4.166
1175.85	28.18
1179.52	2.383
1183.18	18.64
1186.85	29.103
1190.51	9.293
1194.17	27.204
1197.83	15.565
1201.48	95.572
1205.14	88.049
1208.79	85.097
1212.44	43.78
1216.09	116.069
1219.74	94.999
1223.39	149.559
1227.03	134.75
1230.68	146.562
1234.32	148.009
1237.96	118.089
1241.6	169.759
1245.23	178.072
1248.87	95.416
1252.5	172.075
1256.13	155.802
1259.76	214.402
1263.39	250.729
1267.02	180.248
1270.64	228.64
1274.26	202.737
1277.88	260.673
1281.5	226.574
1285.12	240.517
1288.74	162.143
1292.35	225.476
1295.96	166.755
1299.57	149.225
1303.18	186.43
1306.79	133.725
1310.4	69.34
1314	117.225
1317.6	142.928
1321.2	93.73
1324.8	219.985
1328.4	202.914
1331.99	149.169
1335.59	146.225
1339.18	135.755
1342.77	143.874
1346.36	196.886
1349.95	138.883
1353.53	146.908
1357.12	128.2
1360.7	138.239
1364.28	195.13
1367.86	218.838
1371.44	157.088
1375.01	133.499
1378.59	210.732
1382.16	196.747
1385.73	235.174
1389.3	227.93
1392.87	259.109
1396.43	209.488
1399.99	181.33
1403.56	219.522
1407.12	200.802
1410.68	151.991
1414.23	336.359
1417.79	194.84
1421.34	145.99
1424.9	202.768
1428.45	225.7
1431.99	212.49
1435.54	266.428
1439.09	225.625
1442.63	179.771
1446.17	153.792
1449.71	181.667
1453.26	152.372
1456.79	67.931
1460.33	153.488
1463.86	163.08
1467.39	157.916
1470.92	134.206
1474.45	129.036
1477.98	105.28
1481.51	92.752
1485.03	29.407
1488.56	19.328
1492.08	82.673
1495.6	16.619
1499.11	67.28
1502.63	30.686
1506.14	102.019
1509.66	98.638
1513.17	188.984
1516.68	141.87
1520.19	45.578
1523.69	0
