Measurement: Raman, 514 nm, ccw, Raman Data Processed
Mineral: Chenevixite
Rruff sample: R040166
Ideal chemistry: Cu^2+^(Fe^3+^,Al)(As^5+^O_4_)(OH)_2_
Locality: Volcanic Sunnyside mine, Santa Cruz County, Arizona, USA
Source: Andy Anderson
Description: Green earthy massive
Measured chemistry: Cu_2.00_(Fe^3+^_1.98_[box]_0.02_)_Σ=2_((As_0.94_S_0.06_)O_4_)_2_(OH)_4_·1.49H_2_O
Pin_id: L00378
Raman shift (cm-1)	intensity
92.926	0
97.121	18.124
101.314	821.297
105.505	2001.94
109.694	2368
113.881	3657.33
118.066	2922.79
122.249	2014.48
126.43	2283.12
130.608	2563.21
134.785	2302.45
138.959	2281.82
143.131	2230.04
147.301	1866.07
151.469	499.056
155.635	151.963
159.799	427.415
163.961	237.352
168.121	208.173
172.278	2089.09
176.434	5025.25
180.587	6755.09
184.739	7358.23
188.888	7714.55
193.035	8503.81
197.18	9395.52
201.324	9219.67
205.465	7946.49
209.603	6984.93
213.74	6722.73
217.875	7893.57
222.008	8837.89
226.139	7255.69
230.267	4636.97
234.394	2671.72
238.518	2069.86
242.641	2801.34
246.761	4446.08
250.879	5493.99
254.996	5684.97
259.11	5272.42
263.222	4241.06
267.332	3091.76
271.44	1749.24
275.546	1215.92
279.65	1302.95
283.752	2030.73
287.852	2939.86
291.95	4317.94
296.046	4742.38
300.14	4639.51
304.231	5069.71
308.321	5252.96
312.409	4499.23
316.495	3898.54
320.578	3727.07
324.66	3652.71
328.739	3484.26
332.817	2738.67
336.892	2301.51
340.966	2506.82
345.037	3994.55
349.107	6004.71
353.174	7327.22
357.24	8102.04
361.303	7999.17
365.365	6838.4
369.424	5159.54
373.481	3792.52
377.537	2937.32
381.59	2453.88
385.642	2232.06
389.691	2201.77
393.738	1822.94
397.784	2075.51
401.827	2599.41
405.868	3564.59
409.908	4320.99
413.945	4808.55
417.98	6107.23
422.014	9537
426.045	15398
430.075	21970.3
434.102	25183.8
438.127	22198.4
442.151	17124.1
446.172	13180.9
450.192	11029.5
454.209	9036.65
458.225	6984.08
462.238	5573.28
466.25	4855.51
470.259	4351.97
474.267	4294.48
478.273	4483.77
482.276	4847.27
486.278	5492.52
490.278	6096.89
494.276	6352.63
498.271	6123.85
502.265	5221.49
506.257	4267.25
510.247	3285.72
514.235	2603.5
518.221	2176.16
522.205	1714.88
526.187	1228.92
530.167	994.9
534.145	791.533
538.122	704.344
542.096	520.427
546.068	612.593
550.039	690.724
554.007	656.507
557.973	877.021
561.938	933.805
565.901	945.595
569.861	995.884
573.82	812.661
577.777	763.893
581.732	529.55
585.685	606.598
589.636	302.004
593.585	294.737
597.532	305.765
601.477	174.057
605.42	77.582
609.361	2.7
613.301	74.992
617.238	149.619
621.174	132.832
625.108	229.809
629.039	215.867
632.969	266.107
636.897	134.786
640.823	134.583
644.747	136.477
648.669	90.611
652.589	140.946
656.508	43.505
660.424	62.239
664.339	39.233
668.251	100.476
672.162	142.965
676.071	15.169
679.978	49.844
683.883	70.232
687.786	85.668
691.687	160.511
695.586	124.81
699.484	314.649
703.379	319.207
707.273	425.516
711.165	483.611
715.055	472.524
718.943	585.271
722.829	708.879
726.713	850.362
730.595	956.728
734.476	1005.99
738.354	1157.15
742.231	1371.22
746.106	1659.21
749.978	1784.14
753.849	2046.83
757.719	2509.85
761.586	2994.65
765.451	3644.35
769.315	4499.1
773.177	5460.88
777.036	6656.75
780.894	8362.56
784.75	10541.2
788.605	12659.8
792.457	15183.1
796.307	17774
800.156	20703.7
804.003	23948.1
807.848	25355.4
811.691	24176.3
815.532	21483.3
819.371	18434.8
823.209	16048.6
827.045	14493
830.878	14085.5
834.71	14297.7
838.54	15525.3
842.369	18614.6
846.195	23484.4
850.02	30385.8
853.842	36304.4
857.663	36524.7
861.482	31496.1
865.299	22588.4
869.115	15981.5
872.928	11755.6
876.74	9069.9
880.55	7054.41
884.358	6109.11
888.164	5333.94
891.969	4898.96
895.771	4404.13
899.572	3819.44
903.371	3314.93
907.168	2870.58
910.963	1997.44
914.757	1442.49
918.548	1130.18
922.338	826.451
926.126	658.643
929.912	503.456
933.697	406.989
937.479	329.393
941.26	332.722
945.039	283.439
948.816	347.93
952.591	485.741
956.365	420.477
960.136	270.203
963.906	337.794
967.674	242.77
971.441	235.453
975.205	420.71
978.968	657.855
982.729	773.248
986.488	959.983
990.245	1065.62
994	1287.94
997.754	1346.86
1001.51	1588.53
1005.26	1837.87
1009	2105.2
1012.75	2349.24
1016.5	2621.78
1020.24	2686.41
1023.98	2563.76
1027.72	2306.25
1031.46	2114.65
1035.19	2045.75
1038.93	1834.11
1042.66	1910.93
1046.39	1721.52
1050.12	1619
1053.85	1383.62
1057.57	1134.19
1061.29	835.5
1065.02	574.01
1068.74	361.81
1072.45	353.732
1076.17	313.339
1079.88	141.09
1083.6	128.54
1087.31	77.513
1091.02	67.773
1094.72	25.776
1098.43	11.182
1102.13	75.231
1105.84	489.547
1109.54	975.383
1113.24	2.934
1116.93	21.671
1120.63	69.668
1124.32	273.975
1128.01	10.096
1131.7	32.235
1135.39	51.776
1139.08	4.395
1142.76	5.41
1146.45	24.984
1150.13	8.301
1153.81	4.961
1157.48	36.653
1161.16	116.871
1164.84	59.269
1168.51	22.223
1172.18	12.825
1175.85	21.987
1179.52	27.058
1183.18	4.83
1186.85	8.789
1190.51	60.322
1194.17	30.496
1197.83	42.22
1201.48	87.813
1205.14	53.771
1208.79	48.191
1212.44	5.255
1216.09	83.799
1219.74	202.002
1223.39	109.698
1227.03	85.996
1230.68	57.908
1234.32	214.405
1237.96	150.542
1241.6	130.897
1245.23	187.909
1248.87	160.19
1252.5	144.808
1256.13	209.019
1259.76	221.796
1263.39	215.3
1267.02	247.292
1270.64	208.782
1274.26	187.755
1277.88	160.885
1281.5	200.342
1285.12	207.691
1288.74	158.977
1292.35	165.417
1295.96	177.374
1299.57	162.578
1303.18	172.77
1306.79	125.565
1310.4	20.187
1314	43.815
1317.6	133.13
1321.2	159.153
1324.8	237.34
1328.4	129.107
1331.99	152.952
1335.59	115.739
1339.18	118.645
1342.77	48.096
1346.36	80.021
1349.95	93.236
1353.53	75.208
1357.12	132.095
1360.7	158.103
1364.28	138.668
1367.86	192.079
1371.44	137.586
1375.01	149.241
1378.59	87.238
1382.16	78.976
1385.73	212.813
1389.3	270.509
1392.87	212.766
1396.43	195.912
1399.99	153.338
1403.56	173.716
1407.12	189.399
1410.68	77.582
1414.23	121.769
1417.79	196.344
1421.34	176.875
1424.9	191.096
1428.45	196.042
1431.99	166.239
1435.54	208.244
1439.09	260.451
1442.63	223.492
1446.17	225.578
1449.71	145.459
1453.26	94.069
1456.79	192.455
1460.33	79.87
1463.86	152.519
1467.39	112.018
1470.92	222.498
1474.45	125.987
1477.98	3.03
1481.51	26.286
1485.03	47.082
1488.56	109.656
1492.08	75.287
1495.6	55.043
1499.11	16.059
1502.63	32.207
1506.14	133.219
1509.66	117.822
1513.17	116.973
