Measurement: Raman, 514 nm, ccw, Raman Data Processed
Mineral: Chenevixite
Rruff sample: R040166
Ideal chemistry: Cu^2+^(Fe^3+^,Al)(As^5+^O_4_)(OH)_2_
Locality: Volcanic Sunnyside mine, Santa Cruz County, Arizona, USA
Source: Andy Anderson
Description: Green earthy massive
Measured chemistry: Cu_2.00_(Fe^3+^_1.98_[box]_0.02_)_Σ=2_((As_0.94_S_0.06_)O_4_)_2_(OH)_4_·1.49H_2_O
Pin_id: L00378
Raman shift (cm-1)	intensity
91.527	0
95.723	81.463
99.917	620.29
104.109	1751.42
108.298	2934.34
112.486	4403.32
116.672	4277.22
120.855	3015.81
125.036	2706.77
129.216	2590.8
133.393	2429.34
137.568	2187.19
141.741	1964.52
145.911	1446.92
150.08	707.068
154.247	17.161
158.411	506.246
162.574	420.178
166.734	41.046
170.893	1467.4
175.049	3968.78
179.203	6314.11
183.355	7013.03
187.505	6945.24
191.653	6890.4
195.799	6897.92
199.943	6547.65
204.084	5709.87
208.224	5273.84
212.362	5186.3
216.497	5761.17
220.631	7079.46
224.762	7701.2
228.891	5266.38
233.018	2674.96
237.144	1476.9
241.267	1472.14
245.388	2440.59
249.507	3692.18
253.624	4356.81
257.739	4290.89
261.852	3809.43
265.962	2891.81
270.071	1895.58
274.178	1180.19
278.283	1164.49
282.385	1528.88
286.486	2874.13
290.584	3518.48
294.681	4157.49
298.775	4288.22
302.868	4391.98
306.958	5048.75
311.047	5008.55
315.133	4441.32
319.217	4561.59
323.299	4640.07
327.38	4439.19
331.458	3969.51
335.534	3675.9
339.608	3544.87
343.681	4976.36
347.751	8490.32
351.819	11016.6
355.885	12365.2
359.949	12954.9
364.011	11618.6
368.071	8753.22
372.129	6369.65
376.185	4607.89
380.239	3597.82
384.291	3079.37
388.341	2622.44
392.389	2486.97
396.435	2822.92
400.479	3437.82
404.521	4538.74
408.561	5378.51
412.599	5959.43
416.636	7261.47
420.67	10014.6
424.702	15578.9
428.732	23624.3
432.76	28940.9
436.786	27208.5
440.81	21237.2
444.832	16717
448.852	14458.6
452.87	12721.6
456.887	10015.6
460.901	7995.93
464.913	6400.3
468.923	5572.87
472.931	4848.24
476.938	4560.48
480.942	4731.94
484.944	4916.92
488.945	5326.35
492.943	5548.55
496.94	5407.51
500.934	4839.98
504.927	3991.21
508.917	3150.52
512.906	2452.96
516.892	2082.67
520.877	1774.63
524.86	1369.83
528.841	1144.52
532.82	809.612
536.796	654.652
540.771	652.279
544.744	516.429
548.715	631.809
552.684	651.694
556.652	787.528
560.617	961.271
564.58	929.958
568.541	953.102
572.501	751.716
576.458	755.767
580.414	630.225
584.367	448.058
588.319	418.232
592.268	307.718
596.216	200.484
600.162	136.5
604.106	18.735
608.048	12.137
611.988	81.347
615.926	131.963
619.862	201.104
623.797	183.162
627.729	148.342
631.659	185.804
635.588	203.604
639.515	171.754
643.439	136.277
647.362	166.989
651.283	136.288
655.202	154.443
659.119	124.375
663.034	143.731
666.947	84.553
670.859	50.646
674.768	32.169
678.676	74.774
682.581	38.704
686.485	75.961
690.387	149.54
694.287	232.6
698.185	264.272
702.081	346.63
705.975	327.938
709.868	430.579
713.758	502.206
717.647	584.654
721.533	719.82
725.418	753.095
729.301	901.114
733.182	1042.01
737.061	1216.8
740.939	1389.48
744.814	1552.08
748.688	1798.6
752.559	2111.05
756.429	2525.46
760.297	3195.62
764.163	3524.97
768.027	4444.88
771.89	5422.98
775.75	6726.67
779.609	8161.87
783.465	10147.4
787.32	12580.8
791.173	15016.1
795.024	17715.2
798.873	21081.6
802.721	24300.4
806.566	26343.5
810.41	25751.2
814.252	22811.1
818.092	20049
821.93	17053.5
825.766	15723.1
829.601	15054.3
833.433	15227.8
837.264	16985.1
841.093	19595.2
844.92	24665.5
848.745	32014.1
852.568	38283
856.39	41025.4
860.209	36127.6
864.027	26430.7
867.843	18515.3
871.657	13260.8
875.47	10046.8
879.28	7813.05
883.089	6419.41
886.896	5536.01
890.701	4836.68
894.504	4359.82
898.305	3867.02
902.105	3299.41
905.902	2704.99
909.698	1962.76
913.492	1513.72
917.285	1205.9
921.075	932.346
924.864	650.246
928.65	535.779
932.435	467.099
936.218	470.303
940	276.472
943.779	359.595
947.557	398.918
951.333	435.102
955.107	429.043
958.879	335.131
962.65	227.543
966.418	267.764
970.185	383.701
973.95	515.647
977.714	625.5
981.475	775.238
985.235	865.161
988.993	1021.95
992.749	1368.07
996.503	1559.82
1000.26	1745.65
1004.01	1983.05
1007.75	2201.74
1011.5	2647.78
1015.25	2846.64
1018.99	2956.88
1022.73	2875.26
1026.47	2766.33
1030.21	2521.61
1033.95	2328.89
1037.68	2081.49
1041.41	2021.02
1045.15	1936.73
1048.88	1876.97
1052.6	1678.88
1056.33	1309.1
1060.05	1036.97
1063.78	775.293
1067.5	587.476
1071.21	444.953
1074.93	305.787
1078.65	186.098
1082.36	140.584
1086.07	93.541
1089.78	78.731
1093.49	23.24
1097.2	112.978
1100.9	42.552
1104.6	24.425
1108.3	6.837
1112	1.085
1115.7	31.179
1119.4	89.611
1123.09	209.529
1126.78	107.487
1130.47	48.678
1134.16	45.511
1137.85	19.666
1141.54	1.916
1145.22	54.508
1148.9	74.39
1152.58	60.84
1156.26	80.405
1159.94	47.613
1163.61	63.219
1167.28	13.776
1170.95	32.681
1174.62	14.381
1178.29	40.765
1181.96	5.965
1185.62	56.941
1189.29	26.343
1192.95	12.831
1196.61	27.452
1200.26	87.535
1203.92	174.974
1207.57	162.036
1211.23	133.734
1214.88	95.083
1218.53	81.366
1222.17	117.562
1225.82	112.729
1229.46	119.535
1233.11	170.031
1236.74	169.103
1240.38	152.787
1244.02	193.887
1247.66	170.704
1251.29	231.229
1254.92	209.151
1258.55	130.308
1262.18	190.748
1265.81	265.13
1269.43	206.51
1273.06	189.458
1276.68	128.459
1280.3	208.032
1283.91	200.977
1287.53	190.45
1291.15	192.016
1294.76	213.765
1298.37	186.756
1301.98	177.04
1305.59	143.305
1309.19	167.777
1312.8	114.977
1316.4	132.766
1320	83.212
1323.6	163.65
1327.2	142.68
1330.8	189.53
1334.39	122.429
1337.98	133.882
1341.58	92.393
1345.16	132.102
1348.75	137.855
1352.34	178.642
1355.92	165.639
1359.51	130.966
1363.09	245.373
1366.67	169.318
1370.24	126.626
1373.82	178.577
1377.39	194.968
1380.97	209.027
1384.54	268.603
1388.11	202.601
1391.68	140.009
1395.24	164.916
1398.81	194.667
1402.37	199.993
1405.93	242.661
1409.49	238.418
1413.05	175.467
1416.6	271.504
1420.16	148.032
1423.71	169.541
1427.26	210.498
1430.81	238.151
1434.36	184.045
1437.91	217.364
1441.45	312.585
1444.99	270.729
1448.54	228.801
1452.08	177.576
1455.61	208.323
1459.15	142.946
1462.68	125.723
1466.22	140.804
1469.75	110.269
1473.28	76.253
1476.81	99.708
1480.33	86.417
1483.86	82.339
1487.38	150.529
1490.9	131.139
1494.42	71.349
1497.94	140.283
1501.46	60.986
1504.97	99.77
1508.49	43.037
1512	8.188
1515.51	22.54
1519.02	63.503
1522.52	96.725
