Measurement: Raman, 514 nm, ccw, Raman Data Processed
Mineral: Chloritoid
Rruff sample: R060292
Ideal chemistry: Fe^2+^Al_2_OSiO_4_(OH)_2_
Locality: Pech, Kunar Province, Afghanistan
Source: Herb Obodda
Description: Black tabular crystal
Measured chemistry: (Fe^2+^_1.55_Mg_0.43_Mn_0.02_)_Σ=2_(Al_3.93_Fe^3+^_0.07_)_Σ=4_Si_2.00_O_10_(OH)_4_
Pin_id: M00356
Orientation: Laser parallel to b* (0 1 0). Fiducial mark perpendicular to laser is parallel to -c [0 0 -1]
Raman shift (cm-1)	intensity
89.777	0
94.714	79.9785
99.649	279.146
104.582	2948.97
109.512	1360.96
114.44	2270.99
119.365	1076.8
124.288	328.281
129.209	391.987
134.127	308.378
139.043	236.62
143.956	141.124
148.867	293.439
153.775	13.6621
158.681	34.1313
163.585	386.027
168.486	464.241
173.385	455.452
178.282	479.574
183.176	433.438
188.067	655.043
192.956	875.277
197.843	1185.04
202.727	838.254
207.609	849.402
212.489	1131.48
217.366	1146.48
222.24	1056.68
227.112	1224.26
231.982	1529.34
236.849	2247.82
241.714	4134.74
246.577	5073.18
251.437	9155.42
256.294	6406.11
261.149	1886.3
266.002	2053.38
270.852	3957.56
275.7	4933.09
280.545	6350.92
285.388	7288.57
290.229	3183.04
295.067	1600.1
299.902	1159.01
304.735	1328.04
309.566	1204.61
314.394	1233.53
319.22	1528.38
324.043	1885.16
328.864	2151.87
333.682	3493.53
338.498	1869.13
343.311	815.676
348.122	935.184
352.931	42.6543
357.737	171.009
362.54	11.8242
367.341	103.554
372.14	22.3579
376.936	113.498
381.73	60.5171
386.521	510.482
391.31	630.403
396.096	724.279
400.88	785.129
405.661	352.976
410.44	356.896
415.216	428.06
419.99	375.838
424.761	76.8272
429.53	137.802
434.297	15.813
439.061	100.686
443.822	66.5513
448.581	97.624
453.337	111.722
458.091	268.805
462.843	450.886
467.592	751.967
472.338	1253.05
477.082	1683.13
481.824	1898.2
486.563	2136.28
491.3	3238.57
496.034	4094.18
500.765	5496.02
505.494	3624.63
510.221	2968.4
514.945	3373.47
519.666	5389.81
524.385	8227.88
529.102	12856
533.816	12383.5
538.527	8759.25
543.236	13411.4
547.943	22006.7
552.647	46620.8
557.348	31819.4
562.047	8003.89
566.744	3437.25
571.438	2107.87
576.129	1900.84
580.818	3164.82
585.504	13998.2
590.188	17586.6
594.87	38791.4
599.549	20063.7
604.225	4631.94
608.899	2276.15
613.57	1211.3
618.239	736.403
622.905	406.446
627.569	283.428
632.23	142.345
636.889	7.80566
641.545	23.3584
646.198	55.6748
650.849	61.833
655.498	45.5498
660.144	240.376
664.787	313.704
669.428	440.026
674.067	241.005
678.703	70.8125
683.336	40.7715
687.967	107.276
692.595	151.176
697.221	325.805
701.844	522.222
706.465	876.43
711.083	1560.44
715.698	2554.3
720.311	4319.43
724.922	6758.64
729.53	8967.03
734.135	10023.2
738.738	8747.29
743.338	6453.14
747.936	4142.81
752.531	2339.3
757.124	1229.61
761.714	805.108
766.302	602.746
770.887	361.581
775.469	139.058
780.049	92.9922
784.626	38.1475
789.201	68.0156
793.773	86.4561
798.343	81.6543
802.91	38.0098
807.475	27.165
812.037	2.17969
816.596	39.5322
821.153	201.206
825.707	386.15
830.259	677.914
834.808	1015.21
839.355	1723.55
843.899	2127.96
848.441	2771.46
852.98	3646.05
857.516	4713.75
862.05	6450.58
866.581	9146.56
871.11	14545.7
875.636	20649
880.159	24076.5
884.68	18610.2
889.199	10738.1
893.714	5859.32
898.228	3426.75
902.738	2261.49
907.246	1678.53
911.752	1296.89
916.255	1299.39
920.755	974.465
925.253	607.268
929.748	450.536
934.241	323.738
938.731	175.66
943.218	199.916
947.703	176.072
952.186	126.502
956.665	293.597
961.142	399.385
965.617	631.893
970.089	539.028
974.558	382.789
979.025	341.178
983.489	302.2
987.951	343.86
992.41	325.169
996.866	383.185
1001.32	307.894
1005.77	209.263
1010.22	235.325
1014.67	266.11
1019.11	254.591
1023.55	435.776
1027.99	298.826
1032.42	373.629
1036.86	357.213
1041.29	592.528
1045.72	475.624
1050.14	523.485
1054.56	549.474
1058.98	647.836
1063.4	552.764
1067.82	684.863
1072.23	918.303
1076.64	910.021
1081.05	1192.32
1085.45	1660.01
1089.85	1971.41
1094.25	1554.92
1098.65	1099.75
1103.04	780.531
1107.43	449.098
1111.82	443.087
1116.21	379.304
1120.59	358.008
1124.97	186.997
1129.35	190.965
1133.73	111.223
1138.1	84.0518
1142.47	116.211
1146.84	23.3604
1151.21	91.9981
1155.57	51.1709
1159.93	40.4668
1164.29	77.0215
1168.64	85.5381
1172.99	81.0791
1177.34	13.0898
1181.69	44.2842
1186.04	43.6875
1190.38	20.7793
1194.72	9.51074
1199.05	41.5137
1203.39	7.61231
1207.72	15.4951
1212.05	53.3857
1216.37	43.3359
1220.7	112.023
1225.02	53.3574
1229.34	49.1484
1233.65	1.24609
1237.97	18.8643
1242.28	69.6709
1246.59	42.4853
1250.89	85.2002
1255.19	9.67285
1259.49	56.499
1263.79	104.668
1268.09	140.03
1272.38	59.3887
1276.67	27.6748
1280.95	55.3711
1285.24	4.84473
1289.52	5.06641
1293.8	92.3486
1298.08	176.639
1302.35	7.28027
1306.62	39.8066
1310.89	110.809
1315.15	29.9668
1319.42	92.8945
1323.68	124.583
1327.94	225.591
1332.19	137.673
1336.44	66.4756
1340.69	158.57
1344.94	189.992
1349.19	250.745
1353.43	125.865
1357.67	164.411
1361.9	218.005
1366.14	11.1201
1370.37	183.194
1374.6	98.416
1378.83	147.177
1383.05	189.273
1387.27	36.6816
1391.49	196.52
1395.7	99.4746
1399.92	131.161
1404.13	85.6103
1408.34	75.8897
1412.54	173.756
1416.74	8.52051
1420.94	78.6592
1425.14	144.826
1429.34	67.7295
1433.53	4.08789
1437.72	227.936
1441.9	64.2041
1446.09	37.3682
1450.27	199.647
1454.45	248.462
1458.63	60.1807
1462.8	134.324
1466.97	210.029
1471.14	284.451
1475.31	209.422
1479.47	292.12
1483.63	169.124
1487.79	160.843
1491.94	86.9434
1496.09	96.793
1500.24	264.522
1504.39	207.222
1508.54	107.282
1512.68	203.685
1516.82	0.182617
1520.95	94.8106
1525.09	143.849
1529.22	35.1885
1533.35	84.3438
1537.47	200.264
1541.6	92.8574
1545.72	49.832
1549.83	398.054
1553.95	207.95
1558.06	102.278
1562.17	36.3232
1566.28	134.606
1570.38	0
