Measurement: Raman, 514 nm, ccw, Raman Data Processed
Mineral: Chloritoid
Rruff sample: R050334
Ideal chemistry: Fe^2+^Al_2_OSiO_4_(OH)_2_
Locality: Selçuk, Mugla Province, Turkey
Source: George Rossman
Description: Dark greenish-black foliated cleavage fragments
Measured chemistry: (Fe^2+^_1.84_Mg_0.12_Mn_0.04_)_Σ=2_(Al_3.95_Fe^3+^_0.05_)_Σ=4_Si_2.00_O_10_(OH)_4_ ; H not measured but estimated by difference and stoichiometry
Pin_id: M01684
Orientation: Laser parallel to c* (0 0 1). Fiducial mark perpendicular to laser is parallel to a [1 0 0]
Raman shift (cm-1)	intensity
152.408	0
157.328	49.083
162.246	165.922
167.16	229.227
172.073	288.159
176.982	234.544
181.888	137.843
186.792	367.644
191.694	609.038
196.592	885.561
201.488	1080.44
206.381	661.96
211.271	554.013
216.159	536.531
221.044	431.758
225.926	153.977
230.806	39.9888
235.683	0.43457
240.557	106.713
245.429	333.746
250.298	811.271
255.164	689.415
260.027	1729.36
264.888	240.606
269.746	144.925
274.601	423.004
279.454	1240.67
284.304	1259.97
289.151	687.957
293.996	680.657
298.838	1057.38
303.677	1216.09
308.514	520.483
313.348	42.919
318.179	151.707
323.008	45.3335
327.834	112.224
332.657	750.66
337.478	243.873
342.295	336.188
347.111	96.8511
351.923	47.1357
356.733	34.2022
361.54	483.94
366.345	727.109
371.147	419.81
375.946	201.547
380.743	302.45
385.537	787.856
390.328	1040.96
395.116	1016.9
399.902	1306.37
404.686	1339.69
409.466	1595.64
414.244	1612.39
419.019	1450.92
423.792	817.031
428.562	716.673
433.329	520.854
438.094	276.534
442.856	366.687
447.616	342.188
452.372	616.085
457.126	470.019
461.878	569.581
466.627	687.556
471.373	764.994
476.116	906.854
480.857	793.248
485.596	1025.33
490.331	1500.24
495.064	2423.98
499.795	3061.18
504.522	2261.91
509.247	1831.24
513.97	1131.48
518.69	891.327
523.407	1113.32
528.121	1612.36
532.833	1314.69
537.543	864.778
542.249	655.742
546.953	1093.93
551.655	2078.34
556.354	1198.99
561.05	544.004
565.743	489.596
570.434	565.533
575.123	610.518
579.808	1034.45
584.491	2927.53
589.172	11687.8
593.85	44393.1
598.525	14905.5
603.197	3833.14
607.868	1804.22
612.535	938.454
617.2	570.053
621.862	405.748
626.522	331.922
631.178	314.888
635.833	190.883
640.485	161.934
645.134	201.785
649.78	132.904
654.424	109.231
659.066	128.581
663.704	163.668
668.341	100.48
672.974	106.992
677.605	21.8018
682.234	113.302
686.859	46.8584
691.483	115.953
696.103	20.0898
700.721	43.042
705.337	64.7559
709.949	127.031
714.56	147.885
719.167	272.351
723.772	391.426
728.375	552.106
732.975	740.387
737.572	666.265
742.167	724.733
746.759	298.787
751.349	69.4199
755.936	2.61035
760.52	49.0342
765.102	85.4414
769.681	22.7871
774.258	117.34
778.832	178.904
783.404	79.2353
787.973	178.824
792.539	1.00488
797.103	177.45
801.665	282.956
806.223	233.718
810.779	309.304
815.333	297.424
819.884	364.487
824.433	623.484
828.979	1011.41
833.522	1669.7
838.063	2421.95
842.601	2697.58
847.137	2048.82
851.67	1748.95
856.2	1507.13
860.729	1364.15
865.254	1629.05
869.777	2255.82
874.297	3562.48
878.815	5048.1
883.33	4594.66
887.843	3269.03
892.353	2336.56
896.861	1768.59
901.366	1548.36
905.869	1381.1
910.369	1157.85
914.866	1096.31
919.361	980.217
923.854	988.9
928.344	906.369
932.831	954.563
937.316	889.114
941.798	1118.96
946.278	1219.1
950.755	1217.58
955.23	1302.6
959.702	1097.14
964.171	958.14
968.638	740.773
973.103	818.812
977.565	312.155
982.025	340.835
986.482	456.819
990.936	211.119
995.388	254.725
999.837	425.644
1004.28	398.878
1008.73	359.552
1013.17	255.785
1017.61	371.727
1022.05	345.434
1026.48	385.639
1030.91	198.051
1035.34	261.651
1039.77	165.046
1044.19	146.338
1048.62	299.083
1053.03	159.278
1057.45	131.999
1061.87	198.849
1066.28	271.952
1070.69	329.882
1075.09	274.467
1079.5	366.724
1083.9	289.617
1088.3	238.732
1092.69	316.829
1097.09	316.269
1101.48	196.34
1105.87	296.224
1110.26	254.276
1114.64	214.495
1119.02	344.486
1123.4	257.007
1127.78	294.672
1132.15	61.8115
1136.53	115.414
1140.89	56.5039
1145.26	75.5801
1149.63	88.2793
1153.99	29.6533
1158.35	22.3096
1162.7	48.0361
1167.06	107.505
1171.41	5.04492
1175.76	11.5557
1180.11	0.032227
1184.45	101.077
1188.79	49.4717
1193.13	11.6201
1197.47	69.4893
1201.81	105.391
1206.14	7.96973
1210.47	48.4824
1214.79	44.3994
1219.12	146.303
1223.44	86.3477
1227.76	135.507
1232.08	142.353
1236.39	55.0645
1240.7	104.766
1245.02	200.428
1249.32	173.043
1253.63	153.617
1257.93	80.1533
1262.23	388.684
1266.53	235.415
1270.82	329.85
1275.12	294.245
1279.41	409.486
1283.69	422.666
1287.98	316.387
1292.26	423.467
1296.54	529.832
1300.82	451.517
1305.1	543.783
1309.37	622.07
1313.64	528.082
1317.91	648.227
1322.17	544.953
1326.44	492.108
1330.7	579.529
1334.96	463.029
1339.21	399.218
1343.47	354.483
1347.72	465.79
1351.97	449.37
1356.21	416.785
1360.46	335.668
1364.7	280.19
1368.94	227.682
1373.17	192.242
1377.41	252.85
1381.64	186.277
1385.87	241.377
1390.1	8.58398
1394.32	145.49
1398.54	248.58
1402.76	179.625
1406.98	125.856
1411.19	261.081
1415.41	225.508
1419.62	256.947
1423.82	113.498
1428.03	202.988
1432.23	190.591
1436.43	244.186
1440.63	220.749
1444.82	175.798
1449.02	253.261
1453.21	138.868
1457.4	163.906
1461.58	0.802734
1465.77	201.577
1469.95	295.118
1474.12	285.858
1478.3	17.4258
1482.47	205.608
1486.64	64.708
1490.81	51.0176
1494.98	96.6025
1499.14	68.5078
1503.31	11.2822
1507.47	72.3066
1511.62	245.251
1515.78	11.4961
1519.93	151.184
1524.08	54.5742
1528.23	109.286
1532.37	14.9004
1536.51	213.57
1540.65	164.08
1544.79	194.362
1548.93	240.908
1553.06	389.413
1557.19	201.77
1561.32	239.893
