Measurement: Raman, 514 nm, ccw, Raman Data Processed
Mineral: Chloritoid
Rruff sample: R050334
Ideal chemistry: Fe^2+^Al_2_OSiO_4_(OH)_2_
Locality: Selçuk, Mugla Province, Turkey
Source: George Rossman
Description: Dark greenish-black foliated cleavage fragments
Measured chemistry: (Fe^2+^_1.84_Mg_0.12_Mn_0.04_)_Σ=2_(Al_3.95_Fe^3+^_0.05_)_Σ=4_Si_2.00_O_10_(OH)_4_ ; H not measured but estimated by difference and stoichiometry
Pin_id: M00341
Orientation: Laser parallel to b* (0 1 0). Fiducial mark perpendicular to laser is parallel to -c [0 0 -1]
Raman shift (cm-1)	intensity
89.777	0
94.714	18.9785
99.649	428.432
104.582	6783.87
109.512	4541.08
114.44	6621.98
119.365	3022.76
124.288	638.463
129.209	881.23
134.127	618.293
139.043	599.175
143.956	280.504
148.867	996.51
153.775	100.742
158.681	228.811
163.585	707.775
168.486	750.13
173.385	345.536
178.282	432.59
183.176	800.71
188.067	1099.32
192.956	1879.33
197.843	2825.09
202.727	2170.45
207.609	1214.64
212.489	1896.72
217.366	1055.44
222.24	740.125
227.112	388.359
231.982	300.077
236.849	537.669
241.714	1874.71
246.577	3814.97
251.437	5036.39
256.294	5108.77
261.149	2924.26
266.002	1420.73
270.852	2402.1
275.7	4287.81
280.545	6032.33
285.388	4653.62
290.229	2370.28
295.067	1352.19
299.902	1094.97
304.735	762.858
309.566	543.994
314.394	66.8442
319.22	56.7188
324.043	366.829
328.864	810.035
333.682	1283.95
338.498	509.023
343.311	108.259
348.122	180.696
352.931	245.46
357.737	176.442
362.54	75.8662
367.341	219.657
372.14	428.925
376.936	562.858
381.73	924.211
386.521	1684.71
391.31	1191.23
396.096	692.165
400.88	452.023
405.661	591.786
410.44	806.375
415.216	1162.32
419.99	693.927
424.761	376.455
429.53	456.484
434.297	1.03516
439.061	4.96631
443.822	238.066
448.581	677.888
453.337	925.43
458.091	834.965
462.843	992.979
467.592	1277.68
472.338	1962.25
477.082	2217.8
481.824	2686.3
486.563	2815.52
491.3	4304.6
496.034	6521.66
500.765	7693.49
505.494	7676.66
510.221	8713.68
514.945	6613.48
519.666	4866.76
524.385	5843.01
529.102	7433.94
533.816	6489.1
538.527	5961.65
543.236	11417.5
547.943	19534.7
552.647	23093
557.348	9852.25
562.047	3223.26
566.744	1958.64
571.438	1615.27
576.129	1841.03
580.818	4226.7
585.504	16958.6
590.188	31408.9
594.87	45982.6
599.549	16265.7
604.225	4484.36
608.899	2307.59
613.57	1349.16
618.239	875.037
622.905	497.291
627.569	471.697
632.23	253.883
636.889	225.974
641.545	143.109
646.198	86.2451
650.849	44.1065
655.498	141.847
660.144	262.693
664.787	468.591
669.428	311.644
674.067	62.1699
678.703	87.0566
683.336	63.6211
687.967	38.5547
692.595	37.1416
697.221	65.7744
701.844	85.751
706.465	273.265
711.083	758.026
715.698	1306.11
720.311	2293.85
724.922	3587.41
729.53	5094.61
734.135	5804.22
738.738	5087.25
743.338	3892.7
747.936	2568.62
752.531	1347
757.124	849.889
761.714	477.298
766.302	291.255
770.887	194.844
775.469	201.07
780.049	47.5537
784.626	6.18457
789.201	81.6162
793.773	60.5029
798.343	148.905
802.91	229.632
807.475	170.19
812.037	163.873
816.596	154.716
821.153	523.135
825.707	1090.04
830.259	2205.23
834.808	3281.46
839.355	3976.21
843.899	3930.3
848.441	3644.13
852.98	3509.38
857.516	3633.23
862.05	4741.38
866.581	6978.03
871.11	10867.2
875.636	15267.9
880.159	16131.3
884.68	12543.2
889.199	8334.81
893.714	6605.06
898.228	7055.02
902.738	8067.72
907.246	7152.21
911.752	4796.52
916.255	2825.47
920.755	1726.38
925.253	1133.7
929.748	580.427
934.241	829.871
938.731	597.859
943.218	536.001
947.703	869.468
952.186	924.782
956.665	855.163
961.142	893.506
965.617	717.638
970.089	826.518
974.558	413.817
979.025	322.253
983.489	196.669
987.951	18.8994
992.41	215.509
996.866	139.807
1001.32	272.474
1005.77	221.052
1010.22	186.754
1014.67	185.516
1019.11	111.279
1023.55	156.664
1027.99	84.8203
1032.42	116.828
1036.86	84.2656
1041.29	148.238
1045.72	183.602
1050.14	255.184
1054.56	290.256
1058.98	426.463
1063.4	472.99
1067.82	641.369
1072.23	443.623
1076.64	591.199
1081.05	940.013
1085.45	1289.43
1089.85	1400.68
1094.25	1347.72
1098.65	898.019
1103.04	665.55
1107.43	819.878
1111.82	459.112
1116.21	335.03
1120.59	300.793
1124.97	255.944
1129.35	219.369
1133.73	63.4883
1138.1	296.007
1142.47	194.619
1146.84	186.852
1151.21	104.716
1155.57	91.8936
1159.93	51.6582
1164.29	29.0586
1168.64	131.144
1172.99	64.4053
1177.34	87.0078
1181.69	25.3037
1186.04	15.8174
1190.38	72.0723
1194.72	16.0039
1199.05	22.1133
1203.39	75.1602
1207.72	30.2363
1212.05	28.2715
1216.37	28.6201
1220.7	107.639
1225.02	20.4277
1229.34	55.9522
1233.65	62.5977
1237.97	111.756
1242.28	81.3584
1246.59	107.048
1250.89	174.49
1255.19	176.683
1259.49	15.6328
1263.79	108.627
1268.09	28.8887
1272.38	150.78
1276.67	119.964
1280.95	126.603
1285.24	131.844
1289.52	196.431
1293.8	126.743
1298.08	245.655
1302.35	159.242
1306.62	33.708
1310.89	275.466
1315.15	301.243
1319.42	280.765
1323.68	280.476
1327.94	169.34
1332.19	215.856
1336.44	151.077
1340.69	359.274
1344.94	112.678
1349.19	186.836
1353.43	171.581
1357.67	210.513
1361.9	158.001
1366.14	138.34
1370.37	45.2822
1374.6	231.952
1378.83	324.652
1383.05	223.78
1387.27	166.112
1391.49	252.569
1395.7	284.17
1399.92	219.95
1404.13	184.451
1408.34	334.14
1412.54	188.369
1416.74	255.531
1420.94	87.2148
1425.14	174.57
1429.34	228.81
1433.53	178.548
1437.72	316.769
1441.9	151.929
1446.09	285.051
1450.27	18.9404
1454.45	171.668
1458.63	215.924
1462.8	6.10449
1466.97	318.502
1471.14	72.5684
1475.31	117.543
1479.47	131.833
1483.63	151.684
1487.79	144.85
1491.94	339.847
1496.09	129.012
1500.24	182.965
1504.39	280.532
1508.54	229.475
1512.68	104.524
1516.82	194.269
1520.95	38.3789
1525.09	32.2529
1529.22	120.88
1533.35	146.438
1537.47	23.2393
1541.6	41.9775
1545.72	125.14
1549.83	107.39
1553.95	132.149
1558.06	39.8574
1562.17	114.314
1566.28	15.4375
1570.38	0
