Measurement: Raman, 514 nm, ccw, Raman Data Processed
Mineral: Chloritoid
Rruff sample: R050334
Ideal chemistry: Fe^2+^Al_2_OSiO_4_(OH)_2_
Locality: Selçuk, Mugla Province, Turkey
Source: George Rossman
Description: Dark greenish-black foliated cleavage fragments
Measured chemistry: (Fe^2+^_1.84_Mg_0.12_Mn_0.04_)_Σ=2_(Al_3.95_Fe^3+^_0.05_)_Σ=4_Si_2.00_O_10_(OH)_4_ ; H not measured but estimated by difference and stoichiometry
Pin_id: M00341
Orientation: Laser parallel to b* (0 1 0). Fiducial mark perpendicular to laser is parallel to -c [0 0 -1]
Raman shift (cm-1)	intensity
89.777	0
94.714	7.94092
99.649	275.754
104.582	2803.8
109.512	2393.28
114.44	3386.78
119.365	1440.14
124.288	280.904
129.209	333.79
134.127	297.557
139.043	296.714
143.956	177.248
148.867	117.592
153.775	80.6103
158.681	161.236
163.585	269.381
168.486	291.142
173.385	157.269
178.282	169.596
183.176	247.905
188.067	548.991
192.956	1023.04
197.843	1974.67
202.727	2571.9
207.609	3199.2
212.489	3462.59
217.366	2787.07
222.24	2075.1
227.112	1560.33
231.982	1563.06
236.849	2211.07
241.714	4533.77
246.577	7295.27
251.437	8862.41
256.294	5344.86
261.149	1738.49
266.002	1083.53
270.852	1777.19
275.7	3210.99
280.545	4841.79
285.388	3527.98
290.229	1819.3
295.067	1045.29
299.902	948.703
304.735	995.174
309.566	1033.35
314.394	896.974
319.22	772.743
324.043	1400.69
328.864	2244.66
333.682	2794.67
338.498	1550.71
343.311	735.781
348.122	474.909
352.931	60.9243
357.737	106.021
362.54	11.4355
367.341	1.04102
372.14	76.729
376.936	123.206
381.73	477.757
386.521	757.306
391.31	679.833
396.096	594.386
400.88	369.22
405.661	196.423
410.44	153.119
415.216	90.1108
419.99	133.294
424.761	94.5278
429.53	47.7974
434.297	3.90869
439.061	75.2075
443.822	70.2471
448.581	247.663
453.337	381.422
458.091	484.185
462.843	702.939
467.592	1185.68
472.338	1831.4
477.082	2223.09
481.824	2333.76
486.563	2640.38
491.3	3813.96
496.034	4954
500.765	5241.88
505.494	5271.56
510.221	5628.92
514.945	5453.98
519.666	6864.42
524.385	10630.5
529.102	14575.6
533.816	12933.9
538.527	12162.7
543.236	24062.1
547.943	40057.9
552.647	48684.4
557.348	19893
562.047	5912.7
566.744	2702.78
571.438	1836.2
576.129	1831.59
580.818	3167.34
585.504	12460.5
590.188	25025.5
594.87	34464.3
599.549	10862.9
604.225	3304.16
608.899	1841.2
613.57	1005.98
618.239	728.502
622.905	377.758
627.569	301.745
632.23	222.459
636.889	205.134
641.545	27.3672
646.198	86.2749
650.849	0.48291
655.498	25.8862
660.144	226.02
664.787	362.289
669.428	249.888
674.067	67.1504
678.703	15.144
683.336	59.4292
687.967	7.05176
692.595	54.6245
697.221	85.7393
701.844	257.632
706.465	346.194
711.083	554.439
715.698	1140.38
720.311	1952.17
724.922	3143.69
729.53	4257.91
734.135	4641.85
738.738	4177.09
743.338	3036.94
747.936	1869.1
752.531	1060.01
757.124	549.691
761.714	300.151
766.302	188.4
770.887	15.4502
775.469	20.1753
780.049	4.13867
784.626	78.8242
789.201	16.2988
793.773	12.8965
798.343	52.5855
802.91	47.75
807.475	128.093
812.037	234.533
816.596	242.383
821.153	361.184
825.707	787.344
830.259	1164.77
834.808	1763.19
839.355	2334.28
843.899	2724.75
848.441	3441.38
852.98	4310.19
857.516	5402.19
862.05	7245.41
866.581	10836.9
871.11	16857.5
875.636	22705.5
880.159	22984.8
884.68	15895.3
889.199	9290.17
893.714	5949.36
898.228	4595.9
902.738	4543.81
907.246	3712.81
911.752	2413.55
916.255	1644.16
920.755	839.455
925.253	458.998
929.748	162.328
934.241	85.1865
938.731	83.0869
943.218	46.7398
947.703	30.1641
952.186	87.4233
956.665	282.623
961.142	395.92
965.617	561.169
970.089	507.323
974.558	236.116
979.025	300.523
983.489	288.628
987.951	206.406
992.41	304.868
996.866	310.026
1001.32	274.886
1005.77	282.395
1010.22	219.535
1014.67	404.328
1019.11	252.806
1023.55	273.999
1027.99	455.836
1032.42	403.714
1036.86	398.002
1041.29	300.856
1045.72	483.37
1050.14	522.665
1054.56	655.123
1058.98	523.048
1063.4	748.823
1067.82	652.129
1072.23	833.39
1076.64	961.888
1081.05	1215.77
1085.45	1758.65
1089.85	2005.07
1094.25	1819.86
1098.65	1134.1
1103.04	712.031
1107.43	484.197
1111.82	311.38
1116.21	435.272
1120.59	481.838
1124.97	421.617
1129.35	190.233
1133.73	161.36
1138.1	175.076
1142.47	77.6397
1146.84	105.862
1151.21	174.775
1155.57	139.639
1159.93	63.2964
1164.29	15.5654
1168.64	39.0918
1172.99	84.8462
1177.34	45.7217
1181.69	0.87207
1186.04	19.0718
1190.38	15.0684
1194.72	63.8677
1199.05	13.7617
1203.39	19.5713
1207.72	112.877
1212.05	39.9482
1216.37	55.3608
1220.7	31.3843
1225.02	19.1714
1229.34	119.175
1233.65	113.085
1237.97	103.029
1242.28	46.3374
1246.59	13.5239
1250.89	5.26074
1255.19	69.7178
1259.49	17.3765
1263.79	74.5063
1268.09	78.9121
1272.38	97.7441
1276.67	83.9976
1280.95	60.5093
1285.24	54.0825
1289.52	57.3818
1293.8	81.2256
1298.08	67.6416
1302.35	171.719
1306.62	56.7705
1310.89	136.214
1315.15	107.552
1319.42	147.071
1323.68	169.644
1327.94	115.906
1332.19	66.1113
1336.44	103.275
1340.69	201.416
1344.94	82.3603
1349.19	93.9263
1353.43	195.299
1357.67	157.352
1361.9	147.856
1366.14	176.273
1370.37	72.0684
1374.6	193.775
1378.83	9.51221
1383.05	127.428
1387.27	17.71
1391.49	66.4888
1395.7	82.5127
1399.92	138.382
1404.13	118.149
1408.34	134.804
1412.54	138.737
1416.74	132.425
1420.94	40.4878
1425.14	68.1841
1429.34	164.058
1433.53	154.904
1437.72	125.112
1441.9	132.514
1446.09	181.02
1450.27	122.648
1454.45	98.7524
1458.63	151.885
1462.8	140.975
1466.97	122.397
1471.14	222.811
1475.31	259.445
1479.47	207.699
1483.63	96.917
1487.79	73.0137
1491.94	190.638
1496.09	104.808
1500.24	75.7563
1504.39	152.54
1508.54	180.102
1512.68	1.02686
1516.82	62.9756
1520.95	100.114
1525.09	6.56152
1529.22	23.6128
1533.35	93.1597
1537.47	195.323
1541.6	132.798
1545.72	265.016
1549.83	389.122
1553.95	405.786
1558.06	198.199
1562.17	127.69
1566.28	160.781
1570.38	0
