Measurement: Raman, 514 nm, ccw, Raman Data Processed
Mineral: Chloritoid
Rruff sample: R050334
Ideal chemistry: Fe^2+^Al_2_OSiO_4_(OH)_2_
Locality: Selçuk, Mugla Province, Turkey
Source: George Rossman
Description: Dark greenish-black foliated cleavage fragments
Measured chemistry: (Fe^2+^_1.84_Mg_0.12_Mn_0.04_)_Σ=2_(Al_3.95_Fe^3+^_0.05_)_Σ=4_Si_2.00_O_10_(OH)_4_ ; H not measured but estimated by difference and stoichiometry
Pin_id: M00213
Orientation: Laser parallel to a* (1 0 0). Fiducial mark perpendicular to laser is parallel to -b [0 -1 0]
Raman shift (cm-1)	intensity
89.777	0
94.714	3.51807
99.649	133.452
104.582	1593.58
109.512	1643.54
114.44	889.664
119.365	380.86
124.288	41.1624
129.209	118.24
134.127	18.8103
139.043	82.5176
143.956	142.178
148.867	452.754
153.775	200.417
158.681	132.54
163.585	561.861
168.486	794.324
173.385	518.884
178.282	592.112
183.176	826.011
188.067	1091.34
192.956	1464.32
197.843	1917.18
202.727	2463.03
207.609	753.671
212.489	556.224
217.366	230.381
222.24	152.213
227.112	20.0779
231.982	44.0493
236.849	157.762
241.714	378.197
246.577	445.062
251.437	464.881
256.294	734.491
261.149	504.221
266.002	953.784
270.852	2754.15
275.7	3861.97
280.545	2366.82
285.388	1089.68
290.229	521.423
295.067	413.455
299.902	346.587
304.735	261.61
309.566	81.2952
314.394	102.86
319.22	264.649
324.043	754.357
328.864	769.096
333.682	270.874
338.498	10.7012
343.311	74.4685
348.122	163.89
352.931	149.888
357.737	2.70215
362.54	94.2002
367.341	120.883
372.14	164.604
376.936	380.021
381.73	593.702
386.521	639.233
391.31	644.965
396.096	750.019
400.88	1313.49
405.661	2330.37
410.44	2423.68
415.216	1523.42
419.99	1029.68
424.761	801.626
429.53	616.528
434.297	521.219
439.061	534.988
443.822	682.82
448.581	665.711
453.337	870.665
458.091	1031.59
462.843	1168.67
467.592	1444.8
472.338	1504.98
477.082	1385.21
481.824	1658.31
486.563	2601.71
491.3	3669.19
496.034	3428.31
500.765	2856.23
505.494	2619.95
510.221	2109.95
514.945	1595.78
519.666	1668.04
524.385	1862.01
529.102	1537.9
533.816	1018.83
538.527	1237.16
543.236	2290.11
547.943	2644.3
552.647	1500.91
557.348	828.009
562.047	798.074
566.744	881.807
571.438	1375.91
576.129	2706.89
580.818	8792.74
585.504	41112.4
590.188	47711
594.87	15644.5
599.549	5078.72
604.225	2125.83
608.899	1125.78
613.57	729.563
618.239	426.17
622.905	315.599
627.569	842.946
632.23	572.259
636.889	98.1094
641.545	252.075
646.198	46.6711
650.849	4.83569
655.498	93.0562
660.144	76.7061
664.787	65.5584
669.428	15.918
674.067	29.948
678.703	30.1499
683.336	100.63
687.967	8.37183
692.595	25.9082
697.221	29.6721
701.844	32.0298
706.465	98.0737
711.083	299.914
715.698	515.515
720.311	909.88
724.922	1380.01
729.53	1512.92
734.135	1448.61
738.738	982.081
743.338	730.343
747.936	403.401
752.531	235.875
757.124	127.941
761.714	109.467
766.302	16.1834
770.887	81.9399
775.469	13.8496
780.049	14.5796
784.626	24.4602
789.201	20.8137
793.773	20.6858
798.343	59.3743
802.91	34.3337
807.475	57.9446
812.037	199.983
816.596	290.57
821.153	277.93
825.707	583.369
830.259	918.263
834.808	1236.02
839.355	1307.68
843.899	1190.34
848.441	1242.06
852.98	1396.9
857.516	1599.87
862.05	2261
866.581	3832.28
871.11	6282.74
875.636	7867.37
880.159	6933.19
884.68	4815.22
889.199	3571.48
893.714	3178.97
898.228	3346.74
902.738	3365.45
907.246	2699.63
911.752	2024.87
916.255	1529.99
920.755	1248.35
925.253	1048.1
929.748	928.032
934.241	1066.34
938.731	1145.08
943.218	1283.33
947.703	1393.1
952.186	1437.55
956.665	1248.71
961.142	1047.68
965.617	845.418
970.089	625.84
974.558	614.867
979.025	381.331
983.489	334.143
987.951	343.291
992.41	247.792
996.866	285.67
1001.32	211.898
1005.77	213.453
1010.22	124.333
1014.67	189.844
1019.11	73.8672
1023.55	37.2908
1027.99	47.823
1032.42	17.9431
1036.86	23.26
1041.29	21.2227
1045.72	84.2593
1050.14	6.96191
1054.56	0.70874
1058.98	38.0132
1063.4	55.3462
1067.82	114.55
1072.23	70.6448
1076.64	206.59
1081.05	232.159
1085.45	386.92
1089.85	448.327
1094.25	466.88
1098.65	311.327
1103.04	243.149
1107.43	223.054
1111.82	72.6428
1116.21	168.903
1120.59	188.756
1124.97	172.33
1129.35	106.542
1133.73	46.4016
1138.1	92.9302
1142.47	26.5088
1146.84	53.061
1151.21	36.7195
1155.57	27.7981
1159.93	31.8833
1164.29	128.413
1168.64	1.66235
1172.99	0.086182
1177.34	38.9739
1181.69	25.1135
1186.04	14.134
1190.38	67.2761
1194.72	2.66553
1199.05	58.1123
1203.39	16.7331
1207.72	46.3132
1212.05	41.7561
1216.37	0.947021
1220.7	9.04077
1225.02	19.3008
1229.34	15.1126
1233.65	13.3047
1237.97	84.3294
1242.28	147.223
1246.59	56.977
1250.89	102.594
1255.19	11.0418
1259.49	128.273
1263.79	123.349
1268.09	101.287
1272.38	92.0874
1276.67	121.749
1280.95	40.054
1285.24	123.4
1289.52	124.965
1293.8	96.5356
1298.08	168.774
1302.35	204.601
1306.62	181.878
1310.89	101.398
1315.15	115.793
1319.42	165.412
1323.68	186.182
1327.94	108.251
1332.19	253.404
1336.44	80.7312
1340.69	104.404
1344.94	146.531
1349.19	126.332
1353.43	129.499
1357.67	78.605
1361.9	118.259
1366.14	177.758
1370.37	124.901
1374.6	117.302
1378.83	187.11
1383.05	144.049
1387.27	219.278
1391.49	71.551
1395.7	104.81
1399.92	113.026
1404.13	126.274
1408.34	128.827
1412.54	140.156
1416.74	125.425
1420.94	117.69
1425.14	100.017
1429.34	183.342
1433.53	82.647
1437.72	68.0137
1441.9	99.2385
1446.09	50.8206
1450.27	126.347
1454.45	63.4702
1458.63	10.6636
1462.8	101.16
1466.97	83.9592
1471.14	82.8743
1475.31	115.827
1479.47	20.8899
1483.63	105.085
1487.79	87.3555
1491.94	29.6982
1496.09	122.131
1500.24	66.6201
1504.39	65.2271
1508.54	57.4915
1512.68	101.904
1516.82	43.3643
1520.95	46.4763
1525.09	38.1174
1529.22	8.26929
1533.35	54.6445
1537.47	50.6819
1541.6	134.742
1545.72	90.9055
1549.83	327.18
1553.95	206.53
1558.06	59.8413
1562.17	67.4995
1566.28	0.902588
1570.38	0
