Measurement: Raman, 514 nm, ccw, Raman Data Processed
Mineral: Chloritoid
Rruff sample: R050334
Ideal chemistry: Fe^2+^Al_2_OSiO_4_(OH)_2_
Locality: Selçuk, Mugla Province, Turkey
Source: George Rossman
Description: Dark greenish-black foliated cleavage fragments
Measured chemistry: (Fe^2+^_1.84_Mg_0.12_Mn_0.04_)_Σ=2_(Al_3.95_Fe^3+^_0.05_)_Σ=4_Si_2.00_O_10_(OH)_4_ ; H not measured but estimated by difference and stoichiometry
Pin_id: M01491
Orientation: Laser parallel to (1 0 1). Fiducial mark perpendicular to laser is parallel to b [0 1 0]
Raman shift (cm-1)	intensity
168.389	0
173.3	134.056
178.209	279.506
183.115	236.708
188.018	337.364
192.918	728.736
197.816	1012.94
202.711	1302.53
207.604	190.3
212.494	295.99
217.381	196.619
222.265	221.644
227.147	76.2695
232.026	116.384
236.902	58.3135
241.775	170.738
246.646	910.862
251.514	2065.3
256.38	1959.54
261.243	2343.64
266.103	1156.41
270.96	861.795
275.815	889.494
280.667	1603.55
285.516	2165.21
290.363	1496.46
295.207	916.195
300.048	767.422
304.887	821.196
309.723	609.564
314.556	198.623
319.387	88.916
324.215	25.6621
329.04	265.452
333.862	849.057
338.682	488.515
343.5	171.277
348.314	252.338
353.126	179.379
357.935	160.821
362.742	153.035
367.546	16.7412
372.347	379.443
377.145	531.836
381.941	753.034
386.735	1531
391.525	2009.04
396.313	2066.01
401.098	2371.04
405.881	2560.16
410.661	2832.17
415.438	2704.04
420.213	2551.37
424.985	1647.71
429.754	1464.53
434.521	982.005
439.285	855.138
444.046	775.927
448.805	778.552
453.561	565.472
458.315	693.201
463.065	643.367
467.813	698.084
472.559	918.375
477.302	1041.97
482.042	1131.26
486.78	1267.39
491.515	1468.69
496.247	2317.1
500.977	2876.47
505.704	2956.97
510.428	3957.4
515.15	3772.73
519.869	2208.23
524.586	2079.11
529.3	3172.97
534.011	3439.55
538.719	1752.17
543.425	1514.34
548.129	2581.16
552.83	5681.57
557.528	3772.49
562.223	1060.06
566.916	708.19
571.607	406.854
576.294	406.034
580.979	899.709
585.662	2390.86
590.341	8536.46
595.019	36946.5
599.693	17909.9
604.365	3820.77
609.035	1805.04
613.701	931.76
618.366	631.32
623.027	373.302
627.686	202.363
632.342	190.256
636.996	207.523
641.647	223.052
646.296	127.557
650.942	129.696
655.585	173.675
660.226	172.033
664.864	252.092
669.499	210.094
674.132	50.6152
678.763	105.554
683.39	260.567
688.015	70.2705
692.638	61.7315
697.258	134.939
701.875	482.445
706.49	514.758
711.102	471.033
715.712	363.861
720.319	464.223
724.923	336.097
729.525	706.468
734.124	773.183
738.721	650.618
743.315	580.364
747.907	455.535
752.496	200.113
757.082	101.054
761.666	1.85254
766.247	205.622
770.826	11.6514
775.402	69.2207
779.975	79.7832
784.546	27.0869
789.115	20.1455
793.681	50.1816
798.244	81.3955
802.804	4.70312
807.363	222.403
811.918	284.288
816.471	74.1172
821.022	163.22
825.569	327.574
830.115	583.355
834.657	640.404
839.198	1139.82
843.735	1463.61
848.27	1392.78
852.803	1308.35
857.333	1398.32
861.86	1661.71
866.385	2274.04
870.907	3243.78
875.427	5090.5
879.944	7083.68
884.459	6911.37
888.971	5243.57
893.481	3840.36
897.988	3569.09
902.492	4235.59
906.994	4485.87
911.493	3620.74
915.99	2470.59
920.485	1757.82
924.976	1495.66
929.466	1189.52
933.952	1028.3
938.436	1053.23
942.918	1077.79
947.397	987.776
951.874	1195.62
956.348	1026.56
960.819	1093.21
965.288	819.773
969.755	888.699
974.219	633.715
978.68	810.837
983.139	707.782
987.595	659.46
992.049	710.992
996.501	592.688
1000.95	702.562
1005.4	686.627
1009.84	529.9
1014.28	624.709
1018.72	401.715
1023.16	497.825
1027.59	392.168
1032.02	308.057
1036.45	460.441
1040.88	579.038
1045.3	495.411
1049.72	438.669
1054.14	323.701
1058.56	358.131
1062.97	456.674
1067.38	392.526
1071.79	504.722
1076.19	559.693
1080.6	449.827
1085	656.513
1089.4	805.564
1093.79	853.869
1098.19	601.411
1102.58	502.185
1106.97	541.186
1111.35	344.413
1115.74	488.866
1120.12	921.545
1124.5	655.446
1128.87	284.566
1133.25	65.9033
1137.62	362.042
1141.99	121.459
1146.35	102.097
1150.72	3.46777
1155.08	70.5322
1159.44	47.9443
1163.79	121.689
1168.15	122.375
1172.5	47.457
1176.85	42.793
1181.19	54.4043
1185.54	104.006
1189.88	191.478
1194.22	25.252
1198.55	30.2441
1202.89	161.426
1207.22	29.7539
1211.55	118.953
1215.88	136.947
1220.2	324.584
1224.52	253.338
1228.84	356.801
1233.16	241.844
1237.47	402.615
1241.78	250.844
1246.09	272.668
1250.4	193.598
1254.7	216.537
1259.01	291.492
1263.31	317.457
1267.6	519.43
1271.9	512.41
1276.19	601.074
1280.48	547.764
1284.77	734.598
1289.05	558.461
1293.33	447.072
1297.61	667.85
1301.89	721.602
1306.16	882.799
1310.44	1002.15
1314.71	905.07
1318.97	1299.43
1323.24	857.354
1327.5	850.379
1331.76	1029.07
1336.02	769.504
1340.28	776.154
1344.53	560.076
1348.78	565.102
1353.03	501.435
1357.27	605.225
1361.52	450.209
1365.76	401.486
1370	272.357
1374.23	216.477
1378.47	169.547
1382.7	174.791
1386.93	331.457
1391.15	323.93
1395.38	356.766
1399.6	135.432
1403.82	286.121
1408.03	31.2617
1412.25	75.5938
1416.46	55.4805
1420.67	12.1543
1424.88	72.9746
1429.08	261.281
1433.28	423.242
1437.48	695.162
1441.68	386.44
1445.87	300.414
1450.07	273.154
1454.26	234.453
1458.44	183.019
1462.63	167.775
1466.81	194.611
1470.99	185.43
1475.17	33.6094
1479.34	194.625
1483.52	138.15
1487.69	210.033
1491.86	287.272
1496.02	468.408
1500.19	241.803
1504.35	30.6582
1508.51	293.783
1512.66	133.457
1516.82	194.408
1520.97	177.81
1525.12	337.272
1529.26	209.504
1533.41	261.346
1537.55	111.934
1541.69	235.742
1545.83	3.07617
1549.96	251
1554.09	34.8223
1558.22	24.9961
1562.35	0
