Measurement: Raman, 514 nm, ccw, Raman Data Processed
Mineral: Chloritoid
Rruff sample: R060292
Ideal chemistry: Fe^2+^Al_2_OSiO_4_(OH)_2_
Locality: Pech, Kunar Province, Afghanistan
Source: Herb Obodda
Description: Black tabular crystal
Measured chemistry: (Fe^2+^_1.55_Mg_0.43_Mn_0.02_)_Σ=2_(Al_3.93_Fe^3+^_0.07_)_Σ=4_Si_2.00_O_10_(OH)_4_
Pin_id: M00166
Orientation: Laser parallel to a* (1 0 0). Fiducial mark perpendicular to laser is parallel to b [0 1 0]
Raman shift (cm-1)	intensity
51.431	0
56.387	2.49118
61.341	19.3914
66.292	28.8761
71.241	38.2201
76.187	40.8457
81.131	268.558
86.072	261.051
91.012	436.361
95.948	423.537
100.883	562.092
105.815	1640.91
110.744	822.719
115.671	894.21
120.596	557.186
125.519	325.434
130.439	283.123
135.356	338.968
140.271	261.621
145.184	275.463
150.094	323.663
155.002	228.362
159.908	298.641
164.811	365.292
169.711	392.321
174.61	426.913
179.505	405.078
184.399	501.573
189.29	646.385
194.178	810.504
199.064	1103.17
203.948	1036.54
208.829	1094.67
213.708	1012.27
218.585	1113.63
223.459	1120.32
228.33	1296.81
233.199	1502.08
238.066	2173.11
242.93	3060.83
247.792	3570.19
252.651	3308.74
257.508	1952.54
262.363	1662.74
267.215	2884.25
272.064	6721.04
276.912	9994.1
281.756	13048.4
286.598	8975.04
291.438	4095.76
296.276	2659.47
301.111	2373.41
305.943	2421.84
310.773	2527.42
315.601	2457.16
320.426	2519.05
325.248	2973.07
330.068	3029.21
334.886	2510.47
339.701	879.848
344.514	363.104
349.324	223.039
354.132	47.9723
358.938	43.7228
363.741	19.4367
368.541	36.9083
373.339	33.406
378.135	3.00793
382.928	75.5983
387.718	40.411
392.506	37.4609
397.292	61.8199
402.075	101.831
406.856	503.998
411.634	686.653
416.41	749.784
421.183	255.238
425.954	117.808
430.722	3.4209
435.488	0.009033
440.251	3.56677
445.012	108.784
449.77	157.15
454.526	303.524
459.28	539.902
464.03	1062.28
468.779	1902.07
473.525	2660.99
478.268	3124.33
483.009	3146.64
487.747	4666.92
492.483	7648.16
497.217	9637.46
501.948	7807.98
506.676	3393.69
511.402	2001.47
516.125	1819.19
520.846	2682.9
525.565	3844.01
530.281	5488.78
534.994	6145.44
539.705	10950.2
544.413	32598.1
549.119	47697.5
553.822	57356.6
558.523	21746.8
563.222	6355.47
567.917	2998.87
572.611	1970.65
577.302	2073.39
581.99	4331.19
586.676	19629.7
591.359	28234.1
596.04	36537.3
600.718	9506.37
605.394	2776.26
610.067	1374.99
614.737	848.547
619.406	572.938
624.071	377.158
628.734	210.205
633.395	203.079
638.053	65.7778
642.708	38.9938
647.361	56.2772
652.012	37.4563
656.66	151.6
661.305	513.409
665.948	713.226
670.588	865.392
675.226	120.09
679.861	24.9806
684.494	85.6476
689.124	94.4044
693.752	76.1699
698.377	8.91089
702.999	56.7649
707.619	176.199
712.237	393.468
716.852	783.616
721.464	1543.72
726.074	2531.69
730.681	3393.51
735.286	3582.19
739.888	2828.73
744.488	1957.14
749.085	1128.42
753.68	645.587
758.272	344.639
762.861	176.584
767.448	92.4292
772.033	76.182
776.614	52.5608
781.194	38.395
785.77	63.7432
790.345	96.7402
794.916	67.5076
799.485	128.167
804.052	135.799
808.616	346.602
813.177	472.988
817.736	611.27
822.292	759.803
826.846	1090.38
831.397	1467.87
835.945	2019.22
840.491	2588.97
845.035	3294.97
849.576	4356.07
854.114	5580.26
858.65	7245.55
863.183	9783.95
867.713	14673.5
872.241	21995.1
876.767	28165.9
881.29	23909.8
885.81	14584.9
890.328	7398.2
894.843	4326.66
899.356	2850.32
903.866	2164.18
908.373	1608.27
912.878	1093.59
917.38	948.46
921.88	570.284
926.377	305.339
930.872	69.6003
935.364	91.6021
939.853	142.844
944.34	127.599
948.824	50.0068
953.306	165.589
957.785	529.844
962.261	907.913
966.735	1189.76
971.207	1249.36
975.675	1277.51
980.141	1335.07
984.605	1214.05
989.066	1188.43
993.524	1138.24
997.98	1104.47
1002.43	1073.14
1006.88	959.248
1011.33	905.82
1015.78	931.865
1020.22	954.368
1024.66	948.413
1029.1	978.012
1033.53	1046.14
1037.97	983.799
1042.4	1089.95
1046.82	1065.64
1051.25	1153.93
1055.67	1138.82
1060.09	1140.21
1064.51	1182.12
1068.92	1199.65
1073.33	1218.09
1077.74	1287.79
1082.15	1549.85
1086.55	1807.35
1090.95	1710.42
1095.35	1464.09
1099.75	1102.61
1104.14	765.669
1108.53	646.773
1112.92	628.149
1117.31	502.227
1121.69	489.414
1126.07	458.489
1130.45	382.388
1134.82	377.426
1139.19	356.619
1143.57	287.43
1147.93	347.829
1152.3	287.837
1156.66	239.47
1161.02	232.311
1165.38	145.106
1169.73	123.986
1174.08	148.087
1178.43	50.5166
1182.78	98.335
1187.12	18.3794
1191.46	36.3066
1195.8	18.1941
1200.14	59.9224
1204.47	14.5442
1208.8	23.7632
1213.13	20.0845
1217.46	5.79736
1221.78	31.2478
1226.1	0.501709
1230.42	46.0864
1234.73	32.011
1239.04	2.03613
1243.35	48.5171
1247.66	0.844482
1251.97	26.3936
1256.27	39.6892
1260.57	0.455078
1264.86	25.5125
1269.16	8.66846
1273.45	22.9226
1277.74	41.48
1282.03	28.0076
1286.31	19.6296
1290.59	1.50122
1294.87	66.3777
1299.14	16.1182
1303.42	16.7805
1307.69	13.4531
1311.95	12.7039
1316.22	29.438
1320.48	8.14465
1324.74	24.4885
1329	64.0476
1333.26	32.1423
1337.51	83.3273
1341.76	37.6771
1346	0.263428
1350.25	57.231
1354.49	72.4214
1358.73	102.182
1362.96	67.151
1367.2	114.642
1371.43	4.35071
1375.66	98.1996
1379.88	90.5098
1384.11	37.4653
1388.33	69.4915
1392.54	73.0232
1396.76	143.973
1400.97	118.403
1405.18	113.487
1409.39	91.197
1413.59	108.271
1417.8	101.995
1421.99	126.178
1426.19	133.776
1430.38	65.1694
1434.58	65.1313
1438.77	86.8084
1442.95	99.9557
1447.13	101.753
1451.32	126.564
1455.49	103.04
1459.67	42.1728
1463.84	104.346
1468.01	118.069
1472.18	108.561
1476.35	36.7742
1480.51	98.8486
1484.67	65.1867
1488.83	83.7003
1492.98	91.8427
1497.13	41.0971
1501.28	12.8744
1505.43	12.4412
1509.57	25.928
1513.71	54.394
1517.85	86.9064
1521.99	72.0019
1526.12	10.5734
1530.25	17.6166
1534.38	50.8425
1538.5	102.546
1542.62	54.6975
1546.74	48.7111
1550.86	175.158
1554.98	85.4004
1559.09	31.9891
1563.2	23.0548
1567.31	46.9924
