Measurement: Raman, 514 nm, ccw, Raman Data Processed
Mineral: Chloritoid
Rruff sample: R060292
Ideal chemistry: Fe^2+^Al_2_OSiO_4_(OH)_2_
Locality: Pech, Kunar Province, Afghanistan
Source: Herb Obodda
Description: Black tabular crystal
Measured chemistry: (Fe^2+^_1.55_Mg_0.43_Mn_0.02_)_Σ=2_(Al_3.93_Fe^3+^_0.07_)_Σ=4_Si_2.00_O_10_(OH)_4_
Pin_id: M00413
Orientation: Laser parallel to c* (0 0 1). Fiducial mark perpendicular to laser is parallel to a [1 0 0]
Raman shift (cm-1)	intensity
89.777	0
94.714	2.44727
99.649	30.771
104.582	529.391
109.512	729.258
114.44	583.462
119.365	170.662
124.288	66.7602
129.209	64.9727
134.127	37.583
139.043	79.4182
143.956	20.7822
148.867	103.357
153.775	37.2957
158.681	45.397
163.585	128.363
168.486	150.844
173.385	79.1943
178.282	128.477
183.176	170.709
188.067	216.895
192.956	301.572
197.843	367.857
202.727	182.225
207.609	73.096
212.489	91.5747
217.366	61.0852
222.24	15.6152
227.112	34.8591
231.982	27.7827
236.849	56.0203
241.714	78.394
246.577	397.288
251.437	496.377
256.294	298.588
261.149	232.823
266.002	194.132
270.852	199.388
275.7	332.598
280.545	550.86
285.388	221.17
290.229	71.5229
295.067	1.10156
299.902	9.24756
304.735	22.8394
309.566	22.0789
314.394	19.2983
319.22	176.532
324.043	574.793
328.864	1648.09
333.682	1115.42
338.498	428.784
343.311	999.055
348.122	234.313
352.931	19.387
357.737	76.2891
362.54	7.05176
367.341	3.81079
372.14	0.36792
376.936	29.9407
381.73	5.88037
386.521	146.39
391.31	575.749
396.096	1027.2
400.88	437.8
405.661	134.52
410.44	114.477
415.216	156.532
419.99	152.667
424.761	301.877
429.53	222.162
434.297	140.522
439.061	111.587
443.822	96.803
448.581	152.623
453.337	121.719
458.091	166.209
462.843	209.749
467.592	313.695
472.338	379.658
477.082	508.819
481.824	500.995
486.563	528.248
491.3	950.618
496.034	2161.19
500.765	1789.02
505.494	1413.64
510.221	850.755
514.945	634.554
519.666	634.496
524.385	1061.28
529.102	1228.28
533.816	723.917
538.527	470.433
543.236	583.526
547.943	1653.41
552.647	2340.46
557.348	915.145
562.047	552.338
566.744	476.559
571.438	602.786
576.129	957.025
580.818	1819.28
585.504	5524.6
590.188	27546
594.87	36767.3
599.549	7659.75
604.225	2858.16
608.899	1567.55
613.57	798.929
618.239	492.284
622.905	292.615
627.569	233.917
632.23	137.162
636.889	118.202
641.545	69.7234
646.198	15.5088
650.849	45.5515
655.498	69.9058
660.144	46.1025
664.787	48.8643
669.428	62.6057
674.067	78.3301
678.703	46.0115
683.336	53.0623
687.967	22.1094
692.595	19.3242
697.221	101.612
701.844	88.7778
706.465	62.2312
711.083	161.754
715.698	263.565
720.311	369.259
724.922	769.834
729.53	1202.29
734.135	1457.63
738.738	1220.85
743.338	872.958
747.936	519.95
752.531	269.829
757.124	148.597
761.714	102.256
766.302	20.1904
770.887	48.8787
775.469	24.8962
780.049	26.8774
784.626	21.395
789.201	19.0283
793.773	3.67603
798.343	28.4294
802.91	30.6081
807.475	91.2669
812.037	20.5132
816.596	24.7805
821.153	75.5725
825.707	181.01
830.259	318.097
834.808	588.667
839.355	794.433
843.899	873.204
848.441	810.004
852.98	781.832
857.516	926.694
862.05	1101.6
866.581	1710.55
871.11	2801.57
875.636	4732.64
880.159	5866.8
884.68	4300.03
889.199	2608.35
893.714	1655.77
898.228	1208.3
902.738	871.348
907.246	876.846
911.752	869.477
916.255	851.492
920.755	714.304
925.253	714.194
929.748	710.623
934.241	798.969
938.731	858.488
943.218	1020.91
947.703	1103.49
952.186	1222.49
956.665	1113.02
961.142	937.919
965.617	685.14
970.089	549.614
974.558	317.654
979.025	206.389
983.489	120.663
987.951	161.194
992.41	77.0273
996.866	149.172
1001.32	190.583
1005.77	62.2737
1010.22	51.6118
1014.67	71.8401
1019.11	113.329
1023.55	115.079
1027.99	137.024
1032.42	104.289
1036.86	192.819
1041.29	164.716
1045.72	65.9651
1050.14	101.508
1054.56	186.852
1058.98	179.412
1063.4	141.1
1067.82	165.901
1072.23	155.889
1076.64	137.758
1081.05	117.008
1085.45	125.934
1089.85	107.193
1094.25	148.633
1098.65	73.2502
1103.04	132.056
1107.43	153.853
1111.82	137.968
1116.21	429.24
1120.59	545.678
1124.97	475.079
1129.35	412.189
1133.73	120.047
1138.1	264.428
1142.47	123.759
1146.84	47.0979
1151.21	88.5969
1155.57	158.977
1159.93	53.4175
1164.29	11.9263
1168.64	9.57275
1172.99	3.20825
1177.34	23.0659
1181.69	16.8362
1186.04	9.35791
1190.38	46.4634
1194.72	59.3984
1199.05	55.5063
1203.39	6.6936
1207.72	45.8755
1212.05	92.9705
1216.37	50.0098
1220.7	21.866
1225.02	62.7124
1229.34	78.5347
1233.65	61.3064
1237.97	41.9658
1242.28	24.6018
1246.59	8.84009
1250.89	24.408
1255.19	17.6785
1259.49	35.717
1263.79	9.96631
1268.09	90.1125
1272.38	127.725
1276.67	103.453
1280.95	49.0994
1285.24	39.4868
1289.52	47.0378
1293.8	173.416
1298.08	4.70435
1302.35	81.7092
1306.62	51.6826
1310.89	43.6333
1315.15	95.6169
1319.42	72.5095
1323.68	14.2673
1327.94	189.939
1332.19	60.1245
1336.44	105.257
1340.69	126.14
1344.94	93.6728
1349.19	81.6064
1353.43	84.8721
1357.67	110.014
1361.9	87.1406
1366.14	48.041
1370.37	100.668
1374.6	6.03491
1378.83	85.8535
1383.05	2.29248
1387.27	89.3877
1391.49	109.387
1395.7	27.6755
1399.92	78.4578
1404.13	117.624
1408.34	4.38354
1412.54	41.3616
1416.74	66.1287
1420.94	37.9299
1425.14	113.172
1429.34	7.5647
1433.53	73.2437
1437.72	77.835
1441.9	139.75
1446.09	14.6177
1450.27	49.8342
1454.45	24.8491
1458.63	27.8586
1462.8	120.924
1466.97	52.8755
1471.14	58.7539
1475.31	127.268
1479.47	4.73047
1483.63	89.2278
1487.79	3.87598
1491.94	79.4294
1496.09	121.162
1500.24	15.4482
1504.39	66.4778
1508.54	60.1343
1512.68	87.2847
1516.82	69.1401
1520.95	63.4219
1525.09	92.2607
1529.22	145.152
1533.35	74.3325
1537.47	109.743
1541.6	112.313
1545.72	68.3843
1549.83	136.92
1553.95	111.123
1558.06	23.7461
1562.17	26.8081
1566.28	262.416
1570.38	0
