Measurement: Raman, 514 nm, ccw, Raman Data Processed
Mineral: Chloritoid
Rruff sample: R060292
Ideal chemistry: Fe^2+^Al_2_OSiO_4_(OH)_2_
Locality: Pech, Kunar Province, Afghanistan
Source: Herb Obodda
Description: Black tabular crystal
Measured chemistry: (Fe^2+^_1.55_Mg_0.43_Mn_0.02_)_Σ=2_(Al_3.93_Fe^3+^_0.07_)_Σ=4_Si_2.00_O_10_(OH)_4_
Pin_id: M00313
Orientation: Laser parallel to (1 0 1). Fiducial mark perpendicular to laser is parallel to b [0 1 0]
Raman shift (cm-1)	intensity
51.431	0
56.387	42.6143
61.341	110.609
66.292	85.2763
71.241	20.3115
76.187	128.144
81.131	597.216
86.072	525.261
91.012	925.882
95.948	967.83
100.883	1475.07
105.815	3833.82
110.744	4986.83
115.671	2929.74
120.596	1358.65
125.519	805.198
130.439	749.102
135.356	722.952
140.271	505.773
145.184	494.589
150.094	617.512
155.002	337.593
159.908	462.85
164.811	618.279
169.711	667.884
174.61	703.079
179.505	540.863
184.399	576.765
189.29	667.484
194.178	909.999
199.064	1242.88
203.948	879.505
208.829	964.491
213.708	1063.25
218.585	1101.21
223.459	1129.84
228.33	1380.9
233.199	1663.26
238.066	2811.78
242.93	5635.35
247.792	9368.9
252.651	6537.36
257.508	4137.69
262.363	2333.82
267.215	2201.73
272.064	3520.36
276.912	6529.69
281.756	7682.68
286.598	4207.95
291.438	2364.54
296.276	1560.62
301.111	1271.14
305.943	1249.09
310.773	1313.53
315.601	1298.46
320.426	1579.85
325.248	2531.63
330.068	3596.78
334.886	1897.28
339.701	1082.13
344.514	842.32
349.324	88.9544
354.132	121.998
358.938	56.023
363.741	139.389
368.541	110.574
373.339	167.508
378.135	639.013
382.928	1527.91
387.718	1234.19
392.506	845.816
397.292	525.912
402.075	76.7556
406.856	153.213
411.634	516.159
416.41	256.394
421.183	109.871
425.954	98.5669
430.722	1.56714
435.488	113.986
440.251	144.409
445.012	102.29
449.77	304.951
454.526	404.737
459.28	347.429
464.03	421.128
468.779	1039.71
473.525	1662.86
478.268	1848.07
483.009	1660.33
487.747	2009.63
492.483	3482.01
497.217	5701.14
501.948	5406.11
506.676	6575.95
511.402	7154.34
516.125	5235.44
520.846	7042.91
525.565	12016.8
530.281	12208.6
534.994	8033.78
539.705	8357.53
544.413	18049.3
549.119	39704.4
553.822	36667.5
558.523	10844.6
563.222	3692.02
567.917	1983.16
572.611	1463.51
577.302	1652.49
581.99	3909.62
586.676	16128.7
591.359	46732.5
596.04	31013.1
600.718	7517.48
605.394	3016.57
610.067	1733.41
614.737	997.976
619.406	541.275
624.071	353.299
628.734	232.045
633.395	182.523
638.053	44.937
642.708	0.366699
647.361	36.6492
652.012	13.9106
656.66	105.812
661.305	302.744
665.948	559.308
670.588	328.891
675.226	20.1262
679.861	72.4136
684.494	40.8123
689.124	40.1619
693.752	109.862
698.377	164.214
702.999	377.263
707.619	587.021
712.237	1032.53
716.852	1933.12
721.464	3506.06
726.074	5553.15
730.681	7444.03
735.286	7119.68
739.888	5799.1
744.488	3925.31
749.085	2365.31
753.68	1302.12
758.272	669.752
762.861	449.211
767.448	243.512
772.033	183.668
776.614	36.0864
781.194	13.0261
785.77	39.4849
790.345	67.2725
794.916	26.3845
799.485	39.3843
804.052	35.6257
808.616	151.609
813.177	196.523
817.736	349.824
822.292	602.255
826.846	1038.65
831.397	1697.36
835.945	2602.8
840.491	3324.69
845.035	3669.81
849.576	3984.17
854.114	4495.78
858.65	5522.65
863.183	7405.78
867.713	11151.4
872.241	17278.9
876.767	23294.9
881.29	21293.2
885.81	13646.9
890.328	8360.91
894.843	6190.3
899.356	6393.07
903.866	7604.24
908.373	6148.82
912.878	3691.86
917.38	2264.34
921.88	1323.17
926.377	603.222
930.872	307.629
935.364	208.231
939.853	61.373
944.34	13.6755
948.824	137.902
953.306	197.397
957.785	418.962
962.261	632.475
966.735	621.755
971.207	462.648
975.675	356.176
980.141	361.29
984.605	161.99
989.066	131.282
993.524	142.149
997.98	99.6018
1002.43	85.6631
1006.88	94.3142
1011.33	74.5366
1015.78	54.3303
1020.22	99.6924
1024.66	139.656
1029.1	136.478
1033.53	178.996
1037.97	217.83
1042.4	254.197
1046.82	314.076
1051.25	253.256
1055.67	256.62
1060.09	268.002
1064.51	440.488
1068.92	395.548
1073.33	549.17
1077.74	709.425
1082.15	1059.49
1086.55	1612.03
1090.95	1645.88
1095.35	1246.62
1099.75	745.221
1104.14	511.249
1108.53	331.418
1112.92	149.405
1117.31	262.887
1121.69	223.248
1126.07	186.157
1130.45	62.7861
1134.82	116.419
1139.19	118.565
1143.57	66.9851
1147.93	78.0125
1152.3	57.9688
1156.66	54.781
1161.02	56.2134
1165.38	84.3958
1169.73	47.8174
1174.08	14.9465
1178.43	11.585
1182.78	0.144043
1187.12	5.02515
1191.46	46.2041
1195.8	1.48511
1200.14	4.94067
1204.47	6.00439
1208.8	9.25098
1213.13	29.469
1217.46	16.1821
1221.78	27.2795
1226.1	12.5635
1230.42	21.9148
1234.73	38.678
1239.04	57.8738
1243.35	44.7156
1247.66	96.3787
1251.97	70.7422
1256.27	61.4963
1260.57	104.306
1264.86	105.215
1269.16	59.9253
1273.45	67.0144
1277.74	99.897
1282.03	14.6143
1286.31	13.9062
1290.59	11.929
1294.87	49.2649
1299.14	104.385
1303.42	65.5269
1307.69	121.556
1311.95	26.5383
1316.22	32.0002
1320.48	299.092
1324.74	66.8144
1329	79.9544
1333.26	82.3196
1337.51	67.9065
1341.76	44.749
1346	53.2092
1350.25	61.1655
1354.49	94.76
1358.73	129.698
1362.96	42.575
1367.2	51.4922
1371.43	6.01318
1375.66	116.911
1379.88	15.302
1384.11	49.0144
1388.33	26.2175
1392.54	22.4265
1396.76	66.7398
1400.97	13.0261
1405.18	95.7256
1409.39	98.1604
1413.59	72.8919
1417.8	55.9587
1421.99	58.5603
1426.19	18.1623
1430.38	64.1013
1434.58	107.392
1438.77	166.669
1442.95	88.8081
1447.13	147.717
1451.32	29.479
1455.49	139.227
1459.67	123.987
1463.84	104.91
1468.01	59.5425
1472.18	107.412
1476.35	95.1191
1480.51	112.289
1484.67	76.5666
1488.83	127.674
1492.98	105.943
1497.13	108.788
1501.28	93.5693
1505.43	76.1182
1509.57	59.9793
1513.71	71.6174
1517.85	102.656
1521.99	34.8125
1526.12	112.254
1530.25	38.0574
1534.38	53.2842
1538.5	52.9553
1542.62	74.4917
1546.74	108.566
1550.86	201.58
1554.98	36.9426
1559.09	105.805
1563.2	75.6287
1567.31	100.314
