Measurement: Raman, 514 nm, ccw, Raman Data Processed
Mineral: Chloritoid
Rruff sample: R060292
Ideal chemistry: Fe^2+^Al_2_OSiO_4_(OH)_2_
Locality: Pech, Kunar Province, Afghanistan
Source: Herb Obodda
Description: Black tabular crystal
Measured chemistry: (Fe^2+^_1.55_Mg_0.43_Mn_0.02_)_Σ=2_(Al_3.93_Fe^3+^_0.07_)_Σ=4_Si_2.00_O_10_(OH)_4_
Pin_id: M00356
Orientation: Laser parallel to b* (0 1 0). Fiducial mark perpendicular to laser is parallel to -c [0 0 -1]
Raman shift (cm-1)	intensity
89.777	0
94.714	176.761
99.649	14.7842
104.582	3128.43
109.512	1129.46
114.44	1675.19
119.365	701.935
124.288	137.921
129.209	228.318
134.127	324.782
139.043	141.443
143.956	162.707
148.867	534.756
153.775	32.1826
158.681	110.386
163.585	623.872
168.486	593.097
173.385	631.721
178.282	435.644
183.176	581.25
188.067	877.152
192.956	1131.67
197.843	1273.85
202.727	622.594
207.609	7.95898
212.489	119.248
217.366	59.7275
222.24	53.123
227.112	109.5
231.982	46.294
236.849	49.541
241.714	56.6475
246.577	77.0019
251.437	89.8769
256.294	618.235
261.149	293.138
266.002	290.471
270.852	617.261
275.7	551.699
280.545	678.439
285.388	663.26
290.229	207.851
295.067	147.834
299.902	85.8623
304.735	117.439
309.566	40.0039
314.394	421.762
319.22	891.912
324.043	1645.25
328.864	1315.76
333.682	1406.46
338.498	1051.33
343.311	452.281
348.122	253.447
352.931	25.1641
357.737	48.2285
362.54	42.8613
367.341	0.014648
372.14	99.1816
376.936	130.885
381.73	210.055
386.521	328.652
391.31	562.62
396.096	444.567
400.88	633.389
405.661	597.837
410.44	471.798
415.216	556.208
419.99	493.099
424.761	448.627
429.53	407.644
434.297	289.04
439.061	453.461
443.822	319.804
448.581	485.621
453.337	677.932
458.091	634.731
462.843	859.024
467.592	1088.82
472.338	1304.1
477.082	1659.89
481.824	1966.17
486.563	2897.98
491.3	4715.39
496.034	4793.4
500.765	5195.1
505.494	3722.62
510.221	2417.25
514.945	1828.46
519.666	1518.16
524.385	1692.43
529.102	1729.65
533.816	1798.73
538.527	2120.03
543.236	3609.98
547.943	4168.82
552.647	4290.67
557.348	3551.25
562.047	2052.28
566.744	4473.78
571.438	2150.12
576.129	2747.08
580.818	7459.34
585.504	32071
590.188	30577.9
594.87	35150
599.549	19419.4
604.225	4639.07
608.899	2183.93
613.57	1182
618.239	834.267
622.905	623.715
627.569	907.153
632.23	311.408
636.889	300.975
641.545	62.1484
646.198	45.9004
650.849	84.6416
655.498	108.741
660.144	109.688
664.787	93.7266
669.428	253.68
674.067	12.6201
678.703	32.3506
683.336	162.055
687.967	52.2383
692.595	19.1816
697.221	33.5713
701.844	134.481
706.465	16.1387
711.083	177.897
715.698	405.801
720.311	650.573
724.922	1166.21
729.53	1638.71
734.135	2010.07
738.738	1901.3
743.338	1540.37
747.936	880.307
752.531	509.099
757.124	300.749
761.714	0.254883
766.302	27.5225
770.887	6.44141
775.469	40.1113
780.049	47.6338
784.626	78.6191
789.201	8.14941
793.773	56.2773
798.343	8.1084
802.91	46.6514
807.475	113.701
812.037	94.5918
816.596	79.415
821.153	68.6621
825.707	60.5586
830.259	516.356
834.808	603.07
839.355	446.695
843.899	656.145
848.441	809.882
852.98	1349.85
857.516	1699.96
862.05	2268.22
866.581	4028.64
871.11	6557.23
875.636	8964
880.159	9027.98
884.68	7278.18
889.199	4541.6
893.714	2637.26
898.228	1885.44
902.738	1579.12
907.246	1264.28
911.752	1199.62
916.255	1013.7
920.755	1135.59
925.253	1146.2
929.748	980.127
934.241	1095.43
938.731	1298.8
943.218	1422.82
947.703	1406.94
952.186	1741.86
956.665	1651.01
961.142	1275.59
965.617	1020.34
970.089	851.26
974.558	697.115
979.025	302.129
983.489	439.272
987.951	188.582
992.41	213.188
996.866	10.3984
1001.32	240.158
1005.77	271.51
1010.22	44.4492
1014.67	173.957
1019.11	74.0156
1023.55	74.6641
1027.99	238.951
1032.42	333.641
1036.86	39.1133
1041.29	171.242
1045.72	258.92
1050.14	264.115
1054.56	262.014
1058.98	211.438
1063.4	317.279
1067.82	279.258
1072.23	261.459
1076.64	272.816
1081.05	334.357
1085.45	330.432
1089.85	353.478
1094.25	294.348
1098.65	315.713
1103.04	224.789
1107.43	165.785
1111.82	308.291
1116.21	467.426
1120.59	184.621
1124.97	102.963
1129.35	188.26
1133.73	35.6152
1138.1	107.246
1142.47	253.801
1146.84	214.289
1151.21	285.416
1155.57	179.451
1159.93	156.781
1164.29	344.242
1168.64	84.1562
1172.99	62.5469
1177.34	29.0518
1181.69	78.6397
1186.04	84.5478
1190.38	77.9766
1194.72	3.64844
1199.05	12.9873
1203.39	72.0488
1207.72	61.9775
1212.05	53.544
1216.37	121.054
1220.7	7.48828
1225.02	214.853
1229.34	215.073
1233.65	158.18
1237.97	193.037
1242.28	98.7197
1246.59	136.174
1250.89	79.4365
1255.19	25.5186
1259.49	49.2588
1263.79	201.774
1268.09	132.034
1272.38	94.1924
1276.67	50.9609
1280.95	183.477
1285.24	86.5606
1289.52	32.6787
1293.8	450.538
1298.08	200.577
1302.35	188.508
1306.62	330.455
1310.89	275.153
1315.15	154.695
1319.42	134.072
1323.68	49.1738
1327.94	322.732
1332.19	78.3115
1336.44	196.493
1340.69	205.423
1344.94	226.19
1349.19	355.029
1353.43	213.731
1357.67	198.947
1361.9	145.634
1366.14	77.667
1370.37	363.563
1374.6	90.8154
1378.83	265.129
1383.05	175.689
1387.27	271.712
1391.49	250.368
1395.7	195.658
1399.92	177.507
1404.13	124.337
1408.34	279.815
1412.54	212.61
1416.74	119.018
1420.94	231.56
1425.14	69.2578
1429.34	274.305
1433.53	154.983
1437.72	252.63
1441.9	187.926
1446.09	211.547
1450.27	2.03125
1454.45	36.5547
1458.63	124.367
1462.8	179.926
1466.97	279.297
1471.14	372.565
1475.31	157.745
1479.47	81.1055
1483.63	185.486
1487.79	62.7002
1491.94	116.181
1496.09	104.502
1500.24	155.131
1504.39	234.974
1508.54	196.952
1512.68	80.2022
1516.82	252.847
1520.95	31.8418
1525.09	117.574
1529.22	135.894
1533.35	166.484
1537.47	103.777
1541.6	172.882
1545.72	130.995
1549.83	856.997
1553.95	293.705
1558.06	84.9551
1562.17	18.0723
1566.28	322.199
1570.38	0
