Measurement: Raman, 514 nm, ccw, Raman Data Processed
Mineral: Chloritoid
Rruff sample: R050334
Ideal chemistry: Fe^2+^Al_2_OSiO_4_(OH)_2_
Locality: Selçuk, Mugla Province, Turkey
Source: George Rossman
Description: Dark greenish-black foliated cleavage fragments
Measured chemistry: (Fe^2+^_1.84_Mg_0.12_Mn_0.04_)_Σ=2_(Al_3.95_Fe^3+^_0.05_)_Σ=4_Si_2.00_O_10_(OH)_4_ ; H not measured but estimated by difference and stoichiometry
Pin_id: M00341
Orientation: Laser parallel to b* (0 1 0). Fiducial mark perpendicular to laser is parallel to -c [0 0 -1]
Raman shift (cm-1)	intensity
89.777	0
94.714	13.6411
99.649	48.2998
104.582	4800.8
109.512	2190.56
114.44	3259.55
119.365	1384.26
124.288	38.1602
129.209	624.453
134.127	317.25
139.043	355.847
143.956	292.459
148.867	220.368
153.775	92.7153
158.681	79.6875
163.585	757.501
168.486	750.32
173.385	560.616
178.282	617.31
183.176	861.248
188.067	1054.08
192.956	1725.79
197.843	2291.84
202.727	941.46
207.609	577.701
212.489	656.506
217.366	298.039
222.24	186.52
227.112	16.0371
231.982	268.452
236.849	73.564
241.714	403.359
246.577	1275.42
251.437	2178.2
256.294	2132.79
261.149	1747.72
266.002	995.601
270.852	1394.79
275.7	2453.62
280.545	3688.39
285.388	2758.24
290.229	1312.72
295.067	765.591
299.902	986.715
304.735	809.401
309.566	374.77
314.394	10.6533
319.22	137.172
324.043	164.283
328.864	491.623
333.682	848.02
338.498	519.478
343.311	51.999
348.122	91.5537
352.931	29.3154
357.737	163.808
362.54	625.523
367.341	789.234
372.14	537.539
376.936	539.313
381.73	692.215
386.521	1181.74
391.31	1449.19
396.096	371.666
400.88	314.922
405.661	658.908
410.44	1057.73
415.216	1309.23
419.99	740.471
424.761	416.446
429.53	216.251
434.297	236.21
439.061	141.314
443.822	239.511
448.581	549.835
453.337	844.292
458.091	787.269
462.843	697.769
467.592	945.99
472.338	1378.79
477.082	1611.85
481.824	1632.03
486.563	1991.39
491.3	3354.51
496.034	5123.55
500.765	6221.24
505.494	4967.03
510.221	4689.94
514.945	3344.93
519.666	1976.53
524.385	1745.29
529.102	2220.01
533.816	1956.49
538.527	1797.97
543.236	3594.88
547.943	5686.06
552.647	7596
557.348	3918.07
562.047	1481.19
566.744	911.639
571.438	929.808
576.129	1444.42
580.818	3373.68
585.504	13394.6
590.188	27248.1
594.87	48313.3
599.549	16754.1
604.225	5385.77
608.899	1948.57
613.57	1222.03
618.239	711.047
622.905	542.614
627.569	323.728
632.23	203.396
636.889	196.822
641.545	139.747
646.198	123.272
650.849	145.774
655.498	96.7158
660.144	172.95
664.787	181.201
669.428	234.59
674.067	38.9697
678.703	200.841
683.336	73.8057
687.967	132.846
692.595	86.0127
697.221	91.0723
701.844	19.2407
706.465	139.596
711.083	268.115
715.698	671.498
720.311	1055.53
724.922	1828.02
729.53	2435.99
734.135	2891.44
738.738	2721.39
743.338	1955.92
747.936	1242.81
752.531	725.303
757.124	539.337
761.714	336.953
766.302	174.143
770.887	77.9243
775.469	6.65918
780.049	22.873
784.626	107.831
789.201	65.3857
793.773	138.62
798.343	309.336
802.91	218.136
807.475	325.533
812.037	485.606
816.596	485.885
821.153	840.156
825.707	1360.37
830.259	2331.4
834.808	3435.95
839.355	4260.21
843.899	4178.62
848.441	3346.74
852.98	2669.59
857.516	2362.71
862.05	2669.14
866.581	3725.31
871.11	5397
875.636	8170.48
880.159	9187.41
884.68	7408.7
889.199	4891.56
893.714	3919.11
898.228	4096.26
902.738	4473.11
907.246	4309
911.752	3211.11
916.255	1989.37
920.755	1240.3
925.253	890.883
929.748	886.193
934.241	854.325
938.731	853.19
943.218	1066.34
947.703	1120.51
952.186	1271.31
956.665	1319.68
961.142	1179.74
965.617	941.329
970.089	790.393
974.558	586.813
979.025	392.276
983.489	215.576
987.951	63.6465
992.41	228.457
996.866	129.051
1001.32	228.464
1005.77	117.643
1010.22	171.538
1014.67	128.173
1019.11	91.9531
1023.55	58.1211
1027.99	57.5469
1032.42	38.832
1036.86	9.52539
1041.29	188.736
1045.72	44.0654
1050.14	171.728
1054.56	186.153
1058.98	265.757
1063.4	519.749
1067.82	287.784
1072.23	292.883
1076.64	550.04
1081.05	502.245
1085.45	542.255
1089.85	631.206
1094.25	634.211
1098.65	505.786
1103.04	377.215
1107.43	183.966
1111.82	216.088
1116.21	277.664
1120.59	260.996
1124.97	275.536
1129.35	121.238
1133.73	161.8
1138.1	82.042
1142.47	131.08
1146.84	75.4004
1151.21	224.282
1155.57	34.1709
1159.93	4.76074
1164.29	27.2441
1168.64	57.0693
1172.99	106.929
1177.34	43.8223
1181.69	118.965
1186.04	1
1190.38	42.6768
1194.72	57.7324
1199.05	10.2012
1203.39	31.5059
1207.72	73.3174
1212.05	130.243
1216.37	46.3213
1220.7	137.724
1225.02	50.8369
1229.34	54.5312
1233.65	99.2207
1237.97	102.294
1242.28	94.8994
1246.59	127.035
1250.89	88.8887
1255.19	53.624
1259.49	13.0146
1263.79	193.542
1268.09	201.672
1272.38	105.447
1276.67	83.7627
1280.95	98.2197
1285.24	213.151
1289.52	151.069
1293.8	109.861
1298.08	219.556
1302.35	215.24
1306.62	134.541
1310.89	187.301
1315.15	254.116
1319.42	103.178
1323.68	211.524
1327.94	287.413
1332.19	399.019
1336.44	280.664
1340.69	234.815
1344.94	264.348
1349.19	221.656
1353.43	160.171
1357.67	229.145
1361.9	323.768
1366.14	174.718
1370.37	171.397
1374.6	177.634
1378.83	166.951
1383.05	131.077
1387.27	163.489
1391.49	138.617
1395.7	151.143
1399.92	280.406
1404.13	196.885
1408.34	222.614
1412.54	132.185
1416.74	281.53
1420.94	84.6309
1425.14	159.572
1429.34	138.724
1433.53	272.69
1437.72	181.475
1441.9	177.049
1446.09	136.077
1450.27	188.759
1454.45	246.843
1458.63	155.088
1462.8	219.265
1466.97	104.839
1471.14	198.398
1475.31	155.988
1479.47	105.711
1483.63	62.3125
1487.79	41.9932
1491.94	104.159
1496.09	51.5605
1500.24	105.017
1504.39	54.5664
1508.54	187.137
1512.68	138.106
1516.82	82.3535
1520.95	55.7559
1525.09	150.636
1529.22	50.7607
1533.35	103.737
1537.47	149.386
1541.6	56.8125
1545.72	151.642
1549.83	155.667
1553.95	69.5039
1558.06	132.852
1562.17	64.582
1566.28	232.754
1570.38	0
