Measurement: Raman, 514 nm, ccw, Raman Data Processed
Mineral: Chloritoid
Rruff sample: R060292
Ideal chemistry: Fe^2+^Al_2_OSiO_4_(OH)_2_
Locality: Pech, Kunar Province, Afghanistan
Source: Herb Obodda
Description: Black tabular crystal
Measured chemistry: (Fe^2+^_1.55_Mg_0.43_Mn_0.02_)_Σ=2_(Al_3.93_Fe^3+^_0.07_)_Σ=4_Si_2.00_O_10_(OH)_4_
Pin_id: M00413
Orientation: Laser parallel to c* (0 0 1). Fiducial mark perpendicular to laser is parallel to a [1 0 0]
Raman shift (cm-1)	intensity
89.777	0
94.714	2.7168
99.649	115.422
104.582	1316.21
109.512	980.287
114.44	946.82
119.365	277.231
124.288	103.519
129.209	216.575
134.127	82.062
139.043	35.2676
143.956	44.6572
148.867	429.077
153.775	147.033
158.681	84.0068
163.585	219.745
168.486	355.339
173.385	306.147
178.282	275.89
183.176	327.981
188.067	395.42
192.956	557.955
197.843	749.151
202.727	376.768
207.609	236.142
212.489	254.399
217.366	141.057
222.24	14.6621
227.112	12.9585
231.982	56.1826
236.849	3.59766
241.714	278.546
246.577	656.333
251.437	719.36
256.294	1339.51
261.149	821.804
266.002	636.727
270.852	618.977
275.7	1395.57
280.545	2466.49
285.388	1309.94
290.229	690.707
295.067	650.331
299.902	705.201
304.735	604.295
309.566	361.824
314.394	89.5845
319.22	23.0395
324.043	248.319
328.864	979
333.682	678.997
338.498	259.312
343.311	472.938
348.122	41.8696
352.931	8.97949
357.737	221.442
362.54	741.178
367.341	504.222
372.14	103.016
376.936	19.5635
381.73	170.585
386.521	396.24
391.31	177.426
396.096	411.974
400.88	262.954
405.661	319.265
410.44	911.962
415.216	983.112
419.99	327.869
424.761	254.125
429.53	143.745
434.297	45.2856
439.061	21.8838
443.822	27.8599
448.581	98.5732
453.337	239.23
458.091	45.103
462.843	189.457
467.592	378.728
472.338	683.195
477.082	631.845
481.824	558.671
486.563	754.668
491.3	934.836
496.034	2054.86
500.765	1555.38
505.494	1212.13
510.221	921.377
514.945	678.556
519.666	710.133
524.385	1190
529.102	1265.54
533.816	855.431
538.527	682.768
543.236	739.569
547.943	1625.5
552.647	2269.32
557.348	987.175
562.047	611.435
566.744	756.07
571.438	831.394
576.129	1099.23
580.818	1909.88
585.504	5813.39
590.188	28772
594.87	39303.4
599.549	8440.72
604.225	2926.59
608.899	1421.61
613.57	862.472
618.239	485.152
622.905	355.578
627.569	271.076
632.23	132.497
636.889	149.587
641.545	44.2349
646.198	55.7188
650.849	31.0977
655.498	49.5112
660.144	6.09033
664.787	115.472
669.428	37.4853
674.067	63.0073
678.703	1.88281
683.336	1114.69
687.967	14.0337
692.595	62.7368
697.221	100.094
701.844	11.1665
706.465	37.7432
711.083	162.029
715.698	285.009
720.311	543.02
724.922	865.806
729.53	1400.4
734.135	1727.81
738.738	1481.03
743.338	1022.1
747.936	736.012
752.531	285.765
757.124	229.384
761.714	158.872
766.302	99.2119
770.887	62.3735
775.469	29.3765
780.049	76.96
784.626	33.6382
789.201	100.046
793.773	11.1787
798.343	177.263
802.91	133.855
807.475	278.711
812.037	314.713
816.596	341.479
821.153	624.142
825.707	1077.3
830.259	1790.02
834.808	2895.07
839.355	3945.42
843.899	3845.91
848.441	3001.86
852.98	2199.99
857.516	1787.81
862.05	1682.3
866.581	2151.98
871.11	3318.88
875.636	5387.59
880.159	6395.75
884.68	4908.08
889.199	3137.89
893.714	1832.66
898.228	1324.13
902.738	1063.78
907.246	1026.26
911.752	984.512
916.255	827.407
920.755	817.332
925.253	730.644
929.748	602.119
934.241	732.43
938.731	833.268
943.218	964.076
947.703	1074.99
952.186	1292.45
956.665	1281.4
961.142	1038.84
965.617	926.821
970.089	838.241
974.558	450.85
979.025	210.895
983.489	82.3311
987.951	107.127
992.41	58.2725
996.866	2.77393
1001.32	152.636
1005.77	15.8584
1010.22	103.414
1014.67	48.27
1019.11	28.4512
1023.55	16.0381
1027.99	7.04736
1032.42	57.5933
1036.86	23.0713
1041.29	70.5254
1045.72	114.653
1050.14	185.657
1054.56	75.1128
1058.98	45.312
1063.4	113.799
1067.82	183.568
1072.23	18.4175
1076.64	52.0474
1081.05	222.675
1085.45	191.413
1089.85	209.88
1094.25	227.082
1098.65	305.66
1103.04	221.617
1107.43	226.689
1111.82	103.633
1116.21	157.596
1120.59	176.806
1124.97	150.457
1129.35	142.375
1133.73	161.069
1138.1	90.5869
1142.47	77.5176
1146.84	48.2978
1151.21	210.122
1155.57	78.4922
1159.93	104.71
1164.29	155.549
1168.64	4.68457
1172.99	12.897
1177.34	94.1904
1181.69	57.6206
1186.04	148.538
1190.38	59.1226
1194.72	91.0449
1199.05	4.77539
1203.39	35.3994
1207.72	40.3872
1212.05	95.5767
1216.37	52.3804
1220.7	13.8379
1225.02	37.6089
1229.34	36.9995
1233.65	26.1631
1237.97	13.9624
1242.28	80.5332
1246.59	56.1387
1250.89	69.5547
1255.19	21.8814
1259.49	122.088
1263.79	92.1851
1268.09	157.147
1272.38	122.003
1276.67	24.7622
1280.95	164.638
1285.24	95.9717
1289.52	112.169
1293.8	62.8511
1298.08	63.2412
1302.35	165.568
1306.62	93.4209
1310.89	93.2373
1315.15	164.547
1319.42	188.446
1323.68	112.494
1327.94	193.475
1332.19	90.6421
1336.44	114.787
1340.69	173.684
1344.94	55.1948
1349.19	199.161
1353.43	56.4824
1357.67	131.155
1361.9	100.561
1366.14	61.3916
1370.37	141.055
1374.6	83.3086
1378.83	118.919
1383.05	146.073
1387.27	100.356
1391.49	110.881
1395.7	182.247
1399.92	159.656
1404.13	46.0005
1408.34	154.056
1412.54	143.89
1416.74	208.573
1420.94	3.5293
1425.14	6.94531
1429.34	106.297
1433.53	196.243
1437.72	163.384
1441.9	123.93
1446.09	27.5273
1450.27	46.6274
1454.45	43.1748
1458.63	80.1372
1462.8	138.014
1466.97	104.963
1471.14	156.331
1475.31	54.4858
1479.47	3.32959
1483.63	71.8115
1487.79	113.103
1491.94	90.9448
1496.09	65.1528
1500.24	122.899
1504.39	157.031
1508.54	57.646
1512.68	68.7114
1516.82	141.037
1520.95	37.7685
1525.09	69.1406
1529.22	101.003
1533.35	121.791
1537.47	48.8457
1541.6	0.113281
1545.72	156.657
1549.83	225.429
1553.95	186.796
1558.06	38.1538
1562.17	139.602
1566.28	12.8955
1570.38	0
