Measurement: Raman, 514 nm, ccw, Raman Data Processed
Mineral: Chlormayenite
Rruff sample: R130063
Ideal chemistry: Ca_12_Al_14_O_32_[[box]_4_Cl_2_]
Locality: Northwest Africa (NWA) 1934 meteorite
Source: Chi Ma
Description: Fine-grained aggregates coexisting with hercynite, gehlenite, and perovskite. Data from Ma et al (2011)
Measured chemistry: (Ca_11.91_Na_0.06_)_Σ=11.97_(Al_13.89_Fe^2+^_ 0.16_Ti^4+^_0.01_)_Σ=14.06_O_31.89_Cl_2.11_
Raman shift (cm-1)	intensity
150.536	0
156.684	225.652
162.828	254.975
168.967	580.236
175.102	561.394
181.231	635.654
187.356	633.828
193.477	745.674
199.592	545.924
205.703	625.908
211.81	614.51
217.912	412.174
224.009	454.445
230.101	324.394
236.189	43.7695
242.272	44.9395
248.35	347.594
254.424	309.785
260.494	547.144
266.558	297.916
272.618	205.707
278.674	540.82
284.724	329.578
290.771	494.103
296.812	549.064
302.849	368.713
308.882	592.375
314.91	485.199
320.933	289.353
326.952	604.551
332.966	728.191
338.975	623.1
344.98	407.856
350.981	690.828
356.977	322.166
362.968	199.43
368.955	281.693
374.937	312.309
380.915	428.898
386.888	200.272
392.857	294.076
398.821	220.129
404.781	303.285
410.736	208.998
416.687	407.328
422.633	287.478
428.575	64.7266
434.512	319.65
440.445	338.984
446.373	94.1055
452.297	114.172
458.216	126.004
464.131	306.887
470.041	128.391
475.947	151.367
481.848	168.156
487.745	312.148
493.638	576.269
499.526	1292.16
505.409	2292.23
511.289	4424.19
517.163	4988.41
523.034	2873.95
528.9	1493.68
534.761	538.211
540.618	574.863
546.471	146.758
552.319	444.598
558.163	112.441
564.003	218.66
569.838	445.281
575.669	233.961
581.495	261.969
587.317	569.367
593.134	494.449
598.948	345.852
604.756	632.668
610.561	359.84
616.361	199.66
622.157	165.504
627.948	309.75
633.735	231.102
639.518	307.816
645.296	66.1133
651.071	174.285
656.84	399.137
662.606	494.113
668.367	2.89453
674.124	158.164
679.876	363.742
685.624	441.246
691.368	34.3867
697.108	124.613
702.843	114.621
708.574	260.617
714.301	228.383
720.023	84.1367
725.741	71.5703
731.455	215.09
737.165	37.0234
742.87	272.684
748.571	324.262
754.268	702.082
759.961	757.481
765.649	1687
771.333	1961.32
777.013	1737.41
782.688	1179.83
788.36	1264.92
794.027	511.644
799.69	603.164
805.349	938.43
811.003	637.062
816.653	602.656
822.299	1250.6
827.941	1049.01
833.579	1046.23
839.212	941.719
844.842	639.156
850.467	950.086
856.088	725.059
861.704	1156.17
867.317	830.094
872.925	661.836
878.53	934.371
884.13	735.445
889.725	807.766
895.317	607.492
900.905	355.141
906.488	335.926
912.067	132.148
917.643	276.356
923.214	231.449
928.781	419.023
934.343	557.406
939.902	330.688
945.456	84.1875
951.007	400.066
956.553	408.375
962.095	641.375
967.633	635.102
973.167	313.867
978.697	150.637
984.223	585.723
989.745	59.8906
995.262	481.477
1000.78	531.941
1006.29	481.519
1011.79	99.7188
1017.29	773.012
1022.79	629.844
1028.28	309.043
1033.77	291.285
1039.26	709.391
1044.74	258.648
1050.21	400.898
1055.69	192.797
1061.16	705.047
1066.62	440.637
1072.08	976.203
1077.54	548.731
1082.99	615.828
1088.44	650.301
1093.88	570.055
1099.33	197.894
1104.76	3.67578
1110.2	608.945
1115.62	429.43
1121.05	213.859
1126.47	84.6328
1131.89	332.172
1137.3	149.578
1142.71	36.5
1148.11	62.2539
1153.51	457.789
1158.91	221.769
1164.3	235.609
1169.69	86.5938
1175.08	62.1719
1180.46	452.004
1185.83	26.8633
1191.21	179.316
1196.58	2.69922
1201.94	317.316
1207.3	150.578
1212.66	161.91
1218.01	239.988
1223.36	734.152
1228.71	1070.23
1234.05	1240.97
1239.39	1555.98
1244.72	2278.42
1250.05	2993.9
1255.38	3390.73
1260.7	4577.67
1266.02	5179.2
1271.33	6445.6
1276.64	8263.78
1281.95	9743.44
1287.25	11817.5
1292.55	14077.4
1297.85	17308.8
1303.14	20162.5
1308.42	24460.5
1313.71	29002.2
1318.99	33548.8
1324.26	40836.6
1329.53	47190.4
1334.8	55815.5
1340.07	62019.2
1345.33	66725.1
1350.58	66369.5
1355.83	62133.6
1361.08	55971.5
1366.33	48482.7
1371.57	41111.2
1376.81	34273.6
1382.04	28294.5
1387.27	22557.3
1392.5	18039.3
1397.72	14293.4
1402.94	11680
1408.15	9324.4
1413.36	6612.06
1418.57	4512.25
1423.77	3937.27
1428.97	2043.11
1434.16	1291.73
1439.36	332.367
1444.54	277.93
1449.73	252.703
1454.91	566.125
1460.08	145.266
1465.26	31.3047
1470.43	43.6484
1475.59	303.547
1480.75	324.766
1485.91	531.18
1491.06	556.32
1496.21	1066.74
1501.36	1380.19
1506.5	1943.19
1511.64	3060.47
1516.78	3770.67
1521.91	4998.38
1527.04	6690.63
1532.16	6526.98
1537.28	7546.03
1542.4	9231.88
1547.51	10497.2
1552.62	13347.3
1557.73	15216.9
1562.83	18876.5
1567.93	22602
1573.02	27027.2
1578.11	32531.1
1583.2	37282.4
1588.28	41764.7
1593.36	45569.6
1598.44	46248
1603.51	46678.9
1608.58	45659.1
1613.64	43322.1
1618.71	39323.7
1623.76	33195.9
1628.82	24916.6
1633.87	17598
1638.92	11391.7
1643.96	7250.48
1649	4434.39
1654.03	2654.07
1659.07	1579.94
1664.09	987.074
1669.12	544.703
1674.14	262.231
1679.16	445.188
1684.17	83.5625
1689.18	147.992
1694.19	340.137
1699.19	141.606
1704.19	153.055
1709.19	332.531
1714.18	70.8789
1719.17	506.148
1724.16	225.688
1729.14	153.477
1734.12	609.859
1739.09	643.852
1744.06	496.023
1749.03	1014.09
1753.99	1077.79
1758.95	1210.54
1763.91	1100.57
1768.86	1535.93
1773.81	1363.73
1778.76	1967.75
1783.7	1442.24
1788.64	1476.11
1793.57	1920.31
1798.51	1385.11
1803.43	1813.28
1808.36	1815.76
1813.28	1879.93
1818.2	1535.34
1823.11	1520.44
1828.02	1037.44
1832.93	1524.99
1837.83	1306.26
1842.73	1072.38
1847.63	1079.22
1852.52	1489.83
1857.41	1623.03
1862.3	707.445
1867.18	1293.82
1872.06	1182.3
1876.94	1445.37
1881.81	1330.24
1886.68	1198.28
1891.54	743.016
1896.4	1115.93
1901.26	915.562
1906.12	492.027
1910.97	1072.88
1915.81	827.91
1920.66	572.801
1925.5	728.562
1930.34	794.106
1935.17	482.039
1940	554.543
1944.83	959.715
1949.65	684.453
1954.47	38.3672
1959.29	544.953
1964.1	143.227
1968.91	353.062
1973.72	224.352
1978.52	117.172
1983.32	54.1641
1988.11	88.7578
1992.91	1037.27
1997.7	142.664
