Measurement: Raman, 514 nm, ccw, Raman Data Processed
Mineral: Chloritoid
Rruff sample: R050334
Ideal chemistry: Fe^2+^Al_2_OSiO_4_(OH)_2_
Locality: Selçuk, Mugla Province, Turkey
Source: George Rossman
Description: Dark greenish-black foliated cleavage fragments
Measured chemistry: (Fe^2+^_1.84_Mg_0.12_Mn_0.04_)_Σ=2_(Al_3.95_Fe^3+^_0.05_)_Σ=4_Si_2.00_O_10_(OH)_4_ ; H not measured but estimated by difference and stoichiometry
Pin_id: M01684
Orientation: Laser parallel to c* (0 0 1). Fiducial mark perpendicular to laser is parallel to a [1 0 0]
Raman shift (cm-1)	intensity
152.408	0
157.328	21.4224
162.246	78.6221
167.16	125.031
172.073	99.4204
176.982	177.023
181.888	87.7686
186.792	133.486
191.694	330.104
196.592	467.233
201.488	547.597
206.381	272.814
211.271	271.94
216.159	303.609
221.044	307.188
225.926	89.1021
230.806	12.6318
235.683	87.6362
240.557	77.5303
245.429	259.521
250.298	536.787
255.164	334.663
260.027	609.57
264.888	214.628
269.746	236.684
274.601	372.856
279.454	947.195
284.304	777.715
289.151	182.462
293.996	38.4614
298.838	19.5347
303.677	60.6431
308.514	25.8159
313.348	100.52
318.179	60.1616
323.008	211.986
327.834	556.106
332.657	1292.22
337.478	715.333
342.295	570.101
347.111	727.773
351.923	88.4258
356.733	49.4644
361.54	16.4634
366.345	85.0396
371.147	128.971
375.946	105.904
380.743	96.4995
385.537	318.116
390.328	491.002
395.116	1285.17
399.902	1317.53
404.686	751.882
409.466	463.584
414.244	483.77
419.019	553.408
423.792	561.271
428.562	595.46
433.329	543.845
438.094	452.38
442.856	504.367
447.616	437.724
452.372	582.364
457.126	513.985
461.878	615.724
466.627	701.909
471.373	694.528
476.116	847.125
480.857	894.85
485.596	915.701
490.331	1535.71
495.064	2685.99
499.795	3250.12
504.522	2544.93
509.247	2013.86
513.97	1307.13
518.69	1322.38
523.407	1443.93
528.121	2048.75
532.833	1741.87
537.543	1010.58
542.249	950.818
546.953	1256.43
551.655	2855.86
556.354	1585.95
561.05	819.386
565.743	522.891
570.434	555.473
575.123	706.093
579.808	1326.69
584.491	3095.3
589.172	12179.9
593.85	48236.5
598.525	15713.2
603.197	4308.27
607.868	2129.43
612.535	1122.51
617.2	642.514
621.862	408.437
626.522	334.268
631.178	264.863
635.833	117.461
640.485	123.793
645.134	161.445
649.78	85.981
654.424	45.8667
659.066	4.4917
663.704	23.1675
668.341	43.4644
672.974	8.10352
677.605	60.2398
682.234	46.5703
686.859	27.686
691.483	18.377
696.103	15.9351
700.721	135.891
705.337	37.5947
709.949	185.422
714.56	241.21
719.167	417.771
723.772	791.105
728.375	1175.21
732.975	1578.09
737.572	1598.75
742.167	1334.17
746.759	786.371
751.349	460.109
755.936	218.09
760.52	73.6187
765.102	178.932
769.681	19.0845
774.258	36.4258
778.832	45.5645
783.404	18.2598
787.973	39.3745
792.539	80.4712
797.103	39.0752
801.665	103.519
806.223	91.6987
810.779	2.58301
815.333	52.1655
819.884	42.8984
824.433	136.787
828.979	393.564
833.522	443.272
838.063	566.093
842.601	871.323
847.137	711.388
851.67	826.48
856.2	856.608
860.729	903.788
865.254	1351.03
869.777	2029.36
874.297	3630.83
878.815	5500.4
883.33	5043.09
887.843	3365.9
892.353	2281.86
896.861	1588.99
901.366	1370.28
905.869	1148.68
910.369	1038.52
914.866	1178.57
919.361	1041.54
923.854	982.711
928.344	977.723
932.831	956.488
937.316	1090.99
941.798	1319.71
946.278	1314.32
950.755	1498.57
955.23	1235.74
959.702	968.569
964.171	741.779
968.638	678.691
973.103	363.084
977.565	298.937
982.025	249.26
986.482	201.933
990.936	160.965
995.388	295.439
999.837	292.569
1004.28	334.673
1008.73	248.674
1013.17	278.795
1017.61	322.32
1022.05	170.284
1026.48	189.329
1030.91	211.935
1035.34	316.202
1039.77	232.656
1044.19	246.567
1048.62	226.914
1053.03	191.719
1057.45	152.268
1061.87	180.821
1066.28	261.312
1070.69	113.394
1075.09	213.675
1079.5	115.19
1083.9	159.923
1088.3	191.576
1092.69	47.3105
1097.09	82.0576
1101.48	99.5527
1105.87	145.075
1110.26	245.603
1114.64	119.721
1119.02	284.578
1123.4	343.442
1127.78	84.3086
1132.15	176.572
1136.53	71.3037
1140.89	46.3965
1145.26	144.13
1149.63	46.2754
1153.99	122.039
1158.35	161.259
1162.7	11.1523
1167.06	92.3965
1171.41	4.88574
1175.76	20.3223
1180.11	35.7959
1184.45	97.2959
1188.79	20.7598
1193.13	19.873
1197.47	34.7119
1201.81	15.0322
1206.14	65.7109
1210.47	43.3496
1214.79	23.1914
1219.12	18.8955
1223.44	12.2852
1227.76	53.3643
1232.08	1.63672
1236.39	109.189
1240.7	130.898
1245.02	61.5273
1249.32	65.0361
1253.63	28.6523
1257.93	112.556
1262.23	155.285
1266.53	37.9785
1270.82	54.5742
1275.12	39.9658
1279.41	68.1943
1283.69	137.737
1287.98	11.4688
1292.26	221.083
1296.54	38.793
1300.82	120.935
1305.1	155.409
1309.37	224.77
1313.64	165.061
1317.91	106.126
1322.17	170.224
1326.44	103.389
1330.7	238.103
1334.96	78.835
1339.21	140.06
1343.47	151.435
1347.72	137.111
1351.97	223.318
1356.21	212.327
1360.46	6.26074
1364.7	51.1084
1368.94	146.833
1373.17	95.9014
1377.41	160.927
1381.64	165.681
1385.87	240.684
1390.1	205.158
1394.32	140.184
1398.54	83.1367
1402.76	68.4404
1406.98	61.5371
1411.19	190.333
1415.41	214.566
1419.62	152.09
1423.82	132.558
1428.03	91.0537
1432.23	144.406
1436.43	65.665
1440.63	119.201
1444.82	100.543
1449.02	121.34
1453.21	225.162
1457.4	114.166
1461.58	245.519
1465.77	48.1211
1469.95	66.2607
1474.12	176.518
1478.3	132.019
1482.47	124.793
1486.64	61.8301
1490.81	79.917
1494.98	92.2012
1499.14	65.8262
1503.31	33.5166
1507.47	57.5713
1511.62	67.9463
1515.78	217.763
1519.93	91.0606
1524.08	98.3711
1528.23	161.365
1532.37	193.929
1536.51	69.4902
1540.65	160.724
1544.79	67.5908
1548.93	198.064
1553.06	303.462
1557.19	145.62
1561.32	62.4922
