Measurement: Raman, 514 nm, ccw, Raman Data Processed
Mineral: Chloritoid
Rruff sample: R060292
Ideal chemistry: Fe^2+^Al_2_OSiO_4_(OH)_2_
Locality: Pech, Kunar Province, Afghanistan
Source: Herb Obodda
Description: Black tabular crystal
Measured chemistry: (Fe^2+^_1.55_Mg_0.43_Mn_0.02_)_Σ=2_(Al_3.93_Fe^3+^_0.07_)_Σ=4_Si_2.00_O_10_(OH)_4_
Pin_id: M00313
Orientation: Laser parallel to (1 0 1). Fiducial mark perpendicular to laser is parallel to b [0 1 0]
Raman shift (cm-1)	intensity
51.431	0
56.387	29.4438
61.341	55.019
66.292	41.9029
71.241	22.1209
76.187	106.372
81.131	324.785
86.072	355.813
91.012	759.177
95.948	713.88
100.883	879.082
105.815	2253.11
110.744	3242.03
115.671	2270.32
120.596	1086.23
125.519	630.449
130.439	636.678
135.356	603.278
140.271	415.733
145.184	412.111
150.094	480.75
155.002	333.943
159.908	471.451
164.811	616.022
169.711	652.639
174.61	694.263
179.505	541.924
184.399	462.551
189.29	448.909
194.178	515.981
199.064	751.809
203.948	394.9
208.829	428.626
213.708	539.548
218.585	537.692
223.459	455.554
228.33	468.652
233.199	536.863
238.066	939.088
242.93	1818.24
247.792	3879.27
252.651	3176.1
257.508	2243.96
262.363	1778.06
267.215	1905.1
272.064	3290.8
276.912	7144.13
281.756	8128.07
286.598	3586.62
291.438	1594.34
296.276	868.833
301.111	711.406
305.943	581.602
310.773	511.784
315.601	319.421
320.426	455.487
325.248	1018.93
330.068	2070.72
334.886	1044.85
339.701	677.303
344.514	1314.08
349.324	155.347
354.132	101.92
358.938	30.0953
363.741	234.171
368.541	239.117
373.339	60.6714
378.135	204.797
382.928	868.34
387.718	876.243
392.506	958.491
397.292	1068.2
402.075	330.529
406.856	353.444
411.634	791.75
416.41	498.327
421.183	140.15
425.954	137.202
430.722	35.5295
435.488	108.404
440.251	185.05
445.012	7.69922
449.77	211.438
454.526	276.718
459.28	155.135
464.03	360.676
468.779	623.332
473.525	1097.09
478.268	1095.95
483.009	1054.88
487.747	1567.9
492.483	3334.98
497.217	6303.38
501.948	4127.6
506.676	3794.45
511.402	3590.34
516.125	2347.48
520.846	2549.57
525.565	4540.4
530.281	4989.22
534.994	2988.3
539.705	2573.26
544.413	4916.2
549.119	13176.5
553.822	11949.6
558.523	3645.75
563.222	1314.64
567.917	858.347
572.611	791.628
577.302	1176.28
581.99	2571.92
586.676	9789.31
591.359	43114.8
596.04	28915.4
600.718	6860.87
605.394	2923.16
610.067	1522.29
614.737	880.225
619.406	489.936
624.071	268.544
628.734	230.914
633.395	97.0859
638.053	90.1157
642.708	3.88159
647.361	43.0735
652.012	22.9514
656.66	34.95
661.305	183.9
665.948	531.509
670.588	224.608
675.226	14.446
679.861	24.334
684.494	4.03418
689.124	70.5183
693.752	106.683
698.377	259.601
702.999	465.29
707.619	740.755
712.237	1232.01
716.852	2207.32
721.464	3749.95
726.074	6133.93
730.681	9078.81
735.286	9230.51
739.888	7685.03
744.488	5346.38
749.085	3166.57
753.68	1788.6
758.272	1108.48
762.861	632.219
767.448	419.832
772.033	269.322
776.614	98.2188
781.194	50.5117
785.77	4.5625
790.345	61.4011
794.916	62.9766
799.485	3.50244
804.052	4.92505
808.616	58.5703
813.177	141.398
817.736	155.36
822.292	339.92
826.846	607.5
831.397	1172.85
835.945	1925.78
840.491	2590.84
845.035	2644.06
849.576	2459.44
854.114	2307.99
858.65	2474.8
863.183	3179.28
867.713	4790.37
872.241	7568.66
876.767	11374.2
881.29	11598.9
885.81	7698.84
890.328	4533.04
894.843	3322.49
899.356	3100.53
903.866	3639.55
908.373	3248.85
912.878	2228.46
917.38	1724.42
921.88	1226.93
926.377	826.678
930.872	658.776
935.364	564.088
939.853	612.563
944.34	685.958
948.824	737.291
953.306	887.944
957.785	819.055
962.261	813.804
966.735	720.072
971.207	591.816
975.675	327
980.141	118.626
984.605	174.689
989.066	73.1938
993.524	35.147
997.98	69.5469
1002.43	62.3638
1006.88	53.7593
1011.33	30.6548
1015.78	19.9741
1020.22	12.1345
1024.66	45.9822
1029.1	51.6338
1033.53	48.2874
1037.97	90.0347
1042.4	132.037
1046.82	81.346
1051.25	105.08
1055.67	88.5813
1060.09	81.4531
1064.51	186.721
1068.92	181.352
1073.33	211.125
1077.74	264.697
1082.15	411.142
1086.55	482.168
1090.95	552.634
1095.35	397.519
1099.75	264.581
1104.14	160.072
1108.53	107.478
1112.92	133.778
1117.31	112.356
1121.69	118.411
1126.07	98.7153
1130.45	91.8608
1134.82	8.4856
1139.19	44.8667
1143.57	60.7778
1147.93	57.1645
1152.3	29.7564
1156.66	39.1038
1161.02	79.0488
1165.38	76.6809
1169.73	1.875
1174.08	65.4702
1178.43	38.9785
1182.78	17.5024
1187.12	17.3166
1191.46	0.814209
1195.8	22.6968
1200.14	12.5503
1204.47	35.2437
1208.8	38.0981
1213.13	31.6233
1217.46	5.6936
1221.78	7.8208
1226.1	5.25391
1230.42	67.738
1234.73	8.02856
1239.04	89.1465
1243.35	67.9297
1247.66	44.7429
1251.97	57.3484
1256.27	26.6218
1260.57	65.0493
1264.86	19.1509
1269.16	42.8193
1273.45	124.775
1277.74	18.9182
1282.03	92.2012
1286.31	27.1182
1290.59	94.1267
1294.87	92.4219
1299.14	61.7651
1303.42	125.032
1307.69	54.063
1311.95	85.918
1316.22	95.2158
1320.48	63.1506
1324.74	74.0806
1329	114.645
1333.26	44.9165
1337.51	95.8325
1341.76	122.266
1346	121.555
1350.25	106.205
1354.49	136.771
1358.73	74.426
1362.96	99.7695
1367.2	68.5854
1371.43	92.7986
1375.66	85.7546
1379.88	75.3599
1384.11	83.2009
1388.33	85.4544
1392.54	35.4158
1396.76	44.5076
1400.97	20.4748
1405.18	53.2227
1409.39	29.6211
1413.59	74.7185
1417.8	50.3025
1421.99	34.4595
1426.19	50.3325
1430.38	59.5166
1434.58	77.4146
1438.77	134.233
1442.95	90.938
1447.13	65.1433
1451.32	55.3499
1455.49	44.9768
1459.67	17.8733
1463.84	108.712
1468.01	19.4971
1472.18	87.8794
1476.35	67.7893
1480.51	48.4082
1484.67	82.7488
1488.83	19.3484
1492.98	49.7188
1497.13	64.4834
1501.28	67.8999
1505.43	12.4331
1509.57	72.0637
1513.71	11.7715
1517.85	52.9871
1521.99	3.92676
1526.12	23.4097
1530.25	43.0867
1534.38	4.53564
1538.5	38.4775
1542.62	26.9766
1546.74	57.1768
1550.86	131.52
1554.98	47.0781
1559.09	55.8867
1563.2	17.7976
1567.31	57.7795
