Measurement: Raman, 514 nm, ccw, Raman Data Processed
Mineral: Chloritoid
Rruff sample: R060292
Ideal chemistry: Fe^2+^Al_2_OSiO_4_(OH)_2_
Locality: Pech, Kunar Province, Afghanistan
Source: Herb Obodda
Description: Black tabular crystal
Measured chemistry: (Fe^2+^_1.55_Mg_0.43_Mn_0.02_)_Σ=2_(Al_3.93_Fe^3+^_0.07_)_Σ=4_Si_2.00_O_10_(OH)_4_
Pin_id: M00356
Orientation: Laser parallel to b* (0 1 0). Fiducial mark perpendicular to laser is parallel to -c [0 0 -1]
Raman shift (cm-1)	intensity
51.431	0
56.387	29.9447
61.341	5.73853
66.292	175.128
71.241	449.527
76.187	732.705
81.131	1070.69
86.072	1121.53
91.012	1264.28
95.948	1284.07
100.883	1370.79
105.815	1867.83
110.744	1717.34
115.671	1797.46
120.596	1359.78
125.519	1065.9
130.439	958.949
135.356	974.797
140.271	823.716
145.184	833.132
150.094	801.866
155.002	663.917
159.908	722.465
164.811	779.022
169.711	783.354
174.61	745.972
179.505	822.371
184.399	856.904
189.29	1068.39
194.178	1308.78
199.064	1620.84
203.948	1590.3
208.829	1651.61
213.708	1678.11
218.585	1906.37
223.459	1802.14
228.33	1892.7
233.199	2297.51
238.066	3280.24
242.93	4886.23
247.792	7351.27
252.651	9852.25
257.508	3855.14
262.363	1369.84
267.215	919.207
272.064	1192.36
276.912	1651.92
281.756	2738.07
286.598	2793.8
291.438	1774.67
296.276	1281.66
301.111	1135.2
305.943	1285.65
310.773	1536.76
315.601	1658.34
320.426	2032.37
325.248	2509.83
330.068	3404.69
334.886	3560.94
339.701	1269.55
344.514	539.539
349.324	169.142
354.132	46.6001
358.938	10.8215
363.741	143.629
368.541	53.6914
373.339	11.3357
378.135	25.4033
382.928	41.9106
387.718	182.814
392.506	151.097
397.292	226.761
402.075	88.8972
406.856	30.1738
411.634	3.22388
416.41	54.897
421.183	68.4949
425.954	115.422
430.722	30.6216
435.488	28.4463
440.251	10.5386
445.012	42.8054
449.77	46.9309
454.526	122.832
459.28	217.916
464.03	396.174
468.779	818.974
473.525	1200.17
478.268	1632.89
483.009	1565.75
487.747	1681.74
492.483	1992.86
497.217	2740.84
501.948	2819.85
506.676	2330.84
511.402	2668.91
516.125	3487.97
520.846	5935.01
525.565	9684.81
530.281	14750.9
534.994	11793.3
539.705	10831.6
544.413	21228.1
549.119	34460.1
553.822	58585.1
558.523	24142.8
563.222	6572.21
567.917	2968.68
572.611	1924.17
577.302	1626.73
581.99	3104.85
586.676	11206.3
591.359	19023.6
596.04	40297.2
600.718	11183.8
605.394	3144.36
610.067	1511.82
614.737	936.2
619.406	561.498
624.071	517.711
628.734	352.036
633.395	262.359
638.053	121.447
642.708	133.017
647.361	42.2012
652.012	34.9995
656.66	5.79443
661.305	69.2466
665.948	107.244
670.588	199.606
675.226	73.9087
679.861	5.83691
684.494	92.1479
689.124	43.2144
693.752	44.6352
698.377	1.50244
702.999	133.494
707.619	125.382
712.237	195.115
716.852	484.709
721.464	706.375
726.074	1239.11
730.681	1780.81
735.286	1898.42
739.888	1737.93
744.488	1335.35
749.085	745.676
753.68	425.919
758.272	168.083
762.861	96.1743
767.448	38.1929
772.033	47.1328
776.614	6.01025
781.194	42.2925
785.77	1.8999
790.345	86.0356
794.916	69.5464
799.485	62.2158
804.052	29.999
808.616	222.41
813.177	167.456
817.736	357.088
822.292	544.456
826.846	684.621
831.397	1068.24
835.945	1404.79
840.491	2025.9
845.035	2613.17
849.576	3374.49
854.114	4380.92
858.65	5841.48
863.183	7842.16
867.713	11560
872.241	17277
876.767	23552.1
881.29	23768.4
885.81	15951.8
890.328	8533.49
894.843	4723.32
899.356	2876.36
903.866	2135.22
908.373	1566.51
912.878	1022.45
917.38	584.964
921.88	324.579
926.377	157.802
930.872	180.611
935.364	75.8589
939.853	62.271
944.34	28.6743
948.824	129.881
953.306	111.056
957.785	266.619
962.261	525.822
966.735	760.57
971.207	634.896
975.675	620.653
980.141	539.825
984.605	610.396
989.066	495.351
993.524	424.68
997.98	495.387
1002.43	466.477
1006.88	419.951
1011.33	466.83
1015.78	442.116
1020.22	405.798
1024.66	359.885
1029.1	407.382
1033.53	426.278
1037.97	537.602
1042.4	513.374
1046.82	460.616
1051.25	594.395
1055.67	554.719
1060.09	618.518
1064.51	695.765
1068.92	720.487
1073.33	892.411
1077.74	939.301
1082.15	1273.44
1086.55	1827.92
1090.95	1919.96
1095.35	1533.29
1099.75	965.882
1104.14	733.893
1108.53	477.625
1112.92	308.347
1117.31	451.694
1121.69	417.032
1126.07	305.673
1130.45	152.62
1134.82	163.894
1139.19	138.528
1143.57	191.186
1147.93	156.461
1152.3	121.852
1156.66	185.013
1161.02	93.8999
1165.38	107.679
1169.73	156.792
1174.08	110.768
1178.43	83.8677
1182.78	26.5112
1187.12	54.5225
1191.46	48.127
1195.8	16.1025
1200.14	12.3145
1204.47	39.9033
1208.8	122.991
1213.13	45.8052
1217.46	58.5664
1221.78	23.3486
1226.1	62.1582
1230.42	67.9976
1234.73	45.9077
1239.04	46.3804
1243.35	42.249
1247.66	42.0664
1251.97	22.02
1256.27	44.9072
1260.57	52.7524
1264.86	141.301
1269.16	115.186
1273.45	50.2602
1277.74	36.7139
1282.03	55.3203
1286.31	48.998
1290.59	39.4824
1294.87	15.5269
1299.14	89.3999
1303.42	42.0571
1307.69	18.5073
1311.95	129.61
1316.22	11.1352
1320.48	68.9443
1324.74	25.5859
1329	30.8613
1333.26	45.4873
1337.51	26.3784
1341.76	78.0815
1346	125.566
1350.25	142.621
1354.49	180.585
1358.73	54.3789
1362.96	73.8872
1367.2	68.4775
1371.43	139.51
1375.66	53.0498
1379.88	94.7002
1384.11	128.15
1388.33	68.3794
1392.54	13.5415
1396.76	170.254
1400.97	164.137
1405.18	72.5098
1409.39	111.14
1413.59	104.944
1417.8	95.9014
1421.99	157.433
1426.19	94.043
1430.38	149.11
1434.58	171.601
1438.77	119.183
1442.95	134.692
1447.13	121.523
1451.32	88.8579
1455.49	143.766
1459.67	86.1084
1463.84	133.242
1468.01	120.058
1472.18	198.161
1476.35	159.209
1480.51	90.7773
1484.67	239.486
1488.83	74.7539
1492.98	109.918
1497.13	81.7529
1501.28	28.2651
1505.43	40.4785
1509.57	86.415
1513.71	78.5478
1517.85	5.99268
1521.99	38.8101
1526.12	2.26269
1530.25	95.2749
1534.38	15.4106
1538.5	31.085
1542.62	26.502
1546.74	123.099
1550.86	200.502
1554.98	22.752
1559.09	78.9194
1563.2	659.236
1567.31	172.367
