Measurement: Raman, 514 nm, ccw, Raman Data Processed
Mineral: Chloritoid
Rruff sample: R060292
Ideal chemistry: Fe^2+^Al_2_OSiO_4_(OH)_2_
Locality: Pech, Kunar Province, Afghanistan
Source: Herb Obodda
Description: Black tabular crystal
Measured chemistry: (Fe^2+^_1.55_Mg_0.43_Mn_0.02_)_Σ=2_(Al_3.93_Fe^3+^_0.07_)_Σ=4_Si_2.00_O_10_(OH)_4_
Pin_id: M00166
Orientation: Laser parallel to a* (1 0 0). Fiducial mark perpendicular to laser is parallel to b [0 1 0]
Raman shift (cm-1)	intensity
51.431	0
56.387	175.203
61.341	37.9442
66.292	258.126
71.241	285.001
76.187	245.536
81.131	1107.74
86.072	1109.87
91.012	1944.56
95.948	2301.7
100.883	4707.23
105.815	9582.02
110.744	7086.75
115.671	4153.78
120.596	2324.94
125.519	1293.69
130.439	925.806
135.356	1060.38
140.271	1010.32
145.184	983.048
150.094	919.789
155.002	372.712
159.908	477.769
164.811	595.799
169.711	603.848
174.61	559.144
179.505	613.794
184.399	806.235
189.29	990.776
194.178	1351.94
199.064	1886.17
203.948	1100.3
208.829	986.821
213.708	905.375
218.585	922.727
223.459	903.054
228.33	1211.01
233.199	1913.32
238.066	4897.78
242.93	6569.2
247.792	7552.44
252.651	8254.72
257.508	7765.01
262.363	5215.1
267.215	5354.65
272.064	9357.59
276.912	12969.9
281.756	14932.5
286.598	10868.6
291.438	4919.17
296.276	2769.13
301.111	2071.72
305.943	1901.41
310.773	1922.18
315.601	1748.98
320.426	2055.77
325.248	2663.48
330.068	2517.08
334.886	1879.54
339.701	408.83
344.514	209.097
349.324	174.744
354.132	155.972
358.938	920.946
363.741	810.261
368.541	633.96
373.339	1377.02
378.135	4237.11
382.928	4278.1
387.718	2003.94
392.506	341.593
397.292	229.008
402.075	177.812
406.856	1244.28
411.634	1391.63
416.41	1062.68
421.183	566.192
425.954	85.7627
430.722	154.133
435.488	216.2
440.251	148.742
445.012	1133.33
449.77	1554.3
454.526	1183.63
459.28	1203.27
464.03	2149.2
468.779	3384.39
473.525	4044.8
478.268	4153.41
483.009	4079.18
487.747	6282.16
492.483	10941.5
497.217	14810.2
501.948	18848.4
506.676	17542.3
511.402	11646.9
516.125	6609.94
520.846	5027.13
525.565	5610.96
530.281	6279.59
534.994	6812.44
539.705	12167.3
544.413	34686.2
549.119	50237.7
553.822	52768.6
558.523	21923.2
563.222	6635.68
567.917	3466.32
572.611	2698.31
577.302	3380.29
581.99	8492.98
586.676	42712.5
591.359	54262.3
596.04	44513.4
600.718	13519.7
605.394	4043.32
610.067	2018.13
614.737	1239.15
619.406	818.376
624.071	516.414
628.734	380.45
633.395	163.804
638.053	125.524
642.708	115.101
647.361	39.3169
652.012	76.9043
656.66	274.002
661.305	873.117
665.948	984.404
670.588	792.069
675.226	142.098
679.861	113.99
684.494	132.378
689.124	191.889
693.752	79.7324
698.377	92.3367
702.999	19.5955
707.619	221.023
712.237	542.713
716.852	1277.8
721.464	2289.93
726.074	3915.82
730.681	5059.04
735.286	5163.61
739.888	4348.55
744.488	3174.89
749.085	1993.66
753.68	1185.89
758.272	640.597
762.861	389.824
767.448	300.594
772.033	285.718
776.614	123.623
781.194	161.848
785.77	276.874
790.345	242.869
794.916	399.504
799.485	636.106
804.052	742.459
808.616	953.922
813.177	1264.36
817.736	1748.57
822.292	2620.77
826.846	4147.65
831.397	6393.82
835.945	8789.27
840.491	9761.44
845.035	9285.51
849.576	8388.87
854.114	8579.78
858.65	9638.26
863.183	12428.3
867.713	18170
872.241	27417.4
876.767	33736.4
881.29	30768.2
885.81	20343.8
890.328	13089.6
894.843	12309.3
899.356	15408.3
903.866	16378.2
908.373	11488
912.878	6512.9
917.38	3588.9
921.88	1986.04
926.377	986.378
930.872	290.252
935.364	13.355
939.853	98.6035
944.34	138.273
948.824	28.0855
953.306	348.781
957.785	864.136
962.261	1526.88
966.735	1679.07
971.207	1386.34
975.675	1105.55
980.141	890.177
984.605	723.031
989.066	543.127
993.524	654.453
997.98	545.06
1002.43	402.86
1006.88	306.904
1011.33	245.189
1015.78	144.675
1020.22	246.343
1024.66	243.164
1029.1	208.175
1033.53	276.331
1037.97	461.621
1042.4	283.011
1046.82	452.693
1051.25	514.299
1055.67	604.074
1060.09	520.751
1064.51	741.253
1068.92	759.72
1073.33	879.852
1077.74	1000.09
1082.15	1399.74
1086.55	2076.21
1090.95	2035.28
1095.35	1611.4
1099.75	1109.58
1104.14	772.612
1108.53	593.236
1112.92	480.145
1117.31	320.775
1121.69	279.68
1126.07	258.68
1130.45	306.269
1134.82	312.53
1139.19	169.229
1143.57	139.294
1147.93	237.363
1152.3	224.177
1156.66	89.0186
1161.02	125.129
1165.38	50.6602
1169.73	47.4297
1174.08	116.439
1178.43	20.1196
1182.78	33.0859
1187.12	17.2651
1191.46	41.3496
1195.8	21.4663
1200.14	51.2998
1204.47	61.1519
1208.8	41.6333
1213.13	58.1348
1217.46	24.7588
1221.78	32.9551
1226.1	33.5586
1230.42	51.521
1234.73	93.1821
1239.04	99.0469
1243.35	43.7178
1247.66	66.6231
1251.97	90.897
1256.27	34.3164
1260.57	136.337
1264.86	84.4648
1269.16	134.037
1273.45	108.136
1277.74	93.1562
1282.03	148.255
1286.31	135.959
1290.59	151.668
1294.87	151.265
1299.14	169.085
1303.42	152.248
1307.69	106.961
1311.95	126.646
1316.22	98.4414
1320.48	185.077
1324.74	136.492
1329	143.25
1333.26	121.383
1337.51	101.673
1341.76	90.5977
1346	123.834
1350.25	99.6069
1354.49	152.317
1358.73	155.855
1362.96	111.41
1367.2	94.1116
1371.43	203.497
1375.66	173.294
1379.88	187.988
1384.11	141.564
1388.33	100.644
1392.54	93.029
1396.76	20.8716
1400.97	158.618
1405.18	69.4583
1409.39	152.451
1413.59	135.127
1417.8	167.507
1421.99	78.1685
1426.19	94.5537
1430.38	50.2051
1434.58	172.43
1438.77	99.1782
1442.95	80.7136
1447.13	164.581
1451.32	69.2073
1455.49	123.388
1459.67	76.0281
1463.84	35.8669
1468.01	126.589
1472.18	7.9292
1476.35	82.7512
1480.51	96.6177
1484.67	54.2129
1488.83	30.0742
1492.98	79.3948
1497.13	20.0349
1501.28	24.1482
1505.43	61.2371
1509.57	87.7734
1513.71	39.3628
1517.85	21.8352
1521.99	101.618
1526.12	67.6265
1530.25	131.201
1534.38	63.5286
1538.5	95.0388
1542.62	100.988
1546.74	98.5955
1550.86	506.714
1554.98	108.105
1559.09	113.846
1563.2	47.7957
1567.31	104.086
