Measurement: Raman, 514 nm, ccw, Raman Data Processed
Mineral: Chloritoid
Rruff sample: R050334
Ideal chemistry: Fe^2+^Al_2_OSiO_4_(OH)_2_
Locality: Selçuk, Mugla Province, Turkey
Source: George Rossman
Description: Dark greenish-black foliated cleavage fragments
Measured chemistry: (Fe^2+^_1.84_Mg_0.12_Mn_0.04_)_Σ=2_(Al_3.95_Fe^3+^_0.05_)_Σ=4_Si_2.00_O_10_(OH)_4_ ; H not measured but estimated by difference and stoichiometry
Pin_id: M00213
Orientation: Laser parallel to a* (1 0 0). Fiducial mark perpendicular to laser is parallel to -b [0 -1 0]
Raman shift (cm-1)	intensity
89.777	0
94.714	2.65613
99.649	254.388
104.582	1542.92
109.512	854.819
114.44	872.063
119.365	438.516
124.288	132.091
129.209	124.906
134.127	120.742
139.043	98.4959
143.956	3.82202
148.867	138.426
153.775	1.19141
158.681	25.6995
163.585	117.749
168.486	147.507
173.385	115.285
178.282	186.967
183.176	389.43
188.067	698.564
192.956	1382.41
197.843	2541.73
202.727	3266.42
207.609	3815.04
212.489	3631.62
217.366	2919.14
222.24	2340.7
227.112	2130
231.982	2506.55
236.849	4382.07
241.714	8412.01
246.577	8318.22
251.437	7740.96
256.294	3693.11
261.149	1012.62
266.002	738.634
270.852	1530.75
275.7	2519.99
280.545	2977.47
285.388	2319
290.229	1318.04
295.067	989.518
299.902	1145.25
304.735	1325.3
309.566	1369.4
314.394	1286.85
319.22	1671.48
324.043	3032.09
328.864	3045.67
333.682	2849.23
338.498	1496.78
343.311	561.312
348.122	227.852
352.931	25.3978
357.737	96.1212
362.54	77.9867
367.341	10.1515
372.14	25.2208
376.936	122.071
381.73	206.904
386.521	291.705
391.31	375.461
396.096	289.183
400.88	140.046
405.661	64.1689
410.44	59.5761
415.216	73.3094
419.99	108.19
424.761	96.132
429.53	35.0826
434.297	5.96643
439.061	17.9742
443.822	113.922
448.581	208.072
453.337	244.304
458.091	491.529
462.843	849.74
467.592	1542.26
472.338	2087.11
477.082	2300.27
481.824	2369.4
486.563	3037.52
491.3	3937.62
496.034	4326.37
500.765	4321.46
505.494	3856.6
510.221	4144.45
514.945	5359.63
519.666	9836.23
524.385	14401.6
529.102	15682.9
533.816	14581.3
538.527	18637.9
543.236	44438
547.943	52304.7
552.647	49625.1
557.348	19514.9
562.047	6163.81
566.744	3094.91
571.438	2310.61
576.129	2427.98
580.818	5389.86
585.504	24931.3
590.188	29042.7
594.87	29575
599.549	9056.09
604.225	2936.08
608.899	1522.94
613.57	927.651
618.239	556.243
622.905	418.689
627.569	190.599
632.23	238.357
636.889	61.7991
641.545	44.5862
646.198	27.3386
650.849	25.6609
655.498	0.61499
660.144	143.377
664.787	228.986
669.428	200.562
674.067	113.144
678.703	7.46899
683.336	27.6958
687.967	11.7009
692.595	80.4753
697.221	11.9448
701.844	41.0049
706.465	168.847
711.083	429.524
715.698	738.06
720.311	1136.51
724.922	1708.72
729.53	2066.82
734.135	2165.79
738.738	1870.62
743.338	1271.31
747.936	670.88
752.531	422.329
757.124	127.664
761.714	6.89258
766.302	35.9937
770.887	23.948
775.469	7.33008
780.049	2.03735
784.626	51.8145
789.201	54.937
793.773	46.5115
798.343	32.7546
802.91	203.978
807.475	235.602
812.037	404.245
816.596	531.585
821.153	794.445
825.707	1058.3
830.259	1447.45
834.808	2086.14
839.355	2674.84
843.899	3396.81
848.441	4263.89
852.98	5542.1
857.516	7322.45
862.05	10144
866.581	15472.6
871.11	23249.5
875.636	27825.5
880.159	24713.7
884.68	16698.1
889.199	8967.78
893.714	5210.66
898.228	3638.17
902.738	2637.55
907.246	1815.55
911.752	1174.83
916.255	662.595
920.755	406.783
925.253	110.701
929.748	34.8494
934.241	26.2705
938.731	55.0437
943.218	73.8003
947.703	102.525
952.186	157.256
956.665	433.639
961.142	562.732
965.617	622.548
970.089	546.129
974.558	574.017
979.025	488.442
983.489	385.318
987.951	464.633
992.41	543.412
996.866	552.386
1001.32	553.377
1005.77	476.557
1010.22	422.209
1014.67	477.38
1019.11	465.068
1023.55	472.276
1027.99	497.962
1032.42	534.14
1036.86	549.802
1041.29	578.008
1045.72	588.785
1050.14	594.11
1054.56	736.032
1058.98	763.95
1063.4	882.015
1067.82	938.585
1072.23	1104
1076.64	1244.69
1081.05	1709.84
1085.45	2140.05
1089.85	2229.9
1094.25	1812.95
1098.65	1207.49
1103.04	649.355
1107.43	495.595
1111.82	371.415
1116.21	441.723
1120.59	483.434
1124.97	392.664
1129.35	279.335
1133.73	239.91
1138.1	157.246
1142.47	181.304
1146.84	148.062
1151.21	47.8962
1155.57	123.74
1159.93	109.118
1164.29	84.1956
1168.64	118.353
1172.99	71.4531
1177.34	35.6977
1181.69	75.1865
1186.04	37.6257
1190.38	39.3103
1194.72	60.1633
1199.05	56.4727
1203.39	36.0625
1207.72	29.0281
1212.05	16.2522
1216.37	38.0537
1220.7	6.04907
1225.02	16.8638
1229.34	10.7549
1233.65	16.7588
1237.97	55.6711
1242.28	47.3059
1246.59	57.8699
1250.89	4.57178
1255.19	8.67749
1259.49	12.5185
1263.79	78.3533
1268.09	17.3227
1272.38	0.656982
1276.67	46.7512
1280.95	9.83252
1285.24	14.083
1289.52	2.39356
1293.8	13.9416
1298.08	4.57153
1302.35	41.509
1306.62	77.3306
1310.89	19.0398
1315.15	31.324
1319.42	61.4695
1323.68	8.36768
1327.94	46.4114
1332.19	67.9238
1336.44	31.1182
1340.69	41.1877
1344.94	24.0601
1349.19	60.4932
1353.43	50.8884
1357.67	83.957
1361.9	27.9441
1366.14	91.5278
1370.37	39.666
1374.6	19.4182
1378.83	85.8486
1383.05	21.1404
1387.27	55.1018
1391.49	48.0667
1395.7	53.5381
1399.92	31.3809
1404.13	24.3616
1408.34	13.0796
1412.54	73.2964
1416.74	54.4087
1420.94	40.8213
1425.14	91.8364
1429.34	65.1057
1433.53	49.9868
1437.72	91.2747
1441.9	90.3772
1446.09	48.7249
1450.27	72.2683
1454.45	53.5847
1458.63	87.3525
1462.8	60.0999
1466.97	65.0945
1471.14	133.048
1475.31	107.86
1479.47	110.162
1483.63	109.024
1487.79	117.228
1491.94	33.8
1496.09	84.1951
1500.24	100.453
1504.39	51.0264
1508.54	12.884
1512.68	40.7207
1516.82	56.4558
1520.95	35.0979
1525.09	37.6809
1529.22	30.199
1533.35	87.6277
1537.47	43.4834
1541.6	79.103
1545.72	43.6255
1549.83	193.836
1553.95	180.738
1558.06	36.7437
1562.17	71.573
1566.28	36.2105
1570.38	0
