Measurement: Raman, 514 nm, ccw, Raman Data Processed
Mineral: Chloritoid
Rruff sample: R060292
Ideal chemistry: Fe^2+^Al_2_OSiO_4_(OH)_2_
Locality: Pech, Kunar Province, Afghanistan
Source: Herb Obodda
Description: Black tabular crystal
Measured chemistry: (Fe^2+^_1.55_Mg_0.43_Mn_0.02_)_Σ=2_(Al_3.93_Fe^3+^_0.07_)_Σ=4_Si_2.00_O_10_(OH)_4_
Pin_id: M00413
Orientation: Laser parallel to c* (0 0 1). Fiducial mark perpendicular to laser is parallel to a [1 0 0]
Raman shift (cm-1)	intensity
89.777	0
94.714	1.57544
99.649	98.4228
104.582	618.923
109.512	574.789
114.44	500.247
119.365	115.773
124.288	5.92114
129.209	131.435
134.127	26.0183
139.043	7.28491
143.956	36.0222
148.867	27.1467
153.775	180.495
158.681	102.906
163.585	242.359
168.486	242.621
173.385	240.625
178.282	230.471
183.176	268.19
188.067	312.827
192.956	489.422
197.843	523.019
202.727	439.634
207.609	261.273
212.489	324.945
217.366	157.656
222.24	104.732
227.112	120.893
231.982	146.557
236.849	39.3762
241.714	160.414
246.577	196.159
251.437	199.247
256.294	201.63
261.149	147.77
266.002	296.214
270.852	552.79
275.7	1568.64
280.545	3196.49
285.388	1594.18
290.229	534.058
295.067	297.103
299.902	186.335
304.735	250.642
309.566	212.999
314.394	149.387
319.22	239.817
324.043	398.294
328.864	939.821
333.682	647.402
338.498	151.039
343.311	153.734
348.122	0.511475
352.931	34.73
357.737	21.0176
362.54	34.4141
367.341	17.9827
372.14	35.1619
376.936	54.0413
381.73	76.9487
386.521	120.956
391.31	152.075
396.096	155.3
400.88	202.658
405.661	596.161
410.44	1537.83
415.216	1784.8
419.99	686.951
424.761	496.283
429.53	182.705
434.297	163.22
439.061	150.821
443.822	105.507
448.581	131.277
453.337	154.13
458.091	158.066
462.843	346.085
467.592	445.186
472.338	603.368
477.082	651.632
481.824	590.976
486.563	556.399
491.3	855.715
496.034	1777.65
500.765	1442.26
505.494	864.231
510.221	676.47
514.945	501.13
519.666	612.82
524.385	990.222
529.102	1044.89
533.816	513.755
538.527	376.391
543.236	513.247
547.943	1255.07
552.647	1842.76
557.348	632.947
562.047	347.25
566.744	386.556
571.438	564.106
576.129	877.306
580.818	1841.74
585.504	5955.23
590.188	28318.7
594.87	41643.3
599.549	7829.88
604.225	2606.49
608.899	1339.13
613.57	766.797
618.239	476.653
622.905	304.199
627.569	203.929
632.23	205.798
636.889	98.6148
641.545	143.027
646.198	1.83398
650.849	43.1409
655.498	34.4346
660.144	15.7722
664.787	65.2034
669.428	6.34448
674.067	40.5278
678.703	1.64453
683.336	9.34619
687.967	20.5212
692.595	63.8513
697.221	12.3545
701.844	52.3591
706.465	97.2124
711.083	139.028
715.698	257.806
720.311	418.547
724.922	719.25
729.53	1252.92
734.135	1431.54
738.738	1126.13
743.338	863.687
747.936	494.204
752.531	276.686
757.124	126.141
761.714	35.5727
766.302	61.9702
770.887	79.3364
775.469	18.3127
780.049	74.9182
784.626	5.91797
789.201	50.9253
793.773	3.98975
798.343	13.4758
802.91	25.061
807.475	10.3601
812.037	8.72021
816.596	124.982
821.153	133.734
825.707	275.289
830.259	475.556
834.808	780.304
839.355	1096.7
843.899	1031.09
848.441	1117.51
852.98	1016.97
857.516	1063.47
862.05	1350.01
866.581	1733.59
871.11	3075.22
875.636	4990.9
880.159	5848.64
884.68	4660.49
889.199	2789.34
893.714	1731.27
898.228	1255.25
902.738	978.29
907.246	875.172
911.752	841.138
916.255	723.861
920.755	721.509
925.253	625.271
929.748	562.747
934.241	549.015
938.731	585.176
943.218	654.716
947.703	833.508
952.186	817.967
956.665	941.578
961.142	909.353
965.617	642.415
970.089	601.757
974.558	457.327
979.025	306.066
983.489	242.922
987.951	186.891
992.41	185.007
996.866	137.248
1001.32	168.602
1005.77	59.071
1010.22	72.6621
1014.67	110.361
1019.11	16.1987
1023.55	22.0942
1027.99	86.0994
1032.42	37.2022
1036.86	8.58667
1041.29	25.7151
1045.72	34.8989
1050.14	23.2634
1054.56	62.4282
1058.98	18.1072
1063.4	68.8843
1067.82	5.62842
1072.23	106.178
1076.64	94.8682
1081.05	116.194
1085.45	165.701
1089.85	211.387
1094.25	223.931
1098.65	268.898
1103.04	236.571
1107.43	176.119
1111.82	222.388
1116.21	181.21
1120.59	169.105
1124.97	175.425
1129.35	49.3547
1133.73	142.736
1138.1	107.478
1142.47	51.5164
1146.84	138.551
1151.21	116.662
1155.57	100.734
1159.93	58.8069
1164.29	56.6536
1168.64	116.845
1172.99	49.8169
1177.34	63.7034
1181.69	86.3677
1186.04	20.9766
1190.38	66.491
1194.72	28.0984
1199.05	28.2988
1203.39	26.083
1207.72	27.9058
1212.05	64.4067
1216.37	39.9109
1220.7	57.4053
1225.02	14.8003
1229.34	57.3406
1233.65	3.69165
1237.97	0.979736
1242.28	96.8901
1246.59	38.0972
1250.89	29.7161
1255.19	86.3635
1259.49	56.4329
1263.79	33.4758
1268.09	49.5579
1272.38	38.571
1276.67	27.5645
1280.95	24.5325
1285.24	49.4763
1289.52	58.5166
1293.8	100.432
1298.08	90.3242
1302.35	88.2026
1306.62	47.1362
1310.89	53.908
1315.15	66.9727
1319.42	59.012
1323.68	38.813
1327.94	129.741
1332.19	44.3894
1336.44	83.75
1340.69	79.5574
1344.94	27.811
1349.19	45.3352
1353.43	1.9519
1357.67	38.4661
1361.9	18.8257
1366.14	74.6675
1370.37	121.418
1374.6	38.3777
1378.83	6.6687
1383.05	5.39673
1387.27	35.1465
1391.49	2.1167
1395.7	67.9604
1399.92	76.6667
1404.13	65.5151
1408.34	54.2913
1412.54	53.083
1416.74	64.9246
1420.94	58.0869
1425.14	93.5159
1429.34	94.1941
1433.53	4.98022
1437.72	83.6299
1441.9	29.7002
1446.09	78.5393
1450.27	54.5366
1454.45	81.49
1458.63	38.6394
1462.8	47.7173
1466.97	26.2561
1471.14	99.2058
1475.31	54.5303
1479.47	68.9851
1483.63	67.3904
1487.79	83.8562
1491.94	82.3738
1496.09	1.22119
1500.24	28.4111
1504.39	96.2744
1508.54	59.7634
1512.68	24.7822
1516.82	77.9429
1520.95	93.2937
1525.09	81.5608
1529.22	33.9329
1533.35	73.96
1537.47	69.6213
1541.6	44.3218
1545.72	39.2231
1549.83	50.1179
1553.95	155.126
1558.06	78.6585
1562.17	114.385
1566.28	67.0237
1570.38	0
