Measurement: Raman, 514 nm, ccw, Raman Data Processed
Mineral: Chloritoid
Rruff sample: R050334
Ideal chemistry: Fe^2+^Al_2_OSiO_4_(OH)_2_
Locality: Selçuk, Mugla Province, Turkey
Source: George Rossman
Description: Dark greenish-black foliated cleavage fragments
Measured chemistry: (Fe^2+^_1.84_Mg_0.12_Mn_0.04_)_Σ=2_(Al_3.95_Fe^3+^_0.05_)_Σ=4_Si_2.00_O_10_(OH)_4_ ; H not measured but estimated by difference and stoichiometry
Pin_id: M01491
Orientation: Laser parallel to (1 0 1). Fiducial mark perpendicular to laser is parallel to b [0 1 0]
Raman shift (cm-1)	intensity
158.558	0
163.475	185.517
168.389	264.34
173.3	561.023
178.209	274.757
183.115	103.962
188.018	449.091
192.918	611.352
197.816	720.579
202.711	1126.54
207.604	256.662
212.494	273.809
217.381	291.343
222.265	326.618
227.147	91.2051
232.026	24.2314
236.902	41.21
241.775	105.74
246.646	322.488
251.514	857.746
256.38	811.588
261.243	572.505
266.103	359.574
270.96	192.607
275.815	427.928
280.667	835.088
285.516	948.187
290.363	350.634
295.207	390.459
300.048	442.661
304.887	485.877
309.723	223.864
314.556	64.833
319.387	226.663
324.215	101.342
329.04	236.302
333.862	913.634
338.682	816.124
343.5	346.085
348.314	939.481
353.126	324.558
357.935	22.7441
362.742	145.72
367.546	221.383
372.347	176.723
377.145	40.165
381.941	114.024
386.735	341.515
391.525	525.067
396.313	1032.48
401.098	1388.56
405.881	986.261
410.661	962.576
415.438	932.5
420.213	666.826
424.985	721.414
429.754	799.231
434.521	652.429
439.285	579.459
444.046	538.849
448.805	575.401
453.561	729.035
458.315	595.427
463.065	791.326
467.813	815.45
472.559	1118
477.302	860.866
482.042	960.794
486.78	1237.79
491.515	1543.9
496.247	2573.19
500.977	3274.8
505.704	2842.18
510.428	2466.47
515.15	1811.98
519.869	1637.6
524.586	1955.22
529.3	2982.32
534.011	3034.12
538.719	1682
543.425	1156.42
548.129	1471.82
552.83	2586.93
557.528	2151.99
562.223	792.007
566.916	577.999
571.607	477.136
576.294	504.758
580.979	1384.17
585.662	3991.38
590.341	11594.3
595.019	39228.1
599.693	24241.6
604.365	5163.35
609.035	2383.61
613.701	1252.79
618.366	731.679
623.027	542.258
627.686	374.757
632.342	171.926
636.996	196.778
641.647	105.122
646.296	362.077
650.942	9.86133
655.585	145.578
660.226	31.7793
664.864	67.0264
669.499	31.2109
674.132	23.4473
678.763	34.3252
683.39	57.4922
688.015	108.696
692.638	74.4912
697.258	6.52051
701.875	181.725
706.49	130.352
711.102	403.421
715.712	380.959
720.319	770.972
724.923	992.459
729.525	1468.42
734.124	1927.87
738.721	1813.8
743.315	1480.22
747.907	979.111
752.496	559.477
757.082	377.327
761.666	175.636
766.247	159.498
770.826	112.714
775.402	150.26
779.975	114.368
784.546	125.774
789.115	23.1943
793.681	35.3565
798.244	22.5605
802.804	34.085
807.363	71.7734
811.918	58.1377
816.471	57.9219
821.022	0.143555
825.569	217.249
830.115	317.251
834.657	625.701
839.198	1105.22
843.735	1393.88
848.27	1161.64
852.803	1099.31
857.333	1101.92
861.86	1242.47
866.385	1530.99
870.907	2299.49
875.427	3764
879.944	5331.53
884.459	5204.1
888.971	3638.82
893.481	2595.64
897.988	2028.56
902.492	2135.34
906.994	1732.15
911.493	1551.3
915.99	1270.1
920.485	1398.48
924.976	1103.94
929.466	1071.49
933.952	1010.69
938.436	1227.06
942.918	1160.02
947.397	1483.34
951.874	1553.98
956.348	1499.19
960.819	1289.32
965.288	886.418
969.755	571.215
974.219	568.644
978.68	380.493
983.139	328.908
987.595	352.543
992.049	335.792
996.501	431.099
1000.95	377.795
1005.4	337.435
1009.84	564.686
1014.28	438.203
1018.72	691.17
1023.16	409.875
1027.59	280.754
1032.02	215.107
1036.45	476.08
1040.88	282.473
1045.3	376.557
1049.72	246.359
1054.14	338.447
1058.56	271.08
1062.97	271.805
1067.38	269.816
1071.79	141.682
1076.19	372.691
1080.6	426.285
1085	311.256
1089.4	141.531
1093.79	256.988
1098.19	202.004
1102.58	330.83
1106.97	164.379
1111.35	202.658
1115.74	362.877
1120.12	847.584
1124.5	640.857
1128.87	283.658
1133.25	45.1582
1137.62	104.75
1141.99	164.438
1146.35	154.385
1150.72	158.775
1155.08	67.1231
1159.44	21.8164
1163.79	106.951
1168.15	6.69727
1172.5	103.43
1176.85	58.125
1181.19	89.2148
1185.54	149.006
1189.88	9.2207
1194.22	149.609
1198.55	106.316
1202.89	87.8359
1207.22	117.119
1211.55	186.443
1215.88	6.93945
1220.2	59.668
1224.52	106.219
1228.84	132.566
1233.16	80.6894
1237.47	148.473
1241.78	93.1016
1246.09	15.5176
1250.4	63.998
1254.7	38.2207
1259.01	197.764
1263.31	319.135
1267.6	205.303
1271.9	141.106
1276.19	132.856
1280.48	126.623
1284.77	220.404
1289.05	25.4785
1293.33	273.227
1297.61	347.553
1301.89	347.754
1306.16	455.562
1310.44	356.094
1314.71	544.762
1318.97	505.463
1323.24	339.299
1327.5	300.475
1331.76	387.568
1336.02	443.672
1340.28	396.461
1344.53	553.703
1348.78	377.213
1353.03	237.449
1357.27	214.984
1361.52	338.695
1365.76	232.072
1370	117.086
1374.23	301.295
1378.47	297.826
1382.7	193.035
1386.93	163.031
1391.15	203.035
1395.38	282.799
1399.6	302.09
1403.82	203.324
1408.03	173.889
1412.25	30.0879
1416.46	283.762
1420.67	175.441
1424.88	347.893
1429.08	203.131
1433.28	265.465
1437.48	303.816
1441.68	154.185
1445.87	196.295
1450.07	134.998
1454.26	181.904
1458.44	109.906
1462.63	371.871
1466.81	25.0176
1470.99	133.367
1475.17	279.992
1479.34	39.4414
1483.52	149.141
1487.69	231.92
1491.86	60.9824
1496.02	8.53125
1500.19	193.432
1504.35	216.225
1508.51	111.359
1512.66	261.277
1516.82	369.312
1520.97	62.9922
1525.12	123.238
1529.26	174.703
1533.41	327.791
1537.55	63.8711
1541.69	167.941
1545.83	258.043
1549.96	51.9043
1554.09	247.852
1558.22	247.678
1562.35	0
