Measurement: Raman, 514 nm, ccw, Raman Data Processed
Mineral: Chloritoid
Rruff sample: R060292
Ideal chemistry: Fe^2+^Al_2_OSiO_4_(OH)_2_
Locality: Pech, Kunar Province, Afghanistan
Source: Herb Obodda
Description: Black tabular crystal
Measured chemistry: (Fe^2+^_1.55_Mg_0.43_Mn_0.02_)_Σ=2_(Al_3.93_Fe^3+^_0.07_)_Σ=4_Si_2.00_O_10_(OH)_4_
Pin_id: M00313
Orientation: Laser parallel to (1 0 1). Fiducial mark perpendicular to laser is parallel to b [0 1 0]
Raman shift (cm-1)	intensity
51.431	0
56.387	11.0323
61.341	16.4868
66.292	91.2006
71.241	34.681
76.187	130.016
81.131	439.45
86.072	341.85
91.012	595.428
95.948	543.51
100.883	543.776
105.815	1266.47
110.744	1152.67
115.671	895.79
120.596	631.179
125.519	448.693
130.439	464.697
135.356	476.496
140.271	405.032
145.184	373.104
150.094	409.782
155.002	316.787
159.908	407.251
164.811	526.522
169.711	504.494
174.61	446.342
179.505	421.87
184.399	377.825
189.29	406.18
194.178	506.931
199.064	696.617
203.948	274.765
208.829	283.145
213.708	261.49
218.585	242.019
223.459	209.4
228.33	113.958
233.199	173.448
238.066	229.549
242.93	393.232
247.792	912.358
252.651	819.206
257.508	670.966
262.363	568.106
267.215	670.743
272.064	1140.71
276.912	2462.01
281.756	2702.62
286.598	973.546
291.438	393.754
296.276	265.269
301.111	206.077
305.943	233.077
310.773	136.327
315.601	158.822
320.426	344.556
325.248	919.518
330.068	2139.7
334.886	974.102
339.701	408.712
344.514	787.534
349.324	51.654
354.132	2.03223
358.938	83.4617
363.741	25.0565
368.541	6.86157
373.339	81.1929
378.135	42.4515
382.928	157.299
387.718	246.291
392.506	556.519
397.292	729.098
402.075	316.018
406.856	210.4
411.634	344.315
416.41	243.578
421.183	196.059
425.954	277.734
430.722	60.5912
435.488	23.3756
440.251	3.71875
445.012	9.83166
449.77	80.0721
454.526	194.465
459.28	190.886
464.03	365.687
468.779	525.505
473.525	785.452
478.268	895.525
483.009	838.717
487.747	1275.02
492.483	2792.43
497.217	5855.06
501.948	3541.81
506.676	2433.19
511.402	1423.54
516.125	793.631
520.846	794.231
525.565	1190.02
530.281	1185.78
534.994	687.953
539.705	760.629
544.413	1656.85
549.119	4997.08
553.822	4743.83
558.523	1360.07
563.222	656.34
567.917	569.277
572.611	716.179
577.302	1217.76
581.99	3312.76
586.676	9725.53
591.359	46057.2
596.04	32762.9
600.718	6805.53
605.394	2763.07
610.067	1496.54
614.737	847.933
619.406	523.248
624.071	292.478
628.734	160.619
633.395	141.667
638.053	81.7853
642.708	13.2008
647.361	29.0715
652.012	39.8152
656.66	11.7462
661.305	51.7186
665.948	279.368
670.588	151.559
675.226	25.9458
679.861	3.85046
684.494	35.7056
689.124	46.9811
693.752	50.9629
698.377	76.5668
702.999	103.971
707.619	246.208
712.237	454.287
716.852	736.215
721.464	1251.05
726.074	2173.8
730.681	3176.41
735.286	3152.87
739.888	2659.18
744.488	1823.36
749.085	1093.39
753.68	597.295
758.272	329.068
762.861	246.719
767.448	153.249
772.033	70.6638
776.614	34.9669
781.194	8.52624
785.77	51.0286
790.345	46.2306
794.916	34.0022
799.485	10.6562
804.052	15.8543
808.616	33.2648
813.177	42.6221
817.736	114.247
822.292	254.752
826.846	341.06
831.397	603.387
835.945	942.329
840.491	1304.19
845.035	1396.74
849.576	1316.62
854.114	1396.72
858.65	1622.31
863.183	2121.99
867.713	3189.77
872.241	5224.64
876.767	8600.62
881.29	9504.72
885.81	6438.94
890.328	3576.29
894.843	2284.01
899.356	1762.66
903.866	1603.49
908.373	1434.6
912.878	1140.67
917.38	1055.65
921.88	920.773
926.377	731.13
930.872	736.272
935.364	856.704
939.853	871.302
944.34	973.724
948.824	1250.08
953.306	1356.95
957.785	1291.34
962.261	1032.3
966.735	889.857
971.207	727.768
975.675	459.974
980.141	250.465
984.605	181.252
989.066	99.3362
993.524	81.7202
997.98	68.4304
1002.43	67.4346
1006.88	32.7353
1011.33	68.3435
1015.78	30.248
1020.22	92.4546
1024.66	12.043
1029.1	93.7407
1033.53	101.533
1037.97	14.1084
1042.4	69.6846
1046.82	47.2217
1051.25	61.1162
1055.67	86.7441
1060.09	44.4001
1064.51	74.2046
1068.92	47.4502
1073.33	33.5322
1077.74	79.3385
1082.15	126.904
1086.55	162.497
1090.95	200.708
1095.35	129.207
1099.75	89.5626
1104.14	102.25
1108.53	44.0964
1112.92	51.3163
1117.31	75.2267
1121.69	85.444
1126.07	101.187
1130.45	1.84241
1134.82	55.5221
1139.19	43.3955
1143.57	20.9268
1147.93	33.2888
1152.3	7.28137
1156.66	70.3214
1161.02	20.6793
1165.38	10.329
1169.73	13.8302
1174.08	0.605957
1178.43	25.9401
1182.78	13.3788
1187.12	2.03088
1191.46	0.74292
1195.8	3.06555
1200.14	31.9607
1204.47	36.8837
1208.8	16.9834
1213.13	2.10852
1217.46	9.52673
1221.78	19.5552
1226.1	44.817
1230.42	25.9055
1234.73	50.8845
1239.04	21.7937
1243.35	19.1134
1247.66	66.8378
1251.97	32.4912
1256.27	1.02588
1260.57	68.2903
1264.86	20.0336
1269.16	34.6299
1273.45	89.9219
1277.74	16.4973
1282.03	66.1931
1286.31	55.8265
1290.59	45.3091
1294.87	63.9821
1299.14	9.82629
1303.42	16.9769
1307.69	64.2905
1311.95	1.56714
1316.22	43.1885
1320.48	59.082
1324.74	53.9957
1329	51.0464
1333.26	31.6522
1337.51	33.2008
1341.76	96.2086
1346	26.6314
1350.25	51.9723
1354.49	64.02
1358.73	69.2788
1362.96	65.5056
1367.2	15.3972
1371.43	60.2389
1375.66	42.9639
1379.88	79.5896
1384.11	78.6368
1388.33	55.436
1392.54	52.3633
1396.76	3.79627
1400.97	61.6517
1405.18	74.6812
1409.39	70.2621
1413.59	52.0631
1417.8	48.4619
1421.99	80.5864
1426.19	74.6494
1430.38	69.8279
1434.58	44.5114
1438.77	88.5476
1442.95	100.478
1447.13	72.91
1451.32	34.9562
1455.49	47.0601
1459.67	20.2205
1463.84	63.2377
1468.01	60.854
1472.18	33.7288
1476.35	58.0482
1480.51	80.3419
1484.67	109.264
1488.83	85.3087
1492.98	67.3063
1497.13	41.1465
1501.28	45.1694
1505.43	22.4474
1509.57	2.25147
1513.71	103.928
1517.85	25.1454
1521.99	30.712
1526.12	42.0752
1530.25	71.7194
1534.38	11.5347
1538.5	26.5742
1542.62	66.0781
1546.74	0.269409
1550.86	150.439
1554.98	37.7908
1559.09	9.79028
1563.2	49.7247
1567.31	16.0647
