Measurement: Raman, 514 nm, ccw, Raman Data Processed
Mineral: Chloritoid
Rruff sample: R050334
Ideal chemistry: Fe^2+^Al_2_OSiO_4_(OH)_2_
Locality: Selçuk, Mugla Province, Turkey
Source: George Rossman
Description: Dark greenish-black foliated cleavage fragments
Measured chemistry: (Fe^2+^_1.84_Mg_0.12_Mn_0.04_)_Σ=2_(Al_3.95_Fe^3+^_0.05_)_Σ=4_Si_2.00_O_10_(OH)_4_ ; H not measured but estimated by difference and stoichiometry
Pin_id: M01491
Orientation: Laser parallel to (1 0 1). Fiducial mark perpendicular to laser is parallel to b [0 1 0]
Raman shift (cm-1)	intensity
168.389	0
173.3	4.83252
178.209	212.173
183.115	100.19
188.018	360.993
192.918	654.995
197.816	977.471
202.711	1338.2
207.604	560.124
212.494	610.905
217.381	366.477
222.265	260.053
227.147	67.7837
232.026	84.7983
236.902	11.1987
241.775	89.9853
246.646	952.217
251.514	2147.66
256.38	2997.9
261.243	4523.14
266.103	1845.62
270.96	1065.29
275.815	1980.93
280.667	4672.52
285.516	6040.81
290.363	3600.76
295.207	1314.17
300.048	844.618
304.887	895.079
309.723	611.23
314.556	397.259
319.387	75.0688
324.215	30.248
329.04	215.375
333.862	1034.76
338.682	702.125
343.5	43.1616
348.314	130.964
353.126	114.873
357.935	136.208
362.742	470.535
367.546	1191.85
372.347	919.854
377.145	691.901
381.941	716.409
386.735	1939.19
391.525	2392.27
396.313	991.693
401.098	571.84
405.881	820.773
410.661	1309.07
415.438	2472.39
420.213	1827.57
424.985	877.426
429.754	635.883
434.521	431.75
439.285	364.93
444.046	500.408
448.805	697.29
453.561	1294.19
458.315	1246.44
463.065	1099.62
467.813	1218.42
472.559	1617.41
477.302	2199.93
482.042	2135.53
486.78	2032.32
491.515	2828.34
496.247	5174.75
500.977	8409.16
505.704	5458.88
510.428	5930.57
515.15	5490.26
519.869	2485.66
524.586	1534.06
529.3	1623.84
534.011	1595.81
538.719	1404.9
543.425	1719.66
548.129	3732.76
552.83	9313.78
557.528	6536.06
562.223	1854.49
566.916	950.189
571.607	649.25
576.294	920.373
580.979	1403.26
585.662	3697.9
590.341	12361.3
595.019	53130.4
599.693	24707.2
604.365	5115.76
609.035	2168
613.701	1174.78
618.366	632.592
623.027	503.197
627.686	328.315
632.342	295.903
636.996	159.75
641.647	104.039
646.296	93.5249
650.942	55.8057
655.585	21.5249
660.226	97.6187
664.864	259.221
669.499	323.39
674.132	70.1489
678.763	139.875
683.39	44.3848
688.015	117.509
692.638	35.5723
697.258	8.68701
701.875	17.3774
706.49	28.4477
711.102	120.632
715.712	330.248
720.319	688.487
724.923	1224.36
729.525	1838.88
734.124	2589.04
738.721	2409.88
743.315	1764.39
747.907	1141.58
752.496	704.477
757.082	359.085
761.666	261.43
766.247	107.5
770.826	14.5034
775.402	129.258
779.975	25.3477
784.546	216.196
789.115	190.887
793.681	252.098
798.244	372.277
802.804	418.133
807.363	391.668
811.918	441.727
816.471	330.99
821.022	551.523
825.569	899.194
830.115	1518.77
834.657	2530.79
839.198	3861.36
843.735	4260.66
848.27	3552.09
852.803	2830.63
857.333	2310.46
861.86	2160.6
866.385	2762.07
870.907	4006.88
875.427	6356.05
879.944	8608.59
884.459	7725.54
888.971	4974.9
893.481	3495.89
897.988	3186.16
902.492	3862.93
906.994	4317.1
911.493	3099.56
915.99	2003.23
920.485	1094.08
924.976	719.595
929.466	603.875
933.952	485.927
938.436	557.682
942.918	445.172
947.397	769.371
951.874	885.534
956.348	998.802
960.819	1127.33
965.288	1066.23
969.755	885.341
974.219	861.409
978.68	840.32
983.139	548.993
987.595	380.213
992.049	270.97
996.501	533.262
1000.95	733.619
1005.4	255.415
1009.84	181.881
1014.28	195.217
1018.72	371.209
1023.16	46.731
1027.59	59.707
1032.02	84.8833
1036.45	103.576
1040.88	69.647
1045.3	11.3472
1049.72	45.4673
1054.14	56.9228
1058.56	177.825
1062.97	141.28
1067.38	214.283
1071.79	203.826
1076.19	253.667
1080.6	255.41
1085	281.712
1089.4	451.592
1093.79	535.479
1098.19	442.298
1102.58	258.832
1106.97	196.725
1111.35	243.162
1115.74	231.844
1120.12	417.904
1124.5	261.631
1128.87	137.497
1133.25	63.8589
1137.62	86.5195
1141.99	52.2651
1146.35	41.8272
1150.72	28.8076
1155.08	54.6435
1159.44	64.9883
1163.79	117.105
1168.15	22.6104
1172.5	83.0576
1176.85	33.8955
1181.19	0.82959
1185.54	83.1846
1189.88	72.0342
1194.22	22.6167
1198.55	20.7295
1202.89	11.3633
1207.22	63.5947
1211.55	157.83
1215.88	65.8804
1220.2	30.3608
1224.52	10.9858
1228.84	75.9414
1233.16	113.563
1237.47	129.922
1241.78	134.964
1246.09	134.69
1250.4	117.171
1254.7	86.3691
1259.01	87.2896
1263.31	152.932
1267.6	128.278
1271.9	197.742
1276.19	198.568
1280.48	183.74
1284.77	84.063
1289.05	103.916
1293.33	233.779
1297.61	228.294
1301.89	196.748
1306.16	251.947
1310.44	390.435
1314.71	360.197
1318.97	261.028
1323.24	357.92
1327.5	371.408
1331.76	393.514
1336.02	224.011
1340.28	377.841
1344.53	256.735
1348.78	289.001
1353.03	284.436
1357.27	164.7
1361.52	162.956
1365.76	295.104
1370	323.801
1374.23	275.69
1378.47	150.701
1382.7	224.238
1386.93	132.799
1391.15	147.093
1395.38	126.002
1399.6	226.371
1403.82	260.517
1408.03	124.79
1412.25	200.726
1416.46	202.264
1420.67	62.144
1424.88	40.0547
1429.08	183.655
1433.28	152.882
1437.48	7.36231
1441.68	173.739
1445.87	216.833
1450.07	273.564
1454.26	24.9766
1458.44	284.054
1462.63	101.298
1466.81	167.22
1470.99	169.323
1475.17	8.7456
1479.34	4.67578
1483.52	216.172
1487.69	273.488
1491.86	202.912
1496.02	11.2661
1500.19	138.283
1504.35	0.678711
1508.51	34.7998
1512.66	10.3657
1516.82	180.656
1520.97	244.501
1525.12	44.1045
1529.26	197.918
1533.41	9.59619
1537.55	166.4
1541.69	13.6445
1545.83	25.5732
1549.96	66.0938
1554.09	93.104
1558.22	119.876
1562.35	0
