Measurement: Raman, 514 nm, ccw, Raman Data Processed
Mineral: Chloritoid
Rruff sample: R060292
Ideal chemistry: Fe^2+^Al_2_OSiO_4_(OH)_2_
Locality: Pech, Kunar Province, Afghanistan
Source: Herb Obodda
Description: Black tabular crystal
Measured chemistry: (Fe^2+^_1.55_Mg_0.43_Mn_0.02_)_Σ=2_(Al_3.93_Fe^3+^_0.07_)_Σ=4_Si_2.00_O_10_(OH)_4_
Pin_id: M00166
Orientation: Laser parallel to a* (1 0 0). Fiducial mark perpendicular to laser is parallel to b [0 1 0]
Raman shift (cm-1)	intensity
51.431	0
56.387	96.1143
61.341	26.2383
66.292	315.775
71.241	409.459
76.187	201.2
81.131	766.503
86.072	709.051
91.012	1137.28
95.948	968.222
100.883	1147.18
105.815	2526.28
110.744	1514.21
115.671	1184.34
120.596	868.249
125.519	737.403
130.439	677.814
135.356	789.65
140.271	618.11
145.184	616.612
150.094	784.651
155.002	573.291
159.908	692.572
164.811	938.761
169.711	845.129
174.61	813.41
179.505	829.352
184.399	959.945
189.29	1088.18
194.178	1209.04
199.064	1569.84
203.948	757.403
208.829	556.525
213.708	512.748
218.585	463.94
223.459	363.447
228.33	366.95
233.199	383.401
238.066	428.589
242.93	572.553
247.792	554.219
252.651	538.529
257.508	751.635
262.363	733.913
267.215	1279.93
272.064	3263.46
276.912	4161.48
281.756	2949.98
286.598	1690.9
291.438	718.248
296.276	427.998
301.111	367.15
305.943	279.695
310.773	289.626
315.601	348.934
320.426	824.609
325.248	1427.64
330.068	1039.03
334.886	450.76
339.701	208.822
344.514	6.22278
349.324	72.058
354.132	121.446
358.938	99.0674
363.741	21.2583
368.541	99.2249
373.339	14.3103
378.135	166.025
382.928	274.207
387.718	185.789
392.506	194.828
397.292	328.369
402.075	1039.55
406.856	2429.49
411.634	2495.13
416.41	1410.37
421.183	761.123
425.954	328.208
430.722	156.575
435.488	53.2126
440.251	124.113
445.012	214.267
449.77	303.666
454.526	319.301
459.28	501.165
464.03	762.249
468.779	1028.55
473.525	1148.04
478.268	912.737
483.009	1017.62
487.747	1738.68
492.483	2915.99
497.217	2810.94
501.948	2367.35
506.676	2001.68
511.402	1511.89
516.125	1300.88
520.846	1604.55
525.565	1718.37
530.281	1096.61
534.994	786.395
539.705	857.712
544.413	2166.89
549.119	2645.2
553.822	1458.5
558.523	796.242
563.222	634.372
567.917	827.701
572.611	1504.83
577.302	3049.91
581.99	10335
586.676	54438.9
591.359	61397.8
596.04	27041.7
600.718	8655.47
605.394	3097.16
610.067	1589.75
614.737	968.254
619.406	576.652
624.071	426.944
628.734	316.168
633.395	185.413
638.053	94.8201
642.708	104.9
647.361	5.96338
652.012	37.7457
656.66	15.4412
661.305	8.90234
665.948	81.3694
670.588	6.3905
675.226	11.9689
679.861	78.866
684.494	59.6495
689.124	36.458
693.752	64.1429
698.377	38.4015
702.999	67.4587
707.619	163.296
712.237	351.964
716.852	723.466
721.464	1301.81
726.074	1930.99
730.681	2308.01
735.286	2009.88
739.888	1487.61
744.488	953.188
749.085	527.627
753.68	276.94
758.272	190.139
762.861	122.289
767.448	115.362
772.033	20.3467
776.614	26.1794
781.194	28.8452
785.77	37.6145
790.345	53.3577
794.916	2.25903
799.485	84.939
804.052	100.695
808.616	203.207
813.177	217.159
817.736	331.55
822.292	484.572
826.846	868.82
831.397	1313.97
835.945	1917.67
840.491	2250.13
845.035	2239.2
849.576	2070.5
854.114	2015.9
858.65	2344.4
863.183	3196.02
867.713	4958.75
872.241	7880.61
876.767	9976.6
881.29	8763.74
885.81	6186.02
890.328	4137.53
894.843	3424.11
899.356	3557.47
903.866	3629.46
908.373	3008.82
912.878	2242.2
917.38	1679.19
921.88	1417.11
926.377	1092.66
930.872	1079.09
935.364	1190.42
939.853	1325.13
944.34	1464.08
948.824	1590.48
953.306	1736.34
957.785	1552.89
962.261	1434.12
966.735	1219.94
971.207	900.273
975.675	691.961
980.141	450.886
984.605	320.022
989.066	297.374
993.524	274.962
997.98	101.763
1002.43	201.768
1006.88	140.974
1011.33	21.3919
1015.78	6.01074
1020.22	11.1565
1024.66	17.8357
1029.1	62.9631
1033.53	42.8052
1037.97	23.4397
1042.4	54.8225
1046.82	26.4502
1051.25	53.7864
1055.67	24.981
1060.09	12.3164
1064.51	43.6404
1068.92	62.6587
1073.33	115.816
1077.74	118.717
1082.15	268.482
1086.55	410.002
1090.95	482.318
1095.35	430.077
1099.75	303.118
1104.14	316.173
1108.53	169.27
1112.92	236.309
1117.31	185.408
1121.69	210.934
1126.07	134.705
1130.45	178.807
1134.82	125.867
1139.19	121.919
1143.57	56.9773
1147.93	74.2275
1152.3	134.012
1156.66	66.1365
1161.02	107.898
1165.38	69.1438
1169.73	58.218
1174.08	89.2192
1178.43	17.3084
1182.78	20.1316
1187.12	89.3752
1191.46	11.0459
1195.8	8.93433
1200.14	24.2944
1204.47	24.2494
1208.8	22.675
1213.13	5.97339
1217.46	14.4382
1221.78	12.6633
1226.1	29.7289
1230.42	15.6479
1234.73	27.4038
1239.04	67.0219
1243.35	42.5481
1247.66	33.0607
1251.97	13.4065
1256.27	68.6086
1260.57	65.7073
1264.86	62.7095
1269.16	0.384033
1273.45	45.3927
1277.74	58.1128
1282.03	75.6578
1286.31	77.1233
1290.59	53.46
1294.87	136.831
1299.14	82.1462
1303.42	19.4064
1307.69	121.54
1311.95	116.552
1316.22	116.512
1320.48	98.7651
1324.74	107.383
1329	98.4745
1333.26	119.083
1337.51	105.224
1341.76	108.2
1346	59.0282
1350.25	77.9576
1354.49	60.9408
1358.73	93.7716
1362.96	77.037
1367.2	53.1544
1371.43	35.8734
1375.66	101.946
1379.88	96.2629
1384.11	61.8706
1388.33	52.7881
1392.54	110.712
1396.76	89.8209
1400.97	74.821
1405.18	77.5543
1409.39	102.445
1413.59	94.028
1417.8	86.6655
1421.99	107.07
1426.19	53.5443
1430.38	95.9636
1434.58	79.8235
1438.77	41.2118
1442.95	68.4714
1447.13	40.3538
1451.32	18.6039
1455.49	63.006
1459.67	47.6825
1463.84	85.5587
1468.01	43.5375
1472.18	30.5555
1476.35	22.4314
1480.51	43.421
1484.67	48.4078
1488.83	22.3634
1492.98	40.4407
1497.13	48.5542
1501.28	23.5345
1505.43	36.8506
1509.57	101.302
1513.71	42.8068
1517.85	28.4539
1521.99	24.3142
1526.12	25.6694
1530.25	50.619
1534.38	43.4423
1538.5	23.3276
1542.62	52.106
1546.74	40.9066
1550.86	264.882
1554.98	77.709
1559.09	30.3259
1563.2	51.4089
1567.31	22.7223
