Measurement: Raman, 514 nm, ccw, Raman Data Processed
Mineral: Chloritoid
Rruff sample: R050334
Ideal chemistry: Fe^2+^Al_2_OSiO_4_(OH)_2_
Locality: Selçuk, Mugla Province, Turkey
Source: George Rossman
Description: Dark greenish-black foliated cleavage fragments
Measured chemistry: (Fe^2+^_1.84_Mg_0.12_Mn_0.04_)_Σ=2_(Al_3.95_Fe^3+^_0.05_)_Σ=4_Si_2.00_O_10_(OH)_4_ ; H not measured but estimated by difference and stoichiometry
Pin_id: M01684
Orientation: Laser parallel to c* (0 0 1). Fiducial mark perpendicular to laser is parallel to a [1 0 0]
Raman shift (cm-1)	intensity
147.485	0
152.408	358.659
157.328	114.757
162.246	259.566
167.16	298.948
172.073	412.179
176.982	373.2
181.888	288.706
186.792	520.886
191.694	819.628
196.592	934.139
201.488	1159.21
206.381	943.46
211.271	831.193
216.159	579.492
221.044	365.712
225.926	115.291
230.806	29.3633
235.683	89.1313
240.557	2.6792
245.429	101.089
250.298	224.082
255.164	191.642
260.027	508.493
264.888	246.541
269.746	432.473
274.601	1381.61
279.454	3585.88
284.304	3044.31
289.151	1074.95
293.996	341.856
298.838	259.603
303.677	277.192
308.514	288.317
313.348	217.175
318.179	92.2578
323.008	174.806
327.834	485.357
332.657	920.913
337.478	262.282
342.295	33.2148
347.111	78.855
351.923	152.239
356.733	88.1128
361.54	59.4121
366.345	47.1152
371.147	97.6128
375.946	157.692
380.743	281.039
385.537	262.014
390.328	533.069
395.116	605.799
399.902	723.566
404.686	1043.3
409.466	1821.38
414.244	2737.85
419.019	1670.81
423.792	1243.16
428.562	896.673
433.329	655.325
438.094	604.111
442.856	730.004
447.616	676.971
452.372	777.997
457.126	933.073
461.878	1095.66
466.627	1305.36
471.373	1398.57
476.116	1547.82
480.857	1557.11
485.596	1461.44
490.331	1985
495.064	3344.87
499.795	3533.29
504.522	2630.21
509.247	1931.87
513.97	1540.46
518.69	1350.38
523.407	1435.74
528.121	1971.13
532.833	2047.47
537.543	1116.92
542.249	991.109
546.953	1501.14
551.655	2500.34
556.354	1330.96
561.05	913.176
565.743	761.736
570.434	753.697
575.123	1046.75
579.808	1686.62
584.491	4349.44
589.172	17294.2
593.85	56065.9
598.525	16664.5
603.197	4585.1
607.868	1884.59
612.535	1059
617.2	522.332
621.862	467.576
626.522	332.732
631.178	230.755
635.833	187.11
640.485	76.1284
645.134	61.0928
649.78	59.4707
654.424	77.6919
659.066	129.413
663.704	46.5732
668.341	76.3003
672.974	58.8301
677.605	73.1797
682.234	84.8462
686.859	103.52
691.483	65.8638
696.103	66.8882
700.721	25.7593
705.337	137.816
709.949	70.2783
714.56	201.547
719.167	374.648
723.772	663.592
728.375	1096.38
732.975	1296.02
737.572	1247.48
742.167	955.843
746.759	511.043
751.349	233.106
755.936	121.039
760.52	103.848
765.102	5.55078
769.681	31.0527
774.258	39.2158
778.832	50.2427
783.404	102.068
787.973	53.1753
792.539	44.1953
797.103	66.874
801.665	103.379
806.223	66.4141
810.779	27.4707
815.333	52.4238
819.884	14.9014
824.433	308.135
828.979	346.81
833.522	744.699
838.063	807.72
842.601	1029.91
847.137	889.701
851.67	988.464
856.2	1122.47
860.729	1343.6
865.254	1795.85
869.777	2879.25
874.297	4609.8
878.815	6237.63
883.33	5833.93
887.843	3863.57
892.353	2568.89
896.861	1752.18
901.366	1439.36
905.869	1207.73
910.369	1085.91
914.866	1047.53
919.361	928.498
923.854	871.541
928.344	893.607
932.831	836.288
937.316	846.423
941.798	935.966
946.278	1022.08
950.755	1207.05
955.23	1198.77
959.702	996.153
964.171	862.319
968.638	807.167
973.103	564.701
977.565	451.656
982.025	409.92
986.482	395.558
990.936	500.187
995.388	432.482
999.837	293.749
1004.28	350.735
1008.73	235.38
1013.17	113.968
1017.61	8.30859
1022.05	8.75781
1026.48	94.875
1030.91	9.39355
1035.34	62.8711
1039.77	50.9326
1044.19	11.5957
1048.62	18.5312
1053.03	46.4307
1057.45	67.1807
1061.87	90.3789
1066.28	1.90234
1070.69	144.898
1075.09	97.4561
1079.5	139.712
1083.9	107.859
1088.3	296.044
1092.69	372.87
1097.09	502.466
1101.48	308.801
1105.87	254.645
1110.26	141.588
1114.64	196.611
1119.02	246.732
1123.4	125.069
1127.78	129.745
1132.15	132.324
1136.53	54.7744
1140.89	39.1602
1145.26	38.956
1149.63	168.379
1153.99	7.28027
1158.35	98.041
1162.7	43.5605
1167.06	39.1435
1171.41	70.4014
1175.76	49.5742
1180.11	18.8096
1184.45	23.9648
1188.79	105.973
1193.13	153.929
1197.47	61.2793
1201.81	75.376
1206.14	59.8633
1210.47	56.2295
1214.79	234.385
1219.12	117.558
1223.44	63.9941
1227.76	7.89062
1232.08	6.97949
1236.39	110.683
1240.7	85.3018
1245.02	197.799
1249.32	36.1074
1253.63	104.33
1257.93	32.3828
1262.23	131.344
1266.53	79.1426
1270.82	83.0986
1275.12	209.549
1279.41	203.737
1283.69	175.236
1287.98	40.583
1292.26	145.864
1296.54	188.829
1300.82	188.272
1305.1	180.385
1309.37	194.745
1313.64	227.755
1317.91	279.521
1322.17	217.162
1326.44	93.3311
1330.7	228.807
1334.96	326.425
1339.21	296.793
1343.47	115.269
1347.72	229.288
1351.97	182.731
1356.21	98.624
1360.46	206.3
1364.7	171.772
1368.94	53.2598
1373.17	207.781
1377.41	137.173
1381.64	190.27
1385.87	127.377
1390.1	190.78
1394.32	137.439
1398.54	278.274
1402.76	58.7295
1406.98	153.823
1411.19	187.035
1415.41	151.212
1419.62	202.75
1423.82	159.292
1428.03	171.628
1432.23	147.782
1436.43	51.3516
1440.63	114.326
1444.82	69.4463
1449.02	148.736
1453.21	136.205
1457.4	149.954
1461.58	104.561
1465.77	86.5049
1469.95	106.657
1474.12	83.0615
1478.3	73.6699
1482.47	67.5283
1486.64	90.584
1490.81	140.81
1494.98	59.1445
1499.14	193.72
1503.31	55.4678
1507.47	50.7656
1511.62	115.612
1515.78	210.905
1519.93	99.7705
1524.08	216.206
1528.23	202.303
1532.37	143.232
1536.51	249.701
1540.65	212.736
1544.79	7.84375
1548.93	191.735
1553.06	495.113
1557.19	148.881
1561.32	166.288
