Measurement: Raman, 514 nm, ccw, Raman Data Processed
Mineral: Chloritoid
Rruff sample: R050334
Ideal chemistry: Fe^2+^Al_2_OSiO_4_(OH)_2_
Locality: Selçuk, Mugla Province, Turkey
Source: George Rossman
Description: Dark greenish-black foliated cleavage fragments
Measured chemistry: (Fe^2+^_1.84_Mg_0.12_Mn_0.04_)_Σ=2_(Al_3.95_Fe^3+^_0.05_)_Σ=4_Si_2.00_O_10_(OH)_4_ ; H not measured but estimated by difference and stoichiometry
Pin_id: M00213
Orientation: Laser parallel to a* (1 0 0). Fiducial mark perpendicular to laser is parallel to -b [0 -1 0]
Raman shift (cm-1)	intensity
89.777	0
94.714	57.4565
99.649	2025.86
104.582	7723.43
109.512	5682.74
114.44	2958.1
119.365	1158.44
124.288	399.004
129.209	336.063
134.127	259.054
139.043	244.862
143.956	178.929
148.867	304.046
153.775	56.8674
158.681	98.5701
163.585	137.134
168.486	276.27
173.385	136.331
178.282	120.801
183.176	362.197
188.067	797.94
192.956	1591.11
197.843	2920
202.727	3328.73
207.609	3757.54
212.489	3668.51
217.366	2819.74
222.24	2189.63
227.112	1977.31
231.982	2381.57
236.849	4527.44
241.714	8938.17
246.577	10664.2
251.437	10640
256.294	6104.95
261.149	2466.68
266.002	1370.94
270.852	2248.74
275.7	3581.19
280.545	4464.83
285.388	4007.56
290.229	2141.18
295.067	1324.08
299.902	1224.1
304.735	1102.1
309.566	1140.56
314.394	1211.75
319.22	1468.58
324.043	2734.78
328.864	2946.65
333.682	2937.87
338.498	1518.23
343.311	371.768
348.122	56.5044
352.931	230.369
357.737	191.551
362.54	74.7925
367.341	98.7124
372.14	359.149
376.936	1358.5
381.73	1678.09
386.521	977.718
391.31	578.325
396.096	287.105
400.88	182.53
405.661	296.79
410.44	190.938
415.216	273.037
419.99	355.84
424.761	265.161
429.53	96.6699
434.297	29.363
439.061	148.249
443.822	537.312
448.581	783.096
453.337	729.474
458.091	816.967
462.843	1286.55
467.592	2153.21
472.338	2703.93
477.082	2965.68
481.824	3127.45
486.563	3990.23
491.3	5623
496.034	7506.35
500.765	10263.3
505.494	11522.7
510.221	9062.93
514.945	7929.35
519.666	10976.4
524.385	15225.9
529.102	16835.2
533.816	15468.2
538.527	18294.4
543.236	42109.8
547.943	52466.2
552.647	54184.4
557.348	21713
562.047	6902.11
566.744	3551.68
571.438	2696.83
576.129	3123.62
580.818	7060.04
585.504	33303.1
590.188	40552.7
594.87	35717.9
599.549	10807.7
604.225	3631.02
608.899	1957.9
613.57	1282.31
618.239	828.262
622.905	548.219
627.569	385.728
632.23	167.233
636.889	112.823
641.545	99.8272
646.198	93.4771
650.849	37.991
655.498	148.495
660.144	416.134
664.787	307.248
669.428	247.845
674.067	14.0671
678.703	105.124
683.336	158.073
687.967	84.2144
692.595	138.489
697.221	78.8943
701.844	57.1799
706.465	218.392
711.083	396.112
715.698	835.36
720.311	1511.15
724.922	2196.49
729.53	2543.41
734.135	2614.91
738.738	2270.01
743.338	1715.72
747.936	976.078
752.531	473.084
757.124	355.76
761.714	140.128
766.302	109.22
770.887	4.91699
775.469	129.041
780.049	37.4116
784.626	53.1699
789.201	56.3877
793.773	28.3135
798.343	202.589
802.91	159.202
807.475	308.292
812.037	348.366
816.596	614.246
821.153	1038.26
825.707	1433.24
830.259	2202.28
834.808	2982.27
839.355	3551.5
843.899	4099.47
848.441	4996.89
852.98	6216.69
857.516	8057.89
862.05	11353.5
866.581	17237.6
871.11	26319.2
875.636	32854.2
880.159	30257.8
884.68	20976.9
889.199	13531.6
893.714	10871.9
898.228	11430.8
902.738	10377.3
907.246	6976.24
911.752	4082.11
916.255	2288.55
920.755	1133.43
925.253	644.904
929.748	273.176
934.241	60.6401
938.731	0.0625
943.218	20.4062
947.703	0.607422
952.186	135.102
956.665	453.18
961.142	602.949
965.617	584.465
970.089	382.618
974.558	359.116
979.025	193.618
983.489	331.063
987.951	260.406
992.41	229.619
996.866	273.724
1001.32	231.649
1005.77	207.474
1010.22	179.189
1014.67	222.839
1019.11	162.432
1023.55	219.92
1027.99	145.284
1032.42	168.509
1036.86	277.673
1041.29	277.442
1045.72	409.275
1050.14	375.699
1054.56	470.368
1058.98	506.266
1063.4	707.68
1067.82	790.369
1072.23	973.335
1076.64	1290.26
1081.05	1720.96
1085.45	2438.67
1089.85	2770.82
1094.25	2130.23
1098.65	1298.27
1103.04	759.565
1107.43	456.893
1111.82	314.851
1116.21	316.987
1120.59	328.356
1124.97	248.085
1129.35	166.154
1133.73	140.305
1138.1	120.017
1142.47	49.0781
1146.84	99.9849
1151.21	90.3955
1155.57	16.3804
1159.93	25.3379
1164.29	77.4937
1168.64	70.8892
1172.99	36.9844
1177.34	10.8648
1181.69	27.4678
1186.04	17.9712
1190.38	53.6387
1194.72	37.7773
1199.05	125.491
1203.39	15.5874
1207.72	82.3774
1212.05	1.9126
1216.37	74.3306
1220.7	144.86
1225.02	17.3237
1229.34	30.8852
1233.65	36.3213
1237.97	14.1821
1242.28	48.7363
1246.59	67.2451
1250.89	117.514
1255.19	93.6977
1259.49	89.8711
1263.79	144.932
1268.09	32.2031
1272.38	73.0938
1276.67	63.3491
1280.95	54.544
1285.24	91.54
1289.52	87.2393
1293.8	12.5146
1298.08	63.1787
1302.35	105.895
1306.62	85.7588
1310.89	94.6963
1315.15	120.74
1319.42	84.9722
1323.68	126.561
1327.94	62.9736
1332.19	107.019
1336.44	84.8096
1340.69	101.509
1344.94	6.55908
1349.19	103.454
1353.43	122.961
1357.67	115.749
1361.9	112.152
1366.14	165.867
1370.37	124.576
1374.6	101.465
1378.83	58.1011
1383.05	145.402
1387.27	94.5693
1391.49	107.53
1395.7	75.7344
1399.92	176.967
1404.13	99.9097
1408.34	56.355
1412.54	106.081
1416.74	137.018
1420.94	148.325
1425.14	3.68066
1429.34	47.1294
1433.53	83.6377
1437.72	139.027
1441.9	80.2905
1446.09	105.532
1450.27	93.8462
1454.45	94.8428
1458.63	75.1894
1462.8	122.88
1466.97	157.82
1471.14	113.093
1475.31	134.406
1479.47	184.101
1483.63	103.467
1487.79	120.505
1491.94	87.1938
1496.09	111.206
1500.24	51.0093
1504.39	76.5186
1508.54	46.582
1512.68	59.7886
1516.82	81.9243
1520.95	2.86572
1525.09	45.291
1529.22	82.6919
1533.35	39.4219
1537.47	70.5132
1541.6	72.5147
1545.72	122.461
1549.83	273.766
1553.95	165.289
1558.06	142.888
1562.17	0.304688
1566.28	32.4028
1570.38	0
