Measurement: Raman, 514 nm, ccw, Raman Data Processed
Mineral: Chondrodite
Rruff sample: R040016
Ideal chemistry: Mg_5_(SiO_4_)_2_F_2_
Locality: Vastmanland, Kafveltorp, Sweden
Source: University of Arizona Mineral Museum
Description: Deep red single crystals embedded in matrix
Measured chemistry: (Mg_4.61_Fe_0.31_Mn_0.07_Ca_0.01_)_Σ=5_(Si_1.00_O_4_)_2_(F_1.16_(OH)_0.84_)_Σ=2_
Pin_id: M00425
Orientation: Laser parallel to [1 0 1]. Fiducial mark perpendicular to laser is parallel to -b* (0 -1 0)
Raman shift (cm-1)	intensity
227.953	0
232.062	64.766
236.169	111.936
240.274	10.919
244.377	10.556
248.478	128.049
252.576	236.862
256.673	174.566
260.768	204.14
264.861	264.613
268.952	320.936
273.041	146.408
277.128	568.207
281.213	851.454
285.296	425.667
289.378	192.834
293.457	265.941
297.534	339.028
301.609	244.349
305.682	45.67
309.754	45.304
313.823	29.099
317.89	11.452
321.956	35.271
326.019	135.932
330.081	250.066
334.14	181.131
338.198	147.127
342.254	183.044
346.307	152.875
350.359	123.626
354.409	192.297
358.457	281.889
362.503	357.897
366.547	111.634
370.589	6.894
374.629	8.694
378.667	40.076
382.703	20.187
386.738	195.218
390.77	312.132
394.8	237.699
398.829	134.94
402.855	45.592
406.88	182.086
410.903	328.558
414.923	288.993
418.942	270.385
422.959	188.739
426.974	179.052
430.987	184.323
434.999	171.547
439.008	217.717
443.015	96.83
447.021	115.877
451.024	89.631
455.026	150.231
459.025	252.013
463.023	257.768
467.019	380.282
471.013	479.889
475.005	580.422
478.995	422.879
482.983	173.262
486.97	49.569
490.954	2.799
494.937	20.617
498.917	45.98
502.896	84.996
506.873	56.105
510.848	90.319
514.821	47.654
518.792	151.18
522.761	132.804
526.729	71.974
530.694	68.989
534.658	71.841
538.62	112.06
542.58	26.875
546.538	140.61
550.494	219.555
554.448	155.217
558.4	109.884
562.351	260.912
566.299	397.41
570.246	476.87
574.191	901.815
578.134	1574.14
582.075	2072.3
586.014	1842.98
589.952	1353.55
593.887	1247.02
597.821	1619.39
601.752	2471.66
605.682	3296.82
609.61	3641.89
613.537	2808.85
617.461	1900.71
621.383	1300.47
625.304	841.122
629.223	742.677
633.14	447.039
637.055	380.022
640.968	216.92
644.879	117.168
648.789	75.208
652.697	142.252
656.602	142.71
660.506	158.009
664.409	74.126
668.309	142.691
672.207	110.622
676.104	32.662
679.999	89.673
683.892	132.9
687.783	196.967
691.672	142.175
695.56	180.526
699.445	86.021
703.329	86.646
707.211	142.388
711.091	56.244
714.969	12.199
718.846	15.754
722.72	34.628
726.593	92.869
730.464	79.173
734.333	220.852
738.201	264.47
742.066	217.031
745.93	207.536
749.792	312.985
753.652	438.383
757.511	453.731
761.367	525.03
765.222	483.283
769.075	565.491
772.926	622.658
776.775	604.788
780.622	854.884
784.468	835.955
788.312	906.005
792.154	956.036
795.994	1080.06
799.833	1199.07
803.669	1288.4
807.504	1371.52
811.337	1632.83
815.168	1980.07
818.998	2410.92
822.826	3017.31
826.652	3903.19
830.476	5718.07
834.298	8972.69
838.119	15377.8
841.937	30023.1
845.754	51188.5
849.569	49894.5
853.383	29400.7
857.195	16867.4
861.004	11394
864.812	8691.08
868.619	8558.14
872.423	8235.21
876.226	6202.32
880.027	4379.45
883.826	3020.61
887.624	2241.82
891.419	1741.05
895.213	1495.31
899.005	1421.6
902.796	1432.91
906.584	1327.26
910.371	1167.64
914.156	1178.07
917.94	1332.52
921.721	1660.01
925.501	2261.54
929.279	4035.17
933.055	6232.77
936.83	5310.42
940.603	5818.12
944.374	5445.85
948.143	3413.65
951.91	2495.51
955.676	2251.42
959.44	2409.39
963.203	3625.51
966.963	6813.61
970.722	9751.77
974.479	6369.99
978.234	3228.28
981.988	1897.61
985.74	1272.01
989.49	906.586
993.238	823.051
996.985	636.946
1000.73	736.473
1004.47	1020.05
1008.21	462.391
1011.95	398.863
1015.69	374.292
1019.43	403.067
1023.16	509.234
1026.9	468.196
1030.63	312.068
1034.36	211.931
1038.08	234.306
1041.81	295.665
1045.53	371.022
1049.26	340.253
1052.98	183.417
1056.7	94.903
1060.41	2.006
1064.13	152.802
1067.84	310.5
1071.56	227.817
1075.27	274.96
1078.97	180.297
1082.68	181.864
1086.39	223.157
1090.09	163.087
1093.79	329.028
1097.49	456.107
1101.19	300.136
1104.89	87.058
1108.58	37.976
1112.28	94.875
1115.97	112.752
1119.66	130.603
1123.35	265.425
1127.03	201.207
1130.72	27.997
1134.4	1.782
1138.08	107.55
1141.76	105.929
1145.44	135.635
1149.12	129.144
1152.79	251.574
1156.47	16.932
1160.14	29.409
1163.81	24.079
1167.47	37.861
1171.14	40.419
1174.81	152.124
1178.47	188.147
1182.13	138.221
1185.79	86.76
1189.45	2.531
1193.11	197.598
1196.76	87.424
1200.41	38.643
1204.06	144.731
1207.71	125.507
1211.36	197.157
1215.01	228.164
1218.65	129.604
1222.3	0.681
1225.94	29.594
1229.58	40.738
1233.21	227.634
1236.85	449.809
1240.48	403.726
1244.12	369.241
1247.75	226.763
1251.38	164.58
1255.01	115.279
1258.63	46.021
1262.26	173.033
1265.88	427.12
1269.5	493.412
1273.12	549.894
1276.74	372.39
1280.36	229.042
1283.97	0.971
1287.59	75.982
1291.2	16.038
1294.81	32.857
1298.42	204.292
1302.02	327.422
1305.63	58.193
1309.23	2.327
1312.83	28.176
1316.43	60.236
1320.03	77.831
1323.63	60.521
1327.22	20.638
1330.82	108.11
1334.41	128.642
1338	53.185
1341.59	91.361
1345.17	2.133
1348.76	154.005
1352.34	216.959
1355.93	254.219
1359.51	203.498
1363.09	80.05
1366.66	176.328
1370.24	319.322
1373.81	320.623
1377.39	133.885
1380.96	142.642
1384.53	43.985
1388.09	170.215
1391.66	129.458
1395.22	92.682
1398.79	59.009
1402.35	171.575
1405.91	243.497
1409.46	335.691
1413.02	334.58
1416.58	143.729
1420.13	94.927
1423.68	14.527
1427.23	76.134
1430.78	109.562
1434.33	118.693
1437.87	185.968
1441.41	622.507
1444.96	939.104
1448.5	1216.12
1452.04	1355.78
1455.57	1202.48
1459.11	1078.54
1462.64	753.533
1466.17	609.052
1469.71	363.965
1473.23	389.521
1476.76	344.449
1480.29	560.729
1483.81	636.856
1487.34	652.529
1490.86	578.162
1494.38	513.789
1497.89	279.641
1501.41	175.45
1504.93	61.265
1508.44	22.518
1511.95	190.88
1515.46	249.017
