Measurement: Raman, 514 nm, ccw, Raman Data Processed
Mineral: Chondrodite
Rruff sample: R040016
Ideal chemistry: Mg_5_(SiO_4_)_2_F_2_
Locality: Vastmanland, Kafveltorp, Sweden
Source: University of Arizona Mineral Museum
Description: Deep red single crystals embedded in matrix
Measured chemistry: (Mg_4.61_Fe_0.31_Mn_0.07_Ca_0.01_)_Σ=5_(Si_1.00_O_4_)_2_(F_1.16_(OH)_0.84_)_Σ=2_
Pin_id: M00256
Orientation: Laser parallel to -b* (0 -1 0). Fiducial mark perpendicular to laser is parallel to c [0 0 1]
Raman shift (cm-1)	intensity
156.417	0
160.56	24.495
164.702	9.354
168.841	18.896
172.979	20.631
177.114	206.365
181.247	472.664
185.379	377.003
189.508	135.064
193.636	36.475
197.761	1.464
201.885	0.458
206.006	21.261
210.125	20.79
214.243	124.345
218.358	132.955
222.472	54.625
226.583	142.347
230.693	83.091
234.8	89.661
238.906	141.094
243.009	105.449
247.111	91.77
251.21	4.097
255.308	17.475
259.404	71.066
263.497	58.46
267.589	87.313
271.678	72.823
275.766	362.811
279.852	622.738
283.936	445.648
288.017	203.545
292.097	56.427
296.175	191.292
300.251	256.22
304.325	87.686
308.397	90.153
312.467	167.172
316.535	276.798
320.601	276.37
324.665	234.694
328.727	156.837
332.787	170.886
336.846	93.495
340.902	66.191
344.956	33.442
349.009	37.36
353.059	51.113
357.108	86.702
361.154	163.716
365.199	379.991
369.242	516.562
373.282	467.781
377.321	500.228
381.358	793.851
385.393	1168.95
389.426	1258.2
393.457	764.833
397.486	453.163
401.513	264.809
405.539	197.541
409.562	332.254
413.583	406.948
417.603	382.622
421.62	231.271
425.636	106.891
429.65	144.48
433.662	63.037
437.672	42.561
441.68	16.949
445.686	16.498
449.69	2.102
453.692	49.22
457.692	39.472
461.691	106.657
465.687	21.779
469.682	7.162
473.675	39.166
477.665	6.767
481.654	4.644
485.641	14.538
489.626	28.22
493.609	51.703
497.591	45.561
501.57	83.587
505.548	35.45
509.523	100.664
513.497	41.862
517.469	44.857
521.439	84.97
525.407	85.809
529.373	254.444
533.337	384.994
537.299	583.924
541.26	901.206
545.218	1519.32
549.175	2461.67
553.13	2116.62
557.083	1037.48
561.034	532.885
564.983	362.75
568.931	373.23
572.876	501.265
576.82	776.847
580.761	1184.36
584.701	1328.71
588.639	855.618
592.575	433.691
596.51	275.86
600.442	209.004
604.373	346.075
608.301	478.075
612.228	504.966
616.153	274.62
620.076	205.405
623.997	112.076
627.917	48.259
631.834	40.242
635.75	69.752
639.664	91.363
643.576	70.083
647.486	114.909
651.394	112.849
655.301	119.906
659.205	107.078
663.108	67.365
667.009	74.762
670.908	102.27
674.805	143.882
678.701	75.604
682.594	78.428
686.486	125.349
690.376	96.371
694.264	61.487
698.15	16.69
702.035	28.026
705.917	24.326
709.798	47.256
713.677	49.781
717.554	156.249
721.429	207.66
725.303	233.018
729.174	269.328
733.044	477.59
736.912	570.802
740.778	671.965
744.642	763.08
748.505	933.148
752.366	1215.17
756.225	1404.15
760.082	1620.09
763.937	1534.99
767.79	1291.86
771.642	1101.49
775.492	935.368
779.34	901.828
783.186	878.24
787.031	953.432
790.873	958.43
794.714	1069.35
798.553	1057.49
802.391	988.594
806.226	1082.69
810.06	1049.84
813.892	1267.96
817.722	1587.15
821.55	1966.59
825.376	2571.93
829.201	3512.31
833.024	5526.05
836.845	9385.86
840.665	18027.9
844.482	34320.3
848.298	40782.8
852.112	26085.3
855.924	14677.9
859.735	9490.41
863.543	7512.97
867.35	7565.54
871.155	7918.12
874.959	6306.72
878.76	3935.34
882.56	2641.97
886.358	1893.62
890.154	1487.29
893.949	1102.98
897.742	930.703
901.532	823.448
905.322	765.219
909.109	771.024
912.895	721.872
916.679	663.767
920.461	659.71
924.241	759.701
928.02	870.745
931.797	1304.84
935.572	2016.98
939.345	4327.18
943.117	5952.43
946.887	3592.72
950.655	2168.06
954.421	1793.45
958.186	1774.88
961.949	2390.36
965.71	4040.88
969.469	6356.44
973.227	4927.15
976.983	2606.78
980.737	1364.45
984.489	815.143
988.24	528.863
991.989	413.734
995.736	364.516
999.482	313.311
1003.23	342.21
1006.97	338.364
1010.71	219.503
1014.45	165.45
1018.18	171.619
1021.92	181.91
1025.65	219.216
1029.38	207.678
1033.11	199.004
1036.84	136.441
1040.57	153.142
1044.29	68.115
1048.02	76.049
1051.74	184.496
1055.46	158.945
1059.17	98.477
1062.89	106.801
1066.61	82.065
1070.32	122.532
1074.03	122.722
1077.74	177.923
1081.45	142.629
1085.15	94.84
1088.86	16.059
1092.56	26.281
1096.26	26.503
1099.96	69.725
1103.66	175.945
1107.35	118.157
1111.05	51.36
1114.74	7.549
1118.43	22.724
1122.12	22.114
1125.81	110.024
1129.49	169.145
1133.17	133.265
1136.86	102.344
1140.54	5.397
1144.21	8.535
1147.89	22.54
1151.57	7.428
1155.24	45.41
1158.91	57.509
1162.58	114.357
1166.25	30.819
1169.92	45.034
1173.59	139.665
1177.25	100.639
1180.91	25.276
1184.57	31.669
1188.23	95.458
1191.89	48.375
1195.54	47.218
1199.19	20.278
1202.85	18.547
1206.5	16.643
1210.15	14.582
1213.79	79.102
1217.44	127.936
1221.08	95.512
1224.72	130.912
1228.36	98.33
1232	29.647
1235.64	36.821
1239.27	74.951
1242.91	164.737
1246.54	233.615
1250.17	250.426
1253.8	172.587
1257.42	135.086
1261.05	3.308
1264.67	0.81
1268.3	76.264
1271.92	115.521
1275.54	141.341
1279.15	157.679
1282.77	211.735
1286.38	135.426
1289.99	26.804
1293.6	4.014
1297.21	7.135
1300.82	55.035
1304.43	92.557
1308.03	99.182
1311.63	74.421
1315.23	48.075
1318.83	53.526
1322.43	50.134
1326.03	47.823
1329.62	92.647
1333.21	137.57
1336.8	68.438
1340.39	38.489
1343.98	33.286
1347.57	76.044
1351.15	29.667
1354.73	0.165
1358.31	61.46
1361.89	102.156
1365.47	145.026
1369.05	54.024
1372.62	58.978
1376.19	41.772
1379.77	92.396
1383.34	107.098
1386.9	141.709
1390.47	43.983
1394.04	34.505
1397.6	87.399
1401.16	74.463
1404.72	103.66
1408.28	69.163
1411.84	17.149
1415.39	112.991
1418.94	108.208
1422.5	134.058
1426.05	139.939
1429.6	29.944
1433.14	19.679
1436.69	15.309
1440.23	44.156
1443.78	20.381
1447.32	49.749
1450.86	79.521
1454.39	185.692
1457.93	274.857
1461.46	324.189
1465	237.872
1468.53	203.927
1472.06	131.025
1475.59	45.958
1479.11	6.897
1482.64	16.457
1486.16	11.858
1489.68	53.979
1493.2	161.675
1496.72	226.549
1500.24	247.893
1503.76	319.728
1507.27	277.65
1510.78	213.362
1514.29	131.061
1517.8	14.646
