Measurement: Raman, 514 nm, ccw, Raman Data Processed
Mineral: Chondrodite
Rruff sample: R040016
Ideal chemistry: Mg_5_(SiO_4_)_2_F_2_
Locality: Vastmanland, Kafveltorp, Sweden
Source: University of Arizona Mineral Museum
Description: Deep red single crystals embedded in matrix
Measured chemistry: (Mg_4.61_Fe_0.31_Mn_0.07_Ca_0.01_)_Σ=5_(Si_1.00_O_4_)_2_(F_1.16_(OH)_0.84_)_Σ=2_
Pin_id: M00425
Orientation: Laser parallel to [1 0 1]. Fiducial mark perpendicular to laser is parallel to -b* (0 -1 0)
Raman shift (cm-1)	intensity
212.871	0
216.987	29.272
221.101	16.224
225.213	33.311
229.323	2.746
233.431	120.902
237.537	53.138
241.642	117.434
245.744	232.768
249.844	224.126
253.942	298.543
258.039	444.985
262.133	528.455
266.225	460.938
270.315	341.421
274.404	638.891
278.49	1422.34
282.575	1318.76
286.657	682.296
290.738	594.112
294.816	622.653
298.893	732.243
302.967	677.848
307.04	233.476
311.11	86.077
315.179	106.882
319.246	92.141
323.311	156.606
327.373	246.029
331.434	157.407
335.493	169.739
339.55	232.024
343.605	186.261
347.658	28.448
351.709	53.676
355.758	14.156
359.806	52.702
363.851	15.479
367.894	83.639
371.936	143.75
375.975	111.015
380.013	80.824
384.048	191.784
388.082	437.323
392.114	301.332
396.143	284.303
400.171	235.853
404.197	314.897
408.221	453.93
412.243	464.949
416.263	433.648
420.282	347.912
424.298	221.857
428.312	158.777
432.325	203.375
436.335	248.515
440.344	287.325
444.35	147.095
448.355	254.823
452.358	312.507
456.359	413.149
460.358	386.746
464.355	334.299
468.35	218.809
472.344	252.273
476.335	192.694
480.325	14.069
484.312	49.399
488.298	70.685
492.282	38.923
496.264	9.112
500.244	56.807
504.222	4.738
508.198	60.91
512.172	39.985
516.145	55.141
520.115	52.375
524.084	92.466
528.051	15.82
532.016	83.015
535.979	83.9
539.94	24.081
543.899	34.741
547.857	232.569
551.812	262.29
555.766	140.023
559.717	145.685
563.667	174.304
567.615	273.03
571.561	425.344
575.505	792.523
579.448	1352.35
583.388	1773.11
587.327	1380.82
591.264	704.474
595.198	394.071
599.132	365.57
603.063	433.102
606.992	764.536
610.919	863.916
614.845	815.243
618.769	534.517
622.691	355.739
626.611	430.911
630.529	418.942
634.445	273.759
638.359	112.644
642.272	83.997
646.183	137.657
650.092	211.472
653.999	155.154
657.904	61.76
661.807	32.604
665.709	50.776
669.609	2.458
673.506	3.212
677.402	128.185
681.297	60.229
685.189	143.329
689.079	76.008
692.968	52.758
696.855	29.565
700.74	26.417
704.623	58.312
708.504	19.255
712.384	52.762
716.262	35.747
720.138	74.068
724.012	74.649
727.884	78.573
731.754	150.482
735.623	220.375
739.49	206.256
743.355	293.125
747.218	324.985
751.079	434.836
754.939	438.681
758.796	551.521
762.652	479.358
766.506	460.194
770.358	580.03
774.209	589.87
778.058	688.716
781.904	875.082
785.75	919.442
789.593	984.331
793.434	967.246
797.274	969.188
801.112	1189.99
804.948	1294.68
808.782	1493.6
812.615	1729.72
816.445	1989.55
820.274	2467.4
824.101	3090.82
827.926	4426.75
831.75	6392.55
835.572	10309.3
839.392	18016
843.21	34842.6
847.026	53459.4
850.841	43106.5
854.654	24503.6
858.465	14641
862.274	10438.5
866.081	9486.01
869.887	10013.6
873.691	9131.19
877.493	6238.86
881.294	3866.58
885.092	2694.35
888.889	2110.18
892.684	1724.05
896.477	1340.98
900.269	1328.96
904.059	1135.99
907.847	1092.08
911.633	1120.23
915.418	1195.44
919.2	1165.71
922.981	1159.04
926.76	1426.42
930.538	2281.86
934.314	3310.35
938.088	4888.9
941.86	8747.51
945.63	7106.18
949.399	4214.91
953.166	3193.71
956.931	3112.58
960.695	3601.53
964.456	5210.54
968.216	9109.62
971.974	9108.77
975.731	4707.98
979.486	2407.24
983.239	1548.56
986.99	1030.93
990.74	724.36
994.487	552.831
998.233	551.349
1001.98	662.227
1005.72	849.257
1009.46	462.456
1013.2	367.51
1016.94	358.729
1020.67	255.885
1024.41	322.344
1028.14	333.518
1031.87	455.65
1035.6	451.862
1039.33	237.229
1043.05	209.478
1046.78	164.577
1050.5	295.286
1054.22	418.907
1057.93	320.68
1061.65	340.416
1065.37	195.765
1069.08	183.456
1072.79	171.788
1076.5	244.088
1080.21	315.841
1083.92	431.37
1087.62	309.719
1091.33	211.075
1095.03	134.444
1098.73	230.818
1102.42	294.684
1106.12	302.059
1109.81	484.434
1113.51	364.798
1117.2	355.154
1120.89	135.493
1124.58	117.812
1128.26	25.11
1131.95	57.096
1135.63	220.764
1139.31	361.978
1142.99	226.147
1146.67	3.44
1150.34	75.36
1154.02	130.48
1157.69	15.921
1161.36	122.076
1165.03	179.171
1168.7	111.002
1172.36	13.157
1176.03	59.297
1179.69	123.098
1183.35	93.344
1187.01	73.158
1190.67	256.042
1194.32	194.325
1197.98	330.107
1201.63	170.37
1205.28	100.896
1208.93	89.252
1212.58	37.608
1216.22	38.672
1219.87	181.041
1223.51	289.721
1227.15	400.776
1230.79	298.965
1234.43	147.71
1238.06	146.268
1241.7	75.646
1245.33	36.971
1248.96	260.69
1252.59	301.535
1256.22	384.598
1259.84	216.102
1263.47	200.774
1267.09	119.919
1270.71	12.104
1274.33	58.306
1277.95	58.615
1281.56	165.782
1285.18	342.114
1288.79	259.252
1292.4	375.638
1296.01	252.293
1299.62	58.361
1303.22	294.914
1306.83	377.011
1310.43	361.76
1314.03	50.494
1317.63	114.715
1321.23	349.919
1324.83	434.688
1328.42	219.739
1332.02	4.317
1335.61	160.855
1339.2	166.574
1342.78	222.194
1346.37	12.229
1349.95	6.507
1353.54	290.65
1357.12	374.654
1360.7	258.524
1364.28	211.772
1367.86	65.374
1371.43	60.153
1375	166.222
1378.58	27.212
1382.15	170.718
1385.71	143.879
1389.28	496.512
1392.85	508.31
1396.41	430.581
1399.97	262.653
1403.54	206.933
1407.09	9.817
1410.65	16.262
1414.21	102.272
1417.76	26.048
1421.31	84.886
1424.87	347.272
1428.41	478.302
1431.96	619.507
1435.51	649.174
1439.05	649.235
1442.6	649.636
1446.14	539.007
1449.68	430.022
1453.21	530.338
1456.75	439.587
1460.29	590.396
1463.82	838.794
1467.35	958.852
1470.88	1037.75
1474.41	1026.83
1477.94	896.715
1481.46	606.517
1484.99	426.254
1488.51	235.971
1492.03	65.536
1495.55	214.911
1499.07	125.294
1502.58	24.427
1506.1	174.118
1509.61	493.822
1513.12	595.661
1516.63	607.038
1520.14	557.839
1523.65	0
