Measurement: Raman, 514 nm, ccw, Raman Data Processed
Mineral: Chondrodite
Rruff sample: R040016
Ideal chemistry: Mg_5_(SiO_4_)_2_F_2_
Locality: Vastmanland, Kafveltorp, Sweden
Source: University of Arizona Mineral Museum
Description: Deep red single crystals embedded in matrix
Measured chemistry: (Mg_4.61_Fe_0.31_Mn_0.07_Ca_0.01_)_Σ=5_(Si_1.00_O_4_)_2_(F_1.16_(OH)_0.84_)_Σ=2_
Pin_id: M00256
Orientation: Laser parallel to -b* (0 -1 0). Fiducial mark perpendicular to laser is parallel to c [0 0 1]
Raman shift (cm-1)	intensity
148.124	0
152.271	5.507
156.417	5.59
160.56	63.146
164.702	2.027
168.841	11.372
172.979	28.645
177.114	195.881
181.247	423.232
185.379	304.316
189.508	100.76
193.636	39.07
197.761	5.612
201.885	36.236
206.006	29.312
210.125	6.644
214.243	82.646
218.358	123.687
222.472	70.757
226.583	90.702
230.693	63.536
234.8	53.32
238.906	98.076
243.009	93.832
247.111	56.619
251.21	28.45
255.308	35.674
259.404	9.692
263.497	67.595
267.589	109.566
271.678	127.135
275.766	396.815
279.852	683.491
283.936	475.164
288.017	169.833
292.097	106.494
296.175	157.889
300.251	245.65
304.325	96.056
308.397	92.184
312.467	260.82
316.535	319.579
320.601	315.151
324.665	264.661
328.727	222.051
332.787	212.277
336.846	189.27
340.902	134.127
344.956	94.775
349.009	38.438
353.059	55.097
357.108	132.723
361.154	189.974
365.199	370.147
369.242	527.688
373.282	524.995
377.321	580.617
381.358	835.415
385.393	1441.91
389.426	1498.23
393.457	996.917
397.486	548.152
401.513	313.821
405.539	317.48
409.562	388.126
413.583	485.758
417.603	430.373
421.62	300.966
425.636	122.537
429.65	127.085
433.662	78.609
437.672	34.108
441.68	5.577
445.686	8.008
449.69	14.351
453.692	36.661
457.692	47.925
461.691	96.144
465.687	93.318
469.682	17.447
473.675	7.468
477.665	5.574
481.654	32.576
485.641	56.538
489.626	74.464
493.609	79.183
497.591	121.116
501.57	152.178
505.548	131.597
509.523	127.263
513.497	109.593
517.469	97.08
521.439	130.427
525.407	221.768
529.373	329.935
533.337	531.766
537.299	730.597
541.26	981.122
545.218	1631.42
549.175	2538.4
553.13	2140.36
557.083	1141
561.034	551.195
564.983	420.35
568.931	458.405
572.876	643.399
576.82	933.331
580.761	1392.2
584.701	1455.01
588.639	931.625
592.575	458.308
596.51	290.93
600.442	289.49
604.373	416.988
608.301	514.425
612.228	456.8
616.153	283.074
620.076	198.327
623.997	105.519
627.917	19.65
631.834	35.279
635.75	76.284
639.664	80.38
643.576	106.238
647.486	128.863
651.394	132.268
655.301	94.784
659.205	125.406
663.108	137.138
667.009	107.472
670.908	97.926
674.805	97.97
678.701	58.109
682.594	40.337
686.486	54.648
690.376	76.039
694.264	42.504
698.15	21.964
702.035	71.375
705.917	26.733
709.798	84.041
713.677	130.3
717.554	226.512
721.429	243.677
725.303	333.797
729.174	462.874
733.044	557.909
736.912	678.903
740.778	853.856
744.642	993.77
748.505	1187.65
752.366	1512.48
756.225	1763.29
760.082	1910.06
763.937	1862.8
767.79	1526.5
771.642	1308
775.492	1047.63
779.34	999.15
783.186	1020.37
787.031	1101.2
790.873	1118.82
794.714	1164.92
798.553	1153.5
802.391	1140.28
806.226	1065.2
810.06	1186.16
813.892	1366.37
817.722	1653.73
821.55	2118.25
825.376	2771.79
829.201	3877.55
833.024	6131.55
836.845	10141.9
840.665	19418.4
844.482	36784.9
848.298	43141.4
852.112	27347.9
855.924	15394.5
859.735	9831.09
863.543	7715.69
867.35	7668.3
871.155	7815.93
874.959	6174.58
878.76	3982.25
882.56	2654.94
886.358	1943.65
890.154	1484.39
893.949	1163.16
897.742	966.958
901.532	836.786
905.322	847.649
909.109	760.55
912.895	726.498
916.679	683.498
920.461	669.552
924.241	769.668
928.02	901.849
931.797	1338.09
935.572	2216.38
939.345	4692.74
943.117	6213.16
946.887	3630.63
950.655	2147.15
954.421	1717.73
958.186	1814.35
961.949	2470.03
965.71	4343.74
969.469	6722.5
973.227	5045.29
976.983	2672.12
980.737	1419.99
984.489	831.883
988.24	539.869
991.989	443.83
995.736	384.822
999.482	380.853
1003.23	335.995
1006.97	272.08
1010.71	217.194
1014.45	175.357
1018.18	135.568
1021.92	144.922
1025.65	179.257
1029.38	187.903
1033.11	207.609
1036.84	154.326
1040.57	104.367
1044.29	87.34
1048.02	141.337
1051.74	135.2
1055.46	109.09
1059.17	81.109
1062.89	96.839
1066.61	86.505
1070.32	92.177
1074.03	134.995
1077.74	138.66
1081.45	112.241
1085.15	98.819
1088.86	93.412
1092.56	24.015
1096.26	45.625
1099.96	77.241
1103.66	98.86
1107.35	76.483
1111.05	57.109
1114.74	8.738
1118.43	24.369
1122.12	9.998
1125.81	48.618
1129.49	46.228
1133.17	28.829
1136.86	37.418
1140.54	27.994
1144.21	0.443
1147.89	23.103
1151.57	2.633
1155.24	13.141
1158.91	8.373
1162.58	51.92
1166.25	29.438
1169.92	63.052
1173.59	72.5
1177.25	47.797
1180.91	19.973
1184.57	27.388
1188.23	43.876
1191.89	29.327
1195.54	14.672
1199.19	32.046
1202.85	59.562
1206.5	7.106
1210.15	19.604
1213.79	74.094
1217.44	105.686
1221.08	80.164
1224.72	59.247
1228.36	83.271
1232	61.324
1235.64	69.291
1239.27	99.395
1242.91	132.573
1246.54	170.651
1250.17	119.634
1253.8	110.098
1257.42	108.274
1261.05	10.705
1264.67	64.08
1268.3	67.329
1271.92	118.555
1275.54	141.683
1279.15	67.855
1282.77	106.867
1286.38	80.704
1289.99	91.289
1293.6	13.511
1297.21	8.129
1300.82	11.349
1304.43	27.369
1308.03	19.77
1311.63	20.142
1315.23	0.96
1318.83	19.37
1322.43	58.765
1326.03	59.075
1329.62	82.556
1333.21	35.156
1336.8	42.602
1340.39	9.172
1343.98	48.756
1347.57	45.439
1351.15	10.236
1354.73	3.862
1358.31	80.141
1361.89	63.246
1365.47	63.446
1369.05	71.74
1372.62	48.132
1376.19	38.622
1379.77	4.209
1383.34	266.116
1386.9	32.644
1390.47	20.486
1394.04	68.406
1397.6	52.393
1401.16	59.432
1404.72	47.065
1408.28	22.793
1411.84	0.329
1415.39	63.204
1418.94	22.095
1422.5	16.839
1426.05	38.728
1429.6	12.969
1433.14	12.172
1436.69	4.728
1440.23	38.034
1443.78	21.115
1447.32	0.286
1450.86	4.228
1454.39	84.868
1457.93	71.949
1461.46	119.182
1465	90.375
1468.53	95.094
1472.06	54.06
1475.59	12.035
1479.11	54.374
1482.64	10.688
1486.16	97.467
1489.68	123.562
1493.2	106.046
1496.72	129.339
1500.24	179.345
1503.76	208.516
1507.27	194.804
1510.78	112.134
1514.29	90.555
1517.8	50.186
1521.31	21.226
1524.82	0
