Measurement: Raman, 514 nm, ccw, Raman Data Processed
Mineral: Chondrodite
Rruff sample: R040016
Ideal chemistry: Mg_5_(SiO_4_)_2_F_2_
Locality: Vastmanland, Kafveltorp, Sweden
Source: University of Arizona Mineral Museum
Description: Deep red single crystals embedded in matrix
Measured chemistry: (Mg_4.61_Fe_0.31_Mn_0.07_Ca_0.01_)_Σ=5_(Si_1.00_O_4_)_2_(F_1.16_(OH)_0.84_)_Σ=2_
Pin_id: M00452
Orientation: Laser parallel to -a [-1 0 0]. Fiducial mark perpendicular to laser is parallel to b* (0 1 0)
Raman shift (cm-1)	intensity
214.243	0
218.358	13.566
222.472	1.611
226.583	5.601
230.693	6.383
234.8	11.207
238.906	50.413
243.009	25.669
247.111	90.033
251.21	56.477
255.308	19.962
259.404	22.723
263.497	80.628
267.589	135.091
271.678	126.283
275.766	259.595
279.852	365.892
283.936	291.173
288.017	127.462
292.097	62.853
296.175	31.312
300.251	15.184
304.325	32.753
308.397	49.601
312.467	0.911
316.535	90.207
320.601	149.494
324.665	136.77
328.727	163.033
332.787	217.279
336.846	198.495
340.902	161.693
344.956	98.787
349.009	101.036
353.059	104.199
357.108	40.597
361.154	53.639
365.199	75.215
369.242	74.265
373.282	42.187
377.321	68.634
381.358	142.428
385.393	370.416
389.426	425.008
393.457	288.214
397.486	187.931
401.513	144.709
405.539	203.48
409.562	341.668
413.583	349.852
417.603	422.031
421.62	343.2
425.636	239.358
429.65	230.502
433.662	342.627
437.672	344.732
441.68	216.816
445.686	140.801
449.69	116.686
453.692	86.448
457.692	6.38
461.691	23.352
465.687	73.3
469.682	111.226
473.675	124.127
477.665	83.005
481.654	60.858
485.641	58.687
489.626	12.49
493.609	16.732
497.591	24.017
501.57	15.736
505.548	18.426
509.523	13.069
513.497	18.779
517.469	72.619
521.439	60.162
525.407	1.833
529.373	0.601
533.337	83.687
537.299	157.305
541.26	246.873
545.218	375.311
549.175	673.691
553.13	566.712
557.083	409.727
561.034	306.492
564.983	393.895
568.931	507.363
572.876	543.404
576.82	755.405
580.761	872.366
584.701	916.286
588.639	943.167
592.575	1164.01
596.51	1785.81
600.442	2804.58
604.373	4011.31
608.301	4823.99
612.228	4115.64
616.153	2610.24
620.076	1568.81
623.997	920.336
627.917	566.802
631.834	360.249
635.75	218.482
639.664	124.751
643.576	0.903
647.486	25.116
651.394	2.37
655.301	54.579
659.205	39.097
663.108	56.898
667.009	48.119
670.908	50.15
674.805	76.241
678.701	127.398
682.594	80.628
686.486	75.919
690.376	59.276
694.264	59.691
698.15	68.161
702.035	39.683
705.917	69.246
709.798	15.151
713.677	71.189
717.554	99.861
721.429	90.177
725.303	122.469
729.174	188.736
733.044	225.98
736.912	280.202
740.778	289.403
744.642	373.583
748.505	465.744
752.366	578.886
756.225	624.011
760.082	638.119
763.937	669.212
767.79	655.291
771.642	639.355
775.492	634.41
779.34	668.454
783.186	690.484
787.031	835.512
790.873	832.525
794.714	909.873
798.553	946.189
802.391	992.458
806.226	1133.67
810.06	1325.53
813.892	1525.52
817.722	1864.05
821.55	2340.06
825.376	3097.98
829.201	4389.99
833.024	6843.26
836.845	11361.5
840.665	21660.1
844.482	40148.7
848.298	46047.8
852.112	29486.9
855.924	16376
859.735	10015.2
863.543	7024.33
867.35	6165.51
871.155	5923.71
874.959	4867.93
878.76	3385.17
882.56	2367.43
886.358	1769.71
890.154	1373.02
893.949	1094.35
897.742	964.705
901.532	816.09
905.322	742.501
909.109	750.938
912.895	635.404
916.679	674.901
920.461	692.427
924.241	801.98
928.02	1226.56
931.797	2012.18
935.572	1979.83
939.345	2019.52
943.117	2043.25
946.887	1282.02
950.655	927.836
954.421	885.693
958.186	1066.59
961.949	1710.55
965.71	3400.52
969.469	5739.54
973.227	4633.79
976.983	2515.88
980.737	1462.16
984.489	945.464
988.24	614.679
991.989	508.949
995.736	426.154
999.482	397.38
1003.23	340.838
1006.97	287.103
1010.71	225.687
1014.45	213.163
1018.18	239.714
1021.92	296.151
1025.65	227.814
1029.38	222.34
1033.11	153.175
1036.84	217.205
1040.57	149.704
1044.29	160.606
1048.02	123.8
1051.74	124.488
1055.46	98.271
1059.17	79.093
1062.89	35.751
1066.61	59.346
1070.32	95.32
1074.03	145.108
1077.74	39.886
1081.45	50.451
1085.15	38.018
1088.86	75.592
1092.56	58.209
1096.26	100.766
1099.96	83.318
1103.66	88.861
1107.35	49.394
1111.05	33.086
1114.74	27.581
1118.43	20.045
1122.12	19.512
1125.81	32.962
1129.49	109.394
1133.17	70.931
1136.86	12.317
1140.54	61.244
1144.21	2.144
1147.89	51.454
1151.57	13.959
1155.24	86.559
1158.91	16.23
1162.58	14.956
1166.25	62.469
1169.92	4.497
1173.59	41.658
1177.25	30.752
1180.91	59.15
1184.57	13.712
1188.23	30.291
1191.89	3.708
1195.54	9.217
1199.19	55.99
1202.85	16.749
1206.5	61.352
1210.15	70.106
1213.79	118.08
1217.44	114.69
1221.08	61.117
1224.72	45.744
1228.36	36.457
1232	12.979
1235.64	73.286
1239.27	109.801
1242.91	151.057
1246.54	170.998
1250.17	116.946
1253.8	32.059
1257.42	35.031
1261.05	24.042
1264.67	40.644
1268.3	38.278
1271.92	61.024
1275.54	78.795
1279.15	2.806
1282.77	56.37
1286.38	1.798
1289.99	21.33
1293.6	72.294
1297.21	89.86
1300.82	27.188
1304.43	10.436
1308.03	19.026
1311.63	3.243
1315.23	36.118
1318.83	30.769
1322.43	71.523
1326.03	64.228
1329.62	7.102
1333.21	6.979
1336.8	26.071
1340.39	70.017
1343.98	58.103
1347.57	10.884
1351.15	48.054
1354.73	75.124
1358.31	66.317
1361.89	31.58
1365.47	106.907
1369.05	12.256
1372.62	1.711
1376.19	92.774
1379.77	171.062
1383.34	79.437
1386.9	94.752
1390.47	1.902
1394.04	26.886
1397.6	102.685
1401.16	50.976
1404.72	46.867
1408.28	99.484
1411.84	62.901
1415.39	161.816
1418.94	99.338
1422.5	114.231
1426.05	63.522
1429.6	38.437
1433.14	28.731
1436.69	9.973
1440.23	27.45
1443.78	95.383
1447.32	140.05
1450.86	113.014
1454.39	176.105
1457.93	200.886
1461.46	297.921
1465	168.713
1468.53	124.554
1472.06	75.068
1475.59	78.032
1479.11	129.827
1482.64	89.705
1486.16	177.123
1489.68	144.907
1493.2	205.666
1496.72	211.497
1500.24	180.39
1503.76	272.305
1507.27	214.328
1510.78	194.107
1514.29	182.344
1517.8	106.815
1521.31	42.047
1524.82	0
