Measurement: Raman, 514 nm, ccw, Raman Data Processed
Mineral: Chondrodite
Rruff sample: R040016
Ideal chemistry: Mg_5_(SiO_4_)_2_F_2_
Locality: Vastmanland, Kafveltorp, Sweden
Source: University of Arizona Mineral Museum
Description: Deep red single crystals embedded in matrix
Measured chemistry: (Mg_4.61_Fe_0.31_Mn_0.07_Ca_0.01_)_Σ=5_(Si_1.00_O_4_)_2_(F_1.16_(OH)_0.84_)_Σ=2_
Pin_id: M00385
Orientation: Laser parallel to -c [0 0 -1]. Fiducial mark perpendicular to laser is parallel to b* (0 1 0)
Raman shift (cm-1)	intensity
164.702	0
168.841	26.053
172.979	126.075
177.114	291.353
181.247	387.582
185.379	270.849
189.508	155.816
193.636	2.467
197.761	72.728
201.885	217.021
206.006	259.15
210.125	184.525
214.243	31.26
218.358	26.646
222.472	16.308
226.583	26.421
230.693	25.365
234.8	0.268
238.906	68.472
243.009	123.786
247.111	95.188
251.21	68.512
255.308	93.8
259.404	30.112
263.497	137.782
267.589	214.337
271.678	93.049
275.766	286.438
279.852	486.685
283.936	282.766
288.017	24.739
292.097	36.343
296.175	6.476
300.251	21.66
304.325	65.9
308.397	108.902
312.467	33.822
316.535	5.938
320.601	72.07
324.665	236.067
328.727	344.05
332.787	309.104
336.846	235.577
340.902	249.383
344.956	231.986
349.009	197.338
353.059	79.553
357.108	97.48
361.154	10.276
365.199	37.057
369.242	29.799
373.282	28.147
377.321	68.705
381.358	174.29
385.393	303.958
389.426	398.136
393.457	343.901
397.486	223.773
401.513	181.829
405.539	270.44
409.562	436.912
413.583	553.8
417.603	528.933
421.62	464.035
425.636	347.105
429.65	275.141
433.662	177.148
437.672	141.933
441.68	107.627
445.686	101.192
449.69	40.914
453.692	37.538
457.692	12.651
461.691	18.531
465.687	99.953
469.682	131.406
473.675	1.06
477.665	0.535
481.654	35.194
485.641	23.919
489.626	40.303
493.609	35.478
497.591	45.606
501.57	32.691
505.548	34.559
509.523	78.562
513.497	21.525
517.469	9.721
521.439	23.835
525.407	48.011
529.373	86.12
533.337	64.482
537.299	41.068
541.26	69.322
545.218	202.921
549.175	340.492
553.13	278.188
557.083	226.56
561.034	220.899
564.983	354.906
568.931	354.56
572.876	393.709
576.82	482.18
580.761	725.616
584.701	941.021
588.639	1302.4
592.575	1913.44
596.51	3042.51
600.442	4973.32
604.373	7091.12
608.301	7614.59
612.228	6406.7
616.153	3970.61
620.076	2549.66
623.997	1643.95
627.917	1145.94
631.834	765.031
635.75	521.096
639.664	379.073
643.576	244.104
647.486	236.131
651.394	195
655.301	248.905
659.205	213.792
663.108	72.596
667.009	19.532
670.908	54.743
674.805	14.854
678.701	30.998
682.594	18.179
686.486	97.392
690.376	84.648
694.264	0.942
698.15	21.267
702.035	26.628
705.917	19.017
709.798	55.421
713.677	20.155
717.554	110.718
721.429	105.274
725.303	83.826
729.174	104.375
733.044	215.923
736.912	297.474
740.778	264.031
744.642	289.595
748.505	343.171
752.366	474.76
756.225	539.363
760.082	504.973
763.937	550.597
767.79	545.231
771.642	601.874
775.492	735.524
779.34	782.186
783.186	849.857
787.031	882.539
790.873	962.233
794.714	1155.94
798.553	1274.66
802.391	1346.4
806.226	1493.05
810.06	1675.36
813.892	2110.77
817.722	2569.69
821.55	3191.08
825.376	4139.7
829.201	6045.78
833.024	9556.05
836.845	16399.1
840.665	31112.3
844.482	56005.9
848.298	57329.6
852.112	34033.3
855.924	19147.3
859.735	11611.4
863.543	8425.5
867.35	7029.64
871.155	6483.81
874.959	5365.01
878.76	3854.25
882.56	2837.53
886.358	2083.84
890.154	1677.2
893.949	1363.59
897.742	1145.02
901.532	1077.48
905.322	1048.99
909.109	917.54
912.895	777.125
916.679	736.745
920.461	761.403
924.241	814.095
928.02	1098.82
931.797	1543.58
935.572	1582.38
939.345	1738.22
943.117	1537.07
946.887	973.968
950.655	930.898
954.421	1160.87
958.186	1488.88
961.949	2491.94
965.71	5424.07
969.469	8785.21
973.227	6312.58
976.983	3363.8
980.737	1956.05
984.489	1167.33
988.24	832.7
991.989	711.102
995.736	647.514
999.482	627.982
1003.23	807.521
1006.97	533.146
1010.71	231.997
1014.45	263.095
1018.18	368.086
1021.92	407.172
1025.65	387.027
1029.38	334.905
1033.11	226.869
1036.84	189.774
1040.57	138.915
1044.29	169.774
1048.02	251.66
1051.74	225.7
1055.46	165.556
1059.17	67.506
1062.89	11.353
1066.61	15.209
1070.32	145.988
1074.03	154.725
1077.74	182.506
1081.45	111.204
1085.15	61.901
1088.86	5.666
1092.56	23.367
1096.26	129.068
1099.96	146.764
1103.66	136.453
1107.35	104.133
1111.05	15.799
1114.74	4.457
1118.43	8.898
1122.12	1.728
1125.81	157.337
1129.49	172.928
1133.17	90.684
1136.86	1.233
1140.54	64.243
1144.21	46.752
1147.89	2.706
1151.57	8.87
1155.24	104.515
1158.91	50.858
1162.58	29.838
1166.25	29.573
1169.92	158.347
1173.59	52.613
1177.25	92.633
1180.91	104.791
1184.57	87.951
1188.23	112.934
1191.89	0.873
1195.54	36.232
1199.19	19.328
1202.85	9.034
1206.5	67.297
1210.15	131.502
1213.79	126.227
1217.44	194.303
1221.08	114.447
1224.72	84.491
1228.36	38.219
1232	50.979
1235.64	192.72
1239.27	289.241
1242.91	320.865
1246.54	332.28
1250.17	217.427
1253.8	167.574
1257.42	65.902
1261.05	38.933
1264.67	68.988
1268.3	223.99
1271.92	305.649
1275.54	301.418
1279.15	230.156
1282.77	211.553
1286.38	54.768
1289.99	6.107
1293.6	19.261
1297.21	119.565
1300.82	105.132
1304.43	49.492
1308.03	15.061
1311.63	120.974
1315.23	189.804
1318.83	76.766
1322.43	84.578
1326.03	9.726
1329.62	17.834
1333.21	106.048
1336.8	51.919
1340.39	97.634
1343.98	139.369
1347.57	63.048
1351.15	27.403
1354.73	48.851
1358.31	74.356
1361.89	71.916
1365.47	74.531
1369.05	99.801
1372.62	185.081
1376.19	236.311
1379.77	140.529
1383.34	159.667
1386.9	163.76
1390.47	27.62
1394.04	40.297
1397.6	54.337
1401.16	13.947
1404.72	80.731
1408.28	200.366
1411.84	284.961
1415.39	225.87
1418.94	197.576
1422.5	103.783
1426.05	113.109
1429.6	34.682
1433.14	13.555
1436.69	174.867
1440.23	241.346
1443.78	412.384
1447.32	539.104
1450.86	647.053
1454.39	780.715
1457.93	726.527
1461.46	649.679
1465	493.104
1468.53	284.243
1472.06	229.273
1475.59	163.806
1479.11	167.705
1482.64	196.39
1486.16	280.274
1489.68	319.133
1493.2	271.922
1496.72	336.707
1500.24	299.569
1503.76	226.48
1507.27	148.427
1510.78	60.423
1514.29	97.518
1517.8	16.873
1521.31	11.824
1524.82	0
