Measurement: Raman, 514 nm, ccw, Raman Data Processed
Mineral: Chondrodite
Rruff sample: R040016
Ideal chemistry: Mg_5_(SiO_4_)_2_F_2_
Locality: Vastmanland, Kafveltorp, Sweden
Source: University of Arizona Mineral Museum
Description: Deep red single crystals embedded in matrix
Measured chemistry: (Mg_4.61_Fe_0.31_Mn_0.07_Ca_0.01_)_Σ=5_(Si_1.00_O_4_)_2_(F_1.16_(OH)_0.84_)_Σ=2_
Pin_id: M00256
Orientation: Laser parallel to -b* (0 -1 0). Fiducial mark perpendicular to laser is parallel to c [0 0 1]
Raman shift (cm-1)	intensity
155.035	0
159.179	26.306
163.321	28.334
167.461	160.695
171.6	228.952
175.736	505.973
179.87	1096.26
184.002	1457.72
188.132	669.353
192.26	171.26
196.386	73.222
200.51	57.793
204.632	74.536
208.753	9.802
212.871	23.097
216.987	97.437
221.101	117.058
225.213	103.255
229.323	99.73
233.431	101.102
237.537	19.277
241.642	7.513
245.744	68.312
249.844	142.076
253.942	219.915
258.039	316.481
262.133	392.982
266.225	514.405
270.315	425.79
274.404	780.158
278.49	1512.5
282.575	1261.79
286.657	714.029
290.738	470.225
294.816	583.373
298.893	801.474
302.967	462.35
307.04	125.359
311.11	24.257
315.179	10.059
319.246	67.412
323.311	104.658
327.373	154.689
331.434	195.529
335.493	124.106
339.55	103.417
343.605	36.537
347.658	17.401
351.709	17.27
355.758	8.339
359.806	19.638
363.851	8.968
367.894	55.422
371.936	125.808
375.975	89.748
380.013	129.619
384.048	322.833
388.082	485.753
392.114	366.16
396.143	299.845
400.171	276.47
404.197	326.055
408.221	432.612
412.243	489.14
416.263	393.636
420.282	291.097
424.298	174.517
428.312	117.898
432.325	193.236
436.335	253.531
440.344	264.782
444.35	137.99
448.355	210.149
452.358	312.238
456.359	364.253
460.358	294.151
464.355	303.028
468.35	216.839
472.344	181.586
476.335	113.272
480.325	24.899
484.312	51.469
488.298	22.46
492.282	8.367
496.264	3.229
500.244	36.029
504.222	19.005
508.198	58.744
512.172	89.343
516.145	114.183
520.115	119.237
524.084	115.161
528.051	86.276
532.016	71.645
535.979	37.137
539.94	72.795
543.899	162.336
547.857	408.14
551.812	600.47
555.766	334.751
559.717	202.765
563.667	185.248
567.615	244.715
571.561	497.992
575.505	860.183
579.448	1382.35
583.388	1765.39
587.327	1339.37
591.264	754.294
595.198	380.163
599.132	310.974
603.063	439.731
606.992	762.434
610.919	995.083
614.845	765.68
618.769	527.224
622.691	355.717
626.611	338.159
630.529	308.552
634.445	157.865
638.359	11.929
642.272	19.018
646.183	34.753
650.092	107.436
653.999	1.238
657.904	7.135
661.807	58.691
665.709	46.307
669.609	51.604
673.506	69.462
677.402	81.087
681.297	78.419
685.189	41.782
689.079	57.208
692.968	68.698
696.855	59.241
700.74	3.836
704.623	11.465
708.504	35.871
712.384	1.822
716.262	8.54
720.138	36.718
724.012	166.954
727.884	174.172
731.754	170.371
735.623	255.554
739.49	274.722
743.355	370.876
747.218	424.019
751.079	476.15
754.939	553.583
758.796	618.386
762.652	625.494
766.506	676.596
770.358	691.695
774.209	695.791
778.058	720.822
781.904	911.886
785.75	1081.87
789.593	1126.99
793.434	1138.91
797.274	1173.01
801.112	1372.79
804.948	1506.25
808.782	1740.5
812.615	1971.89
816.445	2283.1
820.274	2801.47
824.101	3555.07
827.926	5007.13
831.75	7419.65
835.572	11820.3
839.392	21021.4
843.21	40472.6
847.026	59994
850.841	46715.5
854.654	26087
858.465	15578.5
862.274	10960.2
866.081	10381.8
869.887	11013.5
873.691	9625.27
877.493	6476.04
881.294	4009.85
885.092	2714.7
888.889	2141.59
892.684	1699.53
896.477	1464.5
900.269	1290.52
904.059	1044.59
907.847	1032.71
911.633	1042.87
915.418	1086.09
919.2	1053.36
922.981	963.68
926.76	1058.05
930.538	1385.48
934.314	2263.96
938.088	4963.49
941.86	9574.09
945.63	7376.75
949.399	4244.47
953.166	3218.26
956.931	3082.1
960.695	3853.01
964.456	5822.97
968.216	9954.01
971.974	9387.1
975.731	4642.24
979.486	2412.44
983.239	1509.69
986.99	981.982
990.74	698.323
994.487	488.709
998.233	398.141
1001.98	405.662
1005.72	526.187
1009.46	347.754
1013.2	278.365
1016.94	217.035
1020.67	169.728
1024.41	160.514
1028.14	178.477
1031.87	325.302
1035.6	313.476
1039.33	197.637
1043.05	77.045
1046.78	108.457
1050.5	126.503
1054.22	223.122
1057.93	259.619
1061.65	197.004
1065.37	230.774
1069.08	107.099
1072.79	91.763
1076.5	65.221
1080.21	212.532
1083.92	260.871
1087.62	240.233
1091.33	151.68
1095.03	150.095
1098.73	120.579
1102.42	139.188
1106.12	243.66
1109.81	275.149
1113.51	253.65
1117.2	221.182
1120.89	89.704
1124.58	67.231
1128.26	72.76
1131.95	46.737
1135.63	219.291
1139.31	231.822
1142.99	173.354
1146.67	67.975
1150.34	16.5
1154.02	4.608
1157.69	15.181
1161.36	61.914
1165.03	71.838
1168.7	126.532
1172.36	42.363
1176.03	25.401
1179.69	9.073
1183.35	109.34
1187.01	33.662
1190.67	33.747
1194.32	105.083
1197.98	153.705
1201.63	141.194
1205.28	2.725
1208.93	101.324
1212.58	53.071
1216.22	17.642
1219.87	61.308
1223.51	210.111
1227.15	199.309
1230.79	293.673
1234.43	107.779
1238.06	49.263
1241.7	19.265
1245.33	1.918
1248.96	144.154
1252.59	194.98
1256.22	185.552
1259.84	194.475
1263.47	83.844
1267.09	98.144
1270.71	22.747
1274.33	17.596
1277.95	35.725
1281.56	37.927
1285.18	132.253
1288.79	118.729
1292.4	124.542
1296.01	150.575
1299.62	20.285
1303.22	123.819
1306.83	132.808
1310.43	117.556
1314.03	3.339
1317.63	127.502
1321.23	206.566
1324.83	211.517
1328.42	148.042
1332.02	56.963
1335.61	90.509
1339.2	149.825
1342.78	120.064
1346.37	42.396
1349.95	72.182
1353.54	94.596
1357.12	179.983
1360.7	179.238
1364.28	119.304
1367.86	66.437
1371.43	37.516
1375	103.469
1378.58	61.324
1382.15	106.639
1385.71	185.614
1389.28	313.211
1392.85	256.118
1396.41	237.132
1399.97	210.919
1403.54	42.699
1407.09	24.329
1410.65	69.513
1414.21	106.434
1417.76	4.663
1421.31	97.591
1424.87	217.432
1428.41	233.5
1431.96	313.208
1435.51	386.905
1439.05	396.523
1442.6	320.729
1446.14	174.388
1449.68	139.966
1453.21	189.534
1456.75	232.411
1460.29	215.208
1463.82	371.206
1467.35	502.264
1470.88	474.261
1474.41	496.517
1477.94	452.369
1481.46	290.929
1484.99	194.438
1488.51	149.864
1492.03	40.097
1495.55	25.237
1499.07	21.615
1502.58	5.676
1506.1	135.952
1509.61	265.207
1513.12	322.235
1516.63	351.666
1520.14	232.802
