Measurement: Raman, 514 nm, ccw, Raman Data Processed
Mineral: Chondrodite
Rruff sample: R040016
Ideal chemistry: Mg_5_(SiO_4_)_2_F_2_
Locality: Vastmanland, Kafveltorp, Sweden
Source: University of Arizona Mineral Museum
Description: Deep red single crystals embedded in matrix
Measured chemistry: (Mg_4.61_Fe_0.31_Mn_0.07_Ca_0.01_)_Σ=5_(Si_1.00_O_4_)_2_(F_1.16_(OH)_0.84_)_Σ=2_
Pin_id: M00385
Orientation: Laser parallel to -c [0 0 -1]. Fiducial mark perpendicular to laser is parallel to b* (0 1 0)
Raman shift (cm-1)	intensity
214.243	0
218.358	8.869
222.472	56.465
226.583	0.221
230.693	34.784
234.8	39.866
238.906	19.304
243.009	29.463
247.111	6.624
251.21	34.215
255.308	40.08
259.404	57.982
263.497	136.875
267.589	270.75
271.678	79.606
275.766	313.438
279.852	512.267
283.936	345.111
288.017	119.033
292.097	93.032
296.175	106.232
300.251	96.229
304.325	91.118
308.397	124.954
312.467	277.761
316.535	335.542
320.601	258.298
324.665	253.03
328.727	160.523
332.787	148.414
336.846	163.062
340.902	140.038
344.956	176.804
349.009	174.556
353.059	90.432
357.108	105.76
361.154	143.481
365.199	75.109
369.242	0.343
373.282	36.621
377.321	18.341
381.358	46.802
385.393	27.272
389.426	91.203
393.457	83.365
397.486	37.734
401.513	31.221
405.539	72.72
409.562	247.218
413.583	279.705
417.603	278.185
421.62	182.654
425.636	219.105
429.65	313.533
433.662	472.933
437.672	590.299
441.68	552.631
445.686	422.922
449.69	239.178
453.692	101.398
457.692	73.581
461.691	15.726
465.687	38.831
469.682	43.894
473.675	7.917
477.665	17.901
481.654	23.843
485.641	78.263
489.626	34.426
493.609	33.638
497.591	23.915
501.57	59.255
505.548	39.662
509.523	42.136
513.497	16.679
517.469	14.282
521.439	16.741
525.407	10.678
529.373	87.947
533.337	173.651
537.299	302.516
541.26	448.084
545.218	936.8
549.175	1550.66
553.13	1216.99
557.083	705.185
561.034	569.525
564.983	630.035
568.931	811.414
572.876	914.358
576.82	922.972
580.761	1038.58
584.701	873.032
588.639	706.419
592.575	690.742
596.51	1060
600.442	1652.2
604.373	2287.33
608.301	2563.09
612.228	2068.95
616.153	1343.86
620.076	914.741
623.997	606.353
627.917	473.316
631.834	306.474
635.75	192.574
639.664	127.771
643.576	48.525
647.486	53.498
651.394	69.415
655.301	64.229
659.205	5.719
663.108	43.721
667.009	73.674
670.908	96.624
674.805	106.672
678.701	97.82
682.594	124.068
686.486	117.417
690.376	129.869
694.264	56.42
698.15	100.059
702.035	45.792
705.917	71.604
709.798	8.488
713.677	2.57
717.554	58.573
721.429	86.529
725.303	152.439
729.174	186.305
733.044	258.129
736.912	313.912
740.778	424.654
744.642	495.357
748.505	575.026
752.366	713.661
756.225	760.261
760.082	800.827
763.937	805.363
767.79	762.875
771.642	640.365
775.492	570.834
779.34	714.281
783.186	657.71
787.031	808.122
790.873	779.515
794.714	898.894
798.553	936.217
802.391	979.539
806.226	1003.48
810.06	1113.3
813.892	1344.04
817.722	1614.65
821.55	2091.33
825.376	2679.96
829.201	3967.29
833.024	6251.48
836.845	10647.2
840.665	20374.2
844.482	37011.6
848.298	38319.4
852.112	22937.4
855.924	12605.6
859.735	7633.79
863.543	5363.07
867.35	4344.36
871.155	3785.66
874.959	3012.97
878.76	2098.3
882.56	1683.64
886.358	1287
890.154	1030.38
893.949	918.778
897.742	790.196
901.532	795.632
905.322	830.875
909.109	788.577
912.895	736.082
916.679	712.605
920.461	941.147
924.241	1260.71
928.02	2083.29
931.797	3488.89
935.572	2722.53
939.345	1807.17
943.117	1401.86
946.887	1030.6
950.655	818.343
954.421	885.146
958.186	1124.01
961.949	1885.89
965.71	3763.81
969.469	5967.77
973.227	4170.77
976.983	2317.8
980.737	1340.85
984.489	818.087
988.24	606.564
991.989	506.166
995.736	418.296
999.482	410.883
1003.23	620.29
1006.97	385.663
1010.71	190.387
1014.45	189.982
1018.18	255.486
1021.92	351.036
1025.65	298.012
1029.38	222.807
1033.11	143.318
1036.84	133.035
1040.57	174.366
1044.29	169.213
1048.02	131.668
1051.74	119.206
1055.46	110.641
1059.17	22.219
1062.89	40.726
1066.61	51.365
1070.32	175.203
1074.03	180.133
1077.74	122.593
1081.45	47.795
1085.15	65.211
1088.86	26.422
1092.56	84.678
1096.26	147.853
1099.96	161.015
1103.66	74.164
1107.35	93.298
1111.05	7.415
1114.74	27.507
1118.43	10.572
1122.12	85.602
1125.81	89.588
1129.49	103.537
1133.17	68.445
1136.86	41.688
1140.54	95.862
1144.21	9.084
1147.89	28.649
1151.57	22.334
1155.24	58.042
1158.91	88.614
1162.58	19.77
1166.25	62.158
1169.92	166.646
1173.59	42.662
1177.25	66.475
1180.91	168.955
1184.57	59.228
1188.23	50.295
1191.89	33.704
1195.54	89.727
1199.19	89.379
1202.85	8.324
1206.5	25.142
1210.15	83.089
1213.79	85.77
1217.44	114.988
1221.08	14.182
1224.72	48.145
1228.36	1.966
1232	20.16
1235.64	119.099
1239.27	268.256
1242.91	198.569
1246.54	272.778
1250.17	175.693
1253.8	40.249
1257.42	28.816
1261.05	22.732
1264.67	126.049
1268.3	241.502
1271.92	308.186
1275.54	304.612
1279.15	147.816
1282.77	172.987
1286.38	34.683
1289.99	21.7
1293.6	33.234
1297.21	103.29
1300.82	81.064
1304.43	70.484
1308.03	77.979
1311.63	149.202
1315.23	149.241
1318.83	108.273
1322.43	9.116
1326.03	73.627
1329.62	14.894
1333.21	24.492
1336.8	48.552
1340.39	99.918
1343.98	17.571
1347.57	37.61
1351.15	74.194
1354.73	118.03
1358.31	179.979
1361.89	117.032
1365.47	133.173
1369.05	31.564
1372.62	181.219
1376.19	199.227
1379.77	173.724
1383.34	64.08
1386.9	11.541
1390.47	56.305
1394.04	107.139
1397.6	106.965
1401.16	6.002
1404.72	30.422
1408.28	159.669
1411.84	205.625
1415.39	218.644
1418.94	121.921
1422.5	36.345
1426.05	39.136
1429.6	61.71
1433.14	74.393
1436.69	59.718
1440.23	267.1
1443.78	544.291
1447.32	667.853
1450.86	853.371
1454.39	860.133
1457.93	863.584
1461.46	802.071
1465	405.681
1468.53	328.301
1472.06	278.179
1475.59	137.989
1479.11	184.744
1482.64	249.525
1486.16	321.175
1489.68	323.807
1493.2	381.285
1496.72	392.622
1500.24	168.915
1503.76	184.23
1507.27	79.665
1510.78	24.059
1514.29	23.882
1517.8	41.171
1521.31	93.865
1524.82	74.062
