Measurement: Raman, 514 nm, ccw, Raman Data Processed
Mineral: Chondrodite
Rruff sample: R040016
Ideal chemistry: Mg_5_(SiO_4_)_2_F_2_
Locality: Vastmanland, Kafveltorp, Sweden
Source: University of Arizona Mineral Museum
Description: Deep red single crystals embedded in matrix
Measured chemistry: (Mg_4.61_Fe_0.31_Mn_0.07_Ca_0.01_)_Σ=5_(Si_1.00_O_4_)_2_(F_1.16_(OH)_0.84_)_Σ=2_
Pin_id: M00425
Orientation: Laser parallel to [1 0 1]. Fiducial mark perpendicular to laser is parallel to -b* (0 -1 0)
Raman shift (cm-1)	intensity
211.498	0
215.615	6.768
219.73	2.001
223.843	16.008
227.953	80.293
232.062	30.441
236.169	31.627
240.274	38.603
244.377	63.305
248.478	86.338
252.576	6.562
256.673	23.198
260.768	0.541
264.861	126.583
268.952	131.338
273.041	48.061
277.128	252.863
281.213	426.663
285.296	222.432
289.378	66.578
293.457	5.764
297.534	28.6
301.609	1.396
305.682	83.901
309.754	57.29
313.823	28.505
317.89	7.177
321.956	51.331
326.019	187.808
330.081	304.252
334.14	232.267
338.198	181.99
342.254	221.237
346.307	129.685
350.359	139.319
354.409	48.642
358.457	62.873
362.503	63.857
366.547	30.564
370.589	3.418
374.629	33.049
378.667	103.648
382.703	147.193
386.738	272.549
390.77	314.473
394.8	208.041
398.829	172.7
402.855	86.224
406.88	191.294
410.903	399.483
414.923	489.654
418.942	434.812
422.959	358.951
426.974	255.074
430.987	184.177
434.999	134.252
439.008	85.298
443.015	64.315
447.021	38.076
451.024	46.567
455.026	25.493
459.025	66.147
463.023	9.515
467.019	18.646
471.013	38.838
475.005	13.058
478.995	53.692
482.983	56.398
486.97	31.937
490.954	52.302
494.937	24.302
498.917	60.88
502.896	44.428
506.873	7.772
510.848	0.776
514.821	24.619
518.792	14.846
522.761	8.8
526.729	0.599
530.694	40.151
534.658	85.794
538.62	39.925
542.58	72.831
546.538	105.804
550.494	261.676
554.448	269.577
558.4	129.505
562.351	206.96
566.299	205.545
570.246	276.953
574.191	315.232
578.134	422.248
582.075	593.238
586.014	843.202
589.952	1087.14
593.887	1582.83
597.821	2687.44
601.752	4158.48
605.682	5714.95
609.61	6139.42
613.537	4758.7
617.461	3091.45
621.383	1873.02
625.304	1257.67
629.223	933.038
633.14	597.519
637.055	349.226
640.968	283.805
644.879	237.346
648.789	263.005
652.697	125.374
656.602	86.003
660.506	158.618
664.409	70.163
668.309	5.25
672.207	55.778
676.104	35.232
679.999	36.712
683.892	8.227
687.783	49.774
691.672	54.355
695.56	68.965
699.445	26.605
703.329	40.73
707.211	40.951
711.091	38.654
714.969	10.629
718.846	37.907
722.72	90.183
726.593	85.455
730.464	127.726
734.333	141.997
738.201	243.273
742.066	236.558
745.93	262.854
749.792	296.157
753.652	343.47
757.511	361.789
761.367	491.116
765.222	464.45
769.075	413.795
772.926	537.15
776.775	487.515
780.622	602.89
784.468	623.657
788.312	754.674
792.154	789.085
795.994	855.509
799.833	945.945
803.669	1071.39
807.504	1215.74
811.337	1454.73
815.168	1680.95
818.998	2028.58
822.826	2608.58
826.652	3281.19
830.476	5012.07
834.298	7853.86
838.119	13722.9
841.937	26512.3
845.754	45241.3
849.569	44170.7
853.383	25780.3
857.195	14510.1
861.004	9139.84
864.812	6329.64
868.619	5405.46
872.423	5171.32
876.226	4128.21
880.027	3072.13
883.826	2137.08
887.624	1517.07
891.419	1268.09
895.213	1127.14
899.005	892.223
902.796	821.339
906.584	712.494
910.371	691.687
914.156	705.911
917.94	704.167
921.721	664.455
925.501	721.775
929.279	979.13
933.055	1384.52
936.83	1408.94
940.603	1565.39
944.374	1277.87
948.143	736.39
951.91	757.026
955.676	884.617
959.44	1233.25
963.203	2209.91
966.963	4620.62
970.722	6493.98
974.479	4816.19
978.234	2463.16
981.988	1439
985.74	1042.87
989.49	791.771
993.238	542.895
996.985	532.839
1000.73	483.071
1004.47	571.49
1008.21	364.834
1011.95	381.279
1015.69	346.437
1019.43	293.751
1023.16	219.314
1026.9	241.599
1030.63	250.818
1034.36	139.46
1038.08	237.405
1041.81	209.191
1045.53	163.466
1049.26	164
1052.98	101.365
1056.7	143.621
1060.41	122.306
1064.13	122.18
1067.84	143.524
1071.56	76.036
1075.27	62.356
1078.97	87.87
1082.68	90.251
1086.39	111.543
1090.09	179.817
1093.79	174.091
1097.49	136.361
1101.19	85.625
1104.89	4.114
1108.58	24.133
1112.28	142.367
1115.97	95.586
1119.66	142.792
1123.35	168.984
1127.03	51.157
1130.72	52.537
1134.4	48.282
1138.08	2.177
1141.76	11.101
1145.44	141.945
1149.12	73.959
1152.79	14.057
1156.47	36.829
1160.14	19.917
1163.81	62.913
1167.47	20.786
1171.14	17.431
1174.81	116.102
1178.47	84.823
1182.13	42.817
1185.79	0.078
1189.45	91.235
1193.11	84.434
1196.76	72.449
1200.41	114.083
1204.06	126.44
1207.71	62.471
1211.36	90.081
1215.01	1.556
1218.65	9.679
1222.3	9.199
1225.94	81.866
1229.58	93.199
1233.21	271.611
1236.85	272.553
1240.48	465.42
1244.12	183.261
1247.75	111.332
1251.38	48.134
1255.01	140.871
1258.63	129.721
1262.26	197.489
1265.88	226.99
1269.5	231.368
1273.12	203.781
1276.74	79.699
1280.36	19.094
1283.97	59.842
1287.59	73.083
1291.2	12.005
1294.81	72.647
1298.42	120.345
1302.02	39.49
1305.63	116.171
1309.23	125.594
1312.83	107.332
1316.43	59.969
1320.03	15.972
1323.63	31.998
1327.22	131.084
1330.82	110.229
1334.41	145.136
1338	63.158
1341.59	22.912
1345.17	35.299
1348.76	89.463
1352.34	94.698
1355.93	11.987
1359.51	37.604
1363.09	96.15
1366.66	176.701
1370.24	194.11
1373.81	85.596
1377.39	55.874
1380.96	24.866
1384.53	104.394
1388.09	113.33
1391.66	9.373
1395.22	59.588
1398.79	111.114
1402.35	243.325
1405.91	242.216
1409.46	269.732
1413.02	189.013
1416.58	47.135
1420.13	1.9
1423.68	27.627
1427.23	3.191
1430.78	18.776
1434.33	202.501
1437.87	256.131
1441.41	429.614
1444.96	524.272
1448.5	510.858
1452.04	525.621
1455.57	389.775
1459.11	358.378
1462.64	267.709
1466.17	178.943
1469.71	114.783
1473.23	170.634
1476.76	299.065
1480.29	367.051
1483.81	436.515
1487.34	421.893
1490.86	315.138
1494.38	221.336
1497.89	82.538
1501.41	96.828
1504.93	9.89
1508.44	70.614
1511.95	2.038
1515.46	31.545
1518.97	50.629
1522.48	182.779
1525.98	0
