Measurement: Raman, 514 nm, ccw, Raman Data Processed
Mineral: Chondrodite
Rruff sample: R040016
Ideal chemistry: Mg_5_(SiO_4_)_2_F_2_
Locality: Vastmanland, Kafveltorp, Sweden
Source: University of Arizona Mineral Museum
Description: Deep red single crystals embedded in matrix
Measured chemistry: (Mg_4.61_Fe_0.31_Mn_0.07_Ca_0.01_)_Σ=5_(Si_1.00_O_4_)_2_(F_1.16_(OH)_0.84_)_Σ=2_
Pin_id: M00385
Orientation: Laser parallel to -c [0 0 -1]. Fiducial mark perpendicular to laser is parallel to b* (0 1 0)
Raman shift (cm-1)	intensity
200.51	0
204.632	0.561
208.753	5.068
212.871	10.046
216.987	42.864
221.101	55.727
225.213	16.15
229.323	9.296
233.431	8.269
237.537	24.822
241.642	69.359
245.744	33.906
249.844	10.465
253.942	15.025
258.039	141.452
262.133	234.837
266.225	356.254
270.315	358.809
274.404	672.336
278.49	1167.87
282.575	870.365
286.657	425.74
290.738	296.014
294.816	334.205
298.893	351.292
302.967	317.171
307.04	354.076
311.11	476.933
315.179	658.667
319.246	702.445
323.311	512.195
327.373	395.146
331.434	244.328
335.493	236.896
339.55	157.377
343.605	116.444
347.658	78.818
351.709	50.739
355.758	98.17
359.806	123.185
363.851	230.414
367.894	240.553
371.936	271.791
375.975	142.122
380.013	30.554
384.048	99.817
388.082	18.836
392.114	18.129
396.143	33.917
400.171	41.538
404.197	10.81
408.221	36.124
412.243	60.411
416.263	56.663
420.282	16.871
424.298	0.03
428.312	64.865
432.325	8.813
436.335	91.189
440.344	68.145
444.35	2.042
448.355	63.124
452.358	50.345
456.359	58.553
460.358	82.904
464.355	107.322
468.35	75.802
472.344	12.349
476.335	25.985
480.325	39.705
484.312	25.495
488.298	20.653
492.282	57.741
496.264	13.762
500.244	80.018
504.222	134.212
508.198	126.231
512.172	114.948
516.145	105.791
520.115	155.801
524.084	201.314
528.051	254.238
532.016	436.986
535.979	644.265
539.94	1175.84
543.899	2097.94
547.857	3456.14
551.812	3385.33
555.766	1729.67
559.717	813.093
563.667	436.384
567.615	249.238
571.561	226.723
575.505	218.628
579.448	154.52
583.388	71.357
587.327	12.073
591.264	17.262
595.198	19.311
599.132	74.777
603.063	178.106
606.992	331.424
610.919	318.062
614.845	313.894
618.769	251.683
622.691	150.456
626.611	196.398
630.529	191.285
634.445	106.312
638.359	25.452
642.272	20.456
646.183	33.417
650.092	14.574
653.999	53.524
657.904	7.434
661.807	66.7
665.709	114.894
669.609	68.16
673.506	45.496
677.402	90.898
681.297	106.37
685.189	120.911
689.079	16.512
692.968	82.167
696.855	43.888
700.74	32.656
704.623	19.542
708.504	27.714
712.384	81.865
716.262	134.993
720.138	146.097
724.012	214.179
727.884	333.239
731.754	427.283
735.623	545.315
739.49	614.272
743.355	754.301
747.218	1017.33
751.079	1295.36
754.939	1526.38
758.796	1605.4
762.652	1608.42
766.506	1380.43
770.358	1255.44
774.209	1050.44
778.058	953.441
781.904	1044.03
785.75	1189.66
789.593	1199.64
793.434	1290.63
797.274	1330.61
801.112	1266.97
804.948	1336.88
808.782	1388.77
812.615	1557.67
816.445	1905.38
820.274	2345.85
824.101	3099.54
827.926	4253.15
831.75	6513.99
835.572	10872.1
839.392	20202
843.21	38562.1
847.026	50392.2
850.841	33812.4
854.654	18022.5
858.465	10382.7
862.274	6550.88
866.081	4484.1
869.887	3222.35
873.691	2486.61
877.493	1853.91
881.294	1504.24
885.092	1210.61
888.889	1054
892.684	839.427
896.477	802.887
900.269	780.375
904.059	626.894
907.847	658.448
911.633	639.033
915.418	593.646
919.2	566.299
922.981	634.988
926.76	846.711
930.538	1275.46
934.314	1267.25
938.088	1124.08
941.86	1290.94
945.63	1038.87
949.399	878.832
953.166	991.843
956.931	1195.9
960.695	1805.01
964.456	3431.15
968.216	6461.34
971.974	5444.57
975.731	2802.83
979.486	1471.11
983.239	858.421
986.99	553.752
990.74	337.159
994.487	304.535
998.233	313.933
1001.98	412.528
1005.72	386.999
1009.46	189.679
1013.2	134.692
1016.94	192.835
1020.67	141.774
1024.41	189.034
1028.14	216.962
1031.87	167.937
1035.6	110.81
1039.33	126.989
1043.05	113.079
1046.78	65.9
1050.5	76.094
1054.22	158.957
1057.93	53.177
1061.65	54.96
1065.37	56.05
1069.08	90.061
1072.79	103.081
1076.5	117.36
1080.21	204.267
1083.92	164.965
1087.62	95.615
1091.33	90.33
1095.03	79.462
1098.73	145.11
1102.42	177.752
1106.12	154.387
1109.81	115.011
1113.51	44.625
1117.2	37.224
1120.89	7.191
1124.58	55.371
1128.26	59.914
1131.95	61.435
1135.63	85.928
1139.31	18.389
1142.99	94.183
1146.67	81.8
1150.34	32.464
1154.02	5.178
1157.69	16.056
1161.36	26.384
1165.03	5.532
1168.7	29.382
1172.36	83.253
1176.03	45.441
1179.69	41.233
1183.35	46.027
1187.01	26.994
1190.67	27.733
1194.32	32.604
1197.98	30.007
1201.63	49.362
1205.28	71.218
1208.93	56.605
1212.58	2.619
1216.22	110.245
1219.87	88.574
1223.51	91.585
1227.15	37.207
1230.79	64.879
1234.43	42.68
1238.06	134.159
1241.7	139.757
1245.33	132.142
1248.96	216.607
1252.59	165.507
1256.22	134.445
1259.84	28.382
1263.47	73.917
1267.09	82.299
1270.71	77.812
1274.33	130.578
1277.95	196.353
1281.56	64.216
1285.18	151.816
1288.79	33.376
1292.4	77.684
1296.01	67.514
1299.62	21.226
1303.22	81.389
1306.83	34.656
1310.43	41.716
1314.03	54.252
1317.63	57.133
1321.23	52.6
1324.83	58.103
1328.42	15.632
1332.02	97.498
1335.61	120.486
1339.2	49.675
1342.78	57.398
1346.37	40.709
1349.95	24.739
1353.54	14.583
1357.12	56.104
1360.7	65.421
1364.28	83.847
1367.86	78.382
1371.43	100.971
1375	48.509
1378.58	22.239
1382.15	60.805
1385.71	134.752
1389.28	109.607
1392.85	43.847
1396.41	17.58
1399.97	56.809
1403.54	61.647
1407.09	81.58
1410.65	13.758
1414.21	1.987
1417.76	55.795
1421.31	152.696
1424.87	111.976
1428.41	128.385
1431.96	116.11
1435.51	122.882
1439.05	116.791
1442.6	188.144
1446.14	233.202
1449.68	286.197
1453.21	340.511
1456.75	435.241
1460.29	416.726
1463.82	487.519
1467.35	413.417
1470.88	400.513
1474.41	268.55
1477.94	176.752
1481.46	137.27
1484.99	171.324
1488.51	139.329
1492.03	92.28
1495.55	114.164
1499.07	149.952
1502.58	194.769
1506.1	162.695
1509.61	95.584
1513.12	180.97
1516.63	118.46
1520.14	59.749
1523.65	18.69
