Measurement: Raman, 514 nm, ccw, Raman Data Processed
Mineral: Chondrodite
Rruff sample: R040016
Ideal chemistry: Mg_5_(SiO_4_)_2_F_2_
Locality: Vastmanland, Kafveltorp, Sweden
Source: University of Arizona Mineral Museum
Description: Deep red single crystals embedded in matrix
Measured chemistry: (Mg_4.61_Fe_0.31_Mn_0.07_Ca_0.01_)_Σ=5_(Si_1.00_O_4_)_2_(F_1.16_(OH)_0.84_)_Σ=2_
Pin_id: M00452
Orientation: Laser parallel to -a [-1 0 0]. Fiducial mark perpendicular to laser is parallel to b* (0 1 0)
Raman shift (cm-1)	intensity
218.358	0
222.472	45.618
226.583	28.035
230.693	45.968
234.8	36.26
238.906	4.745
243.009	22.309
247.111	28.414
251.21	57.562
255.308	43.743
259.404	103.953
263.497	132.194
267.589	102.974
271.678	123.748
275.766	376.055
279.852	516.375
283.936	384.706
288.017	226.044
292.097	171.386
296.175	193.755
300.251	218.151
304.325	78.568
308.397	34.986
312.467	22.408
316.535	93.834
320.601	129.266
324.665	130.702
328.727	172.14
332.787	214.577
336.846	223.013
340.902	181.443
344.956	155.867
349.009	147.281
353.059	247.684
357.108	311.074
361.154	397.451
365.199	395.958
369.242	353.629
373.282	306.38
377.321	275.93
381.358	365.754
385.393	632.243
389.426	581.692
393.457	367.113
397.486	255.582
401.513	288.064
405.539	374.553
409.562	460.049
413.583	527.55
417.603	533.052
421.62	382.549
425.636	325.042
429.65	259.526
433.662	353.996
437.672	388.452
441.68	285.892
445.686	227.316
449.69	273.721
453.692	261.109
457.692	205.478
461.691	275.826
465.687	468.154
469.682	671.459
473.675	696.743
477.665	514.004
481.654	346.241
485.641	236.454
489.626	167.642
493.609	105.804
497.591	68.94
501.57	39.202
505.548	38.764
509.523	20.711
513.497	52.523
517.469	21.688
521.439	7.666
525.407	89.194
529.373	6.356
533.337	78.511
537.299	157.712
541.26	254.878
545.218	450.611
549.175	755.365
553.13	633.758
557.083	472.089
561.034	336.268
564.983	432.195
568.931	569.027
572.876	744.419
576.82	1073.77
580.761	1355.06
584.701	1213.31
588.639	927.517
592.575	848.672
596.51	1100.78
600.442	1540.84
604.373	2186.85
608.301	2609.81
612.228	2235.73
616.153	1431.59
620.076	888.41
623.997	489.18
627.917	295.901
631.834	244.575
635.75	129.2
639.664	15.222
643.576	7.696
647.486	86.226
651.394	21.83
655.301	33.866
659.205	113.989
663.108	105.024
667.009	127.364
670.908	88.503
674.805	126.591
678.701	115.76
682.594	94.01
686.486	55.337
690.376	41.734
694.264	78.199
698.15	88.731
702.035	29.322
705.917	29.963
709.798	70.346
713.677	61.615
717.554	38.261
721.429	135.049
725.303	244.216
729.174	240.352
733.044	337.458
736.912	401.533
740.778	430.581
744.642	513.602
748.505	648.596
752.366	741.464
756.225	856.512
760.082	932.435
763.937	899.337
767.79	871.22
771.642	854.084
775.492	797.93
779.34	709.677
783.186	850.374
787.031	952.331
790.873	936.527
794.714	1019.51
798.553	1075.06
802.391	1091.47
806.226	1234.51
810.06	1425.88
813.892	1687.44
817.722	1936.85
821.55	2392.32
825.376	3074.26
829.201	4419.04
833.024	6999.9
836.845	11636.9
840.665	21464.4
844.482	39251.8
848.298	43949.4
852.112	28707.3
855.924	17005.2
859.735	11173.2
863.543	9061.14
867.35	9839.11
871.155	10457.1
874.959	8265.14
878.76	5369.19
882.56	3394.27
886.358	2398.38
890.154	1882.53
893.949	1511.7
897.742	1361.9
901.532	1092.14
905.322	1033.41
909.109	949.715
912.895	893.059
916.679	1031.44
920.461	1168.87
924.241	1466.34
928.02	2250.86
931.797	3813.43
935.572	3339.05
939.345	3041.73
943.117	3122.46
946.887	2078.25
950.655	1478.09
954.421	1333.98
958.186	1441.92
961.949	2262.92
965.71	4267.96
969.469	6498.05
973.227	4659.18
976.983	2482.35
980.737	1499.71
984.489	885.206
988.24	673.678
991.989	510.007
995.736	441.347
999.482	358.907
1003.23	306.396
1006.97	369.941
1010.71	253.609
1014.45	240.479
1018.18	265.153
1021.92	250.013
1025.65	253.022
1029.38	172.874
1033.11	194.644
1036.84	216.462
1040.57	205.836
1044.29	227.124
1048.02	150.574
1051.74	168.819
1055.46	147.76
1059.17	96.045
1062.89	131.405
1066.61	139.383
1070.32	176.406
1074.03	185.388
1077.74	150.272
1081.45	103.145
1085.15	30.023
1088.86	58.028
1092.56	115.92
1096.26	126.797
1099.96	88.669
1103.66	134.536
1107.35	41.493
1111.05	24.657
1114.74	47.79
1118.43	79.027
1122.12	57.832
1125.81	98.613
1129.49	189.374
1133.17	8.668
1136.86	19.921
1140.54	40.99
1144.21	1.041
1147.89	24.582
1151.57	94.455
1155.24	173.078
1158.91	17.999
1162.58	28.804
1166.25	33.967
1169.92	64.937
1173.59	30.77
1177.25	32.022
1180.91	41.056
1184.57	72.926
1188.23	8.529
1191.89	15.523
1195.54	29.864
1199.19	37.101
1202.85	25.522
1206.5	87.268
1210.15	6.368
1213.79	51.464
1217.44	132.268
1221.08	58.775
1224.72	84.794
1228.36	16.638
1232	14.216
1235.64	88.858
1239.27	153.281
1242.91	212.181
1246.54	191.161
1250.17	28.711
1253.8	46.557
1257.42	99.312
1261.05	46.456
1264.67	5.06
1268.3	42.608
1271.92	92.338
1275.54	118.255
1279.15	27.588
1282.77	53.142
1286.38	54.739
1289.99	117.135
1293.6	53.449
1297.21	44.724
1300.82	2.742
1304.43	10.883
1308.03	25.664
1311.63	61.215
1315.23	5.123
1318.83	56.861
1322.43	111.827
1326.03	138.506
1329.62	37.769
1333.21	27.078
1336.8	2.628
1340.39	83.204
1343.98	19.676
1347.57	50.173
1351.15	24.679
1354.73	101.539
1358.31	54.487
1361.89	88.543
1365.47	44.63
1369.05	74.993
1372.62	27.634
1376.19	136.138
1379.77	120.558
1383.34	76.004
1386.9	43.401
1390.47	22.275
1394.04	59.394
1397.6	108.161
1401.16	82.125
1404.72	11.039
1408.28	35.263
1411.84	43.567
1415.39	152.167
1418.94	133.503
1422.5	44.529
1426.05	13.561
1429.6	43.606
1433.14	109.811
1436.69	38.418
1440.23	14.073
1443.78	23.78
1447.32	103.568
1450.86	141.801
1454.39	182.855
1457.93	258.182
1461.46	234.742
1465	187.505
1468.53	98.192
1472.06	27.135
1475.59	18.623
1479.11	27.125
1482.64	50.823
1486.16	91.522
1489.68	127.861
1493.2	220.156
1496.72	196.384
1500.24	237.954
1503.76	228.004
1507.27	166.011
1510.78	88.25
1514.29	56.836
1517.8	44.239
1521.31	84.751
