Measurement: Raman, 514 nm, ccw, Raman Data Processed
Mineral: Chondrodite
Rruff sample: R040016
Ideal chemistry: Mg_5_(SiO_4_)_2_F_2_
Locality: Vastmanland, Kafveltorp, Sweden
Source: University of Arizona Mineral Museum
Description: Deep red single crystals embedded in matrix
Measured chemistry: (Mg_4.61_Fe_0.31_Mn_0.07_Ca_0.01_)_Σ=5_(Si_1.00_O_4_)_2_(F_1.16_(OH)_0.84_)_Σ=2_
Pin_id: M00452
Orientation: Laser parallel to -a [-1 0 0]. Fiducial mark perpendicular to laser is parallel to b* (0 1 0)
Raman shift (cm-1)	intensity
203.259	0
207.379	17.726
211.498	1.602
215.615	63.907
219.73	38.743
223.843	22.356
227.953	52.889
232.062	3.601
236.169	28.194
240.274	19.276
244.377	15.213
248.478	65.678
252.576	174.134
256.673	187.804
260.768	144.663
264.861	137.661
268.952	228.995
273.041	202.32
277.128	602.633
281.213	710.989
285.296	424.349
289.378	243.732
293.457	246.14
297.534	440.572
301.609	306.992
305.682	58.401
309.754	17.203
313.823	6.821
317.89	20.452
321.956	17.9
326.019	116.234
330.081	173.548
334.14	194.836
338.198	199.09
342.254	200.319
346.307	158.522
350.359	184.047
354.409	147.012
358.457	227.617
362.503	365.724
366.547	510.095
370.589	550.035
374.629	460.639
378.667	485.061
382.703	624.1
386.738	782.785
390.77	689.075
394.8	465.362
398.829	393.647
402.855	371.929
406.88	525.196
410.903	748.442
414.923	814.676
418.942	691.894
422.959	497.097
426.974	385.28
430.987	363.44
434.999	329.576
439.008	303.687
443.015	247.772
447.021	252.829
451.024	200.859
455.026	151.779
459.025	198.718
463.023	236.522
467.019	302.176
471.013	249.06
475.005	253.913
478.995	224.735
482.983	99.526
486.97	67.285
490.954	44.013
494.937	45.707
498.917	40.835
502.896	5.424
506.873	41.285
510.848	52.113
514.821	33.426
518.792	35.73
522.761	102.413
526.729	51.682
530.694	27.58
534.658	117.597
538.62	107.133
542.58	207.455
546.538	419.114
550.494	663.973
554.448	450.433
558.4	191.875
562.351	93.934
566.299	228.031
570.246	330.803
574.191	416.525
578.134	556.196
582.075	737.817
586.014	658.387
589.952	485.906
593.887	279.375
597.821	359.794
601.752	674.163
605.682	1000.48
609.61	1169.76
613.537	942.983
617.461	646.159
621.383	388.285
625.304	278.361
629.223	93.389
633.14	34.367
637.055	32.702
640.968	92.827
644.879	37.045
648.789	9.51
652.697	103.299
656.602	109.375
660.506	38.447
664.409	79.767
668.309	67.922
672.207	65.547
676.104	117.666
679.999	72.527
683.892	43.462
687.783	46.461
691.672	47.52
695.56	69.635
699.445	0.201
703.329	42.005
707.211	12.744
711.091	71.461
714.969	113.147
718.846	128.804
722.72	257.433
726.593	154.035
730.464	250.612
734.333	323.164
738.201	419.692
742.066	480.198
745.93	543.684
749.792	567.151
753.652	765.599
757.511	869.03
761.367	963.445
765.222	951.846
769.075	856.235
772.926	825.612
776.775	747.815
780.622	841.415
784.468	1010.04
788.312	1032.8
792.154	976.073
795.994	1028.23
799.833	1018.62
803.669	1197.86
807.504	1318.89
811.337	1489.3
815.168	1636.66
818.998	1968.93
822.826	2536.3
826.652	3385.15
830.476	4962.78
834.298	7581.68
838.119	13129
841.937	25356.2
845.754	42613.7
849.569	40401.2
853.383	24518.9
857.195	14846.5
861.004	11004.2
864.812	10531.9
868.619	12579.6
872.423	12857.3
876.226	8805.12
880.027	5304.95
883.826	3467.8
887.624	2439.7
891.419	1939.63
895.213	1585.6
899.005	1297.61
902.796	1176.66
906.584	1024.76
910.371	929.902
914.156	986.091
917.94	1004.33
921.721	1026.63
925.501	1151.99
929.279	1698.4
933.055	2422.87
936.83	2288.41
940.603	3008.01
944.374	2915.67
948.143	2007.39
951.91	1695.17
955.676	1696.02
959.44	2143.93
963.203	3206.9
966.963	5772.92
970.722	6845
974.479	3918.22
978.234	1950.4
981.988	1202.62
985.74	882.894
989.49	581.207
993.238	468.562
996.985	330.959
1000.73	269.519
1004.47	401
1008.21	300.525
1011.95	305.327
1015.69	238.942
1019.43	243.598
1023.16	155.375
1026.9	161.348
1030.63	251.295
1034.36	146.355
1038.08	182.639
1041.81	215.116
1045.53	224.233
1049.26	121.71
1052.98	168.843
1056.7	147.078
1060.41	145.255
1064.13	160.625
1067.84	157.987
1071.56	162.26
1075.27	106.526
1078.97	187.886
1082.68	203.181
1086.39	225.617
1090.09	236.221
1093.79	198.675
1097.49	162.187
1101.19	108.569
1104.89	11.04
1108.58	86.361
1112.28	139.769
1115.97	152.185
1119.66	180.605
1123.35	163.028
1127.03	32.452
1130.72	19.065
1134.4	32.354
1138.08	26.771
1141.76	131.766
1145.44	205.548
1149.12	69.944
1152.79	72.525
1156.47	43.44
1160.14	31.711
1163.81	48.564
1167.47	67.899
1171.14	91.411
1174.81	102.737
1178.47	80.468
1182.13	14.517
1185.79	29.258
1189.45	29.483
1193.11	16.309
1196.76	58.464
1200.41	104.183
1204.06	97.453
1207.71	128.031
1211.36	18.206
1215.01	22.679
1218.65	54.537
1222.3	23.575
1225.94	36.648
1229.58	82.633
1233.21	155.31
1236.85	104.267
1240.48	79.823
1244.12	77.544
1247.75	8.203
1251.38	22.664
1255.01	57.07
1258.63	71.413
1262.26	147.737
1265.88	93.111
1269.5	47.426
1273.12	90.768
1276.74	7.585
1280.36	40.22
1283.97	100.292
1287.59	71.681
1291.2	81.102
1294.81	38.348
1298.42	27.052
1302.02	51.871
1305.63	63.753
1309.23	118.396
1312.83	16.639
1316.43	118.546
1320.03	62.369
1323.63	33.421
1327.22	51.488
1330.82	10.277
1334.41	73.116
1338	92.913
1341.59	2.571
1345.17	59.872
1348.76	70.528
1352.34	21.983
1355.93	68.391
1359.51	67.659
1363.09	72.009
1366.66	138.299
1370.24	75.527
1373.81	105.695
1377.39	47.805
1380.96	8.054
1384.53	5.055
1388.09	38.107
1391.66	29.823
1395.22	34.852
1398.79	169.298
1402.35	168.117
1405.91	100.104
1409.46	123.632
1413.02	97.406
1416.58	1.056
1420.13	29.885
1423.68	5.904
1427.23	57.002
1430.78	30.368
1434.33	136.214
1437.87	126.641
1441.41	211.731
1444.96	179.73
1448.5	210.41
1452.04	179.003
1455.57	166.973
1459.11	128.707
1462.64	4.042
1466.17	159.356
1469.71	110.597
1473.23	117.089
1476.76	221.719
1480.29	298.992
1483.81	254.266
1487.34	206.826
1490.86	245.34
1494.38	172.798
1497.89	103.306
1501.41	34.824
1504.93	18.615
1508.44	78.985
1511.95	66.64
1515.46	50.267
1518.97	64.542
1522.48	90.009
