Measurement: Raman, 532 nm, ccw, Raman Data Processed
Mineral: Chromatite
Rruff sample: R130086
Ideal chemistry: CaCr^6+^O_4_
Locality: Synthetic
Source: Jessy Gillot (Laboratory Manager Imaging & Microstructural Analysis, Saint-Gobain Recherche, France)
Description: Pale yellow crystals precipitated onto the surface of alumina in a hot atmosphere
Raman shift (cm-1)	intensity
90.7	0
94.1	0.506107
97.4	0.299007
101	2.12789
104	10.9263
108	24.6689
111	40.3383
114	19.3285
118	2.63805
121	0.362717
124	0.588074
128	1.41814
131	2.55431
135	4.70248
138	7.28805
141	11.144
145	13.4028
148	13.3162
151	8.43692
155	4.26519
158	2.51562
162	1.47593
165	0.942116
168	0.712807
172	0.387245
175	0.164627
178	0.044357
182	0.07402
185	0.208878
189	0.093132
192	0.078705
195	0.035179
199	0.150864
202	0.036751
205	0.520996
209	1.02365
212	1.41172
216	3.26382
219	5.07914
222	9.57664
226	16.0737
229	22.3698
232	24.665
236	19.2544
239	12.2438
243	7.10689
246	4.99693
249	3.67957
253	2.56661
256	1.54677
259	0.87368
263	0.856133
266	0.136833
270	0.137596
273	0.025345
276	0.634407
280	3.72002
283	9.07262
286	14.5231
290	25.3715
293	38.0181
297	62.6632
300	86.3073
303	112.951
307	30.5929
310	8.53445
313	2.97549
317	1.51678
320	0.559448
324	0.489929
327	0.352898
330	0.381813
334	0.282318
337	0.745178
340	1.27544
344	2.90866
347	4.2452
351	6.78537
354	9.42953
357	11.878
361	17.5311
364	25.1894
367	34.8533
371	48.524
374	64.2028
378	76.8925
381	90.5851
384	74.2636
388	34.8752
391	18.4396
394	11.1234
398	6.26375
401	3.81274
405	2.87043
408	2.33684
411	3.71197
415	5.69614
418	8.49209
421	2.40324
425	0.125618
428	0.043289
432	0.072845
435	0.322487
438	0.095695
442	1.46464
445	3.13693
448	6.22104
452	14.1153
455	27.0159
459	43.9218
462	63.8323
465	69.747
469	39.6657
472	14.6026
475	5.72808
479	2.32809
482	1.29606
486	0.632393
489	0.131943
492	0.097847
496	0.237076
499	0.098724
502	0.3358
506	1.28433
509	2.01093
513	2.43019
516	2.53326
519	1.53134
523	0.624016
526	0.421242
529	0.224548
533	0.367142
536	0.392937
540	0.460861
543	0.729774
546	0.534042
550	0.49321
553	0.677338
556	0.165001
560	0.148849
563	0.623039
567	0.488647
570	1.44582
573	1.19563
577	1.93924
580	1.67481
583	1.40296
587	0.112289
590	0.658798
594	0.154198
597	0.186867
600	0.495651
604	0.172997
607	0.844406
610	1.50507
614	2.14597
617	1.80022
621	1.43045
624	1.08569
627	1.74098
631	0.421806
634	1.08617
637	0.754784
641	1.39958
644	1.03598
648	1.64165
651	1.29384
654	0.938866
658	1.54771
661	2.21023
664	1.90154
668	1.59737
671	1.31892
675	0.980278
678	0.634254
681	0.296272
685	1.0471
688	0.682899
691	0.31633
695	0.953003
698	0.592232
702	1.23621
705	0.905602
708	0.547119
712	1.19001
715	0.799767
718	0.3955
722	0.001717
725	0.417435
729	0.16954
732	0.719345
735	1.24359
739	0.815178
742	1.38254
745	2.07284
749	2.76614
752	2.5579
756	2.29745
759	1.76318
762	1.18675
766	1.55791
769	1.90082
772	2.24947
776	1.56197
779	0.833862
783	1.11118
786	1.28909
789	0.535973
793	0.779617
796	0.005684
799	0.122612
803	0.659225
806	0.461304
810	0.284958
813	1.13158
816	0.001083
820	0.104767
823	0.216324
826	0.324615
830	0.464767
833	1.61556
837	3.76279
840	9.9205
843	19.0813
847	24.2921
850	21.5203
853	19.7286
857	21.9031
860	34.0008
864	66.0554
867	154.016
870	402.109
874	1113.38
877	2162.76
880	2622.22
884	1091.7
887	407.203
891	186.775
894	126.417
897	179.102
901	404.924
904	840.797
907	672.498
911	131.206
914	42.9416
918	19.7051
921	12.5783
924	12.5707
928	16.4307
931	21.3355
934	15.4771
938	6.5146
941	2.5204
945	0.577225
948	0.417969
951	0.400528
955	0.42247
958	0.438141
961	0.449677
965	1.52779
968	2.52255
972	2.51993
975	1.52618
978	0.467545
982	0.515762
985	0.49733
988	0.464676
992	0.419388
995	0.352585
999	1.26897
1000	1.16962
1010	1.03648
1010	1.83867
1010	2.61554
1020	2.26901
1020	2.88672
1020	3.64912
1030	3.45281
1030	3.24129
1030	3.01389
1040	3.73152
1040	4.26654
1040	3.98961
1050	3.68396
1050	4.14899
1050	4.72136
1060	4.2995
1060	4.84898
1060	5.45099
1070	5.02187
1070	5.63382
1070	5.22849
1080	6.81036
1080	0.387024
1080	4.91768
1090	4.44864
1090	4.94653
1090	5.42871
1100	4.92102
1100	5.40004
1100	4.87845
1110	4.35837
1110	4.82945
1110	4.29668
1120	3.76013
1120	4.25453
1120	3.70923
1130	3.15422
1130	2.59598
1130	2.03072
1140	1.54286
1140	0.942734
1140	1.40884
1150	1.83066
1150	1.26791
1150	0.686859
1160	1.10443
1160	0.521393
1160	0.937271
1170	0.352386
1170	0.766785
1170	0.181244
1180	0.594666
1180	0.00676
1180	0.419052
1190	0.83197
1190	1.24881
1190	0.33638
1200	0.101227
1200	0.475983
1200	0.031647
1210	0.410782
1210	0.85173
1210	1.29266
1220	0.74057
1220	2.17596
1220	1.6237
1230	2.07103
1230	1.53136
1230	1.95523
1240	1.4126
1240	0.87384
1240	0.335754
1250	0.804581
1250	0.233124
1250	0.651718
1260	1.09593
1260	0.562119
1270	1.03067
1270	0.50148
1270	0.024551
1280	0.452682
1280	0.919312
1280	0.4077
1290	0.895538
1290	0.400253
1290	0.102112
1300	1.42499
1300	0.914474
1300	0.367828
1310	0.00235
