Measurement: Raman, 514 nm, ccw, Raman Data Processed
Mineral: Chrysoberyl
Rruff sample: R040073
Ideal chemistry: BeAl_2_O_4_
Locality: Brazil
Source: University of Arizona Mineral Museum
Description: Pair of green prismatic crystals
Measured chemistry: (Be_0.89_Al_0.06_Fe_0.02_)Al_2.00_O_4_
Pin_id: M00464
Orientation: Laser parallel to -c* (0 0 -1). Fiducial mark perpendicular to laser is parallel to a [1 0 0]
Raman shift (cm-1)	intensity
88.496	0
92.678	209.138
96.858	801.748
101.036	1496.72
105.212	2191.29
109.387	3377.57
113.559	2681.89
117.729	1966.84
121.897	2180.4
126.063	1719.65
130.228	2004.38
134.39	1551.78
138.55	1297.31
142.709	1001.21
146.865	687.42
151.019	603.905
155.171	512.599
159.322	389.763
163.47	440.238
167.617	437.375
171.761	549.139
175.904	535.475
180.044	283.639
184.183	365.514
188.319	272.206
192.454	343.662
196.586	33.9
200.717	155.622
204.846	19.942
208.972	55.903
213.097	101.682
217.22	90.013
221.341	86.412
225.46	40.92
229.577	90.877
233.692	58.95
237.805	146.201
241.916	207.379
246.025	85.397
250.132	57.066
254.237	113.184
258.34	42.359
262.442	140.242
266.541	3.395
270.639	82.686
274.734	23.331
278.828	131.268
282.919	16.174
287.009	109.675
291.097	172.268
295.183	196.054
299.266	188.563
303.348	262.854
307.428	377.977
311.507	360.714
315.583	372.641
319.657	418.19
323.729	459.719
327.8	513.495
331.868	362.169
335.935	604.58
339.999	1016.4
344.062	1367.66
348.123	1745.31
352.182	1273.74
356.239	1482.6
360.294	2159.88
364.347	2263.07
368.398	2913.19
372.448	1549.87
376.495	616.724
380.54	267.852
384.584	351.535
388.626	363.39
392.666	231.159
396.704	18.294
400.74	12.221
404.774	0.501
408.806	204.509
412.836	1091.57
416.865	5379.29
420.891	6005.94
424.916	1311.69
428.939	1394.12
432.959	3356.2
436.978	1237.93
440.996	449.922
445.011	390.003
449.024	299.633
453.036	1143.56
457.045	3905.53
461.053	2169.64
465.059	585.113
469.063	840.266
473.065	2075.58
477.065	2820.16
481.063	1113.96
485.06	647.619
489.054	591.067
493.047	643.553
497.038	737.817
501.027	912.553
505.014	1282.11
508.999	2759.51
512.982	10216.6
516.964	19893.4
520.944	10819.9
524.921	5006.32
528.897	1963.88
532.871	1408.09
536.844	1967.66
540.814	5123.94
544.783	9715.3
548.749	5947.21
552.714	2258.8
556.677	1119.27
560.638	925.252
564.597	737.891
568.555	641.701
572.511	316.815
576.464	268.686
580.416	371.198
584.366	406.764
588.315	226.055
592.261	244.101
596.206	392.256
600.148	680.559
604.089	587.996
608.028	505.899
611.965	754.489
615.901	1313.18
619.834	1741.93
623.766	2590.73
627.696	2279.59
631.624	3058.49
635.551	8897.45
639.475	9456.48
643.398	4315.58
647.318	2814.77
651.237	2194.03
655.155	1773.36
659.07	1142.75
662.984	692.169
666.895	441.612
670.805	261.09
674.713	260.628
678.62	280.243
682.524	119.905
686.427	60.396
690.328	80.813
694.227	38.514
698.124	87.693
702.02	196.945
705.913	86.306
709.805	495.773
713.695	85.359
717.584	104.998
721.47	205.527
725.355	136.41
729.238	17.451
733.119	51.459
736.998	0.187
740.876	101.418
744.752	46.688
748.626	154.787
752.498	162.931
756.368	331.116
760.237	379.346
764.104	677.617
767.969	1285.93
771.832	2754.28
775.693	4902.7
779.553	4441.16
783.411	2379.65
787.267	1098.17
791.122	716.748
794.974	495.376
798.825	224.045
802.674	232.746
806.522	71.481
810.367	190.263
814.211	269.111
818.053	440.741
821.893	657.112
825.732	756.262
829.568	1009.53
833.403	968.819
837.236	978.175
841.068	1052.88
844.898	1133.29
848.726	833.249
852.552	1208.16
856.376	1697.69
860.199	1848.05
864.02	1587.1
867.839	1486.86
871.656	739.272
875.472	843.253
879.286	904.068
883.098	962.038
886.909	869.482
890.717	644.324
894.524	481.325
898.33	646.549
902.133	737.561
905.935	788.794
909.735	1059.35
913.533	1009.99
917.33	1220.69
921.124	2531.95
924.918	4855.36
928.709	8416.87
932.499	8987.86
936.286	6388.92
940.073	4060.78
943.857	2352.9
947.64	1705.79
951.421	1557.07
955.2	928.693
958.978	670.403
962.753	563.356
966.527	319.324
970.3	336.763
974.071	215.341
977.84	177.215
981.607	93.454
985.372	188.397
989.136	41.656
992.898	79.009
996.659	249.022
1000.42	124.172
1004.17	52.713
1007.93	189.482
1011.68	196.062
1015.43	205.797
1019.18	187.399
1022.93	193.813
1026.68	176.505
1030.42	70.529
1034.17	60.903
1037.91	87.971
1041.65	96.791
1045.39	142.242
1049.12	18.344
1052.86	123.092
1056.59	88.29
1060.33	25.908
1064.06	143.66
1067.78	9.279
1071.51	47.729
1075.23	9.57
1078.96	56.597
1082.68	91.533
1086.4	122.715
1090.12	12.896
1093.83	24.327
1097.55	88.246
1101.26	79.79
1104.97	72.001
1108.68	7.91
1112.39	27.701
1116.1	21.319
1119.8	51.474
1123.5	66.613
1127.2	49.46
1130.9	5.399
1134.6	75.558
1138.3	3.858
1141.99	9.015
1145.69	37.006
1149.38	110.486
1153.07	127.613
1156.76	7.005
1160.44	159.365
1164.13	130.458
1167.81	3.156
1171.49	33.075
1175.17	146.084
1178.85	39.555
1182.52	8.24
1186.2	71.212
1189.87	167.562
1193.54	147.502
1197.21	110.35
1200.88	36.003
1204.55	8.693
1208.21	95.419
1211.88	81.047
1215.54	190.816
1219.2	67.795
1222.86	3.416
1226.51	197.421
1230.17	164.163
1233.82	65.571
1237.47	85.28
1241.12	201.821
1244.77	189.969
1248.42	110.209
1252.06	189.038
1255.71	71.264
1259.35	72.117
1262.99	54.008
1266.63	33.583
1270.26	149.856
1273.9	35.449
1277.53	59.079
1281.16	152.059
1284.8	38.963
1288.42	36.645
1292.05	45.768
1295.68	157.801
1299.3	7.797
1302.92	12.922
1306.55	86.039
1310.16	15.227
1313.78	113.002
1317.4	125.092
1321.01	20.098
1324.62	63.564
1328.24	144.055
1331.85	77.668
1335.45	100.199
1339.06	176.355
1342.66	61.551
1346.27	167.449
1349.87	160.869
1353.47	40.721
1357.07	69.336
1360.66	64.07
1364.26	53.941
1367.85	119.389
1371.44	48.01
1375.04	21.805
1378.62	37.328
1382.21	58.596
1385.8	49.35
1389.38	144.873
1392.96	172.766
1396.54	57.158
1400.12	141.982
1403.7	39.031
1407.28	105.387
1410.85	142.951
1414.42	79.076
1417.99	70.785
1421.56	118.869
1425.13	125.672
1428.7	94.006
1432.26	104.971
1435.83	74.869
1439.39	131.312
1442.95	127.664
1446.51	73.842
1450.06	0.049
1453.62	171.514
1457.17	40.66
1460.73	122.598
1464.28	190.211
1467.83	120.984
1471.37	66.961
1474.92	29.039
1478.46	83.889
1482.01	168.701
1485.55	84.66
1489.09	103.566
1492.63	84.697
1496.16	4.629
1499.7	176.238
1503.23	3.697
1506.76	151.893
