Measurement: Raman, 514 nm, ccw, Raman Data Processed
Mineral: Chrysoberyl
Rruff sample: R040073
Ideal chemistry: BeAl_2_O_4_
Locality: Brazil
Source: University of Arizona Mineral Museum
Description: Pair of green prismatic crystals
Measured chemistry: (Be_0.89_Al_0.06_Fe_0.02_)Al_2.00_O_4_
Pin_id: M00359
Orientation: Laser parallel to -a [-1 0 0]. Fiducial mark perpendicular to laser is parallel to -b* (0 -1 0)
Raman shift (cm-1)	intensity
94.768	0
98.947	3.352
103.124	127.374
107.3	440.346
111.473	349.129
115.644	922.784
119.813	879.268
123.981	499.182
128.146	325.274
132.309	304.332
136.47	289.14
140.63	335.48
144.787	192.553
148.942	225.758
153.096	272.556
157.247	217.012
161.396	340.691
165.544	501.54
169.689	521.064
173.833	577.469
177.974	754.762
182.114	757.041
186.251	803.002
190.387	616.43
194.52	583.877
198.652	571.833
202.782	430.807
206.909	434.848
211.035	191.473
215.159	122.915
219.281	123.133
223.4	25.062
227.518	131.657
231.634	30.928
235.748	29.893
239.86	191.527
243.97	299.765
248.079	97.443
252.185	52.252
256.289	84.353
260.391	31.757
264.492	27.67
268.59	126.431
272.687	33.305
276.781	6.376
280.874	76.28
284.964	95.099
289.053	106.757
293.14	101.817
297.225	171.903
301.308	148.931
305.389	198.528
309.468	229.68
313.545	156.434
317.62	142.838
321.693	238.873
325.765	284.393
329.834	418.505
333.902	547.135
337.967	651.526
342.031	1240.13
346.093	2964.91
350.153	4916.08
354.21	2348.93
358.267	2084.65
362.321	3447.27
366.373	7722.81
370.423	10702.3
374.471	4516.7
378.518	1475.95
382.563	576.527
386.605	339.941
390.646	265.929
394.685	150.089
398.722	44.186
402.757	58.089
406.79	142.146
410.821	40.905
414.851	48.618
418.878	393.562
422.904	275.785
426.927	126.391
430.949	175.579
434.969	431.275
438.987	495.632
443.003	1090.45
447.018	1544.43
451.03	1851.47
455.041	6329.01
459.049	16647.6
463.056	6290.49
467.061	2109.08
471.064	2995.86
475.065	8374.74
479.064	9507.76
483.062	3136.83
487.057	1386.93
491.051	771.067
495.043	897.247
499.032	1274.48
503.02	1370.77
507.007	1014.13
510.991	1592.58
514.973	3735.13
518.954	10037.8
522.933	20142.5
526.91	9916.37
530.885	2681.33
534.858	1227.41
538.829	1024.61
542.799	1044.95
546.766	1225.46
550.732	920.121
554.696	625.021
558.658	498.111
562.618	199.28
566.576	63.227
570.533	7.096
574.488	158.521
578.44	196.541
582.391	381.235
586.341	405.49
590.288	439.614
594.233	590.339
598.177	874.992
602.119	1162.79
606.059	1392.73
609.997	1543.83
613.933	1893.08
617.868	2179.49
621.801	2477.04
625.731	2952.75
629.66	4479.62
633.588	12191.6
637.513	36350.8
641.437	29418.2
645.358	7975.7
649.278	3139.39
653.196	2116.25
657.113	1829.29
661.027	1403.5
664.94	907.899
668.851	951.485
672.76	809.26
676.667	810.228
680.572	753.389
684.476	619.752
688.378	452.32
692.278	107.098
696.176	532.091
700.072	259.303
703.967	323.736
707.86	396.396
711.751	743.287
715.64	34.407
719.527	66.153
723.413	174.413
727.297	103.535
731.179	109.658
735.059	182.062
738.937	82.898
742.814	142.219
746.689	103.948
750.562	122.307
754.433	291.759
758.303	410.431
762.17	869.35
766.036	2013.52
769.901	3732.93
773.763	7225.6
777.624	11757.5
781.482	9828.7
785.339	5647.35
789.195	2808.82
793.048	1660.77
796.9	1165.98
800.75	759.464
804.598	542.24
808.445	760.289
812.289	1099.62
816.132	1866.25
819.973	1712.24
823.813	1150.57
827.65	896.176
831.486	793.107
835.32	732.428
839.152	688.216
842.983	652.568
846.812	732.352
850.639	814.478
854.464	814.068
858.288	742.162
862.11	824.68
865.93	905.529
869.748	678.758
873.564	714.753
877.379	673.533
881.192	735.438
885.004	604.686
888.813	506.658
892.621	645.929
896.427	688.549
900.232	714.307
904.034	906.268
907.835	1374.48
911.634	2289.07
915.432	2677.01
919.227	4509.25
923.021	8214.78
926.813	15790.6
930.604	26335.7
934.393	27855
938.18	19155.6
941.965	11893.4
945.749	7497.5
949.53	4939.79
953.311	3468.24
957.089	2556.08
960.866	1977.74
964.641	1629.09
968.414	1348.11
972.185	1257.21
975.955	949.932
979.723	836.066
983.49	514.198
987.254	613.636
991.017	696.156
994.779	603.921
998.538	390.009
1002.3	603.725
1006.05	540.149
1009.81	598.342
1013.56	632.779
1017.31	516.722
1021.06	435.371
1024.81	390.113
1028.55	353.718
1032.3	339.302
1036.04	411.566
1039.78	617.822
1043.52	525.052
1047.26	387.979
1050.99	490.907
1054.73	310.326
1058.46	383.612
1062.19	373.562
1065.92	186.701
1069.65	112.346
1073.37	278.503
1077.1	74.752
1080.82	125.944
1084.54	221.829
1088.26	94.249
1091.97	75.346
1095.69	107.291
1099.4	250.288
1103.12	24.167
1106.83	202.029
1110.54	52.718
1114.24	43.103
1117.95	133.109
1121.65	109.596
1125.35	108.373
1129.06	55.681
1132.75	120.634
1136.45	182.896
1140.15	141.432
1143.84	172.488
1147.53	13.546
1151.22	27.862
1154.91	57.662
1158.6	81.61
1162.28	16.938
1165.97	25.63
1169.65	38.46
1173.33	11.938
1177.01	10.575
1180.69	51.05
1184.36	200.885
1188.04	95.194
1191.71	229.49
1195.38	125.097
1199.05	269.189
1202.71	110.476
1206.38	273.322
1210.04	103.615
1213.71	152.223
1217.37	248.332
1221.03	304.982
1224.68	427.182
1228.34	405.43
1231.99	296.723
1235.65	344.092
1239.3	351.357
1242.95	403.992
1246.59	383.967
1250.24	194.898
1253.88	294.316
1257.53	141.588
1261.17	318.031
1264.81	290.031
1268.45	387.867
1272.08	190.299
1275.72	272.303
1279.35	163.982
1282.98	50.207
1286.61	108.551
1290.24	212.68
1293.87	149.852
1297.49	45.594
1301.11	133.18
1304.73	140.01
1308.36	179.574
1311.97	185.805
1315.59	177.488
1319.2	169.391
1322.82	156.93
1326.43	26.725
1330.04	147.688
1333.65	118.475
1337.26	175.641
1340.86	261.145
1344.47	309.355
1348.07	163.219
1351.67	144.408
1355.27	175.371
1358.87	275.002
1362.46	262.564
1366.06	348.842
1369.65	60.867
1373.24	284.279
1376.83	114.83
1380.42	316.711
1384	228.596
1387.59	214.93
1391.17	88.699
1394.75	162.494
1398.33	119.502
1401.91	250.742
1405.49	106.736
1409.06	203.266
1412.64	4.576
1416.21	110.023
1419.78	92.16
1423.35	38.547
1426.91	175.312
1430.48	53.154
1434.05	98.307
1437.61	280.756
1441.17	407.557
1444.73	239.961
1448.29	327.865
1451.84	344.916
1455.4	366.701
1458.95	238.688
1462.5	223.168
1466.05	321.65
1469.6	316.686
1473.15	378.229
1476.69	226.162
1480.24	309.066
1483.78	231.719
1487.32	41.562
1490.86	110.139
1494.39	0
