Measurement: Raman, 514 nm, ccw, Raman Data Processed
Mineral: Chrysoberyl
Rruff sample: R040073
Ideal chemistry: BeAl_2_O_4_
Locality: Brazil
Source: University of Arizona Mineral Museum
Description: Pair of green prismatic crystals
Measured chemistry: (Be_0.89_Al_0.06_Fe_0.02_)Al_2.00_O_4_
Pin_id: M00306
Orientation: Laser parallel to b* (0 1 0). Fiducial mark perpendicular to laser is parallel to c [0 0 1]
Raman shift (cm-1)	intensity
105.908	0
110.082	117.254
114.254	1192.03
118.424	1641.52
122.592	647.009
126.758	163.42
130.922	243.899
135.083	670.095
139.243	374.811
143.401	352.093
147.557	254.355
151.711	134.688
155.863	107.634
160.013	129.213
164.161	182.493
168.308	14.193
172.452	19.877
176.594	93.591
180.734	72.245
184.872	181.403
189.008	3.543
193.143	167.825
197.275	221.321
201.405	443.326
205.534	702.654
209.66	663.295
213.784	326.824
217.907	433.13
222.027	672.105
226.146	623.494
230.263	1330.46
234.377	1812.61
238.49	3793.45
242.601	4790.23
246.709	1852.59
250.816	1071.78
254.921	1093.6
259.024	1025.4
263.125	962.641
267.224	971.704
271.321	1039.48
275.416	1044.24
279.51	789.932
283.601	657.076
287.69	794.226
291.778	674.469
295.863	775.08
299.947	886.265
304.029	898.213
308.108	1167.44
312.186	892.259
316.262	1161.78
320.336	1260.57
324.408	1108.8
328.478	1182.83
332.546	1151.05
336.612	1280.52
340.677	1660.57
344.739	2467.47
348.799	3993.14
352.858	3092.97
356.915	1920.37
360.969	2263.88
365.022	4358.75
369.073	6777.65
373.122	3377.8
377.169	1043.08
381.215	300.089
385.258	232.627
389.299	122.893
393.339	94.938
397.376	160.608
401.412	191.266
405.446	153.924
409.478	120.318
413.508	226.473
417.536	427.66
421.562	381.059
425.586	345.029
429.609	256.613
433.629	537.803
437.648	909.711
441.665	947.529
445.68	750.99
449.693	707.072
453.704	581.045
457.713	1344.68
461.721	1305.82
465.726	846.926
469.73	2021.64
473.731	6212.62
477.731	10282.3
481.729	3539.67
485.725	1580.79
489.72	923.639
493.712	1061.27
497.703	904.783
501.691	1147.19
505.678	1135.49
509.663	1413.75
513.646	2297.84
517.627	4332.81
521.607	6942.59
525.584	4305.15
529.56	1428.48
533.534	930.305
537.506	1003.62
541.476	1072.87
545.444	1364.32
549.41	1117.36
553.375	897.666
557.337	1101.07
561.298	2244.19
565.257	2643.67
569.214	981.801
573.17	369.963
577.123	63.004
581.075	90.467
585.024	30.373
588.972	268.113
592.918	213.385
596.863	593.01
600.805	687.609
604.746	843.24
608.685	1075.93
612.621	1367.68
616.557	2101.5
620.49	2833.38
624.421	4037.36
628.351	2849.42
632.279	1769.6
636.205	2099.9
640.129	2867.33
644.051	2646.92
647.972	3030.67
651.89	3439.59
655.807	2472.71
659.722	1317.03
663.636	913.561
667.547	780.316
671.457	1824.31
675.365	3905.55
679.271	2677.06
683.175	994.844
687.077	92.074
690.978	263.879
694.877	691.637
698.774	265.047
702.669	94.307
706.562	2062.54
710.454	7148.12
714.344	3866.68
718.232	1119.28
722.118	398.895
726.002	514.59
729.885	524.021
733.766	374.178
737.645	621.051
741.522	980.014
745.397	1330.89
749.271	815.367
753.143	793.516
757.013	1394.31
760.881	1937.74
764.748	3282.84
768.613	7325.61
772.476	16442.1
776.337	30044.2
780.196	31016
784.054	16845.6
787.91	8106.81
791.764	4069.77
795.616	2251.46
799.467	1962.89
803.316	1522.05
807.163	479.947
811.008	223.127
814.851	396.004
818.693	662.168
822.533	866.168
826.371	1065.94
830.208	1287.49
834.042	1079.94
837.875	921.385
841.706	1056.47
845.536	1072.76
849.363	1147.81
853.189	1353.11
857.013	1724.85
860.836	2251.22
864.656	1250.74
868.475	646.328
872.292	383.938
876.108	90.506
879.922	240.938
883.733	212.25
887.544	174.814
891.352	390.096
895.159	347.572
898.964	1026.98
902.767	954.281
906.568	1080.36
910.368	1361.01
914.166	2305.79
917.962	3545.12
921.757	5988.16
925.55	12055.9
929.341	21644.3
933.13	25645.4
936.918	19331.2
940.703	11503.5
944.488	6868.55
948.27	4456.16
952.051	3024.37
955.83	2192.6
959.607	1717.51
963.383	1289.4
967.156	1104.82
970.928	589.084
974.699	785.512
978.468	632.414
982.234	1116.76
986	1059.76
989.763	1122.79
993.525	1248.08
997.285	1937.53
1001.04	3422.76
1004.8	2788.47
1008.55	1926.21
1012.31	1768.08
1016.06	1813
1019.81	2143.65
1023.56	2480.34
1027.31	1915.98
1031.05	1442.88
1034.79	1361.65
1038.53	1253.35
1042.27	1212.44
1046.01	1018.09
1049.75	858.182
1053.48	1014.18
1057.22	856.428
1060.95	754.199
1064.68	525.916
1068.4	393.459
1072.13	457.461
1075.86	606.723
1079.58	1102.06
1083.3	1474.46
1087.02	952.115
1090.74	722.406
1094.45	418.809
1098.17	301.809
1101.88	490.889
1105.59	155.529
1109.3	537.719
1113.01	223.439
1116.71	121.676
1120.42	538.389
1124.12	1467.51
1127.82	112.096
1131.52	142.033
1135.22	155.121
1138.91	129.08
1142.61	274.584
1146.3	186.949
1149.99	207.473
1153.68	237.812
1157.37	108.652
1161.06	10.146
1164.74	28.91
1168.42	168.473
1172.1	101.166
1175.78	413.957
1179.46	163.947
1183.14	345.047
1186.81	408.273
1190.48	278.625
1194.15	6.346
1197.83	252.189
1201.49	669.67
1205.16	443.818
1208.82	443.67
1212.49	567.391
1216.15	749.791
1219.81	652.775
1223.46	701.98
1227.12	554.418
1230.78	799.096
1234.43	1036.02
1238.08	1077.18
1241.73	1062.55
1245.38	1312.17
1249.03	1257.08
1252.67	1158.31
1256.31	803.395
1259.95	1040.17
1263.6	1122.44
1267.23	1543.45
1270.87	1551.93
1274.51	1581.96
1278.14	1622.21
1281.77	1153.25
1285.4	953.156
1289.03	560.957
1292.66	910.789
1296.28	865.84
1299.91	904.861
1303.53	852.146
1307.15	1211.81
1310.77	1427.18
1314.38	1648.2
1318	1277.75
1321.61	1187.07
1325.23	1272.51
1328.84	750.055
1332.45	481.434
1336.06	252.984
1339.66	314.602
1343.27	274.135
1346.87	501.43
1350.47	516.369
1354.07	328.77
1357.67	347.338
1361.26	210.207
1364.86	314.895
1368.45	414.904
1372.04	346.176
1375.63	467.123
1379.22	570.943
1382.81	594.221
1386.39	192.053
1389.98	542.125
1393.56	476.42
1397.14	10.232
1400.72	128.266
1404.3	54.729
1407.87	43.754
1411.45	267.26
1415.02	134.143
1418.59	449.586
1422.16	0.672
