Measurement: Raman, 514 nm, ccw, Raman Data Processed
Mineral: Chrysoberyl
Rruff sample: R040073
Ideal chemistry: BeAl_2_O_4_
Locality: Brazil
Source: University of Arizona Mineral Museum
Description: Pair of green prismatic crystals
Measured chemistry: (Be_0.89_Al_0.06_Fe_0.02_)Al_2.00_O_4_
Pin_id: M00359
Orientation: Laser parallel to -a [-1 0 0]. Fiducial mark perpendicular to laser is parallel to -b* (0 -1 0)
Raman shift (cm-1)	intensity
98.947	0
103.124	84.793
107.3	741.422
111.473	511.215
115.644	1193.79
119.813	1082.65
123.981	586.68
128.146	324.022
132.309	358.434
136.47	242.342
140.63	277.005
144.787	146.506
148.942	120.564
153.096	115.23
157.247	109.046
161.396	89.186
165.544	227.141
169.689	256.588
173.833	334.038
177.974	548.114
182.114	603.758
186.251	720.824
190.387	686.267
194.52	650.54
198.652	817.338
202.782	816.436
206.909	936.432
211.035	777.96
215.159	547.443
219.281	493.415
223.4	585.348
227.518	536.099
231.634	522.598
235.748	960.807
239.86	1780.69
243.97	1427.26
248.079	339.529
252.185	32.666
256.289	122.1
260.391	22.994
264.492	84.6
268.59	113.036
272.687	15.316
276.781	105.816
280.874	61.225
284.964	24.436
289.053	70.336
293.14	198.852
297.225	37.093
301.308	92.617
305.389	12.875
309.468	7.096
313.545	56.319
317.62	403.871
321.693	87.853
325.765	238.278
329.834	200.21
333.902	369.73
337.967	790.89
342.031	1249.23
346.093	3820.15
350.153	6714.04
354.21	2656.18
358.267	1331.02
362.321	1560.54
366.373	3343.31
370.423	4908.43
374.471	2416.31
378.518	977.025
382.563	651.673
386.605	836.271
390.646	1517.82
394.685	4467.63
398.722	3913.1
402.757	1094.9
406.79	467.159
410.821	533.698
414.851	753.804
418.878	1022.42
422.904	1076.1
426.927	1077.15
430.949	1116.95
434.969	1868.38
438.987	3360.38
443.003	9294.16
447.018	13596.1
451.03	5441.04
455.041	5246.79
459.049	10023
463.056	4529.65
467.061	2356.59
471.064	2838.35
475.065	7063.21
479.064	9084.94
483.062	3818.99
487.057	2266.39
491.051	1712.49
495.043	2622.69
499.032	8169.9
503.02	14260.2
507.007	4512.47
510.991	2280.86
514.973	3073.34
518.954	7426.92
522.933	13015.6
526.91	6506.43
530.885	1814.38
534.858	945.48
538.829	538.73
542.799	296.138
546.766	403.707
550.732	490.445
554.696	39.35
558.658	50.576
562.618	32.531
566.576	79.458
570.533	83.299
574.488	68.069
578.44	82.569
582.391	222.943
586.341	365.967
590.288	487.724
594.233	706.928
598.177	746.336
602.119	725.833
606.059	822.579
609.997	851.581
613.933	1117.82
617.868	1238.39
621.801	1408.38
625.731	1257.9
629.66	1871.81
633.588	5412.13
637.513	15974.7
641.437	13752.6
645.358	4534.83
649.278	2757.33
653.196	4156.1
657.113	4954.16
661.027	2351.49
664.94	1180.12
668.851	1077.05
672.76	913.284
676.667	795.561
680.572	585.695
684.476	635.885
688.378	563.402
692.278	237.254
696.176	655.439
700.072	775.963
703.967	1201.83
707.86	3388.05
711.751	6413.31
715.64	2296.67
719.527	668.098
723.413	22.568
727.297	175.742
731.179	103.361
735.059	141.123
738.937	23.275
742.814	46.326
746.689	179.186
750.562	178.082
754.433	315.658
758.303	250.58
762.17	618.891
766.036	1407.59
769.901	3019.69
773.763	6084.17
777.624	10337
781.482	8902.31
785.339	4890.97
789.195	2278
793.048	1157.42
796.9	811.215
800.75	675.396
804.598	993.428
808.445	1749.93
812.289	4380.31
816.132	9861.24
819.973	8549.87
823.813	3916.06
827.65	1892.9
831.486	969.371
835.32	814.35
839.152	392.766
842.983	243.588
846.812	414.873
850.639	277.562
854.464	217.682
858.288	159.215
862.11	254.867
865.93	111.473
869.748	69.773
873.564	101.441
877.379	89.092
881.192	63.133
885.004	82.668
888.813	94.975
892.621	323.344
896.427	386.412
900.232	590.131
904.034	777.852
907.835	1433.83
911.634	2123.36
915.432	3459.27
919.227	5839.5
923.021	10800.1
926.813	20637.9
930.604	34486.1
934.393	36482.5
938.18	25075.2
941.965	15336.1
945.749	9474.3
949.53	6094.7
953.311	4612.35
957.089	3726.97
960.866	2306.8
964.641	1860.5
968.414	1517.03
972.185	1303.63
975.955	1022.24
979.723	1069.38
983.49	794.652
987.254	667.863
991.017	840.572
994.779	972.176
998.538	510.184
1002.3	1035.7
1006.05	912.234
1009.81	898.211
1013.56	737.398
1017.31	789.904
1021.06	793.367
1024.81	535.588
1028.55	479.193
1032.3	510.881
1036.04	607.182
1039.78	756.633
1043.52	640.518
1047.26	485.191
1050.99	631.77
1054.73	424.102
1058.46	441.154
1062.19	512.295
1065.92	240.381
1069.65	422.771
1073.37	413.584
1077.1	445.486
1080.82	782.557
1084.54	1318.33
1088.26	1057.26
1091.97	470.07
1095.69	151.008
1099.4	219.074
1103.12	50.16
1106.83	38.842
1110.54	31.971
1114.24	123.242
1117.95	206.145
1121.65	61.875
1125.35	83.488
1129.06	154.25
1132.75	64.156
1136.45	96.646
1140.15	135.596
1143.84	139.037
1147.53	170.984
1151.22	169.52
1154.91	41.943
1158.6	47.674
1162.28	98.221
1165.97	124.346
1169.65	201.113
1173.33	10.604
1177.01	205.631
1180.69	165.215
1184.36	94.002
1188.04	268.209
1191.71	61.748
1195.38	159.43
1199.05	188.191
1202.71	22.096
1206.38	256.055
1210.04	177.146
1213.71	134.217
1217.37	255.014
1221.03	118.781
1224.68	1419.9
1228.34	1681.67
1231.99	674.752
1235.65	207.748
1239.3	432.863
1242.95	215.297
1246.59	427.965
1250.24	248.068
1253.88	267.244
1257.53	106.25
1261.17	281.154
1264.81	238.076
1268.45	330.713
1272.08	170.969
1275.72	235.838
1279.35	197.998
1282.98	262.434
1286.61	32.252
1290.24	128.67
1293.87	11.604
1297.49	168.416
1301.11	20.367
1304.73	249.969
1308.36	284.338
1311.97	260.439
1315.59	282.473
1319.2	157.244
1322.82	206.104
1326.43	132.916
1330.04	77.414
1333.65	83.729
1337.26	94.926
1340.86	177.596
1344.47	203.666
1348.07	255.57
1351.67	116.135
1355.27	351.078
1358.87	345.811
1362.46	245.975
1366.06	335.049
1369.65	100.4
1373.24	167.863
1376.83	33.854
1380.42	184.674
1384	330.029
1387.59	402.664
1391.17	88.924
1394.75	110.695
1398.33	179.232
1401.91	204.141
1405.49	255.549
1409.06	340.045
1412.64	8.465
1416.21	190.381
1419.78	144.477
1423.35	219.893
1426.91	71.336
1430.48	21.225
1434.05	457.152
1437.61	125.061
1441.17	485.988
1444.73	308.883
1448.29	382.775
1451.84	413.684
1455.4	270.947
1458.95	453.459
1462.5	284.811
1466.05	562.082
1469.6	368.873
1473.15	518.838
1476.69	229.787
1480.24	472.117
1483.78	268.674
1487.32	415.787
1490.86	184.832
1494.39	43.693
1497.93	320.066
1501.46	44.236
1505	149.668
1508.53	130.506
1512.06	204.969
1515.59	290.889
