Measurement: Raman, 514 nm, ccw, Raman Data Processed
Mineral: Chrysoberyl
Rruff sample: R040073
Ideal chemistry: BeAl_2_O_4_
Locality: Brazil
Source: University of Arizona Mineral Museum
Description: Pair of green prismatic crystals
Measured chemistry: (Be_0.89_Al_0.06_Fe_0.02_)Al_2.00_O_4_
Pin_id: M00359
Orientation: Laser parallel to -a [-1 0 0]. Fiducial mark perpendicular to laser is parallel to -b* (0 -1 0)
Raman shift (cm-1)	intensity
101.732	0
105.908	469.614
110.082	275.595
114.254	589.008
118.424	820.605
122.592	733.104
126.758	403.243
130.922	278.692
135.083	299.797
139.243	314.331
143.401	148.265
147.557	40.789
151.711	19.418
155.863	61.42
160.013	1.423
164.161	23.917
168.308	81.649
172.452	195.035
176.594	145.824
180.734	323.137
184.872	362.523
189.008	434.673
193.143	666.049
197.275	775.207
201.405	816.644
205.534	1028.6
209.66	1174.24
213.784	864.819
217.907	908.311
222.027	953.745
226.146	952.067
230.263	1067.15
234.377	1556.95
238.49	3123.44
242.601	3905.64
246.709	1166.75
250.816	160.825
254.921	32.006
259.024	126.346
263.125	31.458
267.224	57.408
271.321	42.03
275.416	56.797
279.51	20.646
283.601	23.43
287.69	38.006
291.778	151.955
295.863	237.2
299.947	281.879
304.029	354.146
308.108	461.986
312.186	348.173
316.262	367.997
320.336	345.812
324.408	500.334
328.478	641.074
332.546	563.893
336.612	864.4
340.677	1387.65
344.739	3769.08
348.799	9725.13
352.858	5548.44
356.915	1704.1
360.969	735.188
365.022	649.041
369.073	901.765
373.122	1015.37
377.169	777.853
381.215	598.802
385.258	564.665
389.299	615.809
393.339	572.84
397.376	626.819
401.412	426.599
405.446	212.183
409.478	206.627
413.508	271.307
417.536	251.821
421.562	69.39
425.586	93.755
429.609	63.86
433.629	173.736
437.648	503.534
441.665	804.234
445.68	1486.61
449.693	1256.61
453.704	1387.14
457.713	3042.23
461.721	3190.97
465.726	1624.57
469.73	1951.31
473.731	4475.92
477.731	9982.42
481.729	5737.82
485.725	2856.16
489.72	1781.42
493.712	1422.68
497.703	1395.95
501.691	1530.07
505.678	1266.29
509.663	805.389
513.646	1084.47
517.627	2256.53
521.607	5516.6
525.584	5452.68
529.56	1639.77
533.534	492.93
537.506	164.154
541.476	78.578
545.444	57.849
549.41	52.941
553.375	91.524
557.337	71.582
561.298	122.701
565.257	194.682
569.214	208.612
573.17	245.24
577.123	109.833
581.075	155.61
585.024	181.893
588.972	479.801
592.918	573.813
596.863	630.098
600.805	604.656
604.746	197.515
608.685	111.663
612.621	57.909
616.557	172.625
620.49	186.49
624.421	179.271
628.351	127.396
632.279	316.727
636.205	563.272
640.129	959.041
644.051	572.039
647.972	900.504
651.89	1315.59
655.807	1512.31
659.722	1573.28
663.636	1356.5
667.547	1203.99
671.457	1060.76
675.365	1105.8
679.271	1080.69
683.175	984.745
687.077	830.916
690.978	827.193
694.877	734.443
698.774	1016.47
702.669	1557.52
706.562	4234.41
710.454	11292.3
714.344	7876.4
718.232	2585.05
722.118	887.297
726.002	532.838
729.885	427.805
733.766	241.582
737.645	263.006
741.522	342.261
745.397	395.965
749.271	469.107
753.143	543.669
757.013	802.651
760.881	818.055
764.748	989.879
768.613	2237.86
772.476	4637.5
776.337	8853.6
780.196	10123.1
784.054	5789.08
787.91	2968.47
791.764	1118.29
795.616	377.54
799.467	117.227
803.316	8.312
807.163	25.605
811.008	210.252
814.851	1010.35
818.693	1539.01
822.533	815.186
826.371	397.825
830.208	149.008
834.042	43.732
837.875	62.15
841.706	124.812
845.536	36.239
849.363	40.781
853.189	58.707
857.013	58.691
860.836	141.097
864.656	19.829
868.475	65.844
872.292	12.998
876.108	80.596
879.922	267.617
883.733	362.07
887.544	556.918
891.352	511.154
895.159	560.768
898.964	930.748
902.767	1371.08
906.568	2553.76
910.368	3168.79
914.166	5064.16
917.962	6336.85
921.757	10564.9
925.55	19783.2
929.341	35125.9
933.13	44730.8
936.918	35117.1
940.703	21369.5
944.488	12911.3
948.27	8145.44
952.051	5611.66
955.83	4091.99
959.607	3112.04
963.383	2466.53
967.156	1879.87
970.928	1650.21
974.699	1606.17
978.468	1376.22
982.234	1375.34
986	1192.18
989.763	1130.74
993.525	1048.45
997.285	1077.73
1001.04	1044.26
1004.8	1058.49
1008.55	1140.65
1012.31	1048.98
1016.06	975.262
1019.81	918.197
1023.56	940.733
1027.31	735.046
1031.05	674.545
1034.79	688.983
1038.53	790.027
1042.27	758.714
1046.01	706.966
1049.75	609.213
1053.48	475.219
1057.22	413.468
1060.95	631.772
1064.68	469.628
1068.4	309.125
1072.13	225.385
1075.86	262.373
1079.58	210.874
1083.3	219.493
1087.02	290.778
1090.74	113.278
1094.45	53.382
1098.17	176.354
1101.88	236.112
1105.59	176.456
1109.3	39.428
1113.01	18.485
1116.71	11.502
1120.42	57.999
1124.12	234.758
1127.82	22.049
1131.52	15.287
1135.22	96.391
1138.91	131.564
1142.61	81.873
1146.3	29.436
1149.99	115.605
1153.68	12.797
1157.37	66.237
1161.06	13.373
1164.74	200.287
1168.42	87.638
1172.1	12.257
1175.78	308.646
1179.46	55.853
1183.14	151.076
1186.81	238.324
1190.48	137.533
1194.15	215.123
1197.83	185.955
1201.49	415.693
1205.16	182.336
1208.82	199.256
1212.49	229.84
1216.15	238.789
1219.81	315.264
1223.46	278.295
1227.12	155.852
1230.78	230.934
1234.43	298.555
1238.08	295.707
1241.73	349.379
1245.38	386.527
1249.03	368.363
1252.67	415.949
1256.31	275.629
1259.95	200.525
1263.6	295.598
1267.23	209.33
1270.87	242.969
1274.51	247.633
1278.14	359.426
1281.77	145.609
1285.4	152.568
1289.03	50.166
1292.66	227.574
1296.28	62.383
1299.91	185.283
1303.53	65.438
1307.15	233.328
1310.77	82.738
1314.38	281.793
1318	71.014
1321.61	104.299
1325.23	110.723
1328.84	7.783
1332.45	247.576
1336.06	11.797
1339.66	144.256
1343.27	205.652
1346.87	269.562
1350.47	329.76
1354.07	259.23
1357.67	433.793
1361.26	202.336
1364.86	207.855
1368.45	327.057
1372.04	237.885
1375.63	314.078
1379.22	341.656
1382.81	408.459
1386.39	324.021
1389.98	265.357
1393.56	214.943
1397.14	311.84
1400.72	347.973
1404.3	208.189
1407.87	242.691
1411.45	245.119
1415.02	284.814
1418.59	352.551
1422.16	140.99
1425.73	148.098
1429.29	197.625
1432.86	284.293
1436.42	308.309
1439.98	819.555
1443.54	386.842
1447.1	289.795
1450.66	399.463
1454.21	481.822
1457.77	485.727
1461.32	310.66
1464.87	191.521
1468.42	341.141
1471.96	363.35
1475.51	303.064
1479.06	203.674
1482.6	231.586
1486.14	265.771
1489.68	249.436
1493.22	314.982
1496.75	172.629
1500.29	64.217
1503.82	93.428
1507.35	184.031
1510.88	257.424
1514.41	2.025
1517.94	8.033
1521.46	0
