Measurement: Raman, 514 nm, ccw, Raman Data Processed
Mineral: Chrysoberyl
Rruff sample: R040073
Ideal chemistry: BeAl_2_O_4_
Locality: Brazil
Source: University of Arizona Mineral Museum
Description: Pair of green prismatic crystals
Measured chemistry: (Be_0.89_Al_0.06_Fe_0.02_)Al_2.00_O_4_
Pin_id: M00306
Orientation: Laser parallel to b* (0 1 0). Fiducial mark perpendicular to laser is parallel to c [0 0 1]
Raman shift (cm-1)	intensity
98.947	0
103.124	122.158
107.3	58.791
111.473	97.998
115.644	187.483
119.813	224.324
123.981	343.186
128.146	237.304
132.309	264.421
136.47	285.817
140.63	228.037
144.787	123.234
148.942	41.748
153.096	15.046
157.247	91.845
161.396	52.18
165.544	65.879
169.689	105.209
173.833	19.39
177.974	18.034
182.114	60.133
186.251	126.752
190.387	237.985
194.52	311.596
198.652	537.416
202.782	543.262
206.909	748.514
211.035	790.801
215.159	839.324
219.281	896.732
223.4	874.281
227.518	939.207
231.634	1235.67
235.748	2125.69
239.86	3498.27
243.97	2354.24
248.079	605.789
252.185	65.272
256.289	49.856
260.391	16.39
264.492	168.232
268.59	110.686
272.687	184.925
276.781	115.72
280.874	85.549
284.964	48.993
289.053	0.82
293.14	130.979
297.225	219.721
301.308	291.356
305.389	365.921
309.468	394.512
313.545	373.608
317.62	391.596
321.693	523.057
325.765	547.016
329.834	541.429
333.902	699.279
337.967	938.958
342.031	2106.75
346.093	5828.12
350.153	8550.6
354.21	2987.91
358.267	1022.86
362.321	462.51
366.373	508.81
370.423	825.816
374.471	757.545
378.518	334.006
382.563	372.261
386.605	509.074
390.646	525.234
394.685	301.521
398.722	370.146
402.757	203.036
406.79	102.094
410.821	62.899
414.851	144.925
418.878	107.55
422.904	47.817
426.927	82.722
430.949	44.48
434.969	418.704
438.987	345.316
443.003	602.896
447.018	736.787
451.03	913.904
455.041	1843.02
459.049	3820.76
463.056	1781.19
467.061	1538.24
471.064	3016.41
475.065	8191.35
479.064	9121.17
483.062	4283.82
487.057	2338.28
491.051	1466.62
495.043	980.947
499.032	766.389
503.02	596.989
507.007	852.65
510.991	854.333
514.973	1223.88
518.954	3087.28
522.933	6286.52
526.91	2862.61
530.885	945.574
534.858	351.401
538.829	73.104
542.799	266.486
546.766	204.282
550.732	7.216
554.696	194.364
558.658	212.809
562.618	541.057
566.576	676.975
570.533	266.167
574.488	46.045
578.44	105.106
582.391	274.65
586.341	408.904
590.288	570.846
594.233	751.68
598.177	767.976
602.119	482.697
606.059	199.571
609.997	67.633
613.933	322.854
617.868	442.21
621.801	1180.69
625.731	1174.3
629.66	710.026
633.588	848.887
637.513	1070.89
641.437	1308.04
645.358	1362.34
649.278	1542.63
653.196	1855.98
657.113	1705.13
661.027	1538.89
664.94	1257.99
668.851	1513.57
672.76	1982.04
676.667	2383.69
680.572	1476.52
684.476	1130.56
688.378	939.795
692.278	530.254
696.176	993.945
700.072	1185.44
703.967	2301.82
707.86	6511.16
711.751	10974.2
715.64	3724.88
719.527	1371.41
723.413	520.319
727.297	211.677
731.179	386.49
735.059	288.825
738.937	469.824
742.814	560.374
746.689	583.499
750.562	664.081
754.433	592.065
758.303	659.449
762.17	1036.23
766.036	1545.42
769.901	2923.02
773.763	5609.02
777.624	9109.43
781.482	7151.26
785.339	3515.5
789.195	1399.16
793.048	637.236
796.9	266.736
800.75	29.344
804.598	47.119
808.445	169.527
812.289	248.047
816.132	158.639
819.973	12.176
823.813	156.541
827.65	114.674
831.486	87.344
835.32	344.52
839.152	351.297
842.983	400.863
846.812	544.27
850.639	613.328
854.464	753.33
858.288	1085.72
862.11	1158.23
865.93	848.139
869.748	496.629
873.564	345.559
877.379	598.945
881.192	425.771
885.004	602.09
888.813	579.82
892.621	852.979
896.427	929.547
900.232	1354.55
904.034	1540.95
907.835	2216.75
911.634	3032.92
915.432	4453.45
919.227	7136.32
923.021	12820.5
926.813	24168
930.604	38897.7
934.393	38892.8
938.18	25845.1
941.965	15660.7
945.749	9952.51
949.53	6390.58
953.311	4447.35
957.089	3401.03
960.866	2673.72
964.641	2091.92
968.414	1722.87
972.185	1500.6
975.955	1271.2
979.723	1094.07
983.49	948.559
987.254	1112.97
991.017	1010.57
994.779	1159.72
998.538	1245.29
1002.3	2503.44
1006.05	1584.44
1009.81	1185.74
1013.56	1048.97
1017.31	1265.02
1021.06	1470.29
1024.81	1144.21
1028.55	1240.43
1032.3	958.719
1036.04	798.373
1039.78	994.451
1043.52	948.098
1047.26	769.432
1050.99	993.795
1054.73	1316.6
1058.46	609.154
1062.19	589.973
1065.92	439.174
1069.65	494.697
1073.37	406.07
1077.1	457.193
1080.82	567.117
1084.54	561.408
1088.26	510.719
1091.97	275.377
1095.69	255.754
1099.4	253.844
1103.12	61.664
1106.83	281.195
1110.54	206.754
1114.24	119.225
1117.95	184.33
1121.65	662.26
1125.35	334.885
1129.06	31.104
1132.75	21.795
1136.45	132.094
1140.15	130.906
1143.84	3.881
1147.53	58.486
1151.22	73.035
1154.91	73.621
1158.6	31.492
1162.28	100.814
1165.97	93.18
1169.65	239.395
1173.33	157.779
1177.01	22.572
1180.69	105.818
1184.36	289
1188.04	185.035
1191.71	288.914
1195.38	106.467
1199.05	237.557
1202.71	12.023
1206.38	259.674
1210.04	245.865
1213.71	293.93
1217.37	364.66
1221.03	396.125
1224.68	416.895
1228.34	500.197
1231.99	313.049
1235.65	618.443
1239.3	653.35
1242.95	564.529
1246.59	619.156
1250.24	522.814
1253.88	631.664
1257.53	573.398
1261.17	731.287
1264.81	604.447
1268.45	794.393
1272.08	776.209
1275.72	683.623
1279.35	679.533
1282.98	495.75
1286.61	285.879
1290.24	489.064
1293.87	602.719
1297.49	519.492
1301.11	559.729
1304.73	244.818
1308.36	541.406
1311.97	593.648
1315.59	526.488
1319.2	1521.84
1322.82	587.395
1326.43	146.627
1330.04	211.99
1333.65	256.766
1337.26	180.291
1340.86	173.762
1344.47	210.828
1348.07	269.932
1351.67	139.191
1355.27	39.578
1358.87	181.719
1362.46	127.809
1366.06	319.221
1369.65	203.271
1373.24	272.119
1376.83	178.576
1380.42	488.375
1384	371.207
1387.59	451.801
1391.17	203.15
1394.75	71.684
1398.33	169.35
1401.91	187.273
1405.49	213.182
1409.06	250.176
1412.64	62.461
1416.21	55.404
1419.78	210.586
1423.35	263.061
1426.91	25.916
