Measurement: Raman, 514 nm, ccw, Raman Data Processed
Mineral: Chrysoberyl
Rruff sample: R040073
Ideal chemistry: BeAl_2_O_4_
Locality: Brazil
Source: University of Arizona Mineral Museum
Description: Pair of green prismatic crystals
Measured chemistry: (Be_0.89_Al_0.06_Fe_0.02_)Al_2.00_O_4_
Pin_id: M00464
Orientation: Laser parallel to -c* (0 0 -1). Fiducial mark perpendicular to laser is parallel to a [1 0 0]
Raman shift (cm-1)	intensity
88.496	0
92.678	77.007
96.858	778.263
101.036	1477.62
105.212	1786.87
109.387	2924.16
113.559	2741.45
117.729	2289.04
121.897	2252.87
126.063	2277.41
130.228	2068.13
134.39	1729.7
138.55	1755.28
142.709	1295.8
146.865	817.604
151.019	750.335
155.171	586.42
159.322	634.468
163.47	612.862
167.617	493.483
171.761	710.828
175.904	594.497
180.044	400.692
184.183	514.761
188.319	448.169
192.454	347.45
196.586	96.46
200.717	108.164
204.846	4.261
208.972	9.189
213.097	61.211
217.22	10.418
221.341	151.058
225.46	203.016
229.577	76.488
233.692	22.022
237.805	36.791
241.916	128.5
246.025	33.974
250.132	63.909
254.237	42.012
258.34	175.292
262.442	242.796
266.541	64.236
270.639	44.43
274.734	141.199
278.828	52.577
282.919	20.616
287.009	30.567
291.097	137.39
295.183	16.793
299.266	128.039
303.348	238.754
307.428	328.812
311.507	316.929
315.583	252.565
319.657	375.768
323.729	405.717
327.8	423.013
331.868	388.857
335.935	553.343
339.999	926.605
344.062	2058.58
348.123	3789.36
352.182	2138.48
356.239	1535.9
360.294	2379.85
364.347	4952.45
368.398	7850.01
372.448	3915.95
376.495	1506.81
380.54	575.708
384.584	442.486
388.626	490.138
392.666	381.329
396.704	17.617
400.74	72.223
404.774	57.932
408.806	31.309
412.836	20.732
416.865	195.709
420.891	365.555
424.916	110.032
428.939	53.329
432.959	348.614
436.978	292.923
440.996	423.265
445.011	540.791
449.024	862.96
453.036	3256.28
457.045	11994.2
461.053	6466.67
465.059	1815.11
469.063	1804.62
473.065	5243.18
477.065	7841.23
481.063	2870.36
485.06	1358.58
489.054	906.951
493.047	774.588
497.038	673.047
501.027	753.081
505.014	992.817
508.999	1332.11
512.982	2820.97
516.964	7109.42
520.944	15237.5
524.921	9545.24
528.897	2882.69
532.871	1540.02
536.844	1120.64
540.814	1337.22
544.783	1741.91
548.749	1506.73
552.714	870.618
556.677	631.61
560.638	578.179
564.597	577.673
568.555	638.138
572.511	480.637
576.464	376.572
580.416	562.81
584.366	620.653
588.315	569.818
592.261	582.859
596.206	1026.29
600.148	1185.93
604.089	1225.7
608.028	1381.59
611.965	1577.54
615.901	2343.64
619.834	3309.85
623.766	4476.02
627.696	4922.12
631.624	8028.17
635.551	25254.2
639.475	26420.1
643.398	9006.01
647.318	4201.86
651.237	3337.68
655.155	2383.45
659.07	1569.17
662.984	984.833
666.895	800.445
670.805	566.015
674.713	511.551
678.62	577.058
682.524	462.542
686.427	148.011
690.328	13.468
694.227	228.847
698.124	154.17
702.02	179.513
705.913	94.881
709.805	440.287
713.695	55.743
717.584	38.995
721.47	254.315
725.355	139.761
729.238	35.925
733.119	18.362
736.998	7.826
740.876	144.488
744.752	8.549
748.626	101.658
752.498	314.838
756.368	348.805
760.237	701.408
764.104	1244.78
767.969	2588.21
771.832	4921.69
775.693	8335.22
779.553	7748.82
783.411	4272.49
787.267	2556.23
791.122	1540.03
794.974	1203.91
798.825	907.874
802.674	661.931
806.522	586.11
810.367	560.444
814.211	714.929
818.053	1139.51
821.893	1004.25
825.732	1159.12
829.568	1224.12
833.403	1219.27
837.236	1454.55
841.068	1599.94
844.898	1935.11
848.726	1497.56
852.552	1953.32
856.376	2589.2
860.199	3175.24
864.02	2551.44
867.839	1796.97
871.656	1498.23
875.472	1468.21
879.286	1505.91
883.098	1360.29
886.909	1274.97
890.717	1220
894.524	1213.89
898.33	1311.16
902.133	1549.23
905.935	1787.51
909.735	2076
913.533	2455.13
917.33	3184.35
921.124	5653.51
924.918	11142.9
928.709	19212.6
932.499	20522.8
936.286	14353.7
940.073	8753.91
943.857	5444.47
947.64	3875.12
951.421	2996.82
955.2	2210.15
958.978	1585.06
962.753	1101.8
966.527	996.016
970.3	751.139
974.071	454.965
977.84	350.824
981.607	293.934
985.372	364.744
989.136	266.383
992.898	298.404
996.659	247.451
1000.42	218.447
1004.17	249.1
1007.93	169.805
1011.68	263.129
1015.43	240.154
1019.18	243.561
1022.93	140.715
1026.68	169.539
1030.42	111.145
1034.17	133.662
1037.91	162.02
1041.65	38.258
1045.39	21.766
1049.12	138.766
1052.86	62.756
1056.59	92.174
1060.33	34.779
1064.06	15.354
1067.78	42.465
1071.51	78.848
1075.23	89.539
1078.96	8.463
1082.68	159.178
1086.4	76.203
1090.12	66.383
1093.83	111.145
1097.55	4.963
1101.26	21.043
1104.97	27.375
1108.68	46.316
1112.39	56.605
1116.1	37.287
1119.8	19.273
1123.5	41.883
1127.2	82.51
1130.9	57.232
1134.6	96.27
1138.3	56.279
1141.99	3.553
1145.69	106.434
1149.38	113.455
1153.07	112.584
1156.76	49.463
1160.44	113.377
1164.13	70.699
1167.81	149.506
1171.49	165.996
1175.17	4.869
1178.85	24.375
1182.52	13.84
1186.2	175.539
1189.87	147.367
1193.54	9.201
1197.21	8.053
1200.88	43.861
1204.55	126.996
1208.21	134.957
1211.88	13.947
1215.54	105.984
1219.2	1.613
1222.86	201.148
1226.51	168.092
1230.17	127.336
1233.82	36.027
1237.47	5.871
1241.12	157.158
1244.77	38.855
1248.42	40.377
1252.06	87.422
1255.71	83.68
1259.35	51.982
1262.99	174.693
1266.63	27.154
1270.26	190.584
1273.9	29.541
1277.53	58.137
1281.16	76.229
1284.8	190.824
1288.42	11.83
1292.05	22.35
1295.68	92.121
1299.3	4.207
1302.92	51.676
1306.55	178.596
1310.16	42.848
1313.78	204.975
1317.4	31.301
1321.01	43.434
1324.62	76.035
1328.24	202.236
1331.85	48.1
1335.45	151.51
1339.06	118.934
1342.66	12.645
1346.27	53.34
1349.87	115.531
1353.47	75.895
1357.07	29.834
1360.66	7.068
1364.26	184.055
1367.85	91.318
1371.44	101.379
1375.04	85.549
1378.62	19.039
1382.21	177.086
1385.8	148.26
1389.38	22.523
1392.96	3.992
1396.54	40.746
1400.12	32.666
1403.7	164.08
1407.28	33.398
1410.85	72.008
1414.42	119.01
1417.99	169.805
1421.56	194.426
1425.13	39.797
1428.7	19.229
1432.26	156.092
1435.83	81.268
1439.39	4.914
1442.95	16.59
1446.51	128.908
1450.06	73.898
1453.62	118.375
1457.17	30.168
1460.73	90.594
1464.28	11.115
1467.83	22.619
1471.37	188.92
1474.92	91.059
1478.46	24.768
1482.01	18.111
1485.55	158.225
1489.09	200.873
1492.63	66.77
1496.16	72.283
1499.7	80.217
1503.23	67.82
1506.76	39.838
1510.29	47.021
