Measurement: Raman, 514 nm, ccw, Raman Data Processed
Mineral: Chrysoberyl
Rruff sample: R040073
Ideal chemistry: BeAl_2_O_4_
Locality: Brazil
Source: University of Arizona Mineral Museum
Description: Pair of green prismatic crystals
Measured chemistry: (Be_0.89_Al_0.06_Fe_0.02_)Al_2.00_O_4_
Pin_id: M00464
Orientation: Laser parallel to -c* (0 0 -1). Fiducial mark perpendicular to laser is parallel to a [1 0 0]
Raman shift (cm-1)	intensity
84.311	0
88.496	33.208
92.678	1106.2
96.858	2362.34
101.036	3136.78
105.212	4064.07
109.387	6369.91
113.559	5086.74
117.729	4699.66
121.897	4805.05
126.063	3858.67
130.228	3489.38
134.39	3165.6
138.55	3020.73
142.709	2371.86
146.865	2033.78
151.019	1708.77
155.171	1482.28
159.322	1155.13
163.47	871.229
167.617	832.778
171.761	685.385
175.904	486.862
180.044	338.271
184.183	464.361
188.319	328.829
192.454	369.354
196.586	117.586
200.717	173.213
204.846	98.752
208.972	205.239
213.097	20.417
217.22	34.821
221.341	131.174
225.46	92.333
229.577	175.325
233.692	484.513
237.805	1359.73
241.916	1648.06
246.025	674.881
250.132	507.671
254.237	254.592
258.34	458.031
262.442	397.257
266.541	213.111
270.639	200.346
274.734	202.931
278.828	138.126
282.919	186.418
287.009	151.593
291.097	83.484
295.183	163.225
299.266	200.543
303.348	152.178
307.428	234.113
311.507	155.703
315.583	96.895
319.657	317.574
323.729	257.839
327.8	57.671
331.868	97.004
335.935	225.785
339.999	504.025
344.062	841.725
348.123	1188.81
352.182	604.933
356.239	399.764
360.294	563.735
364.347	1367.23
368.398	2130.37
372.448	853.484
376.495	86.172
380.54	171.178
384.584	117.1
388.626	319.046
392.666	150.606
396.704	88.677
400.74	149.388
404.774	111.407
408.806	145.459
412.836	118.469
416.865	441.586
420.891	654.219
424.916	26.357
428.939	167.66
432.959	398.144
436.978	407.985
440.996	297.189
445.011	346.561
449.024	374.832
453.036	609.941
457.045	874.523
461.053	601.734
465.059	565.551
469.063	1470.27
473.065	1644.42
477.065	1918.01
481.063	901.008
485.06	1013.28
489.054	804.488
493.047	705.283
497.038	605.637
501.027	845.693
505.014	1065.21
508.999	1334.16
512.982	2402.77
516.964	3960.62
520.944	4098.25
524.921	2230.73
528.897	1174.14
532.871	960.93
536.844	1062.79
540.814	1638.34
544.783	2187.85
548.749	1807.26
552.714	1355.92
556.677	1175.37
560.638	1341.36
564.597	1222.04
568.555	1209.05
572.511	1059.31
576.464	1061.81
580.416	1451.45
584.366	1441.05
588.315	1277.9
592.261	1481.96
596.206	1739.33
600.148	2013.85
604.089	1529.25
608.028	1485.01
611.965	1800.79
615.901	2407.52
619.834	3084.46
623.766	4360.79
627.696	3417.31
631.624	2313.54
635.551	2249.51
639.475	2525.22
643.398	3170.68
647.318	3455.91
651.237	3390.92
655.155	2155.72
659.07	1140.31
662.984	504.707
666.895	308.92
670.805	262.955
674.713	276.82
678.62	60.525
682.524	26.023
686.427	103.285
690.328	261.625
694.227	161.379
698.124	122.293
702.02	126.367
705.913	1055
709.805	2583.61
713.695	1032.35
717.584	401.441
721.47	131.154
725.355	161.443
729.238	382.131
733.119	622.971
736.998	483.842
740.876	244.803
744.752	485.984
748.626	737.299
752.498	678.68
756.368	840.158
760.237	1181.74
764.104	1843.47
767.969	3465.35
771.832	7287.33
775.693	12249.5
779.553	10361.7
783.411	5534.08
787.267	2946.57
791.122	1909.19
794.974	1501.94
798.825	904.828
802.674	947.891
806.522	741.143
810.367	794.629
814.211	788.332
818.053	1232.21
821.893	1246.34
825.732	1240.48
829.568	1695.03
833.403	1438.91
837.236	1705.15
841.068	1928.56
844.898	2163.2
848.726	1895.8
852.552	2473.2
856.376	3294.26
860.199	3860.86
864.02	2947.76
867.839	1814.94
871.656	1522.41
875.472	1800.11
879.286	1788.93
883.098	1347.3
886.909	1395.99
890.717	1446.6
894.524	1367.66
898.33	1477.23
902.133	1567.07
905.935	1577.18
909.735	1728.51
913.533	1803.65
917.33	1779.24
921.124	3360.46
924.918	5697.9
928.709	9470.65
932.499	9424.16
936.286	6429.18
940.073	4091.67
943.857	2556.92
947.64	1990.08
951.421	1795.02
955.2	1342.35
958.978	1076.37
962.753	735.771
966.527	809.801
970.3	691.986
974.071	272.002
977.84	419.246
981.607	88.947
985.372	430.336
989.136	183.473
992.898	43.359
996.659	319.186
1000.42	335.852
1004.17	359.881
1007.93	327.535
1011.68	344.365
1015.43	312.721
1019.18	104.584
1022.93	88.268
1026.68	145.404
1030.42	164.701
1034.17	257.752
1037.91	60.939
1041.65	223.055
1045.39	155.221
1049.12	29.508
1052.86	265.338
1056.59	38.947
1060.33	75.998
1064.06	36.539
1067.78	97.035
1071.51	168.953
1075.23	232.396
1078.96	37.619
1082.68	60.014
1086.4	165.162
1090.12	43.357
1093.83	134.215
1097.55	24.721
1101.26	64.088
1104.97	51.381
1108.68	282.795
1112.39	124.26
1116.1	90.416
1119.8	10.586
1123.5	151.283
1127.2	8.553
1130.9	17.088
1134.6	74.119
1138.3	221.012
1141.99	255.531
1145.69	14.725
1149.38	317.049
1153.07	259.354
1156.76	5.303
1160.44	65.016
1164.13	290.447
1167.81	77.918
1171.49	17.648
1175.17	140.648
1178.85	332.07
1182.52	291.764
1186.2	217.312
1189.87	68.604
1193.54	355.621
1197.21	186.615
1200.88	157.475
1204.55	377.396
1208.21	131.785
1211.88	3.566
1215.54	385.127
1219.2	318.736
1222.86	115.109
1226.51	155.131
1230.17	387.697
1233.82	363.717
1237.47	202.516
1241.12	360.316
1244.77	126.053
1248.42	128.938
1252.06	97.662
1255.71	65.537
1259.35	298.418
1262.99	70.676
1266.63	119.096
1270.26	305.521
1273.9	80.844
1277.53	77.256
1281.16	96.121
1284.8	319.748
1288.42	21.141
1292.05	19.6
1295.68	177.963
1299.3	36.535
1302.92	231.924
1306.55	256.865
1310.16	48.217
1313.78	135.598
1317.4	295.953
1321.01	164.074
1324.62	209.555
1328.24	361.57
1331.85	133.543
1335.45	344.75
1339.06	334.445
1342.66	95.496
1346.27	153.336
1349.87	143.559
1353.47	123.809
1357.07	256.695
1360.66	108.188
1364.26	31.125
1367.85	84.359
1371.44	124.266
1375.04	104.273
1378.62	293.398
1382.21	347.398
1385.8	114.695
1389.38	282.656
1392.96	77.18
1396.54	210.012
1400.12	284.438
1403.7	157.359
1407.28	139.684
1410.85	234.984
1414.42	247.227
1417.99	182.738
1421.56	204.086
1425.13	142.066
1428.7	247.508
1432.26	251.113
1435.83	144.629
1439.39	2.809
1442.95	338.25
1446.51	77.512
1450.06	239.164
1453.62	376.637
1457.17	235.996
1460.73	129.949
1464.28	55.805
1467.83	164.523
1471.37	29.953
1474.92	168.059
1478.46	203.262
1482.01	168.926
1485.55	9.863
1489.09	352.766
1492.63	3.207
1496.16	295.617
