Measurement: Raman, 514 nm, ccw, Raman Data Processed
Mineral: Chrysoberyl
Rruff sample: R040073
Ideal chemistry: BeAl_2_O_4_
Locality: Brazil
Source: University of Arizona Mineral Museum
Description: Pair of green prismatic crystals
Measured chemistry: (Be_0.89_Al_0.06_Fe_0.02_)Al_2.00_O_4_
Pin_id: M00306
Orientation: Laser parallel to b* (0 1 0). Fiducial mark perpendicular to laser is parallel to c [0 0 1]
Raman shift (cm-1)	intensity
107.3	0
111.473	114.284
115.644	1490.42
119.813	1069.96
123.981	200.255
128.146	41.835
132.309	252.48
136.47	186.845
140.63	230.193
144.787	158.897
148.942	17.787
153.096	1.235
157.247	15.814
161.396	39.545
165.544	41.782
169.689	27.48
173.833	4.604
177.974	126.991
182.114	8.517
186.251	135.83
190.387	175.604
194.52	233.254
198.652	322.654
202.782	382.087
206.909	577.05
211.035	352.064
215.159	392.276
219.281	454.594
223.4	430.813
227.518	473.604
231.634	920.877
235.748	1716.95
239.86	2627.96
243.97	1787.92
248.079	583.168
252.185	255.479
256.289	130.589
260.391	255.077
264.492	350.903
268.59	203.13
272.687	286.737
276.781	265.919
280.874	174.966
284.964	81.559
289.053	100.93
293.14	283.155
297.225	225.91
301.308	191.931
305.389	397.881
309.468	485.587
313.545	538.465
317.62	455.12
321.693	391.826
325.765	589.11
329.834	544.889
333.902	744.063
337.967	937.07
342.031	1463.83
346.093	4063.66
350.153	7340.25
354.21	7833.55
358.267	3291.23
362.321	1411.62
366.373	1539.86
370.423	1676.34
374.471	627.463
378.518	117.333
382.563	95.902
386.605	95.191
390.646	55.733
394.685	6.309
398.722	53.177
402.757	103.846
406.79	105.438
410.821	160.957
414.851	321.968
418.878	398.258
422.904	225.89
426.927	158.991
430.949	279.662
434.969	974.4
438.987	2411.59
443.003	1295.29
447.018	838.076
451.03	737.615
455.041	1088.1
459.049	2020.18
463.056	1286.12
467.061	1888.72
471.064	6384.45
475.065	25263.9
479.064	32574.4
483.062	9030
487.057	3179.59
491.051	1511.14
495.043	732.089
499.032	592.864
503.02	289.488
507.007	291.932
510.991	490.187
514.973	1237.23
518.954	2708.04
522.933	4579.61
526.91	2315.97
530.885	985.114
534.858	943.054
538.829	616.67
542.799	425.633
546.766	278.88
550.732	577.548
554.696	657.991
558.658	2350.27
562.618	7599.79
566.576	7568.67
570.533	2129.42
574.488	551.031
578.44	45.809
582.391	219.34
586.341	293.068
590.288	114.715
594.233	103.312
598.177	227.062
602.119	167.961
606.059	210.082
609.997	231.541
613.933	136.76
617.868	244.162
621.801	841.852
625.731	797.818
629.66	455.061
633.588	237.576
637.513	496.377
641.437	856.488
645.358	1299.92
649.278	1617.43
653.196	1930.02
657.113	1685.12
661.027	1318.06
664.94	1383.8
668.851	2862.25
672.76	7861.06
676.667	13710.3
680.572	6972.84
684.476	2924.84
688.378	1426.26
692.278	999.561
696.176	1071.45
700.072	1318.42
703.967	1843.07
707.86	4019.42
711.751	6782.44
715.64	2576.21
719.527	1273.06
723.413	771.971
727.297	718.645
731.179	523.572
735.059	629.148
738.937	1555.64
742.814	2729.8
746.689	1913.69
750.562	1044.73
754.433	661.828
758.303	531.771
762.17	802.1
766.036	1635.99
769.901	3311.73
773.763	6942.95
777.624	11718.8
781.482	9381.35
785.339	4730.53
789.195	2033.36
793.048	926.846
796.9	393.984
800.75	59.777
804.598	296.82
808.445	167.061
812.289	238.842
816.132	37.84
819.973	100.246
823.813	518.344
827.65	393.145
831.486	319.676
835.32	410.941
839.152	276.053
842.983	370.139
846.812	326.457
850.639	422.719
854.464	541.109
858.288	826.57
862.11	631.98
865.93	516.191
869.748	76.092
873.564	66.346
877.379	246.793
881.192	42.482
885.004	45.154
888.813	70.715
892.621	243.139
896.427	485.121
900.232	676.701
904.034	686.896
907.835	1297.55
911.634	1791.72
915.432	2599.63
919.227	4353.36
923.021	7567.72
926.813	14826.5
930.604	23920.7
934.393	23907.3
938.18	15677.2
941.965	9745.44
945.749	6219.97
949.53	3986.78
953.311	2764.15
957.089	2275.52
960.866	1682.87
964.641	1412.94
968.414	1274.65
972.185	1038.74
975.955	940.455
979.723	1161.65
983.49	763.965
987.254	999.881
991.017	1139.2
994.779	1211.73
998.538	1486.7
1002.3	2732.69
1006.05	1845.22
1009.81	1536.25
1013.56	1476.85
1017.31	1539.26
1021.06	1867.84
1024.81	1510.11
1028.55	1262.84
1032.3	1170.87
1036.04	1042.06
1039.78	1107.9
1043.52	1011.32
1047.26	786.266
1050.99	1011.95
1054.73	794.648
1058.46	571.461
1062.19	659.699
1065.92	514.863
1069.65	483.689
1073.37	467.328
1077.1	496.299
1080.82	1077.65
1084.54	828.432
1088.26	645.598
1091.97	364.252
1095.69	252.262
1099.4	435.693
1103.12	167.639
1106.83	324.916
1110.54	302.266
1114.24	139.359
1117.95	59.193
1121.65	364.957
1125.35	12.695
1129.06	111.443
1132.75	101.707
1136.45	197.631
1140.15	112.963
1143.84	124.914
1147.53	35.84
1151.22	156.523
1154.91	30.703
1158.6	22.992
1162.28	72.229
1165.97	38.588
1169.65	259.838
1173.33	360.145
1177.01	77.451
1180.69	111.758
1184.36	333.287
1188.04	203.18
1191.71	370.994
1195.38	161.936
1199.05	360.4
1202.71	547.09
1206.38	473.154
1210.04	217.738
1213.71	176.42
1217.37	616.602
1221.03	403.402
1224.68	553.336
1228.34	628.545
1231.99	509.812
1235.65	655.969
1239.3	723.66
1242.95	678.863
1246.59	830.932
1250.24	687.34
1253.88	862.523
1257.53	673.984
1261.17	607.566
1264.81	705.836
1268.45	1028.07
1272.08	1010.88
1275.72	959.045
1279.35	725.16
1282.98	509.605
1286.61	575.359
1290.24	541.941
1293.87	687.385
1297.49	662.807
1301.11	664.258
1304.73	485.363
1308.36	603.473
1311.97	827.996
1315.59	605.412
1319.2	802.893
1322.82	781.262
1326.43	591.014
1330.04	450.947
1333.65	128.287
1337.26	195.664
1340.86	240.246
1344.47	173.863
1348.07	143.771
1351.67	224.074
1355.27	317.902
1358.87	248.43
1362.46	136.355
1366.06	441.498
1369.65	400.236
1373.24	422.275
1376.83	407.73
1380.42	477.279
1384	476.789
1387.59	610.367
1391.17	273.336
1394.75	229.377
1398.33	169.129
1401.91	147.488
1405.49	259.652
1409.06	245.338
1412.64	159.654
1416.21	251.588
1419.78	98.688
1423.35	5.238
1426.91	0
