Measurement: Raman, 632 nm, ccw, Raman Data Processed
Mineral: Chukhrovite-(Ca)
Rruff sample: R130040
Ideal chemistry: Ca_3_Ca_1.5_Al_2_(SO_4_)F_13_12H_2_O
Locality: Val Cavallizza Pb–Zn–Ag mine, Cuasso al Monte, Varese province, Italy
Source: Frederic Hatert
Description: Crystals translucent to transparent, colourless to white,with a white streak and a vitreous lustre. Associated with marcasite, gypsum, and hydrated Fe oxides. Data from Vignola et al (2012)
Measured chemistry: (Ca_4.33_Na_0.11_Fe_0.03_)_Σ=4.47_Al_2.10_(S_0.90_O_3.72_)F_13.10_·5.98H_2_O
Raman shift (cm-1)	intensity
118.473	8.07717
123.559	8.00416
128.644	12.9495
133.729	15.9772
138.814	26.8617
143.9	6.03635
148.985	11.064
154.07	13.6721
159.156	3.99479
164.241	9.57942
169.326	26.2219
174.411	43.6542
179.497	63.3588
184.582	53.4245
189.667	53.1124
194.752	64.2729
199.838	110.844
204.923	153.409
210.008	179.854
215.093	135.272
220.179	95.1324
225.264	48.5369
230.349	18.8525
235.434	11.4594
240.52	4.26117
245.605	5.19585
250.69	5.94544
255.775	8.93904
260.861	21.616
265.946	22.9169
271.031	34.064
276.117	37.356
281.202	37.6518
286.287	38.07
291.372	37.7029
296.458	25.7569
301.543	18.5386
306.628	9.27502
311.713	7.31279
316.799	11.5951
321.884	19.8818
326.969	37.6679
332.054	57.7759
337.14	89.7851
342.225	106.911
347.31	105.16
352.395	72.3666
357.481	52.4095
362.566	35.7263
367.651	23.4494
372.736	22.3947
377.822	29.9595
382.907	37.2263
387.992	45.1999
393.077	47.3637
398.163	44.0071
403.248	48.5578
408.333	44.8375
413.419	54.194
418.504	68.4521
423.589	87.5873
428.674	102.319
433.76	121.039
438.845	156.029
443.93	187.632
449.015	193.082
454.101	173.256
459.186	122.231
464.271	88.6751
469.356	67.842
474.442	42.3804
479.527	40.0292
484.612	29.8229
489.697	27.981
494.783	22.205
499.868	23.3345
504.953	21.3786
510.038	25.3918
515.124	34.3904
520.209	44.4565
525.294	55.9813
530.38	67.5498
535.465	98.2122
540.55	133.162
545.635	174.266
550.721	213.146
555.806	208.498
560.891	182.055
565.976	133.613
571.062	104.052
576.147	81.7414
581.232	71.6729
586.317	61.6092
591.403	63.4353
596.488	55.4294
601.573	46.6589
606.658	47.5515
611.744	43.577
616.829	35.8486
621.914	38.5686
626.999	44.0103
632.085	31.8797
637.17	30.6033
642.255	33.9349
647.341	23.9658
652.426	24.5344
657.511	20.4258
662.596	20.9255
667.682	13.8765
672.767	12.0749
677.852	11.5025
682.937	8.69381
688.023	9.70713
693.108	6.13477
698.193	3.94204
703.278	14.2782
708.364	8.50889
713.449	6.99663
718.534	9.14201
723.619	9.00828
728.705	6.01002
733.79	6.88583
738.875	8.64874
743.96	6.36114
749.046	2.7776
754.131	5.84056
759.216	4.48255
764.302	10.0705
769.387	12.63
774.472	4.06179
779.557	9.83326
784.643	11.0064
789.728	10.2408
794.813	8.48479
799.898	7.80977
804.984	11.4879
810.069	9.82861
815.154	6.8004
820.239	11.3228
825.325	10.7919
830.41	12.2595
835.495	5.75018
840.58	8.74014
845.666	7.45032
850.751	6.17264
855.836	9.44392
860.921	7.05542
866.007	7.83197
871.092	10.5191
876.177	5.50471
881.263	8.13103
886.348	12.0083
891.433	11.2205
896.518	12.9865
901.604	4.33368
906.689	9.50365
911.774	12.1978
916.859	8.62478
921.945	13.5215
927.03	12.4302
932.115	13.6605
937.2	12.5112
942.286	19.8005
947.371	29.087
952.456	34.4184
957.541	65.1432
962.627	109.225
967.712	229.638
972.797	1387.14
977.882	3697.84
982.968	510.878
988.053	138.647
993.138	86.1475
998.224	53.6605
1003.31	31.469
1008.39	25.5525
1013.48	16.126
1018.56	10.2969
1023.65	7.35249
1028.74	3.93554
1033.82	4.70868
1038.91	2.4212
1043.99	7.81312
1049.08	4.5378
1054.16	9.84163
1059.25	9.22245
1064.33	9.84179
1069.42	19.4602
1074.5	17.1913
1079.59	22.963
1084.67	30.0221
1089.76	29.7448
1094.84	35.5637
1099.93	41.376
1105.01	42.7304
1110.1	45.08
1115.18	46.19
1120.27	45.8005
1125.35	49.8337
1130.44	40.2037
1135.53	34.9808
1140.61	23.2859
1145.7	16.0249
1150.78	12.8946
1155.87	6.76287
1160.04	5.80432
1164.48	0.197571
1168.93	7.46912
1173.38	5.96898
1177.82	4.20316
1182.27	7.83067
1186.71	-0.23844
1191.16	8.13312
1195.61	9.23401
1200.05	5.32929
1204.5	5.69365
1208.95	2.37933
1213.39	7.35403
1217.84	4.79972
1222.29	-2.18975
1226.73	7.93999
1231.18	4.92402
1235.62	5.55691
1240.07	9.90536
1244.52	2.1813
1248.96	1.32223
1253.41	10.1462
1257.86	9.14549
1262.3	2.11079
1266.75	6.50648
1271.2	8.22153
1275.64	4.5911
1280.09	7.45011
1284.53	9.95246
1288.98	2.41267
1293.43	6.65099
1297.87	3.8804
1302.32	18.2451
1306.77	8.16794
1311.21	2.2767
1315.66	11.0574
1320.1	5.04441
1324.55	8.47699
1329	5.96898
1333.44	8.66536
1337.89	15.9966
1342.34	11.7421
1346.78	8.71956
1351.23	9.02637
1355.68	13.5385
1360.12	13.1553
1364.57	3.55385
1369.01	16.1705
1373.46	-3.51614
1377.91	3.8804
1382.35	4.49474
1386.8	3.45086
1391.25	11.1681
1395.69	10.9996
1400.14	3.68266
1404.59	8.70691
1409.03	7.44254
1413.48	7.91572
1417.92	-0.282122
1422.37	8.71617
1426.82	-0.296814
1431.26	8.9322
1435.71	9.02511
1440.16	3.8804
1444.6	9.10289
1449.05	6.07021
1453.49	3.43419
1457.94	12.2502
1462.39	7.89754
1466.83	1.21427
1471.28	2.68243
1475.73	5.3613
1480.17	6.53896
1484.62	6.79262
1489.07	3.14174
1493.51	5.26915
1497.96	1.80985
1502.4	15.0238
1506.85	6.00118
1511.3	12.1367
1515.74	5.02298
1520.19	9.65486
1524.64	6.75686
1529.08	5.62357
1533.53	0.945137
1537.98	11.1919
1542.42	6.1333
1546.87	9.62512
1551.31	15.093
1555.76	16.5198
1560.21	10.6864
1564.65	15.9764
1569.1	9.16407
1573.55	16.1466
1577.99	12.2348
1582.44	11.2614
1586.88	18.8591
1591.33	17.9628
1595.78	24.7664
1600.22	25.6942
1604.67	35.0241
1609.12	36.1684
1613.56	50.8464
1618.01	67.5382
1622.46	76.8674
1626.9	82.7915
1631.35	93.6902
1635.79	84.2051
1640.24	71.76
1644.69	67.1181
1649.13	56.8247
1653.58	51.7746
1658.03	28.4184
1662.47	19.5028
1666.92	23.5175
1671.37	20.8704
1675.81	10.2391
1680.26	10.1462
1684.7	-1.0287
1689.15	1.43721
1693.6	6.11623
1698.04	15.5961
1702.49	4.45772
1706.94	5.84687
1711.38	5.96898
1715.83	10.3432
1720.27	3.23804
1724.72	6.52207
1729.17	-6.56261
1733.61	2.00488
1738.06	1.79177
1742.51	-1.05142
1746.95	0.918406
1751.4	3.17696
1755.85	8.05757
1760.29	1.4617
1764.74	1.35583
1769.18	2.56835
1773.63	5.37412
1778.08	6.30529
1782.52	5.13415
1786.97	-2.50067
1791.42	2.96086
1795.86	-2.08431
1800.31	2.56874
1804.76	0.378893
1809.2	-2.32631
1813.65	-0.296814
1818.09	3.37931
1822.54	-2.3854
1826.99	1.22313
1831.43	10.5883
1835.88	-4.00902
1840.33	1.19011
1844.77	1.22417
1849.22	3.74928
1853.66	-3.7497
1858.11	-2.65447
1862.56	7.25417
1867	-2.59185
1871.45	0.711811
1875.9	1.79177
1880.34	1.79177
1884.79	1.79177
1889.24	0.854918
1893.68	-2.8243
1898.13	-3.20918
1902.57	-2.74068
1907.02	-0.296814
1911.47	-1.86123
1915.91	-0.0406322
1920.36	0.349939
1924.81	-0.319321
1929.25	-1.59302
1933.7	-3.71585
