Measurement: Raman, 514 nm, ccw, Raman Data Processed
Mineral: Clinoptilolite-Ca
Rruff sample: R060662
Ideal chemistry: Ca_3_(Si_30_Al_6_)O_72_20H_2_O
Locality: Succor Creek, Malheur County, Oregon, USA
Source: Michael Scott
Description: Group of colorless platy prismatic crystals
Measured chemistry: (Ca_1.02_Na_0.97_K_0.59_)_Σ=2.58_(Si_14.40_Al_3.60_)_Σ=18_O_36_·10.96H_2_O
Pin_id: M00221
Orientation: Laser parallel to b* (0 1 0). Fiducial mark perpendicular to laser is parallel to c [0 0 1]
Raman shift (cm-1)	intensity
221.022	0
225.895	254.752
230.765	560.748
235.633	836.092
240.498	1366.49
245.361	1920
250.222	2260.65
255.08	2789.28
259.936	2949.29
264.789	2164.38
269.64	2092.15
274.488	2269.05
279.334	1691.84
284.178	1186.13
289.019	864.086
293.857	392.029
298.693	582.197
303.527	569.205
308.358	591.59
313.187	18.6152
318.013	93.8906
322.837	96.9785
327.659	23.4473
332.478	350.152
337.294	371.611
342.108	1001.79
346.92	473.428
351.729	985.676
356.535	971.037
361.34	1548.82
366.141	2036.08
370.94	2861.39
375.737	3881.38
380.531	5202.01
385.323	6989.98
390.113	9489.63
394.9	12580.5
399.684	15938
404.466	17675.6
409.245	16226.6
414.022	13045.4
418.797	9481.52
423.569	6683.01
428.338	4175.58
433.105	2591.16
437.87	1640.92
442.632	1116.52
447.391	940.537
452.149	1016.06
456.903	1687.84
461.655	3086.28
466.405	4656.07
471.152	7316.64
475.897	10769.6
480.639	13514.8
485.378	11834.1
490.116	8024.57
494.85	4175.09
499.582	2235.78
504.312	1273.56
509.039	543.441
513.764	185.641
518.486	90
523.206	61.3594
527.923	130.242
532.638	68.6856
537.35	32.4316
542.059	53.3633
546.766	16.543
551.471	40.8242
556.173	285.613
560.873	248.738
565.57	172.922
570.264	481.58
574.957	370.971
579.646	795.207
584.333	739.098
589.018	998.951
593.7	1294.45
598.379	1559.61
603.056	2327.44
607.73	3047.99
612.402	3645.24
617.072	4193.2
621.739	3695.82
626.403	2969.09
631.065	2285
635.724	1712.62
640.381	1309.97
645.035	1502.59
649.687	1095.75
654.336	1107.65
658.983	688.537
663.627	459.967
668.268	303.897
672.907	215.691
677.544	116.281
682.178	160.559
686.809	145.059
691.438	45.6562
696.065	91.0312
700.688	51.0879
705.31	105.119
709.929	357.514
714.545	182.211
719.158	293.879
723.77	332.404
728.378	541.236
732.984	481.234
737.588	463.416
742.189	693.295
746.787	642.451
751.383	758.863
755.976	927.799
760.567	1286.32
765.155	1363.18
769.741	1692.44
774.324	2098.68
778.904	2711.76
783.482	3061.44
788.058	3501.71
792.631	3559.58
797.201	3564.26
801.769	3047.66
806.334	2524.95
810.897	2734.61
815.457	2441.52
820.014	2329.22
824.569	1674.67
829.122	1108.63
833.671	788.393
838.219	715.391
842.763	830.006
847.306	953.084
851.845	1282.85
856.382	1456.6
860.917	1685.9
865.448	1020.03
869.978	661.32
874.505	309.805
879.029	369.508
883.55	44.5391
888.069	30.7617
892.586	30.8828
897.1	223.492
901.611	70.4531
906.12	208.75
910.626	51.3125
915.129	49.7969
919.63	10.4707
924.129	276.935
928.625	423.4
933.118	33.9863
937.609	49.0781
942.097	16.3203
946.582	72.3379
951.065	416.135
955.546	295.025
960.023	206.004
964.499	97.1445
968.971	180.555
973.441	258.365
977.909	319.935
982.374	300.44
986.836	381.701
991.295	666.807
995.753	795.758
1000.21	1515.53
1004.66	1294.03
1009.11	801.273
1013.55	944.275
1018	1163.94
1022.44	1118.07
1026.88	1267.39
1031.32	1259.84
1035.75	1477.49
1040.18	1450.24
1044.61	1385.43
1049.04	1204.86
1053.46	993.106
1057.88	1153.18
1062.3	1032.45
1066.71	992.711
1071.13	1204.21
1075.54	1198.13
1079.94	1268.54
1084.35	2067.75
1088.75	1686.61
1093.15	1841.25
1097.55	2052.69
1101.94	2107.66
1106.34	2267.32
1110.73	2964.3
1115.11	2853.13
1119.5	2752.46
1123.88	2987.44
1128.26	2506.28
1132.63	2463
1137.01	2335.5
1141.38	2268.78
1145.75	2248.55
1150.12	2009.71
1154.48	2280.48
1158.84	2073.15
1163.2	1990.62
1167.55	1825.86
1171.91	1663.89
1176.26	1773.74
1180.61	1241.67
1184.95	919.758
1189.29	1043.9
1193.63	345.352
1197.97	512.508
1202.31	176.453
1206.64	55.1289
1210.97	53.5312
1215.29	11.7422
1219.62	26.1016
1223.94	66
1228.26	102.293
1232.57	69.9336
1236.89	273.523
1241.2	23.6055
1245.51	136.383
1249.81	30.2734
1254.12	145.543
1258.42	133.824
1262.72	329.652
1267.01	83.0352
1271.3	532.977
1275.59	520.551
1279.88	248.656
1284.17	253.352
1288.45	303.129
1292.73	246.613
1297.01	538.797
1301.28	325.516
1305.55	667.668
1309.82	471.242
1314.09	599.598
1318.35	727.523
1322.61	557.191
1326.87	318.207
1331.13	224.602
1335.38	238.363
1339.63	94.5898
1343.88	205.047
1348.12	147.66
1352.37	290.555
1356.61	205.66
1360.85	64.0898
1365.08	153.953
1369.31	71.5508
1373.54	281.731
1377.77	234.844
1381.99	61.8086
1386.22	320.121
1390.43	206.148
1394.65	425.551
1398.87	73.8633
1403.08	30.7188
1407.29	209.207
1411.49	85.2148
1415.69	4.49609
1419.89	281.582
1424.09	621.336
1428.29	649.926
1432.48	678.379
1436.67	1679.32
1440.86	2184.26
1445.04	2632.88
1449.23	2852.8
1453.4	2963.03
1457.58	2573.69
1461.76	2187.01
1465.93	1366.66
1470.1	1388.18
1474.26	786.883
1478.43	720.969
1482.59	721.43
1486.75	433.219
1490.9	44.5508
1495.06	355.934
1499.21	204.277
1503.35	210.871
1507.5	24.0664
1511.64	101.121
1515.78	233.863
1519.92	198.348
1524.05	35.3984
1528.18	382.477
1532.31	488.984
1536.44	481.938
1540.56	107.727
1544.69	465.887
1548.8	475.719
1552.92	845.891
1557.03	311.719
1561.14	281.367
1565.25	91.9688
1569.36	1.74609
