Measurement: Raman, 514 nm, ccw, Raman Data Processed
Mineral: Clinohumite
Rruff sample: R040122
Ideal chemistry: Mg_9_(SiO_4_)_4_F_2_
Locality: Anzahamazonono,  Madagascar
Source: University of Arizona Mineral Museum
Description: Orange-brown blebs embedded in calcite matrix
Measured chemistry: (Mg_0.96_Fe_0.02_Ti_0.01_Ca_0.01_)_9_(SiO_4_)_4_(F_0.59_(OH)_0.41_)_2_
Pin_id: M00157
Orientation: Laser parallel to (0 1 1). Fiducial mark perpendicular to laser is parallel to a [1 0 0]
Raman shift (cm-1)	intensity
54.966	0
59.164	607.363
63.36	758.55
67.554	513.999
71.747	426.646
75.937	160.029
80.125	60.492
84.311	173.147
88.496	25.013
92.678	720.582
96.858	185.813
101.036	24.529
105.212	1.698
109.387	279.852
113.559	15.896
117.729	84.449
121.897	6.148
126.063	40.124
130.228	13.658
134.39	162.823
138.55	362.413
142.709	511.138
146.865	620.395
151.019	664.344
155.171	724.979
159.322	598.924
163.47	501.227
167.617	489.076
171.761	433.155
175.904	859.598
180.044	1569.74
184.183	2335.62
188.319	2205.26
192.454	1492.68
196.586	1195.94
200.717	1238.15
204.846	1554.38
208.972	1907.68
213.097	1350.07
217.22	732.493
221.341	535.801
225.46	370.769
229.577	314.228
233.692	285.617
237.805	456.307
241.916	490.096
246.025	373.313
250.132	232.821
254.237	232.426
258.34	302.061
262.442	373.151
266.541	333.385
270.639	540.853
274.734	823.059
278.828	1068.4
282.919	1055.54
287.009	823.492
291.097	747.651
295.183	585.995
299.266	486.274
303.348	454.111
307.428	438.485
311.507	556.376
315.583	737.776
319.657	872.755
323.729	826.645
327.8	686.638
331.868	689.961
335.935	706.76
339.999	645.947
344.062	623.443
348.123	545.21
352.182	490.183
356.239	590.14
360.294	537.981
364.347	426.443
368.398	575.287
372.448	877.462
376.495	1284.95
380.54	1427.72
384.584	1188.75
388.626	1306.96
392.666	1801.35
396.704	1506.98
400.74	703.887
404.774	57.101
408.806	25.707
412.836	314.744
416.865	526.14
420.891	489.836
424.916	280.764
428.939	326.948
432.959	339.466
436.978	57.818
440.996	33.006
445.011	245.162
449.024	58.595
453.036	15.06
457.045	304.533
461.053	455.219
465.059	780.982
469.063	980.808
473.065	1120.68
477.065	1315.6
481.063	1791.03
485.06	2381.62
489.054	2788.27
493.047	3047.51
497.038	3201.73
501.027	3375.86
505.014	3432.01
508.999	3239.54
512.982	3087.72
516.964	3149.7
520.944	3583.36
524.921	4174.78
528.897	5046.9
532.871	6275.58
536.844	6972.82
540.814	6640.62
544.783	5437.97
548.749	4417.86
552.714	3608.28
556.677	2694.24
560.638	2265.73
564.597	2105.75
568.555	2261.28
572.511	2374.32
576.464	2427.88
580.416	2311.93
584.366	2775.49
588.315	3421.55
592.261	3517.1
596.206	2794.01
600.148	2874.14
604.089	3124.92
608.028	3333.27
611.965	2723.04
615.901	1830.61
619.834	1347.7
623.766	1003.32
627.696	632.462
631.624	343.133
635.551	94.338
639.475	18.729
643.398	176.25
647.318	228.065
651.237	229.12
655.155	241.568
659.07	286.238
662.984	262.035
666.895	215.896
670.805	129.587
674.713	120.721
678.62	50.913
682.524	127.933
686.427	230.621
690.328	268.025
694.227	451.171
698.124	661.077
702.02	773.104
705.913	1030.26
709.805	1551.58
713.695	1777.75
717.584	2493.78
721.47	3386.71
725.355	4557.55
729.238	6424.31
733.119	9191.03
736.998	11934.7
740.876	13952.4
744.752	15108.1
748.626	17121.8
752.498	19067.6
756.368	19710.6
760.237	17616.7
764.104	13679.3
767.969	10543.2
771.832	10430.2
775.693	12364.5
779.553	16266
783.411	21067.7
787.267	21902.7
791.122	19613.4
794.974	16019
798.825	12715.2
802.674	12139.7
806.522	13931.3
810.367	13867.8
814.211	12535.7
818.053	13047.6
821.893	16165.9
825.732	26320.6
829.568	38757
833.403	35519
837.236	26863.3
841.068	30068.3
844.898	39284.4
848.726	39382.5
852.552	33657.7
856.376	37755.9
860.199	48037.1
864.02	38782.4
867.839	24341.7
871.656	16616
875.472	12756.3
879.286	9770.62
883.098	7225.87
886.909	5154.06
890.717	4015.19
894.524	3011.27
898.33	2509.28
902.133	2093.2
905.935	1882.56
909.735	1699.54
913.533	1773.34
917.33	2321.25
921.124	2797.03
924.918	4119.07
928.709	9528.8
932.499	13552.6
936.286	6380.59
940.073	2569.59
943.857	1446.5
947.64	1080.63
951.421	1250.63
955.2	1867.18
958.978	3507.85
962.753	7561.32
966.527	14352.5
970.3	12951.5
974.071	6325.75
977.84	2990.94
981.607	1551.02
985.372	987.907
989.136	704.141
992.898	639.648
996.659	657.545
1000.42	634.65
1004.17	525.514
1007.93	636.807
1011.68	723.883
1015.43	647.668
1019.18	458.018
1022.93	410.721
1026.68	482.421
1030.42	463.892
1034.17	324.497
1037.91	166.416
1041.65	135.819
1045.39	91.382
1049.12	134.849
1052.86	33.464
1056.59	55.371
1060.33	53.217
1064.06	72.168
1067.78	19.644
1071.51	103.139
1075.23	43.678
1078.96	23.242
1082.68	53.161
1086.4	47.449
1090.12	48.137
1093.83	41.089
1097.55	38.75
1101.26	67.715
1104.97	63.953
1108.68	130.473
1112.39	38.526
1116.1	102.861
1119.8	36.808
1123.5	75.577
1127.2	56.805
1130.9	35.021
1134.6	72.035
1138.3	25.918
1141.99	51.611
1145.69	33.783
1149.38	12.459
1153.07	11.452
1156.76	14.623
1160.44	81.901
1164.13	77.273
1167.81	100.823
1171.49	96.58
1175.17	111.545
1178.85	145.67
1182.52	180.049
1186.2	187.69
1189.87	206.556
1193.54	230.642
1197.21	375.977
1200.88	401.223
1204.55	490.168
1208.21	542.703
1211.88	606.67
1215.54	684.715
1219.2	868.276
1222.86	884.206
1226.51	979.735
1230.17	1000.94
1233.82	1087.93
1237.47	1238.32
1241.12	1348.76
1244.77	1362.4
1248.42	1421.93
1252.06	1457.23
1255.71	1471.33
1259.35	1489.28
1262.99	1476.35
1266.63	1604.72
1270.26	1603.38
1273.9	1665.8
1277.53	1695
1281.16	1740.71
1284.8	1837.59
1288.42	1818.02
1292.05	1780.58
1295.68	1741.44
1299.3	1525.07
1302.92	1565.3
1306.55	1292.2
1310.16	1242.21
1313.78	1064.76
1317.4	1132.6
1321.01	1011.86
1324.62	991.573
1328.24	1064.62
1331.85	974.45
1335.45	921.22
1339.06	813.633
1342.66	799.497
1346.27	631.452
1349.87	674.066
1353.47	614.687
1357.07	558.156
1360.66	462.376
1364.26	404.282
1367.85	422.949
1371.44	412.473
1375.04	282.9
1378.62	196.363
1382.21	317.125
1385.8	192.771
1389.38	175.113
1392.96	259.66
1396.54	140.525
1400.12	140.716
1403.7	62.827
1407.28	109.594
1410.85	66.002
1414.42	17.862
1417.99	14.251
1421.56	36.574
1425.13	7.694
1428.7	47.309
1432.26	6.44
1435.83	0.06
1439.39	49.56
1442.95	66.069
1446.51	2.636
1450.06	87.964
1453.62	194.583
1457.17	250.66
1460.73	273.348
1464.28	251.447
1467.83	258.402
1471.37	401.758
1474.92	335.061
1478.46	386.916
1482.01	435.528
1485.55	374.399
1489.09	335.798
1492.63	435.544
1496.16	548.729
1499.7	568.055
1503.23	600.936
1506.76	636.504
1510.29	575.345
1513.82	557.076
1517.35	308.508
1520.88	146.807
1524.4	10.448
1527.92	0
