Measurement: Raman, 514 nm, ccw, Raman Data Processed
Mineral: Clinohumite
Rruff sample: R040122
Ideal chemistry: Mg_9_(SiO_4_)_4_F_2_
Locality: Anzahamazonono,  Madagascar
Source: University of Arizona Mineral Museum
Description: Orange-brown blebs embedded in calcite matrix
Measured chemistry: (Mg_0.96_Fe_0.02_Ti_0.01_Ca_0.01_)_9_(SiO_4_)_4_(F_0.59_(OH)_0.41_)_2_
Pin_id: M00157
Orientation: Laser parallel to (0 1 1). Fiducial mark perpendicular to laser is parallel to a [1 0 0]
Raman shift (cm-1)	intensity
54.966	0
59.164	398.345
63.36	665.694
67.554	353.575
71.747	220.609
75.937	259.792
80.125	11.149
84.311	83.87
88.496	60.382
92.678	436.022
96.858	344.928
101.036	252.137
105.212	166.599
109.387	292.16
113.559	115.449
117.729	382.368
121.897	37.682
126.063	24.357
130.228	68.568
134.39	89.945
138.55	7.333
142.709	19.973
146.865	9.926
151.019	52.705
155.171	75.82
159.322	129.229
163.47	259.696
167.617	265.141
171.761	329.619
175.904	489.778
180.044	758.953
184.183	1067.04
188.319	1013.3
192.454	921.881
196.586	1229.87
200.717	1479.32
204.846	1534.51
208.972	1360.52
213.097	794.565
217.22	597.15
221.341	780.821
225.46	1058.28
229.577	1409.33
233.692	1609.63
237.805	1626.91
241.916	1572.04
246.025	1372.35
250.132	1277.86
254.237	1304.76
258.34	1321.54
262.442	1072.46
266.541	872.958
270.639	703.991
274.734	639.15
278.828	611.368
282.919	795.149
287.009	785.858
291.097	725.859
295.183	633.684
299.266	477.289
303.348	653.75
307.428	1037.75
311.507	1337.17
315.583	1883.3
319.657	2515.72
323.729	2231.04
327.8	1440.92
331.868	951.246
335.935	555.211
339.999	334.9
344.062	142.34
348.123	21.596
352.182	19.31
356.239	21.643
360.294	7.375
364.347	14.72
368.398	3.648
372.448	79.135
376.495	199.957
380.54	156.979
384.584	131.168
388.626	288.371
392.666	547.573
396.704	423.789
400.74	126.041
404.774	32.341
408.806	104.714
412.836	277.205
416.865	347.785
420.891	400.454
424.916	314.221
428.939	462.105
432.959	580.116
436.978	713.24
440.996	902.479
445.011	759.816
449.024	335.236
453.036	4.784
457.045	23.405
461.053	86.699
465.059	176.019
469.063	242.41
473.065	257.873
477.065	179.383
481.063	283.269
485.06	257.468
489.054	258.965
493.047	249.953
497.038	363.515
501.027	408.351
505.014	489.634
508.999	492.286
512.982	639.938
516.964	672.271
520.944	762.451
524.921	879.952
528.897	1237.01
532.871	1545.93
536.844	1640.13
540.814	1541.69
544.783	1341.63
548.749	1178.91
552.714	1014.84
556.677	802.426
560.638	772.666
564.597	844.556
568.555	869.904
572.511	1021.09
576.464	1249.91
580.416	1506.38
584.366	2139.49
588.315	2607.23
592.261	3013.61
596.206	3741.62
600.148	5916.27
604.089	9216.54
608.028	11690.4
611.965	9819.98
615.901	5235.17
619.834	2894.97
623.766	1703.39
627.696	1083.45
631.624	586.146
635.551	372.479
639.475	197.449
643.398	63.011
647.318	10.005
651.237	83.904
655.155	70.03
659.07	161.452
662.984	154.278
666.895	173.57
670.805	187.374
674.713	176.699
678.62	77.341
682.524	101.989
686.427	83.532
690.328	23.687
694.227	126.617
698.124	115.251
702.02	184.641
705.913	301.817
709.805	467.797
713.695	523.594
717.584	897.222
721.47	1212.69
725.355	1709.03
729.238	2529.23
733.119	3586.32
736.998	4795.31
740.876	6136.21
744.752	7309.03
748.626	8027.79
752.498	8266.5
756.368	7985.18
760.237	6947.83
764.104	5486.51
767.969	4762.29
771.832	5112.19
775.693	6703.26
779.553	9478.52
783.411	12674.1
787.267	12402.8
791.122	10192.6
794.974	8422.91
798.825	8089.45
802.674	9646.93
806.522	12800.3
810.367	13788.9
814.211	13513.9
818.053	14689
821.893	19167.3
825.732	31285.8
829.568	46097.2
833.403	41655.9
837.236	31226.8
841.068	33704.4
844.898	42391.8
848.726	40273
852.552	33974.3
856.376	39116.4
860.199	50940.3
864.02	40743.9
867.839	25267
871.656	17605.7
875.472	15374.9
879.286	13910.7
883.098	9767.05
886.909	6525.98
890.717	4798.47
894.524	3462.53
898.33	2819.13
902.133	2347.29
905.935	2028.98
909.735	1801.35
913.533	1683.66
917.33	1777.78
921.124	1715
924.918	1961.31
928.709	3146.17
932.499	4029.27
936.286	2244.62
940.073	1303.51
943.857	960.917
947.64	899.157
951.421	1013.91
955.2	1520.36
958.978	2782.5
962.753	6239.81
966.527	12877.3
970.3	12976.4
974.071	7705.49
977.84	4594.42
981.607	2658.05
985.372	1731.48
989.136	1146.93
992.898	951.206
996.659	852.622
1000.42	858.754
1004.17	785.431
1007.93	765.724
1011.68	768.687
1015.43	706.624
1019.18	623.961
1022.93	507.055
1026.68	614.433
1030.42	633.76
1034.17	548.776
1037.91	459.67
1041.65	360.448
1045.39	386.205
1049.12	295.827
1052.86	160.925
1056.59	48.129
1060.33	52.321
1064.06	19.827
1067.78	53.539
1071.51	166.527
1075.23	91.162
1078.96	160.009
1082.68	65.333
1086.4	49.005
1090.12	45.893
1093.83	116.059
1097.55	114.94
1101.26	31.267
1104.97	28.653
1108.68	75.354
1112.39	73.48
1116.1	33.841
1119.8	46.816
1123.5	261.476
1127.2	70.896
1130.9	30.97
1134.6	1.641
1138.3	12.344
1141.99	37.05
1145.69	31.586
1149.38	64.183
1153.07	61.486
1156.76	3.353
1160.44	70.612
1164.13	12.316
1167.81	91.034
1171.49	99.001
1175.17	82.882
1178.85	103.729
1182.52	107.861
1186.2	158.729
1189.87	163.983
1193.54	182.002
1197.21	173.026
1200.88	193.35
1204.55	219.729
1208.21	260.475
1211.88	308.76
1215.54	338.251
1219.2	374.013
1222.86	432.077
1226.51	490.024
1230.17	582.625
1233.82	530.28
1237.47	486.208
1241.12	563.48
1244.77	584.797
1248.42	638.034
1252.06	670.406
1255.71	603.352
1259.35	529.37
1262.99	566.038
1266.63	631.47
1270.26	556.877
1273.9	542.058
1277.53	637.695
1281.16	675.82
1284.8	573.164
1288.42	642.101
1292.05	521.148
1295.68	577.253
1299.3	522.905
1302.92	438.205
1306.55	392.178
1310.16	298.515
1313.78	244.333
1317.4	288.028
1321.01	307.918
1324.62	206.62
1328.24	345.643
1331.85	163.462
1335.45	193.368
1339.06	226.922
1342.66	198.517
1346.27	189.301
1349.87	175.253
1353.47	241.642
1357.07	182.624
1360.66	157.392
1364.26	150.661
1367.85	169.607
1371.44	68.011
1375.04	124.021
1378.62	38.569
1382.21	61.875
1385.8	38.701
1389.38	9.006
1392.96	54.689
1396.54	68.087
1400.12	69.22
1403.7	87.772
1407.28	12.363
1410.85	88.768
1414.42	68.547
1417.99	0.939
1421.56	54.975
1425.13	17.58
1428.7	62.102
1432.26	35.977
1435.83	57.423
1439.39	160.195
1442.95	80.072
1446.51	201.948
1450.06	129.434
1453.62	210.307
1457.17	157.291
1460.73	183.535
1464.28	121.073
1467.83	140.299
1471.37	13.318
1474.92	87.418
1478.46	100.572
1482.01	136.268
1485.55	99.232
1489.09	152.706
1492.63	38.999
1496.16	176.897
1499.7	72.776
1503.23	229.687
1506.76	228.661
1510.29	134.385
1513.82	217.674
1517.35	90.736
1520.88	2.438
1524.4	0
