Measurement: Raman, 514 nm, ccw, Raman Data Processed
Mineral: Clinoptilolite-Ca
Rruff sample: R060662
Ideal chemistry: Ca_3_(Si_30_Al_6_)O_72_20H_2_O
Locality: Succor Creek, Malheur County, Oregon, USA
Source: Michael Scott
Description: Group of colorless platy prismatic crystals
Measured chemistry: (Ca_1.02_Na_0.97_K_0.59_)_Σ=2.58_(Si_14.40_Al_3.60_)_Σ=18_O_36_·10.96H_2_O
Pin_id: M00063
Orientation: Laser parallel to -a* (-1 0 0). Fiducial mark perpendicular to laser is parallel to b [0 1 0]
Raman shift (cm-1)	intensity
134.127	0
139.043	583.019
143.956	1697.29
148.867	3265.96
153.775	5005.17
158.681	5057.31
163.585	3837.6
168.486	2100.27
173.385	885.912
178.282	1842.93
183.176	5201.32
188.067	8399.08
192.956	10390.3
197.843	10504.3
202.727	8924.48
207.609	5528.57
212.489	3052.11
217.366	1250.46
222.24	84.6367
227.112	503.318
231.982	510.047
236.849	318.731
241.714	118.057
246.577	802.244
251.437	1604.58
256.294	2325.97
261.149	3258.26
266.002	3892.4
270.852	4661.47
275.7	5122.33
280.545	4968.54
285.388	4766.81
290.229	4428.78
295.067	4122.41
299.902	3821.52
304.735	3773.41
309.566	3805.55
314.394	4030.03
319.22	4175.73
324.043	4656.08
328.864	5027.67
333.682	5095.62
338.498	5471.75
343.311	5652.2
348.122	6451.74
352.931	7341.85
357.737	8829.29
362.54	10192.8
367.341	12151.8
372.14	13975.8
376.936	15867.2
381.73	18466.7
386.521	22314.9
391.31	27881.3
396.096	34852.3
400.88	39873.5
405.661	39964.9
410.44	35540.1
415.216	28987.3
419.99	22082.4
424.761	16412.2
429.53	11547
434.297	8426.7
439.061	6638.33
443.822	5895.6
448.581	6198.4
453.337	7334.91
458.091	9999.06
462.843	13162.1
467.592	15454.1
472.338	18403.5
477.082	23130.6
481.824	25965.8
486.563	21974.1
491.3	14202.7
496.034	7773.45
500.765	3874.43
505.494	2171.09
510.221	1252.44
514.945	821.356
519.666	368.869
524.385	382.058
529.102	206.087
533.816	59.7744
538.527	65.8711
543.236	150.075
547.943	130.477
552.647	169.353
557.348	68.9365
562.047	23.4697
566.744	8.56934
571.438	120.298
576.129	315.707
580.818	476.67
585.504	648.779
590.188	942.341
594.87	1407.59
599.549	2155.41
604.225	3179.15
608.899	4281.48
613.57	5200.13
618.239	4582.2
622.905	3805.83
627.569	2845.93
632.23	1970.48
636.889	1434.43
641.545	1000.85
646.198	967.564
650.849	814.428
655.498	565.533
660.144	447.431
664.787	492.894
669.428	399.111
674.067	340.435
678.703	132.44
683.336	186.28
687.967	91.583
692.595	12.6953
697.221	35.9775
701.844	1.3916
706.465	61.8701
711.083	78.6914
715.698	106.088
720.311	145.335
724.922	56.4336
729.53	179.958
734.135	277.797
738.738	304.009
743.338	432.595
747.936	562.92
752.531	588.813
757.124	1007.66
761.714	1042.71
766.302	1585.36
770.887	1733.45
775.469	1700.02
780.049	1795.62
784.626	1711.13
789.201	1620.82
793.773	1354.92
798.343	1243.39
802.91	1060.63
807.475	839.909
812.037	703.314
816.596	622.094
821.153	608.211
825.707	475.577
830.259	329.252
834.808	149.75
839.355	199.084
843.899	6.99316
848.441	117.112
852.98	16.2109
857.516	118.608
862.05	80.2519
866.581	27.5674
871.11	36.3047
875.636	78.8066
880.159	13.7129
884.68	69.4062
889.199	50.6826
893.714	89.2246
898.228	12.2803
902.738	37.6602
907.246	37.9033
911.752	73.7578
916.255	44.2666
920.755	35.4932
925.253	44.9443
929.748	96.875
934.241	86.085
938.731	154.77
943.218	269.975
947.703	161.766
952.186	329.19
956.665	376.281
961.142	469.082
965.617	414.603
970.089	497.85
974.558	549.516
979.025	683.643
983.489	806.698
987.951	1005.88
992.41	1177.16
996.866	1191.7
1001.32	1384.39
1005.77	1624.7
1010.22	1674.48
1014.67	1837.82
1019.11	1954.16
1023.55	1932.82
1027.99	1996.68
1032.42	1979.08
1036.86	1824.47
1041.29	1735.01
1045.72	1772.8
1050.14	1716.69
1054.56	1756.65
1058.98	1504.77
1063.4	1499.19
1067.82	1436.63
1072.23	1502.02
1076.64	1469.55
1081.05	1838.52
1085.45	2001.89
1089.85	2287.63
1094.25	2865.79
1098.65	3243.24
1103.04	3582.22
1107.43	3774.7
1111.82	4151.21
1116.21	4303.31
1120.59	4718.33
1124.97	4669.69
1129.35	4615.54
1133.73	4806.24
1138.1	4893.99
1142.47	5059.16
1146.84	5172.1
1151.21	5562.85
1155.57	5206.5
1159.93	5078.87
1164.29	4680.85
1168.64	4355.81
1172.99	4139.89
1177.34	3667.86
1181.69	3468.28
1186.04	2871.8
1190.38	2451.03
1194.72	2029.53
1199.05	1589.77
1203.39	1251.78
1207.72	1019.21
1212.05	610.377
1216.37	525.703
1220.7	223.005
1225.02	281.41
1229.34	206.98
1233.65	54.2285
1237.97	108.257
1242.28	88.0859
1246.59	20.708
1250.89	47.5791
1255.19	37.8897
1259.49	87.3789
1263.79	104.167
1268.09	49.7051
1272.38	45.7432
1276.67	54.5996
1280.95	69.6006
1285.24	92.2324
1289.52	94.834
1293.8	72.6953
1298.08	4.33008
1302.35	87.3594
1306.62	10.9443
1310.89	0.588867
1315.15	59.376
1319.42	64.6982
1323.68	81.1504
1327.94	13.6738
1332.19	43.7402
1336.44	54.0371
1340.69	26.8252
1344.94	111.918
1349.19	316.432
1353.43	228.649
1357.67	294.428
1361.9	118.471
1366.14	118.334
1370.37	108.259
1374.6	187.112
1378.83	108.355
1383.05	148.819
1387.27	141.088
1391.49	103.01
1395.7	178.219
1399.92	112.794
1404.13	28.5537
1408.34	113.131
1412.54	113.649
1416.74	97.4873
1420.94	182.162
1425.14	150.505
1429.34	164.049
1433.53	229.203
1437.72	192.145
1441.9	319.951
1446.09	89.7314
1450.27	388.625
1454.45	156.845
1458.63	235.953
1462.8	286.803
1466.97	298.603
1471.14	191.366
1475.31	220.807
1479.47	159.332
1483.63	130.94
1487.79	205.264
1491.94	30.8691
1496.09	140.541
1500.24	144.603
1504.39	167.311
1508.54	124.006
1512.68	161.912
1516.82	233.191
1520.95	96.9775
1525.09	154.046
1529.22	194.739
1533.35	117.567
1537.47	140.811
1541.6	161.102
1545.72	108.153
1549.83	177.316
1553.95	352.933
1558.06	207.733
1562.17	49.3643
1566.28	2.66504
1570.38	38.2441
