Measurement: Raman, 514 nm, ccw, Raman Data Processed
Mineral: Clinoptilolite-Ca
Rruff sample: R060662
Ideal chemistry: Ca_3_(Si_30_Al_6_)O_72_20H_2_O
Locality: Succor Creek, Malheur County, Oregon, USA
Source: Michael Scott
Description: Group of colorless platy prismatic crystals
Measured chemistry: (Ca_1.02_Na_0.97_K_0.59_)_Σ=2.58_(Si_14.40_Al_3.60_)_Σ=18_O_36_·10.96H_2_O
Pin_id: M00063
Orientation: Laser parallel to -a* (-1 0 0). Fiducial mark perpendicular to laser is parallel to b [0 1 0]
Raman shift (cm-1)	intensity
134.127	0
139.043	754.144
143.956	1655.31
148.867	3646.05
153.775	5073.75
158.681	5174.79
163.585	4192
168.486	1979.53
173.385	1087.45
178.282	1871.69
183.176	5417.43
188.067	8527.7
192.956	10469.9
197.843	10386.4
202.727	8548.58
207.609	5505.66
212.489	2877.3
217.366	1219.1
222.24	112.193
227.112	463.004
231.982	476.051
236.849	271.744
241.714	362.986
246.577	1016.4
251.437	1656.43
256.294	2428.32
261.149	3280.73
266.002	3739.44
270.852	4264.08
275.7	4904.39
280.545	5047.35
285.388	4643.32
290.229	4144.33
295.067	3886.8
299.902	3995.74
304.735	3693.37
309.566	3783.59
314.394	3414.59
319.22	3929.88
324.043	4247.22
328.864	4707.65
333.682	5018.47
338.498	5082.9
343.311	5399.65
348.122	5938.35
352.931	6862.54
357.737	8348.93
362.54	9746.1
367.341	11445
372.14	13200.5
376.936	15302.4
381.73	17587.2
386.521	21657.2
391.31	27025.1
396.096	33202.5
400.88	38096.2
405.661	38513.8
410.44	34241.3
415.216	27567
419.99	21298.1
424.761	15551.6
429.53	11180.9
434.297	8233.92
439.061	6440.88
443.822	5627.88
448.581	5849.58
453.337	7340.53
458.091	9878.38
462.843	12871.3
467.592	14873.5
472.338	17921.9
477.082	22428.2
481.824	25101.4
486.563	21150.8
491.3	13256.4
496.034	7273.11
500.765	3759.02
505.494	2067.66
510.221	974.369
514.945	753.812
519.666	289.975
524.385	48.375
529.102	125.391
533.816	32.1484
538.527	301.785
543.236	224.727
547.943	225.977
552.647	100.514
557.348	42.627
562.047	21.9121
566.744	16.6016
571.438	8.32617
576.129	291.514
580.818	323.66
585.504	567.303
590.188	1037.94
594.87	1526.44
599.549	2099.95
604.225	3247.86
608.899	4106.72
613.57	4837.08
618.239	4608.04
622.905	3840.36
627.569	2782.21
632.23	1901.51
636.889	1376.1
641.545	906.928
646.198	772.121
650.849	377.082
655.498	457.144
660.144	484.603
664.787	170.875
669.428	233.482
674.067	188.135
678.703	80.6016
683.336	94.7422
687.967	169.648
692.595	214.062
697.221	51.7656
701.844	35.7402
706.465	154.938
711.083	12.8496
715.698	140.295
720.311	302.66
724.922	316.119
729.53	244.014
734.135	176.404
738.738	357.303
743.338	289.301
747.936	503.728
752.531	706.125
757.124	795.578
761.714	1281.93
766.302	1332.52
770.887	1670.84
775.469	1570.78
780.049	1798.33
784.626	1707.28
789.201	1565.37
793.773	1434.14
798.343	1054.05
802.91	845.844
807.475	950.922
812.037	863.139
816.596	824.711
821.153	744.707
825.707	459.695
830.259	142.33
834.808	244.949
839.355	163.377
843.899	2.02539
848.441	118.268
852.98	50.6914
857.516	15.8809
862.05	101.047
866.581	5.05859
871.11	129.125
875.636	193.568
880.159	4.9082
884.68	13.8809
889.199	211.467
893.714	25.4082
898.228	29.1406
902.738	39.5078
907.246	54.3145
911.752	153.924
916.255	91.6211
920.755	50.3203
925.253	1.99219
929.748	3.5918
934.241	97.5684
938.731	26.4766
943.218	128.109
947.703	266.363
952.186	310.336
956.665	173.107
961.142	401.742
965.617	483.244
970.089	371.666
974.558	482.783
979.025	796.029
983.489	873.144
987.951	989.615
992.41	955.148
996.866	1181.81
1001.32	1304.25
1005.77	1726.67
1010.22	1608.72
1014.67	1874.99
1019.11	1998.2
1023.55	2044.89
1027.99	2196.45
1032.42	1913.52
1036.86	1836.9
1041.29	1673.15
1045.72	1899.4
1050.14	1768.91
1054.56	1707.2
1058.98	1307.63
1063.4	1387.37
1067.82	1255.47
1072.23	1451.99
1076.64	1465.87
1081.05	1813.18
1085.45	2042.96
1089.85	2399.15
1094.25	2821.74
1098.65	3191.78
1103.04	3452.28
1107.43	3934.34
1111.82	3840.42
1116.21	4218.84
1120.59	4764.04
1124.97	4672.09
1129.35	4627.36
1133.73	4703.91
1138.1	4749.03
1142.47	4956.86
1146.84	5162.27
1151.21	4990.39
1155.57	4828.19
1159.93	4880.05
1164.29	4505.03
1168.64	4580.3
1172.99	4139.56
1177.34	3785.45
1181.69	3384.32
1186.04	3200.96
1190.38	2412.25
1194.72	2144.62
1199.05	1768.3
1203.39	1323.87
1207.72	942.256
1212.05	813.506
1216.37	369
1220.7	165.006
1225.02	403.586
1229.34	309.303
1233.65	232.111
1237.97	155.609
1242.28	114.393
1246.59	74.3164
1250.89	44.8047
1255.19	317.844
1259.49	44.4414
1263.79	166.945
1268.09	217.441
1272.38	108.805
1276.67	146.908
1280.95	42.3848
1285.24	121.795
1289.52	90.8223
1293.8	107.15
1298.08	122.246
1302.35	68.8223
1306.62	160.275
1310.89	133.006
1315.15	85.0195
1319.42	18.8809
1323.68	302.846
1327.94	70.7148
1332.19	161.66
1336.44	140.488
1340.69	9.53516
1344.94	173.131
1349.19	160.408
1353.43	239.764
1357.67	210.777
1361.9	114.357
1366.14	222.717
1370.37	86.8184
1374.6	96.5996
1378.83	262.244
1383.05	425.736
1387.27	142.148
1391.49	37.0605
1395.7	336.326
1399.92	168.312
1404.13	304.947
1408.34	288.447
1412.54	35.0059
1416.74	64.7012
1420.94	322.889
1425.14	307.365
1429.34	177.875
1433.53	182.199
1437.72	128.856
1441.9	114.15
1446.09	358.502
1450.27	55.334
1454.45	76.4609
1458.63	179.691
1462.8	177.426
1466.97	158.504
1471.14	160.143
1475.31	174.971
1479.47	316.9
1483.63	64.2441
1487.79	2.96875
1491.94	61.0547
1496.09	151.742
1500.24	133.352
1504.39	191.951
1508.54	270.478
1512.68	190.701
1516.82	162.047
1520.95	379.475
1525.09	196.148
1529.22	372.469
1533.35	255.44
1537.47	65.8106
1541.6	199.088
1545.72	307.934
1549.83	292.606
1553.95	285.315
1558.06	84.918
1562.17	939.277
1566.28	43.0254
1570.38	99.0606
