Measurement: Raman, 514 nm, ccw, Raman Data Processed
Mineral: Clinoenstatite
Rruff sample: R070276
Ideal chemistry: MgSiO_3_
Locality: Synthetic, at 15 GPa and 1600 C by Juergen Konzett
Source: Juergen Konzett
Description: Colorless grains associated with stishovite
Measured chemistry: Mg_1.00_Si_1.00_O_3_ ; trace to minor amounts of Na
Pin_id: M00224
Orientation: Laser parallel to c* (0 0 1). Fiducial mark perpendicular to laser is parallel to a [1 0 0]
Raman shift (cm-1)	intensity
126.36	0
130.07	3.4043
133.778	237.096
137.485	191.461
141.19	529.16
144.894	383.809
148.596	238.338
152.296	185.252
155.995	308.086
159.692	361.537
163.388	56.8496
167.082	82.9883
170.775	59.459
174.465	87.6055
178.155	26.9043
181.842	154.121
185.528	315.328
189.213	683.521
192.896	926.689
196.577	918.633
200.256	503.455
203.934	373.875
207.611	294.76
211.286	199.334
214.959	227.732
218.631	227.174
222.301	235.502
225.969	305.346
229.636	383.231
233.302	513.402
236.965	739.754
240.628	1216.22
244.288	1496.78
247.947	1161.09
251.604	417.334
255.26	219.502
258.915	72.5723
262.567	38.4531
266.218	68.4297
269.868	19.1777
273.516	191.213
277.162	22.9688
280.807	76.3945
284.45	67.3711
288.092	45.834
291.732	57.2441
295.37	186.832
299.007	312.566
302.642	309.783
306.276	104.379
309.908	78.1465
313.539	262.863
317.168	286.047
320.795	266.754
324.421	670.865
328.046	671.295
331.668	1220.21
335.289	1899.62
338.909	3115.97
342.527	3093.46
346.144	2303.26
349.759	1431.67
353.372	793.615
356.984	785.943
360.594	680.432
364.203	802.701
367.81	972.92
371.415	927.135
375.019	542.865
378.622	643.986
382.223	736.566
385.822	761.062
389.42	707.479
393.016	712.811
396.611	603.709
400.204	637.225
403.795	974.893
407.386	671.754
410.974	580.771
414.561	682.594
418.146	835.17
421.73	539.992
425.312	567.064
428.893	473.234
432.472	715.922
436.05	589.232
439.626	206.996
443.201	92.1426
446.774	161.219
450.345	268.836
453.915	37.6465
457.483	270.932
461.05	12.793
464.615	242.158
468.179	306.016
471.741	230.426
475.302	209.113
478.861	112.4
482.419	82.1231
485.975	37.9395
489.529	236.019
493.082	45.7734
496.634	130.961
500.184	256.551
503.732	130.025
507.279	4.4668
510.825	96.7559
514.368	391.914
517.911	187.957
521.451	469.885
524.991	287.695
528.528	523.387
532.065	255.953
535.599	226.387
539.132	265.693
542.664	42.8672
546.194	366.898
549.723	358.812
553.25	252.606
556.775	138.26
560.299	275.773
563.822	113.144
567.343	90.3731
570.862	160.912
574.38	327.295
577.896	379.902
581.411	410.611
584.925	329.076
588.437	260.957
591.947	260.537
595.456	213.129
598.963	271.842
602.469	285.707
605.973	242.902
609.476	245.328
612.977	34.8418
616.477	103.947
619.975	220.893
623.472	46.2344
626.967	349.066
630.461	259.91
633.953	331.853
637.444	270.803
640.933	359.523
644.421	435.428
647.907	621.852
651.392	621.422
654.875	1000.07
658.357	1333.73
661.837	2040.7
665.316	2051.08
668.793	1935.59
672.269	1403.37
675.743	1235.35
679.216	1634.95
682.687	1939.89
686.157	2323.76
689.625	2660.72
693.092	1795.41
696.557	985.424
700.021	540.549
703.483	373.457
706.944	276.924
710.403	169.762
713.861	250.205
717.318	63.582
720.773	96.6797
724.226	162.504
727.678	202.82
731.128	44.9102
734.577	97.0938
738.025	98.8789
741.47	364.385
744.915	169.363
748.358	115.473
751.799	43.4414
755.239	154.83
758.678	58.3574
762.115	155.728
765.551	85.9141
768.985	132.555
772.417	70.7676
775.848	252.723
779.278	83.2324
782.706	161.869
786.133	379.758
789.558	220.008
792.982	194.25
796.404	165.65
799.825	102.769
803.245	298.607
806.663	475.693
810.079	325.381
813.494	382.812
816.907	248.031
820.319	228.588
823.73	219.902
827.139	393.883
830.547	374.799
833.953	230.916
837.358	205.414
840.761	110.367
844.163	445.949
847.563	691.84
850.962	778.457
854.359	577.242
857.755	438.191
861.15	581.688
864.543	329.398
867.934	88.2773
871.324	248.047
874.713	388.809
878.1	284.379
881.486	220.559
884.87	210.324
888.253	124.129
891.634	92.1289
895.014	53.7148
898.393	286.992
901.77	352.039
905.145	232.488
908.519	2.76562
911.892	143.231
915.263	73.0352
918.633	25.5664
922.001	72.4922
925.368	219.988
928.734	445.422
932.098	535.488
935.46	285.879
938.821	145.891
942.181	176.711
945.539	340.297
948.896	115.594
952.251	362.332
955.605	279.082
958.958	155.422
962.309	50.9297
965.658	228.391
969.006	16.7773
972.353	185.231
975.698	170.324
979.042	447.051
982.385	240.219
985.726	303.973
989.065	372.547
992.403	515.481
995.74	699.324
999.075	937.086
1002.41	1723.86
1005.74	2484.87
1009.07	3779.02
1012.4	4522.73
1015.73	3655.49
1019.06	2645.52
1022.38	2403.14
1025.71	2696.61
1029.03	3615.35
1032.35	3802.31
1035.67	3599.56
1038.99	2849.26
1042.3	1980.16
1045.62	1058.48
1048.93	607.383
1052.24	491.32
1055.56	356.695
1058.87	321.633
1062.17	130.637
1065.48	310.906
1068.79	111.992
1072.09	92.1797
1075.39	213.762
1078.69	243.082
1081.99	497.758
1085.29	333.25
1088.59	188.981
1091.88	167.371
1095.18	399.93
1098.47	177.383
1101.76	182.305
1105.05	312.203
1108.34	111.219
1111.63	221.035
1114.91	254.781
1118.2	500.769
1121.48	167.801
1124.76	326.613
1128.04	90.0625
1131.32	529.125
1134.6	145.93
1137.87	102.269
1141.15	272.664
1144.42	452.441
1147.69	347.371
1150.96	173.449
1154.23	183.809
1157.5	279.16
1160.76	353.398
1164.03	172.879
1167.29	174.18
1170.55	249.727
1173.81	346.898
1177.07	322.723
1180.33	96.6289
1183.58	355.672
1186.84	137.777
1190.09	128.481
1193.34	47.3008
1196.6	56.9258
1199.84	450.594
1203.09	321.465
1206.34	38.1523
1209.58	505.559
1212.83	528.805
1216.07	372.871
1219.31	217.762
1222.55	146.371
1225.79	64.1758
1229.02	359.633
1232.26	495
1235.49	235.746
1238.73	353.277
1241.96	179.672
