Measurement: Raman, 514 nm, ccw, Raman Data Processed
Mineral: Clinozoisite
Rruff sample: R060284
Ideal chemistry: Ca_2_Al_3_(Si_2_O_7_)(SiO_4_)O(OH)
Locality: near Zagi Mountain, Khaffor Dehri, North-West Frontier Province, Pakistan
Source: Herb Obodda
Description: Greenish-brown fragment of a prismatic crystal
Measured chemistry: Ca_2.00_(Al_0.90_Fe^3+^_0.10_)_3_(Si_1.00_O_4_)(Si_2.00_O_7_)O(OH)
Pin_id: L00506
Orientation: Laser parallel to -a* (-1 0 0). Fiducial mark perpendicular to laser is parallel to b [0 1 0]
Raman shift (cm-1)	intensity
118.134	0
123.058	136.789
127.979	285.25
132.898	9.75098
137.814	30.1816
142.728	279.621
147.639	916.548
152.549	1564.93
157.455	2441.61
162.359	2964.88
167.261	3828.15
172.161	4563.1
177.058	3770.42
181.952	2116.25
186.845	1234.75
191.734	1250.82
196.622	1569.49
201.507	2456.99
206.389	3498.63
211.269	4604.97
216.147	5314.09
221.022	5707.55
225.895	6661.35
230.765	9405.03
235.633	11571.7
240.498	9683.32
245.361	7685.06
250.222	7587.08
255.08	6927.93
259.936	5087.75
264.789	4019.68
269.64	5130.35
274.488	6515.66
279.334	4598.24
284.178	3072.11
289.019	2737.73
293.857	2683.94
298.693	2778.43
303.527	2873.93
308.358	3436.17
313.187	4108.99
318.013	3508.25
322.837	2852.89
327.659	3454.84
332.478	5446.99
337.294	8905.07
342.108	12843
346.92	18560.8
351.729	22984.6
356.535	16578.4
361.34	8158.15
366.141	3258.99
370.94	1232.92
375.737	165.925
380.531	706.288
385.323	530.518
390.113	143.627
394.9	1137.96
399.684	1357.14
404.466	488.431
409.245	384.407
414.022	141.026
418.797	2094.12
423.569	5954.73
428.338	8422.9
433.105	7710.51
437.87	7737.4
442.632	10914.6
447.391	17127
452.149	21024.8
456.903	18553.9
461.655	13704.3
466.405	11600.6
471.152	11024
475.897	10338.6
480.639	8965.86
485.378	7201.59
490.116	5082.7
494.85	3831.88
499.582	4532.11
504.312	5767.14
509.039	6096.08
513.764	5121.6
518.486	4844.34
523.206	3171.07
527.923	1639.14
532.638	547.425
537.35	33.2666
542.059	319.883
546.766	576.892
551.471	1370.49
556.173	3077.57
560.873	7903.08
565.57	20055.4
570.264	38513.5
574.957	30093.3
579.646	12296.8
584.333	7608.2
589.018	9735.2
593.7	13639.9
598.379	19066.9
603.056	24594.4
607.73	23322.7
612.402	14743.4
617.072	8533.98
621.739	4812.56
626.403	2523.6
631.065	1554.29
635.724	1285.64
640.381	1155.42
645.035	1431.43
649.687	2592.98
654.336	4076.85
658.983	4216.11
663.627	3132.49
668.268	2386.86
672.907	1939.55
677.544	1839.94
682.178	2073.63
686.809	2301.19
691.438	2368
696.065	3071.3
700.688	3691.78
705.31	3079.97
709.929	1939.85
714.545	923.374
719.158	263.511
723.77	86.1582
728.378	161.559
732.984	181.162
737.588	178.117
742.189	1.46191
746.787	90.584
751.383	203.451
755.976	83.0195
760.567	289.967
765.155	237.443
769.741	85.083
774.324	139.306
778.904	34.1934
783.482	137.279
788.058	30.1455
792.631	67.9385
797.201	329.685
801.769	265.849
806.334	230.471
810.897	497.574
815.457	685.26
820.014	1213.57
824.569	1587.54
829.122	2201.19
833.671	2744.55
838.219	2895.62
842.763	3147.46
847.306	3381.09
851.845	3669.58
856.382	4351.72
860.917	5319.18
865.448	6542.8
869.978	8559.58
874.505	11091.4
879.029	13659.4
883.55	15022.5
888.069	15366.3
892.586	16641.8
897.1	20224.5
901.611	25426.8
906.12	34773.8
910.626	45593.2
915.129	48023.8
919.63	42032.8
924.129	34825
928.625	28322.2
933.118	22345.7
937.609	15666.9
942.097	10128.3
946.582	6623.14
951.065	5031.95
955.546	4539.49
960.023	4623.95
964.499	4279.22
968.971	4497.29
973.441	5337.16
977.909	8020.88
982.374	12526.7
986.836	13045.5
991.295	8078.36
995.753	4072.2
1000.21	1998.1
1004.66	1136.14
1009.11	354.541
1013.55	134.174
1018	314.713
1022.44	958.893
1026.88	1688.44
1031.32	2379.19
1035.75	2866.91
1040.18	3647.61
1044.61	4282.97
1049.04	4407.66
1053.46	3704.64
1057.88	2123.42
1062.3	1225.46
1066.71	621.234
1071.13	789.451
1075.54	1004.24
1079.94	2048.93
1084.35	3774.74
1088.75	7876.25
1093.15	12057.3
1097.55	9530.45
1101.94	4196.83
1106.34	1774.51
1110.73	962.949
1115.11	694.551
1119.5	805.1
1123.88	716.713
1128.26	355.068
1132.63	89.9922
1137.01	28.0859
1141.38	71.2246
1145.75	107.307
1150.12	148.264
1154.48	79.0527
1158.84	18.1191
1163.2	74.7949
1167.55	79.25
1171.91	99.418
1176.26	100.115
1180.61	103.721
1184.95	51.7363
1189.29	34.877
1193.63	132.76
1197.97	117.201
1202.31	74.6387
1206.64	188.203
1210.97	109.311
1215.29	241.961
1219.62	114.978
1223.94	97.6973
1228.26	65.6152
1232.57	247.92
1236.89	122.342
1241.2	71.4004
1245.51	35.8535
1249.81	218.072
1254.12	284.106
1258.42	312.228
1262.72	132.103
1267.01	315.231
1271.3	119.922
1275.59	281.514
1279.88	370.434
1284.17	153.75
1288.45	326.287
1292.73	218.99
1297.01	102.383
1301.28	159.457
1305.55	13.6855
1309.82	130.217
1314.09	208.188
1318.35	15.7598
1322.61	431.291
1326.87	281.633
1331.13	321.9
1335.38	310.935
1339.63	314.285
1343.88	168.752
1348.12	182.269
1352.37	290.438
1356.61	252.598
1360.85	32.1426
1365.08	306.318
1369.31	161.537
1373.54	328.391
1377.77	241.693
1381.99	127.668
1386.22	168.139
1390.43	127.949
1394.65	89.4512
1398.87	166.326
1403.08	59.5859
1407.29	96.2715
1411.49	46.832
1415.69	183.182
1419.89	142.19
1424.09	139.865
1428.29	138.576
1432.48	216.736
1436.67	186.262
1440.86	178.205
1445.04	186.068
1449.23	197.424
1453.4	230.775
1457.58	203.787
1461.76	274.543
1465.93	181.549
1470.1	234.266
1474.26	286.486
1478.43	328.33
1482.59	75.5371
1486.75	74.3711
1490.9	74.8008
1495.06	269.928
1499.21	270.215
1503.35	231.725
1507.5	18.9121
1511.64	72.5312
1515.78	266.268
1519.92	98.9219
1524.05	163.143
1528.18	48.6797
1532.31	118.938
1536.44	154.992
1540.56	172.682
1544.69	34.2598
1548.8	85.9746
1552.92	176.207
1557.03	94.2891
1561.14	100.631
1565.25	34.1387
1569.36	186.272
