Measurement: Raman, 514 nm, ccw, Raman Data Processed
Mineral: Clinohumite
Rruff sample: R040122
Ideal chemistry: Mg_9_(SiO_4_)_4_F_2_
Locality: Anzahamazonono,  Madagascar
Source: University of Arizona Mineral Museum
Description: Orange-brown blebs embedded in calcite matrix
Measured chemistry: (Mg_0.96_Fe_0.02_Ti_0.01_Ca_0.01_)_9_(SiO_4_)_4_(F_0.59_(OH)_0.41_)_2_
Pin_id: M00126
Orientation: Laser parallel to -b* (0 -1 0). Fiducial mark perpendicular to laser is parallel to -c [0 0 -1]
Raman shift (cm-1)	intensity
124.288	0
129.209	31.0571
134.127	9.74854
139.043	119.886
143.956	292.838
148.867	223.922
153.775	186.847
158.681	106.716
163.585	56.1865
168.486	156.056
173.385	296.812
178.282	531.32
183.176	1042.1
188.067	789.77
192.956	389.065
197.843	455.762
202.727	728.806
207.609	946.159
212.489	980.237
217.366	428.531
222.24	201.154
227.112	131.265
231.982	335.909
236.849	192.95
241.714	296.378
246.577	273.197
251.437	488.461
256.294	677.17
261.149	753.322
266.002	447.925
270.852	326.959
275.7	285.197
280.545	634.836
285.388	721.243
290.229	655.92
295.067	505.613
299.902	354.879
304.735	597.088
309.566	403.625
314.394	375.966
319.22	456.28
324.043	380.272
328.864	185.856
333.682	361.743
338.498	526.892
343.311	720.321
348.122	520.862
352.931	533.683
357.737	442.743
362.54	129.181
367.341	186.066
372.14	264.281
376.936	267.271
381.73	352.068
386.521	463.554
391.31	490.413
396.096	446.739
400.88	337.249
405.661	314.907
410.44	435.691
415.216	747.471
419.99	548.371
424.761	365.642
429.53	326.863
434.297	214.366
439.061	1.88867
443.822	40.4531
448.581	10.3838
453.337	91.5811
458.091	13.4307
462.843	125.276
467.592	295.673
472.338	263.786
477.082	435.205
481.824	450.202
486.563	428.473
491.3	342.532
496.034	228.422
500.765	428.708
505.494	215.562
510.221	297.336
514.945	34.8477
519.666	424.173
524.385	484.991
529.102	663.487
533.816	1146.52
538.527	1180.99
543.236	1211.39
547.943	1287.86
552.647	781.975
557.348	367.28
562.047	483.775
566.744	310.468
571.438	291.534
576.129	384.875
580.818	476.286
585.504	415.219
590.188	301.029
594.87	439.904
599.549	935.64
604.225	1318.1
608.899	1151.12
613.57	827.281
618.239	395.832
622.905	465.781
627.569	222.133
632.23	134.883
636.889	136.955
641.545	83.2891
646.198	90.4258
650.849	23.4785
655.498	47.8887
660.144	190.869
664.787	114.732
669.428	9.25586
674.067	101.576
678.703	175.74
683.336	89.7051
687.967	23.0977
692.595	20.8008
697.221	28.1602
701.844	2.00391
706.465	103.064
711.083	200.791
715.698	325.518
720.311	453.881
724.922	915.125
729.53	1272.55
734.135	1989.15
738.738	3084.96
743.338	3341.72
747.936	3967.43
752.531	3845.02
757.124	3423.5
761.714	2640.9
766.302	2179.13
770.887	2091.56
775.469	3242.27
780.049	4619.27
784.626	6389.44
789.201	5034.46
793.773	3832.87
798.343	3419.58
802.91	4667.08
807.475	6568.25
812.037	6123.85
816.596	5821.1
821.153	6418.99
825.707	10432.9
830.259	15614.5
834.808	12691.6
839.355	12858.1
843.899	19283.8
848.441	20659.3
852.98	18808.3
857.516	28286.3
862.05	30760.2
866.581	16845.4
871.11	10184.9
875.636	7947.73
880.159	5243.41
884.68	3312.69
889.199	2083.57
893.714	1695.48
898.228	1245.46
902.738	952.154
907.246	947.857
911.752	819.377
916.255	681.576
920.755	627.096
925.253	794.736
929.748	1025.15
934.241	1055.17
938.731	607.143
943.218	600.775
947.703	555.166
952.186	777.221
956.665	1453.02
961.142	3783.46
965.617	8295.62
970.089	7500.13
974.558	2793.88
979.025	836.693
983.489	265.992
987.951	26.0078
992.41	134.273
996.866	45.6172
1001.32	151.541
1005.77	154.553
1010.22	125.736
1014.67	118.609
1019.11	70.2031
1023.55	77.7617
1027.99	17.7656
1032.42	94.5723
1036.86	4.01758
1041.29	11.5234
1045.72	120.344
1050.14	111.998
1054.56	25.0723
1058.98	154.469
1063.4	5.10352
1067.82	99.1797
1072.23	281.826
1076.64	97.7109
1081.05	129.111
1085.45	60.7637
1089.85	70.9316
1094.25	322.768
1098.65	404.568
1103.04	145.803
1107.43	91.8496
1111.82	168.207
1116.21	211.082
1120.59	482.203
1124.97	433.191
1129.35	336.328
1133.73	52.9746
1138.1	224.31
1142.47	173.359
1146.84	121.514
1151.21	69.6641
1155.57	169.435
1159.93	213.002
1164.29	46.5508
1168.64	232.84
1172.99	68.4258
1177.34	215.041
1181.69	334.998
1186.04	164.219
1190.38	101.709
1194.72	163.535
1199.05	218.676
1203.39	297.332
1207.72	325.092
1212.05	495.496
1216.37	0.005859
1220.7	75.5391
1225.02	42.1113
1229.34	217.152
1233.65	99.8926
1237.97	446.994
1242.28	225.545
1246.59	500.945
1250.89	549.607
1255.19	191.805
1259.49	272.195
1263.79	267.231
1268.09	228.039
1272.38	252.203
1276.67	6.3125
1280.95	169.816
1285.24	301.289
1289.52	116.445
1293.8	201.312
1298.08	221.008
1302.35	49.0508
1306.62	244.523
1310.89	99.4648
1315.15	172.949
1319.42	118.356
1323.68	501.301
1327.94	312.57
1332.19	171.477
1336.44	185.438
1340.69	354.043
1344.94	182.719
1349.19	317.172
1353.43	263.117
1357.67	275.246
1361.9	178.512
1366.14	388.812
1370.37	303.023
1374.6	233.117
1378.83	422.234
1383.05	88.7383
1387.27	13.5039
1391.49	149.246
1395.7	197.797
1399.92	61.7734
1404.13	330.297
1408.34	270.875
1412.54	218.059
1416.74	190.762
1420.94	50.2461
1425.14	197.344
1429.34	200.898
1433.53	108.086
1437.72	157.59
1441.9	160.059
1446.09	20.9297
1450.27	4.14844
1454.45	196.356
1458.63	242.668
1462.8	133.305
1466.97	141.914
1471.14	404.387
1475.31	431.844
1479.47	326.648
1483.63	234.832
1487.79	271.211
1491.94	519.109
1496.09	296.559
1500.24	450.012
1504.39	616.043
1508.54	228.867
1512.68	323.195
1516.82	323.16
1520.95	324.965
1525.09	290.867
1529.22	467.789
1533.35	353.992
1537.47	33.4961
1541.6	308.148
1545.72	50.6953
1549.83	379.234
1553.95	60.9844
1558.06	208.234
1562.17	405.242
1566.28	8.63672
1570.38	0.332031
