Measurement: Raman, 514 nm, ccw, Raman Data Processed
Mineral: Clinoptilolite-Ca
Rruff sample: R060662
Ideal chemistry: Ca_3_(Si_30_Al_6_)O_72_20H_2_O
Locality: Succor Creek, Malheur County, Oregon, USA
Source: Michael Scott
Description: Group of colorless platy prismatic crystals
Measured chemistry: (Ca_1.02_Na_0.97_K_0.59_)_Σ=2.58_(Si_14.40_Al_3.60_)_Σ=18_O_36_·10.96H_2_O
Pin_id: M00397
Orientation: Laser parallel to c* (0 0 1). Fiducial mark perpendicular to laser is parallel to -a [-1 0 0]
Raman shift (cm-1)	intensity
84.837	0
89.777	1678.55
94.714	4251.94
99.649	6258.48
104.582	8035.6
109.512	10355.2
114.44	10541.9
119.365	10792.6
124.288	11270.7
129.209	11492.6
134.127	12686.9
139.043	14141.6
143.956	14445.2
148.867	14670.7
153.775	14714.5
158.681	14361.9
163.585	12351
168.486	9622.56
173.385	7266.95
178.282	5679.43
183.176	4647.08
188.067	4451.67
192.956	4741.27
197.843	4309.6
202.727	3543.3
207.609	1815.14
212.489	482.225
217.366	401.457
222.24	931.906
227.112	1290.01
231.982	1191
236.849	603.4
241.714	134.746
246.577	790.879
251.437	1268.66
256.294	1782.9
261.149	2047.8
266.002	1989.27
270.852	2147.83
275.7	1892.12
280.545	2050.75
285.388	2057.52
290.229	2254.28
295.067	2422.87
299.902	2341.06
304.735	2743.29
309.566	2902.67
314.394	2994.53
319.22	3793.42
324.043	4367.69
328.864	4819.93
333.682	5188.99
338.498	6274.73
343.311	5545.08
348.122	6177.02
352.931	6914.57
357.737	8052.93
362.54	9749.58
367.341	11861
372.14	13375.8
376.936	15764.8
381.73	18438.5
386.521	22811.4
391.31	28563
396.096	34707.2
400.88	39102
405.661	37977.4
410.44	32654
415.216	26172.4
419.99	19584.1
424.761	14070.3
429.53	9732.31
434.297	6801.6
439.061	5276.89
443.822	4392.82
448.581	4704.86
453.337	5811.59
458.091	8191.21
462.843	11299.7
467.592	13716.2
472.338	17282.5
477.082	22939.7
481.824	26842.8
486.563	23005.8
491.3	14268.8
496.034	7547.73
500.765	3915.86
505.494	1882.42
510.221	953.668
514.945	726.148
519.666	374.133
524.385	24.6348
529.102	74.7129
533.816	178.242
538.527	37.7344
543.236	33.4883
547.943	266.951
552.647	137.82
557.348	39.1406
562.047	218.603
566.744	1.8418
571.438	66.4844
576.129	285.795
580.818	461.746
585.504	604.768
590.188	1151.96
594.87	1488.35
599.549	2311.9
604.225	3472.58
608.899	4646.89
613.57	5153.55
618.239	4773.69
622.905	3627.45
627.569	2817.81
632.23	1469.96
636.889	1220.7
641.545	905.881
646.198	448.496
650.849	476.293
655.498	270.303
660.144	345.342
664.787	199.078
669.428	142.385
674.067	28.6094
678.703	220.678
683.336	31.209
687.967	28.2578
692.595	23.0762
697.221	21.8262
701.844	255.629
706.465	311.783
711.083	403.357
715.698	373.982
720.311	435.779
724.922	504.666
729.53	449.572
734.135	247.889
738.738	260.832
743.338	571.756
747.936	578.027
752.531	741.43
757.124	964.002
761.714	1172.41
766.302	1345.17
770.887	1913.56
775.469	2245.3
780.049	2419.4
784.626	2669.83
789.201	2475.25
793.773	2528.65
798.343	2486.19
802.91	2150.8
807.475	1633.33
812.037	1327.27
816.596	1465.56
821.153	1161.58
825.707	743.883
830.259	341.705
834.808	165.955
839.355	116.93
843.899	161.963
848.441	214.158
852.98	231.043
857.516	124.074
862.05	54.9277
866.581	46.5645
871.11	108.529
875.636	219.75
880.159	59.8867
884.68	138.664
889.199	149.971
893.714	129.039
898.228	66.0977
902.738	82.2305
907.246	10.8359
911.752	69.7031
916.255	36.7148
920.755	77.1406
925.253	22.6699
929.748	49.9844
934.241	126.305
938.731	215.935
943.218	92.9844
947.703	165.269
952.186	168.738
956.665	197.418
961.142	527.68
965.617	364.174
970.089	166.398
974.558	533.803
979.025	778.559
983.489	1090.49
987.951	1138.26
992.41	832.328
996.866	1058.99
1001.32	1378.06
1005.77	1421.96
1010.22	1489.02
1014.67	1736.01
1019.11	1807.98
1023.55	1929.71
1027.99	1953.96
1032.42	1873.03
1036.86	1941.94
1041.29	1970.76
1045.72	2121.87
1050.14	1849.07
1054.56	1843.68
1058.98	1649.36
1063.4	1641.37
1067.82	1728.52
1072.23	1591.88
1076.64	1570.09
1081.05	2063.61
1085.45	1987.75
1089.85	2594.46
1094.25	2886.57
1098.65	3408.96
1103.04	3532.03
1107.43	4135.66
1111.82	4209.75
1116.21	4545.48
1120.59	4781.92
1124.97	5222.97
1129.35	4959.43
1133.73	5102.78
1138.1	5309.04
1142.47	5502.8
1146.84	5208.33
1151.21	5401.26
1155.57	5160.93
1159.93	5281.76
1164.29	4932.42
1168.64	4475.87
1172.99	4171.17
1177.34	3919.65
1181.69	3579.62
1186.04	3047.89
1190.38	2597.8
1194.72	2301.9
1199.05	1622.63
1203.39	1277.4
1207.72	1118.57
1212.05	970.361
1216.37	740.039
1220.7	180.25
1225.02	455.889
1229.34	117.371
1233.65	125.068
1237.97	149.816
1242.28	105.289
1246.59	200.074
1250.89	131.231
1255.19	126.965
1259.49	15.7539
1263.79	120.211
1268.09	90.8281
1272.38	45.8223
1276.67	29.457
1280.95	37.9883
1285.24	38.2227
1289.52	24.3633
1293.8	133.652
1298.08	331.516
1302.35	17.8555
1306.62	217.152
1310.89	59.7266
1315.15	199.305
1319.42	163.871
1323.68	167.691
1327.94	308.414
1332.19	148.164
1336.44	376.582
1340.69	85.3984
1344.94	347.375
1349.19	249.891
1353.43	14.4805
1357.67	205.949
1361.9	182.445
1366.14	541.965
1370.37	396.305
1374.6	352.508
1378.83	164.289
1383.05	275.367
1387.27	161.387
1391.49	501.312
1395.7	203.938
1399.92	212.324
1404.13	144.148
1408.34	290.477
1412.54	92.9258
1416.74	239.148
1420.94	184.012
1425.14	141.234
1429.34	193.562
1433.53	288.922
1437.72	405.816
1441.9	221.859
1446.09	335.379
1450.27	575.402
1454.45	415.043
1458.63	408.769
1462.8	404.262
1466.97	362.731
1471.14	360.238
1475.31	208.312
1479.47	560.078
1483.63	184.172
1487.79	79.9062
1491.94	416.223
1496.09	280.637
1500.24	212.328
1504.39	305.289
1508.54	291.473
1512.68	443.414
1516.82	200.477
1520.95	45.7383
1525.09	321.769
1529.22	180.469
1533.35	336.742
1537.47	467.062
1541.6	144.609
1545.72	393.223
1549.83	235.008
1553.95	255.144
1558.06	200.824
1562.17	273.156
1566.28	9.90625
1570.38	170.797
