Measurement: Raman, 514 nm, ccw, Raman Data Processed
Mineral: Clinoptilolite-Ca
Rruff sample: R060662
Ideal chemistry: Ca_3_(Si_30_Al_6_)O_72_20H_2_O
Locality: Succor Creek, Malheur County, Oregon, USA
Source: Michael Scott
Description: Group of colorless platy prismatic crystals
Measured chemistry: (Ca_1.02_Na_0.97_K_0.59_)_Σ=2.58_(Si_14.40_Al_3.60_)_Σ=18_O_36_·10.96H_2_O
Pin_id: M00134
Orientation: Laser parallel to (1 0 1). Fiducial mark perpendicular to laser is parallel to b [0 1 0]
Raman shift (cm-1)	intensity
134.127	0
139.043	962.004
143.956	1632.28
148.867	1732.95
153.775	1012.98
158.681	908.008
163.585	602.119
168.486	468.402
173.385	303.441
178.282	999.529
183.176	1520.62
188.067	1619.15
192.956	1445.02
197.843	1299.79
202.727	1308
207.609	381.912
212.489	5.29688
217.366	314.109
222.24	287.103
227.112	232.025
231.982	235.103
236.849	473.084
241.714	684.4
246.577	944.996
251.437	946.971
256.294	1185.19
261.149	1415.24
266.002	1139.45
270.852	999.834
275.7	1086.85
280.545	1107.67
285.388	1086.49
290.229	1033.58
295.067	1048.48
299.902	1249.5
304.735	1219.34
309.566	1188.31
314.394	1838.96
319.22	2167.19
324.043	2157.66
328.864	2348.61
333.682	2675.18
338.498	2921.69
343.311	2980.37
348.122	3242.82
352.931	3850.56
357.737	4503.02
362.54	5074.51
367.341	6114.16
372.14	7029.48
376.936	8289.38
381.73	10065.9
386.521	12113.6
391.31	15623.1
396.096	18903.9
400.88	20928.3
405.661	20584.8
410.44	17925.4
415.216	14297.7
419.99	10742.8
424.761	7513.19
429.53	5744.01
434.297	3927.19
439.061	2986.74
443.822	2566.28
448.581	2714.14
453.337	3451.01
458.091	4420.06
462.843	6210.93
467.592	7300.96
472.338	8952.43
477.082	11119.5
481.824	12005.3
486.563	9423.73
491.3	5703.99
496.034	3231.49
500.765	1549.51
505.494	919.725
510.221	368.85
514.945	229.859
519.666	411.445
524.385	304.508
529.102	9.50391
533.816	95.6543
538.527	178.244
543.236	97.5625
547.943	163.438
552.647	173.398
557.348	8.30664
562.047	216.211
566.744	177.772
571.438	192.412
576.129	216.865
580.818	498.961
585.504	343.787
590.188	566.867
594.87	1203.09
599.549	1334.97
604.225	1936.08
608.899	2749.34
613.57	2584.38
618.239	2596.69
622.905	2405.03
627.569	1785.21
632.23	1099.16
636.889	972.805
641.545	833.195
646.198	670.461
650.849	632.674
655.498	462.508
660.144	282.141
664.787	141.488
669.428	108.594
674.067	198.16
678.703	93.5703
683.336	303.996
687.967	264.234
692.595	10.5781
697.221	26.3594
701.844	121.555
706.465	197.504
711.083	496.977
715.698	595.519
720.311	496.106
724.922	466.859
729.53	778.582
734.135	192.996
738.738	331.227
743.338	543.848
747.936	707.688
752.531	387.598
757.124	596.277
761.714	650.207
766.302	982.199
770.887	1134.18
775.469	1340.39
780.049	1683.04
784.626	1882.06
789.201	1520.69
793.773	1398.81
798.343	1030
802.91	922.566
807.475	930.199
812.037	1279.02
816.596	1319.64
821.153	1454.18
825.707	976.531
830.259	309.727
834.808	440.828
839.355	313.5
843.899	51.8047
848.441	628.875
852.98	165.926
857.516	308.34
862.05	501.148
866.581	167.297
871.11	69.8789
875.636	60.6641
880.159	77.8711
884.68	78.9141
889.199	12.4844
893.714	69.1211
898.228	0.285156
902.738	19.8672
907.246	118.062
911.752	112.891
916.255	79.6406
920.755	422.008
925.253	109.539
929.748	100.691
934.241	71.5312
938.731	134.793
943.218	217.781
947.703	207.273
952.186	222.684
956.665	190.16
961.142	202
965.617	14.7695
970.089	392.457
974.558	210.949
979.025	436.148
983.489	693.215
987.951	555.047
992.41	439.773
996.866	813.809
1001.32	1150.64
1005.77	918.254
1010.22	785.883
1014.67	1094.99
1019.11	1004.54
1023.55	1494.81
1027.99	998.074
1032.42	1079.01
1036.86	1023.76
1041.29	974.547
1045.72	956.652
1050.14	1041.2
1054.56	1077.8
1058.98	790.367
1063.4	850.805
1067.82	829.106
1072.23	976.473
1076.64	702.211
1081.05	917.867
1085.45	1168.46
1089.85	1062.86
1094.25	1173
1098.65	1625.16
1103.04	1799.82
1107.43	1746.77
1111.82	1609.02
1116.21	1789.54
1120.59	2118.14
1124.97	2271.02
1129.35	2266.58
1133.73	2143.34
1138.1	2389.48
1142.47	2175.11
1146.84	2137.15
1151.21	2271.76
1155.57	1876.66
1159.93	2132.81
1164.29	1928.03
1168.64	1957.05
1172.99	1528.77
1177.34	1534.82
1181.69	1665.6
1186.04	1316.29
1190.38	1192.17
1194.72	812.223
1199.05	390.676
1203.39	894.156
1207.72	200.648
1212.05	446.699
1216.37	422.336
1220.7	106.566
1225.02	171.644
1229.34	153.922
1233.65	63.7852
1237.97	154.004
1242.28	192.25
1246.59	340.891
1250.89	41.9219
1255.19	73.168
1259.49	66.7461
1263.79	188.078
1268.09	129.086
1272.38	158.492
1276.67	11.5156
1280.95	181.82
1285.24	350.086
1289.52	118.356
1293.8	2.9375
1298.08	53.2734
1302.35	329.883
1306.62	13.7891
1310.89	229.258
1315.15	284.156
1319.42	471.594
1323.68	480.508
1327.94	175.891
1332.19	473.047
1336.44	3.08594
1340.69	2.50391
1344.94	315.863
1349.19	55.5078
1353.43	833.445
1357.67	404.152
1361.9	161.961
1366.14	571.148
1370.37	170.598
1374.6	146.75
1378.83	10.0273
1383.05	490.644
1387.27	75.2109
1391.49	246.125
1395.7	92.1016
1399.92	270.879
1404.13	260.191
1408.34	54.7344
1412.54	130.398
1416.74	471.086
1420.94	0.390625
1425.14	570.562
1429.34	293.785
1433.53	535.324
1437.72	587.18
1441.9	993.488
1446.09	585.981
1450.27	1179.06
1454.45	899.668
1458.63	952.93
1462.8	812.016
1466.97	528.68
1471.14	443.027
1475.31	413.164
1479.47	592.258
1483.63	590.312
1487.79	397.477
1491.94	511.457
1496.09	76.0586
1500.24	72.0352
1504.39	96.918
1508.54	66.4922
1512.68	160.68
1516.82	64.1992
1520.95	115.727
1525.09	218.059
1529.22	453.047
1533.35	450.445
1537.47	266.977
1541.6	269.973
1545.72	103.144
1549.83	222.562
1553.95	513.09
1558.06	132.035
1562.17	299.289
1566.28	8.49609
1570.38	3.09766
