Measurement: Raman, 514 nm, ccw, Raman Data Processed
Mineral: Clinozoisite
Rruff sample: R060284
Ideal chemistry: Ca_2_Al_3_(Si_2_O_7_)(SiO_4_)O(OH)
Locality: near Zagi Mountain, Khaffor Dehri, North-West Frontier Province, Pakistan
Source: Herb Obodda
Description: Greenish-brown fragment of a prismatic crystal
Measured chemistry: Ca_2.00_(Al_0.90_Fe^3+^_0.10_)_3_(Si_1.00_O_4_)(Si_2.00_O_7_)O(OH)
Pin_id: L01751
Orientation: Laser parallel to (1 0 1). Fiducial mark perpendicular to laser is parallel to -b [0 -1 0]
Raman shift (cm-1)	intensity
118.134	0
123.058	133.089
127.979	762.269
132.898	2666.6
137.814	5091.6
142.728	6934.47
147.639	7529.02
152.549	7285.78
157.455	7289.06
162.359	7937.34
167.261	8410.12
172.161	7226.64
177.058	4679.19
181.952	2196.56
186.845	227.44
191.734	431.188
196.622	284.547
201.507	139.728
206.389	628.596
211.269	1166.62
216.147	1202.97
221.022	1665.74
225.895	2961.4
230.765	5925.63
235.633	8778.39
240.498	10757.6
245.361	13967.4
250.222	18904
255.08	20689.8
259.936	18474.7
264.789	15554.4
269.64	16906.6
274.488	17993.1
279.334	15959.6
284.178	11540
289.019	8779.07
293.857	7315.91
298.693	6517.59
303.527	6058.89
308.358	5921.64
313.187	6804.76
318.013	8382.22
322.837	10305.9
327.659	12081.8
332.478	15077.8
337.294	19450.8
342.108	24032.6
346.92	27598.4
351.729	28069.5
356.535	20486.4
361.34	10709
366.141	6055.46
370.94	4490.62
375.737	3095.58
380.531	2698.45
385.323	4288.23
390.113	5115.89
394.9	4023.38
399.684	1639.67
404.466	317.803
409.245	1053.37
414.022	496.215
418.797	1754.98
423.569	5670.65
428.338	7832.87
433.105	8094.67
437.87	9355.09
442.632	16584.2
447.391	28697.4
452.149	36815.4
456.903	33524.4
461.655	24032.6
466.405	18777.2
471.152	17232.2
475.897	16945.7
480.639	16420.8
485.378	14064.2
490.116	10071.8
494.85	6452.52
499.582	5321.21
504.312	6895.72
509.039	8045.38
513.764	7990.37
518.486	8135.47
523.206	7531.63
527.923	6603.67
532.638	4310.42
537.35	1511.81
542.059	116.723
546.766	92.7734
551.471	394.781
556.173	2126.48
560.873	6522.44
565.57	17157.8
570.264	27469.6
574.957	21545.6
579.646	8484.74
584.333	4734.24
589.018	5828.34
593.7	8546.22
598.379	12204.5
603.056	15309.7
607.73	14664.4
612.402	10728.2
617.072	7042.72
621.739	3941.26
626.403	1605.31
631.065	403.287
635.724	203.269
640.381	56.2617
645.035	472.533
649.687	1435.37
654.336	2598.03
658.983	2857.04
663.627	2255.48
668.268	1631.96
672.907	1337.83
677.544	1817.9
682.178	2227.1
686.809	2892.74
691.438	2853.24
696.065	3262.89
700.688	3304.52
705.31	2931
709.929	1649.25
714.545	629.229
719.158	283.871
723.77	90.8398
728.378	147.703
732.984	280.704
737.588	216.894
742.189	272.438
746.787	195.056
751.383	273.751
755.976	132.636
760.567	183.939
765.155	137.861
769.741	69.9756
774.324	66.584
778.904	120.035
783.482	8.79883
788.058	278.984
792.631	326.315
797.201	242.957
801.769	460.926
806.334	803.481
810.897	1110.77
815.457	1543.85
820.014	2093.76
824.569	2491.77
829.122	3030.91
833.671	3462.99
838.219	3885.03
842.763	4803.09
847.306	6010.24
851.845	7550.54
856.382	9779.22
860.917	13448.3
865.448	19024.5
869.978	25419.6
874.505	28756
879.029	30799.6
883.55	32545.7
888.069	34188.3
892.586	37776.5
897.1	38701.1
901.611	33341.1
906.12	29819
910.626	31001.1
915.129	30460.6
919.63	25789.3
924.129	20944.3
928.625	16647.3
933.118	12840.1
937.609	9300.37
942.097	5974.98
946.582	3832.5
951.065	3150.84
955.546	2631.13
960.023	2901.55
964.499	2980.15
968.971	3094.05
973.441	4404.07
977.909	7928.31
982.374	12367.8
986.836	12986.5
991.295	8664.69
995.753	4465.46
1000.21	2179.39
1004.66	1034.11
1009.11	598.424
1013.55	396.307
1018	857.484
1022.44	2008.35
1026.88	4031.85
1031.32	4599.79
1035.75	3634.9
1040.18	3122.48
1044.61	2904.3
1049.04	2796.47
1053.46	2208.7
1057.88	1516.9
1062.3	1073.43
1066.71	720.51
1071.13	912.211
1075.54	2160.65
1079.94	3794.45
1084.35	6545.07
1088.75	11811.8
1093.15	15964.1
1097.55	11936.8
1101.94	5512.88
1106.34	2557.97
1110.73	1718.74
1115.11	1348.4
1119.5	1364.22
1123.88	977.275
1128.26	782.162
1132.63	239.59
1137.01	33.3535
1141.38	99.2227
1145.75	23.8633
1150.12	6.03125
1154.48	71.1406
1158.84	140.488
1163.2	26.7012
1167.55	159.91
1171.91	58.4824
1176.26	13.9688
1180.61	122.273
1184.95	18.6465
1189.29	89.2266
1193.63	29.125
1197.97	31.0723
1202.31	174.584
1206.64	38.543
1210.97	121.291
1215.29	50.5
1219.62	10.1621
1223.94	122.127
1228.26	69.6816
1232.57	71.3574
1236.89	48.8848
1241.2	217.223
1245.51	120.811
1249.81	141.568
1254.12	189.924
1258.42	270.572
1262.72	284.393
1267.01	360.322
1271.3	325.34
1275.59	445.565
1279.88	312.877
1284.17	320.477
1288.45	310.117
1292.73	334.141
1297.01	239.322
1301.28	107.066
1305.55	264.752
1309.82	169.231
1314.09	387.693
1318.35	245.609
1322.61	342.041
1326.87	445.467
1331.13	201.658
1335.38	188.975
1339.63	379.551
1343.88	418.822
1348.12	382.959
1352.37	396.883
1356.61	550.519
1360.85	338.012
1365.08	375.959
1369.31	283.35
1373.54	419.801
1377.77	337.051
1381.99	267.324
1386.22	170.562
1390.43	191.803
1394.65	290.469
1398.87	80.0527
1403.08	320.644
1407.29	139.252
1411.49	379.223
1415.69	267.025
1419.89	291.182
1424.09	364.748
1428.29	19.0605
1432.48	235.305
1436.67	392.379
1440.86	298.838
1445.04	224.01
1449.23	260.873
1453.4	378.516
1457.58	331.668
1461.76	366.361
1465.93	88.4199
1470.1	269.375
1474.26	405.434
1478.43	384.656
1482.59	130.865
1486.75	258.707
1490.9	224.863
1495.06	339.863
1499.21	146.978
1503.35	266.383
1507.5	337.727
1511.64	122.484
1515.78	447.752
1519.92	251.662
1524.05	250.221
1528.18	33.8633
1532.31	140.674
1536.44	273.238
1540.56	267.697
1544.69	299.174
1548.8	23.8789
1552.92	287.455
1557.03	139.512
1561.14	36.873
1565.25	168.867
1569.36	152.713
