Measurement: Raman, 514 nm, ccw, Raman Data Processed
Mineral: Clinohumite
Rruff sample: R040122
Ideal chemistry: Mg_9_(SiO_4_)_4_F_2_
Locality: Anzahamazonono,  Madagascar
Source: University of Arizona Mineral Museum
Description: Orange-brown blebs embedded in calcite matrix
Measured chemistry: (Mg_0.96_Fe_0.02_Ti_0.01_Ca_0.01_)_9_(SiO_4_)_4_(F_0.59_(OH)_0.41_)_2_
Pin_id: S00005
Orientation: Laser parallel to c* (0 0 1). Fiducial mark perpendicular to laser is parallel to a [1 0 0]
Raman shift (cm-1)	intensity
131.615	0
135.777	27.369
139.937	44.086
144.094	6.143
148.25	94.518
152.403	112.937
156.555	47.85
160.705	66.594
164.853	13.563
168.998	59.373
173.142	25.928
177.284	79.58
181.424	168.517
185.562	118.658
189.698	155.483
193.831	69.168
197.963	261.198
202.093	138.482
206.221	170.025
210.347	155.676
214.472	71.487
218.594	41.862
222.714	101.861
226.832	149.75
230.948	205.373
235.063	206.727
239.175	189.453
243.286	115.606
247.394	124.212
251.501	232.614
255.605	204.759
259.708	236.48
263.808	174.632
267.907	108.672
272.004	73.423
276.099	105.003
280.192	78.146
284.283	53.146
288.372	86.112
292.459	50.665
296.544	126.283
300.627	44.398
304.709	51.048
308.788	168.238
312.865	213.963
316.941	500.236
321.015	501.375
325.086	299.848
329.156	223.456
333.224	184.432
337.29	130.065
341.354	4.539
345.416	72.718
349.476	123.045
353.534	180.146
357.591	18.107
361.645	0.302
365.698	5.986
369.748	68.023
373.797	28.153
377.844	47.925
381.889	15.116
385.932	72.843
389.973	68.401
394.012	104.984
398.049	31.195
402.084	67.439
406.118	171.025
410.15	132.616
414.179	86.745
418.207	26.418
422.233	155.39
426.257	142.381
430.279	112.278
434.299	39.867
438.318	100.774
442.334	171.129
446.349	100.775
450.361	179.559
454.372	77.028
458.381	84.324
462.388	159.544
466.394	153.821
470.397	49.871
474.398	106.159
478.398	54.382
482.396	240.634
486.391	116.646
490.385	162.562
494.377	65.881
498.368	181.359
502.356	289.179
506.342	236.922
510.327	164.336
514.31	171.587
518.291	104.444
522.27	16.382
526.247	219.872
530.222	270.619
534.196	135.982
538.167	347.367
542.137	338.476
546.105	342.031
550.071	309.031
554.035	320.615
557.998	271.328
561.958	379.664
565.917	365.523
569.874	86.49
573.829	394.471
577.782	490.027
581.733	405.734
585.683	459.121
589.63	480.684
593.576	548.326
597.52	828.514
601.462	1607.8
605.402	2555.21
609.341	2472.63
613.277	1598.25
617.212	882.748
621.145	646.957
625.076	430.221
629.006	362.055
632.933	72.115
636.859	192.156
640.783	62.154
644.705	95.814
648.625	104.41
652.543	1.357
656.46	94.205
660.375	70.525
664.288	25.975
668.199	110.645
672.108	56.697
676.016	115.145
679.921	105.096
683.825	155.836
687.727	15.062
691.628	3.652
695.526	57.959
699.423	110.051
703.318	187.371
707.211	75.92
711.102	89.049
714.992	122.727
718.879	75.213
722.765	168.191
726.649	99.789
730.532	211.072
734.412	183.902
738.291	335.043
742.168	376.543
746.043	388.492
749.916	480.266
753.788	391.887
757.658	513.076
761.526	593.852
765.392	495.084
769.257	485.057
773.119	585.133
776.98	904.377
780.839	1162.81
784.697	1559.58
788.552	1054.03
792.406	718.551
796.258	991.654
800.108	1085.23
803.957	1226.48
807.804	1665.8
811.649	1765.89
815.492	2128.07
819.333	2338.85
823.173	3810.66
827.011	6793.69
830.847	7800.2
834.681	5533.71
838.514	4679.09
842.345	6595.24
846.174	6880.84
850.001	5156.61
853.827	5368.67
857.651	7445.57
861.473	6947.96
865.293	4061.57
869.112	2172.87
872.928	1401.96
876.744	1019.27
880.557	540.301
884.369	683.34
888.178	306.477
891.987	230.324
895.793	110.594
899.598	205.547
903.401	470.547
907.202	345.59
911.001	210.66
914.799	355.797
918.595	240.363
922.389	24.422
926.182	180.844
929.972	156.18
933.761	185.207
937.549	197.113
941.334	162.762
945.118	8.555
948.9	374.492
952.681	340.594
956.459	326.879
960.236	504.09
964.012	1680.79
967.785	2397.68
971.557	1284.76
975.327	962.027
979.095	499.543
982.862	22.656
986.627	69.289
990.39	40.004
994.152	248.645
997.912	72.402
1001.67	246.789
1005.43	116.227
1009.18	75.961
1012.93	80.863
1016.68	100.477
1020.43	240.461
1024.18	484.703
1027.93	276.383
1031.67	289.625
1035.42	121.855
1039.16	244.328
1042.9	246.996
1046.63	579.805
1050.37	682.688
1054.11	498.164
1057.84	121.52
1061.57	335.641
1065.3	559.215
1069.03	332.109
1072.75	605.562
1076.47	489.629
1080.2	553.844
1083.92	438.184
1087.64	422.641
1091.36	327.344
1095.07	312.023
1098.79	436.93
1102.5	241.91
1106.21	867.441
1109.92	212.605
1113.62	27.77
1117.33	342.953
1121.04	138.16
1124.74	533.387
1128.44	488.836
1132.14	404.57
1135.83	50.023
1139.53	506.418
1143.22	543.762
1146.92	278.621
1150.61	267
1154.3	402.852
1157.98	743.012
1161.67	553.848
1165.35	500.93
1169.04	38.043
1172.72	315.934
1176.4	337.055
1180.07	465.953
1183.75	600.898
1187.42	900.559
1191.1	578.457
1194.77	350.379
1198.44	23.137
1202.1	595.254
1205.77	592.531
1209.43	800.449
1213.1	1056.97
1216.76	1194.81
1220.42	1030.97
1224.07	837.02
1227.73	761.434
1231.38	865.125
1235.04	789.031
1238.69	682.32
1242.34	924.293
1245.99	1175.61
1249.63	1466.32
1253.28	996.504
1256.92	877.066
1260.56	534.688
1264.2	792.66
1267.84	570.941
1271.48	850.445
1275.11	959.457
1278.74	612.066
1282.38	781.164
1286.01	730.363
1289.63	24.527
1293.26	19.664
1296.89	296.695
1300.51	47.789
1304.13	489.059
1307.75	912.723
1311.37	809.277
1314.99	524.863
1318.6	51.324
1322.22	77.793
1325.83	45.68
1329.44	170.668
1333.05	457.359
1336.66	723.578
1340.26	851.426
1343.87	1290.28
1347.47	1217.71
1351.07	1003.21
1354.67	1115.71
1358.27	283.793
1361.86	418.074
1365.46	430.926
1369.05	610.141
1372.64	837.176
1376.23	921.781
1379.82	1115.78
1383.41	1847.75
1386.99	1508.21
1390.57	903.77
1394.16	801.23
1397.74	5.527
1401.32	581.512
1404.89	544.062
1408.47	968.402
1412.04	767.949
