Measurement: Raman, 514 nm, ccw, Raman Data Processed
Mineral: Clinohumite
Rruff sample: R040122
Ideal chemistry: Mg_9_(SiO_4_)_4_F_2_
Locality: Anzahamazonono,  Madagascar
Source: University of Arizona Mineral Museum
Description: Orange-brown blebs embedded in calcite matrix
Measured chemistry: (Mg_0.96_Fe_0.02_Ti_0.01_Ca_0.01_)_9_(SiO_4_)_4_(F_0.59_(OH)_0.41_)_2_
Pin_id: S00005
Orientation: Laser parallel to c* (0 0 1). Fiducial mark perpendicular to laser is parallel to a [1 0 0]
Raman shift (cm-1)	intensity
128.84	0
133.003	96.896
137.164	105.116
141.323	74.109
145.48	84.274
149.635	159.536
153.788	81.9
157.939	87.831
162.088	83.927
166.235	25.302
170.38	17.243
174.523	9.201
178.664	125.768
182.803	208.266
186.94	260.32
191.076	170.683
195.209	187.313
199.34	127.669
203.47	97.17
207.597	91.534
211.722	83.743
215.846	113.563
219.967	20.609
224.087	56.195
228.204	35.99
232.32	67.782
236.434	28.85
240.545	52.963
244.655	46.147
248.763	69.007
252.869	68.146
256.973	97.154
261.075	49.614
265.175	109.579
269.273	87.087
273.369	168.475
277.463	111.984
281.556	151.421
285.646	114.174
289.734	125.038
293.821	47.764
297.905	109.145
301.988	238.118
306.069	317.732
310.147	308.661
314.224	389.78
318.299	451.815
322.372	365.909
326.443	334.75
330.512	357.152
334.579	271.216
338.645	193.922
342.708	279.793
346.769	326.901
350.829	373.999
354.887	372.921
358.942	269.394
362.996	160.964
367.048	203.134
371.098	133.458
375.146	117.066
379.192	64.072
383.236	5.698
387.279	42.124
391.319	83.732
395.358	39.604
399.394	3.716
403.429	10.148
407.462	18.399
411.493	26.944
415.522	94.777
419.549	98.209
423.575	171.056
427.598	260.917
431.619	349.455
435.639	401.354
439.657	451.433
443.673	385.437
447.687	364.062
451.699	120.35
455.709	40.316
459.717	167.339
463.724	136.359
467.728	152.699
471.731	47.577
475.732	158.711
479.731	230.29
483.728	147.105
487.723	268.735
491.716	393.358
495.708	547.883
499.697	457.506
503.685	533.11
507.671	617.05
511.655	509.373
515.637	564.31
519.617	555.268
523.596	733.339
527.572	740.509
531.547	1000.1
535.52	1239.36
539.491	1134.1
543.46	1409.99
547.427	1613.77
551.393	1168.14
555.356	926.422
559.318	704.862
563.278	570.239
567.236	606.909
571.192	596.75
575.147	656.445
579.099	492.511
583.05	560.169
586.999	497.886
590.946	455.857
594.891	592.997
598.834	768.252
602.776	782.281
606.715	1314.79
610.653	1103.96
614.589	720.736
618.523	427.346
622.456	302.296
626.386	126.062
630.315	248.058
634.242	129.42
638.167	60.581
642.09	90.207
646.012	20.006
649.931	50.809
653.849	117.883
657.765	5.565
661.679	79.645
665.592	73.479
669.502	64.518
673.411	166.04
677.318	95.148
681.223	73.145
685.126	1.236
689.028	108.092
692.927	36.43
696.825	147.73
700.721	60.773
704.616	82.771
708.508	323.723
712.399	123.646
716.288	82.16
720.175	338.592
724.06	463.707
727.944	606.57
731.825	689.371
735.705	1230.25
739.584	1572.94
743.46	1975.71
747.334	2376.42
751.207	2895.44
755.078	2935.86
758.947	2475.34
762.815	2054.34
766.68	1543.66
770.544	1362.12
774.406	1616.33
778.267	2227.78
782.125	3067.75
785.982	3249.84
789.837	2706.92
793.69	2321.09
797.542	1884.94
801.391	1736.98
805.239	2349.32
809.085	2708.61
812.93	2862.06
816.772	3163.4
820.613	3792.48
824.452	6755.69
828.29	11987.9
832.125	11667.1
835.959	7302.9
839.791	7138.6
843.621	8422.55
847.45	7651.43
851.277	5719.68
855.102	5468.6
858.925	6941.72
862.746	5551.22
866.566	3420.37
870.384	2388.64
874.2	1308.03
878.015	920.416
881.828	564.566
885.639	337.865
889.448	294.17
893.256	65.836
897.061	37.701
900.865	448.686
904.668	230.652
908.468	421.564
912.267	891.727
916.064	301.805
919.86	261.674
923.653	401.508
927.445	80.59
931.236	179.465
935.024	201.58
938.811	13.361
942.596	24.629
946.379	262.354
950.161	89.867
953.94	187.945
957.719	325.357
961.495	1424.97
965.27	2294.39
969.043	2042.43
972.814	1214.7
976.583	633.732
980.351	113.287
984.117	452.561
987.882	197.402
991.644	85.254
995.405	64.062
999.165	63.398
1002.92	83.184
1006.68	78.023
1010.43	9.883
1014.18	76.449
1017.93	297.273
1021.68	87.891
1025.43	51.23
1029.18	40.043
1032.92	159.465
1036.66	81.812
1040.4	396.188
1044.14	392.809
1047.88	488.816
1051.62	456.59
1055.35	283.082
1059.08	359.762
1062.81	497.523
1066.54	404.125
1070.27	489.953
1073.99	355.316
1077.72	289.871
1081.44	215.273
1085.16	429.039
1088.88	360.059
1092.59	712.812
1096.31	439.77
1100.02	273.406
1103.73	337.301
1107.44	16.832
1111.15	248.191
1114.86	432.652
1118.57	477.316
1122.27	461.895
1125.97	25.633
1129.67	278.453
1133.37	51.328
1137.07	320.125
1140.76	350.918
1144.45	116.586
1148.15	25.93
1151.84	557.832
1155.53	538.48
1159.21	131.309
1162.9	33.035
1166.58	42.293
1170.26	534.25
1173.94	588.691
1177.62	711.594
1181.3	577.512
1184.97	505.711
1188.65	438.785
1192.32	239.039
1195.99	351.023
1199.66	699.254
1203.33	557.207
1206.99	686.152
1210.65	725.66
1214.32	385.781
1217.98	493.555
1221.64	750.645
1225.29	588.797
1228.95	875.781
1232.6	1370.91
1236.26	959.277
1239.91	1024.13
1243.56	847.805
1247.2	899.465
1250.85	300.828
1254.49	501.125
1258.13	810.91
1261.78	1148.33
1265.41	966.992
1269.05	1120.72
1272.69	844.406
1276.32	868.957
1279.95	698.547
1283.59	378.438
1287.21	41.477
1290.84	681.945
1294.47	531.219
1298.09	771.254
1301.72	1021.41
1305.34	493.656
1308.96	241.422
1312.58	109.301
1316.19	157.141
1319.81	29.66
1323.42	339.215
1327.03	728.211
1330.64	684.953
1334.25	462.305
1337.86	558.734
1341.46	726.168
1345.07	143.688
1348.67	110.547
1352.27	96.73
1355.87	202.348
1359.46	935.477
1363.06	980.215
1366.65	1233.07
1370.25	587.254
1373.84	817.344
1377.43	683.32
1381.02	520.594
1384.6	540.336
1388.18	669.715
1391.77	335.875
1395.35	687.836
1398.93	1074.1
1402.51	1035.42
1406.08	1262.94
1409.66	729.941
1413.23	774.301
1416.8	847.938
1420.37	584.426
1423.94	87.418
1427.51	429.184
1431.08	422.773
1434.64	694.531
1438.2	616.93
1441.76	1312.34
1445.32	1543.46
1448.88	1112.97
1452.43	511.816
1455.99	487.512
1459.54	145.871
