Measurement: Raman, 514 nm, ccw, Raman Data Processed
Mineral: Clinozoisite
Rruff sample: R060284
Ideal chemistry: Ca_2_Al_3_(Si_2_O_7_)(SiO_4_)O(OH)
Locality: near Zagi Mountain, Khaffor Dehri, North-West Frontier Province, Pakistan
Source: Herb Obodda
Description: Greenish-brown fragment of a prismatic crystal
Measured chemistry: Ca_2.00_(Al_0.90_Fe^3+^_0.10_)_3_(Si_1.00_O_4_)(Si_2.00_O_7_)O(OH)
Pin_id: L00506
Orientation: Laser parallel to -a* (-1 0 0). Fiducial mark perpendicular to laser is parallel to b [0 1 0]
Raman shift (cm-1)	intensity
118.134	0
123.058	10.6924
127.979	567.403
132.898	2382.07
137.814	5805.15
142.728	8667.35
147.639	8822.89
152.549	8206.25
157.455	8155.94
162.359	9772.9
167.261	11061.3
172.161	9391.57
177.058	5700.33
181.952	3007.19
186.845	1218.55
191.734	573.101
196.622	166.632
201.507	163.526
206.389	44.0547
211.269	83.9287
216.147	64.0518
221.022	3.63672
225.895	818.375
230.765	2673.13
235.633	5785.49
240.498	9314.43
245.361	14702.6
250.222	23321.2
255.08	28007.5
259.936	22446.3
264.789	13910.3
269.64	9528.19
274.488	7111.31
279.334	4855.82
284.178	3248.39
289.019	2780.32
293.857	2746.8
298.693	2952.81
303.527	3002.7
308.358	2293.28
313.187	1688.89
318.013	1800.94
322.837	2690.93
327.659	5093.84
332.478	8611.59
337.294	11157.1
342.108	13775.2
346.92	19838.6
351.729	25291.1
356.535	19159.9
361.34	9123.77
366.141	3871.69
370.94	1310.92
375.737	126.84
380.531	418.714
385.323	46.6338
390.113	452.699
394.9	1005.46
399.684	777.457
404.466	74.916
409.245	342.472
414.022	213.506
418.797	2581.85
423.569	6289.01
428.338	9440.92
433.105	9468.56
437.87	10958.9
442.632	18542.9
447.391	33996.8
452.149	48921.7
456.903	44094.6
461.655	30237.5
466.405	23414.6
471.152	22004.8
475.897	22109.6
480.639	23107.9
485.378	21965.6
490.116	15945.5
494.85	10096.4
499.582	7483.16
504.312	7128.03
509.039	7592.23
513.764	8792.22
518.486	10427.6
523.206	11569.3
527.923	12058.2
532.638	9391.04
537.35	4277.26
542.059	1679.6
546.766	910.836
551.471	928.33
556.173	1911.13
560.873	5072.65
565.57	11735.1
570.264	21224.6
574.957	16992.9
579.646	5547.97
584.333	2244.16
589.018	2304.2
593.7	2876.47
598.379	3928.68
603.056	5397.54
607.73	5398.95
612.402	3410.07
617.072	1841.7
621.739	919.712
626.403	116.178
631.065	177.631
635.724	182.595
640.381	46.0342
645.035	399.411
649.687	1188.82
654.336	2246.67
658.983	2514.87
663.627	1823.86
668.268	1330.69
672.907	1186.73
677.544	1402.8
682.178	1693.1
686.809	2330.62
691.438	2320.06
696.065	2564.64
700.688	2531.41
705.31	1992.22
709.929	1127.03
714.545	445.81
719.158	250.528
723.77	29.0967
728.378	17.9072
732.984	104.233
737.588	125.505
742.189	33.0693
746.787	63.748
751.383	92.0156
755.976	109.492
760.567	54.0147
765.155	73.2305
769.741	144.856
774.324	56.0654
778.904	60.4043
783.482	35.3301
788.058	36.7725
792.631	141.258
797.201	114.909
801.769	123.249
806.334	264.321
810.897	456.212
815.457	419.959
820.014	700.586
824.569	885.113
829.122	1284.56
833.671	1487.92
838.219	1754.21
842.763	2147.47
847.306	2800.71
851.845	3707.97
856.382	5202.27
860.917	7111.38
865.448	9556.39
869.978	13442.6
874.505	18025.3
879.029	21642.5
883.55	19738.3
888.069	14462.3
892.586	10711.4
897.1	8818.65
901.611	6760.58
906.12	5707.6
910.626	5235.07
915.129	4645.87
919.63	3698.68
924.129	2612.13
928.625	2112.74
933.118	1672.61
937.609	1300.93
942.097	1193.81
946.582	935.408
951.065	772.524
955.546	732.957
960.023	1071.77
964.499	1131.92
968.971	1601.44
973.441	2914.37
977.909	5202.76
982.374	9414.71
986.836	10630.3
991.295	6674.45
995.753	3496.31
1000.21	1753.24
1004.66	797.25
1009.11	433.082
1013.55	257.016
1018	52.8701
1022.44	371.073
1026.88	728.472
1031.32	757.837
1035.75	547.307
1040.18	239.364
1044.61	349.736
1049.04	318.6
1053.46	277.632
1057.88	232.983
1062.3	402.011
1066.71	685.179
1071.13	1274.36
1075.54	2138.03
1079.94	3522.85
1084.35	6093.09
1088.75	10292.7
1093.15	14128.1
1097.55	10368.1
1101.94	4350.87
1106.34	2290.98
1110.73	1599.37
1115.11	1202.62
1119.5	1002
1123.88	860.8
1128.26	375.727
1132.63	187.341
1137.01	13.9023
1141.38	141.703
1145.75	21.3613
1150.12	28.5859
1154.48	55.2129
1158.84	128.816
1163.2	11.1777
1167.55	88.0332
1171.91	46.5518
1176.26	49.7881
1180.61	123.719
1184.95	21.1611
1189.29	50.8164
1193.63	6.70703
1197.97	36.5332
1202.31	123.141
1206.64	15.3828
1210.97	6.32129
1215.29	56.4131
1219.62	28.3066
1223.94	289.915
1228.26	28.3281
1232.57	116.306
1236.89	54.0459
1241.2	18.2236
1245.51	27.5762
1249.81	32.0234
1254.12	82.1856
1258.42	4.21094
1262.72	144.606
1267.01	173.127
1271.3	183.168
1275.59	206.733
1279.88	77.541
1284.17	14.1025
1288.45	9.26855
1292.73	9.63184
1297.01	143.384
1301.28	48.502
1305.55	53.1777
1309.82	34.6045
1314.09	159.782
1318.35	257.416
1322.61	177.684
1326.87	192.52
1331.13	235.247
1335.38	217.651
1339.63	278.553
1343.88	364.097
1348.12	394.612
1352.37	292.813
1356.61	277.949
1360.85	283.03
1365.08	477.806
1369.31	242.439
1373.54	301.051
1377.77	180.891
1381.99	491.485
1386.22	215.417
1390.43	274.278
1394.65	248.261
1398.87	242.064
1403.08	316.948
1407.29	233.381
1411.49	82.6777
1415.69	284.44
1419.89	230.397
1424.09	183.562
1428.29	169.999
1432.48	295.619
1436.67	257.42
1440.86	204.12
1445.04	116.151
1449.23	7.22949
1453.4	313.753
1457.58	210.414
1461.76	36.0137
1465.93	139.133
1470.1	153.541
1474.26	115.703
1478.43	67.8994
1482.59	20.5859
1486.75	178.639
1490.9	269.907
1495.06	237.949
1499.21	193.199
1503.35	244.63
1507.5	130.011
1511.64	46.1611
1515.78	158.907
1519.92	108.947
1524.05	156.649
1528.18	148.938
1532.31	164.93
1536.44	79.6406
1540.56	130.593
1544.69	155.86
1548.8	27.6387
1552.92	313.035
1557.03	155.628
1561.14	11.0049
1565.25	191.615
1569.36	111.128
