Measurement: Raman, 514 nm, ccw, Raman Data Processed
Mineral: Clinoptilolite-Ca
Rruff sample: R060662
Ideal chemistry: Ca_3_(Si_30_Al_6_)O_72_20H_2_O
Locality: Succor Creek, Malheur County, Oregon, USA
Source: Michael Scott
Description: Group of colorless platy prismatic crystals
Measured chemistry: (Ca_1.02_Na_0.97_K_0.59_)_Σ=2.58_(Si_14.40_Al_3.60_)_Σ=18_O_36_·10.96H_2_O
Pin_id: M00134
Orientation: Laser parallel to (1 0 1). Fiducial mark perpendicular to laser is parallel to b [0 1 0]
Raman shift (cm-1)	intensity
134.127	0
139.043	1393.16
143.956	1855
148.867	1494.62
153.775	1559.3
158.681	895.309
163.585	601.826
168.486	247.586
173.385	756.873
178.282	637.26
183.176	447.793
188.067	224.555
192.956	161.225
197.843	32.875
202.727	202.963
207.609	329.348
212.489	209.904
217.366	308.469
222.24	521.352
227.112	1092.63
231.982	1655.97
236.849	2212.83
241.714	2894.22
246.577	3086.56
251.437	2902.86
256.294	2593.26
261.149	2194.01
266.002	1476.47
270.852	954.191
275.7	397.172
280.545	8.32031
285.388	9.49414
290.229	126.272
295.067	14.877
299.902	140.562
304.735	382.684
309.566	812.494
314.394	846.719
319.22	1472.55
324.043	1623.25
328.864	2278.99
333.682	2612.85
338.498	2892.78
343.311	3757.75
348.122	4514.24
352.931	5396.1
357.737	6685.25
362.54	8204.42
367.341	10036.2
372.14	11865.2
376.936	13916.6
381.73	17250.8
386.521	21973.5
391.31	27587.2
396.096	33053.1
400.88	35954.3
405.661	34115.9
410.44	28691.6
415.216	21872.9
419.99	16345.2
424.761	11877.5
429.53	8364.82
434.297	6288.44
439.061	4893.2
443.822	4240.33
448.581	4508.94
453.337	5667.11
458.091	7629.95
462.843	9578.42
467.592	11172.6
472.338	14117
477.082	17426.4
481.824	17991
486.563	13642.9
491.3	8250.09
496.034	4725.28
500.765	3647.2
505.494	1655.96
510.221	1072.94
514.945	689.016
519.666	451.551
524.385	263.615
529.102	255.117
533.816	5.94141
538.527	44.9023
543.236	23.6113
547.943	46.3398
552.647	170.644
557.348	182.838
562.047	158.525
566.744	28.4863
571.438	93.666
576.129	14.7676
580.818	653.299
585.504	438.705
590.188	964.424
594.87	1426.4
599.549	2401.6
604.225	3366.94
608.899	4290.35
613.57	4940.82
618.239	4488.25
622.905	3814.65
627.569	2778.99
632.23	1859.31
636.889	1237.66
641.545	1012.09
646.198	878.49
650.849	583.922
655.498	391.281
660.144	275.934
664.787	216.223
669.428	43.6914
674.067	184.24
678.703	91.0273
683.336	92.1445
687.967	229.852
692.595	168.537
697.221	112.125
701.844	139.918
706.465	279.762
711.083	202.023
715.698	222.199
720.311	450.435
724.922	370.764
729.53	327.828
734.135	495.828
738.738	502.592
743.338	792.9
747.936	662.703
752.531	951.893
757.124	1118.31
761.714	1425.7
766.302	1848.07
770.887	2003
775.469	2339.79
780.049	2731.52
784.626	2527.95
789.201	2341.17
793.773	1935.76
798.343	2164.53
802.91	1700.6
807.475	1952.94
812.037	2449.72
816.596	3312.68
821.153	3136.62
825.707	1658.72
830.259	1272.4
834.808	808.988
839.355	491.459
843.899	334.516
848.441	575.852
852.98	553.854
857.516	518.494
862.05	493.738
866.581	147.588
871.11	133.041
875.636	197.107
880.159	191.744
884.68	76.082
889.199	1.61719
893.714	10.6602
898.228	78.6523
902.738	129.443
907.246	134.541
911.752	2.1875
916.255	24.8633
920.755	1.32812
925.253	27.7617
929.748	0.724609
934.241	44.2246
938.731	30.7598
943.218	195.139
947.703	57.9844
952.186	54.4141
956.665	219.647
961.142	182.01
965.617	213.312
970.089	175.514
974.558	191.59
979.025	367.56
983.489	312.375
987.951	419.086
992.41	377.641
996.866	543.299
1001.32	1003.95
1005.77	902.545
1010.22	930.279
1014.67	1072.8
1019.11	883.35
1023.55	1035.81
1027.99	1148.56
1032.42	1428.94
1036.86	1307.68
1041.29	1211.31
1045.72	1534.71
1050.14	1251.58
1054.56	1368.12
1058.98	1296.63
1063.4	1061.57
1067.82	1069.44
1072.23	1404.3
1076.64	1355.13
1081.05	1640.66
1085.45	1793.78
1089.85	1648.65
1094.25	2081.5
1098.65	2234.1
1103.04	2487.67
1107.43	2613.54
1111.82	2820.18
1116.21	2886.36
1120.59	2779.63
1124.97	2931.01
1129.35	2959
1133.73	3012.29
1138.1	2760.98
1142.47	2784.99
1146.84	2943.2
1151.21	2905.94
1155.57	2402.97
1159.93	2538.44
1164.29	2464.46
1168.64	2214.82
1172.99	2104.1
1177.34	1625.28
1181.69	1421.09
1186.04	1455.31
1190.38	1191.02
1194.72	794.07
1199.05	732.379
1203.39	537.152
1207.72	513.168
1212.05	27.5859
1216.37	399.098
1220.7	163.777
1225.02	98.4844
1229.34	112.008
1233.65	7.70312
1237.97	143.328
1242.28	349.656
1246.59	115.59
1250.89	122.824
1255.19	35.9922
1259.49	179.324
1263.79	49.4844
1268.09	250.535
1272.38	162.672
1276.67	15.1016
1280.95	93.6875
1285.24	207.633
1289.52	157.891
1293.8	350.41
1298.08	274.418
1302.35	349.375
1306.62	312.223
1310.89	325.852
1315.15	510.164
1319.42	445.363
1323.68	274.418
1327.94	114.344
1332.19	372.086
1336.44	118.652
1340.69	173.75
1344.94	382.715
1349.19	86.0078
1353.43	137.598
1357.67	34.4805
1361.9	183.699
1366.14	318.492
1370.37	160.305
1374.6	138.414
1378.83	274.488
1383.05	286.219
1387.27	164.731
1391.49	223.969
1395.7	347.613
1399.92	76.4688
1404.13	160.824
1408.34	402.719
1412.54	153.82
1416.74	100.875
1420.94	365.699
1425.14	226.898
1429.34	115.234
1433.53	282.652
1437.72	581.195
1441.9	915.312
1446.09	1007.94
1450.27	879.074
1454.45	982.719
1458.63	790.106
1462.8	744.297
1466.97	522.289
1471.14	525.066
1475.31	493.727
1479.47	522.652
1483.63	496.254
1487.79	157.258
1491.94	515.727
1496.09	205.184
1500.24	512.797
1504.39	105.328
1508.54	112.789
1512.68	354.656
1516.82	214.215
1520.95	119.266
1525.09	234.527
1529.22	108.934
1533.35	428.012
1537.47	346.074
1541.6	431.559
1545.72	205.43
1549.83	183.117
1553.95	525.543
1558.06	198.031
1562.17	122
1566.28	272.117
1570.38	10.0391
