Measurement: Raman, 514 nm, ccw, Raman Data Processed
Mineral: Clinochlore
Rruff sample: R060725
Ideal chemistry: Mg_5_Al(AlSi_3_O_10_)(OH)_8_
Locality: Crestmore Quarry, Riverside, California, USA
Source: Bob Jenkins
Description: Green transparent books of mica
Measured chemistry: (Mg_4.65_Al_1.12_Fe^2+^_0.17_[box]_0.06_)_Σ=6_(Si_3.00_Al_1.00_)_Σ=4_O_10_(OH)_8_
Pin_id: L01861
Raman shift (cm-1)	intensity
154.869	0
159.787	109.13
164.703	107.273
169.617	7.74805
174.528	79.8662
179.435	42.3105
184.341	44.145
189.243	139.18
194.143	158.657
199.04	556.781
203.935	1089.34
208.827	946.693
213.716	338.649
218.602	191.103
223.486	172.028
228.367	3.57324
233.245	92.3203
238.12	103.56
242.993	20.1357
247.863	37.9258
252.731	42.0825
257.596	35.0942
262.458	26.0552
267.317	120.147
272.174	162.19
277.028	267.397
281.879	318.886
286.728	289.685
291.574	116.891
296.417	134.196
301.258	55.4712
306.096	126.817
310.931	60.9805
315.764	153.781
320.594	162.068
325.421	309.438
330.246	348.159
335.068	347.699
339.887	587.172
344.703	867.59
349.517	1591.02
354.329	2426.78
359.137	2265.78
363.943	1160
368.746	744.433
373.547	391.356
378.345	392.141
383.14	297.835
387.932	264.903
392.722	294.239
397.51	134.873
402.294	101.696
407.076	282.703
411.855	237.893
416.632	262.268
421.406	363.829
426.177	466.579
430.946	393.509
435.712	383.619
440.475	438.59
445.236	353.365
449.994	253.807
454.75	274.522
459.502	306.471
464.253	283.063
469	433.925
473.745	193.359
478.487	81.7842
483.227	32.5156
487.964	19.2832
492.698	173.898
497.43	62.9131
502.159	310.076
506.885	259.386
511.609	310.838
516.33	253.457
521.049	494.319
525.764	680.368
530.478	830.618
535.188	984.008
539.896	1241.57
544.602	1906.31
549.304	2940.16
554.004	2601.17
558.702	1235.37
563.397	579.705
568.089	441.167
572.779	188.785
577.466	148.548
582.15	74.418
586.832	68.3545
591.511	88.6924
596.188	29.0723
600.862	89.709
605.533	18.7744
610.202	118.361
614.868	35.8506
619.531	21.4102
624.192	40.793
628.85	60.4707
633.506	99.8994
638.159	195.783
642.81	289.752
647.457	328.773
652.103	522.136
656.745	721.792
661.385	965.613
666.023	1448.34
670.658	1877.57
675.29	2630.83
679.92	2970.26
684.547	2892.56
689.171	2388.01
693.793	2018.95
698.413	1295.73
703.029	947.066
707.643	927.723
712.255	647.61
716.864	522.573
721.47	411.178
726.074	270.128
730.675	231.612
735.274	224.911
739.87	115.124
744.463	206.856
749.054	252.422
753.643	303.875
758.228	76.4932
762.812	103.036
767.392	101.623
771.97	143.002
776.546	181.239
781.118	81.0117
785.689	269.54
790.256	53.6084
794.822	100.585
799.384	110.506
803.944	99.4814
808.502	26.3125
813.057	36.1221
817.609	134.797
822.159	37.3535
826.706	133.844
831.251	44.209
835.793	245.365
840.332	49.4785
844.869	59.6455
849.404	57.499
853.936	310.325
858.465	147.079
862.992	136.802
867.516	27.541
872.037	280.347
876.557	110.095
881.073	45.877
885.587	21.1152
890.099	119.982
894.608	65.9121
899.114	85.2578
903.618	52.8086
908.119	132.544
912.618	123.705
917.114	162.772
921.608	98.7666
926.099	115.439
930.588	91.7978
935.074	169.625
939.557	82.3672
944.038	60.2402
948.517	142.072
952.993	171.706
957.466	170.451
961.937	309.998
966.405	129.989
970.871	235.268
975.334	151.735
979.795	288.61
984.253	108.128
988.709	131.992
993.162	148.376
997.613	209.732
1002.06	225.482
1006.51	249.527
1010.95	253.403
1015.39	216.744
1019.83	70.2519
1024.26	246.555
1028.7	318.58
1033.13	346.295
1037.56	41.6572
1041.98	265.191
1046.4	314.459
1050.83	380.7
1055.24	451.883
1059.66	223.085
1064.07	405.096
1068.48	147.293
1072.89	499.285
1077.3	508.328
1081.7	476.237
1086.1	641.774
1090.5	548.322
1094.89	416.717
1099.29	195.048
1103.68	136.434
1108.06	100.674
1112.45	100.564
1116.83	59.4961
1121.21	39.5812
1125.59	8.88281
1129.97	77.334
1134.34	186.665
1138.71	111.894
1143.08	19.1377
1147.44	74.2969
1151.81	94.9414
1156.17	96.2738
1160.53	145.164
1164.88	53.9014
1169.23	18.5322
1173.59	183.69
1177.93	84.8057
1182.28	71.3037
1186.62	1.44434
1190.96	146.481
1195.3	71.1328
1199.64	25.3779
1203.97	53.7227
1208.3	192.717
1212.63	208.607
1216.96	138.355
1221.28	169.969
1225.6	110.557
1229.92	197.068
1234.24	207.429
1238.55	112.828
1242.86	58.3145
1247.17	44.8105
1251.47	12.8213
1255.78	224.322
1260.08	203.317
1264.38	166.98
1268.68	220.969
1272.97	20.6963
1277.26	46.3262
1281.55	96.4277
1285.84	55.6328
1290.12	28.3721
1294.4	80.9668
1298.68	99.8789
1302.96	126.466
1307.23	188.071
1311.51	49.7188
1315.78	185.399
1320.04	209.853
1324.31	113.533
1328.57	346.422
1332.83	245.984
1337.09	100.746
1341.34	91.2285
1345.59	289.871
1349.84	55.832
1354.09	284.769
1358.34	21.7637
1362.58	143.586
1366.82	220.656
1371.06	221.938
1375.29	252.375
1379.52	149.859
1383.75	159.586
1387.98	200.447
1392.21	216.154
1396.43	201.164
1400.65	6.77734
1404.87	288.953
1409.09	56.3867
1413.3	96.084
1417.51	146.885
1421.72	139.182
1425.93	40.4668
1430.13	193.227
1434.33	275.514
1438.53	200.914
1442.73	420.31
1446.92	195.955
1451.11	338.086
1455.3	368.453
1459.49	278.033
1463.67	125.631
1467.86	271.531
1472.04	182.664
1476.21	342.033
1480.39	50.5625
1484.56	296.549
1488.73	145.981
1492.9	125.752
1497.06	203.084
1501.23	53.6504
1505.39	76.5977
1509.55	135.141
1513.7	149.516
1517.85	193.033
1522	125.502
1526.15	65.5742
1530.3	66.8125
1534.44	296.701
1538.58	152.357
1542.72	171.303
1546.86	130.4
1550.99	121.621
1555.13	216.877
1559.26	144.498
