Measurement: Raman, 514 nm, ccw, Raman Data Processed
Mineral: Clinozoisite
Rruff sample: R060284
Ideal chemistry: Ca_2_Al_3_(Si_2_O_7_)(SiO_4_)O(OH)
Locality: near Zagi Mountain, Khaffor Dehri, North-West Frontier Province, Pakistan
Source: Herb Obodda
Description: Greenish-brown fragment of a prismatic crystal
Measured chemistry: Ca_2.00_(Al_0.90_Fe^3+^_0.10_)_3_(Si_1.00_O_4_)(Si_2.00_O_7_)O(OH)
Pin_id: L00714
Orientation: Laser parallel to c* (0 0 1). Fiducial mark perpendicular to laser is parallel to a [1 0 0]
Raman shift (cm-1)	intensity
118.134	0
123.058	186.884
127.979	401.113
132.898	1205.46
137.814	2964.62
142.728	4651.65
147.639	4409.32
152.549	4012.25
157.455	3330.51
162.359	2515.32
167.261	1985.51
172.161	2053.1
177.058	1754.02
181.952	454.399
186.845	38.5137
191.734	231.613
196.622	225.968
201.507	241.24
206.389	134.215
211.269	754.719
216.147	1120.28
221.022	1200.57
225.895	2078.25
230.765	4840.98
235.633	8420.99
240.498	9410.31
245.361	10411.8
250.222	13934.6
255.08	14660.6
259.936	11329.7
264.789	8075.58
269.64	9325.01
274.488	12481.1
279.334	11930.7
284.178	7648.93
289.019	5583.3
293.857	4916.52
298.693	4489.35
303.527	4601.13
308.358	5169.52
313.187	5216.66
318.013	4935.01
322.837	5222.49
327.659	5915.93
332.478	8422.9
337.294	11989.5
342.108	14971.8
346.92	16462.6
351.729	17260.9
356.535	12482.3
361.34	6942.56
366.141	4305.74
370.94	2942.81
375.737	1807.84
380.531	959.951
385.323	2073.17
390.113	3796.63
394.9	4507.76
399.684	3302.17
404.466	786.145
409.245	605.793
414.022	519.39
418.797	4946.18
423.569	15003
428.338	21906.8
433.105	16841.8
437.87	13099.1
442.632	17743.6
447.391	32492.7
452.149	47293
456.903	45845.9
461.655	34941.3
466.405	29580.5
471.152	29291.5
475.897	28531
480.639	25919.8
485.378	20864.1
490.116	13868.9
494.85	8488.93
499.582	6743.34
504.312	7922.64
509.039	9588.49
513.764	7681.69
518.486	5406.72
523.206	2735.42
527.923	912.601
532.638	294.173
537.35	782.846
542.059	400.766
546.766	152.005
551.471	1214.9
556.173	3057.48
560.873	6941.53
565.57	17861.3
570.264	37940.8
574.957	28990.8
579.646	10420.6
584.333	5990.71
589.018	7018.11
593.7	9808.76
598.379	14289.7
603.056	19994.9
607.73	19845.3
612.402	13200.3
617.072	8052.7
621.739	4623.12
626.403	2479.4
631.065	1510.76
635.724	1037.44
640.381	781.109
645.035	976.674
649.687	1812.02
654.336	3681.74
658.983	4383.64
663.627	3964.52
668.268	3410.41
672.907	2765.42
677.544	2638.77
682.178	3257.63
686.809	4113.95
691.438	4580.54
696.065	4745.7
700.688	4758.12
705.31	3695.92
709.929	2291.69
714.545	1100.29
719.158	543.182
723.77	255.374
728.378	39.4082
732.984	37.5596
737.588	6.23486
742.189	167.592
746.787	127.284
751.383	222.58
755.976	173.815
760.567	196.158
765.155	167.395
769.741	93.0747
774.324	170.83
778.904	15.314
783.482	101.727
788.058	36.7505
792.631	36.8652
797.201	93.8125
801.769	286.289
806.334	380.541
810.897	708.774
815.457	1070.27
820.014	1547.82
824.569	2092.4
829.122	2823.28
833.671	3249.46
838.219	3935.01
842.763	4481.99
847.306	5256.5
851.845	6212.6
856.382	8089.57
860.917	11196.5
865.448	16757.3
869.978	24156.8
874.505	28528.9
879.029	29355.9
883.55	29501.6
888.069	29580.4
892.586	33137.1
897.1	35963.7
901.611	31519
906.12	27179.6
910.626	27121.6
915.129	27483.7
919.63	23947.6
924.129	19910.7
928.625	17289.6
933.118	14836.5
937.609	12296.5
942.097	9407.03
946.582	7016.75
951.065	6035.12
955.546	6133.02
960.023	6326.6
964.499	6710.92
968.971	6504.89
973.441	7024.57
977.909	11227
982.374	19248.1
986.836	22045.1
991.295	14210
995.753	6843.07
1000.21	3349.45
1004.66	1528.54
1009.11	526.6
1013.55	233.668
1018	374.095
1022.44	1318.32
1026.88	3150.73
1031.32	4438.02
1035.75	3697.98
1040.18	3613.85
1044.61	4358.85
1049.04	4948.6
1053.46	4143.27
1057.88	2838.79
1062.3	1754.94
1066.71	1414.48
1071.13	1996.96
1075.54	4144.17
1079.94	7857.77
1084.35	14110.4
1088.75	25190.7
1093.15	37188.5
1097.55	28364.3
1101.94	11392
1106.34	4480.41
1110.73	2407.5
1115.11	1559.05
1119.5	1159.47
1123.88	822.482
1128.26	610.366
1132.63	359.402
1137.01	332.336
1141.38	297.215
1145.75	62.6084
1150.12	61.3643
1154.48	132.856
1158.84	29.6846
1163.2	17.0762
1167.55	197.455
1171.91	167.788
1176.26	179.648
1180.61	198.506
1184.95	165.873
1189.29	114.644
1193.63	32.5859
1197.97	72.751
1202.31	1.94727
1206.64	16.5312
1210.97	44.2549
1215.29	16.9717
1219.62	17.8643
1223.94	5.88769
1228.26	87.2002
1232.57	96.3125
1236.89	137.169
1241.2	163.779
1245.51	191.091
1249.81	204.101
1254.12	155.44
1258.42	155.269
1262.72	264.911
1267.01	304.367
1271.3	129.45
1275.59	359.863
1279.88	401.716
1284.17	369.094
1288.45	371.644
1292.73	410.482
1297.01	279.132
1301.28	312.562
1305.55	416.435
1309.82	413.854
1314.09	371.683
1318.35	269.668
1322.61	364.276
1326.87	444.002
1331.13	412.425
1335.38	433.877
1339.63	320.356
1343.88	412.233
1348.12	457.502
1352.37	433.143
1356.61	436.093
1360.85	497.335
1365.08	337.412
1369.31	532.188
1373.54	428.619
1377.77	474.97
1381.99	420.766
1386.22	351.497
1390.43	448.076
1394.65	374.67
1398.87	355.736
1403.08	149.505
1407.29	296.502
1411.49	262.9
1415.69	131.471
1419.89	268.233
1424.09	139.157
1428.29	223.306
1432.48	212.642
1436.67	249.267
1440.86	226.407
1445.04	177.778
1449.23	219.292
1453.4	256.037
1457.58	182.873
1461.76	210.337
1465.93	81.2041
1470.1	216.95
1474.26	141.594
1478.43	133.53
1482.59	231.638
1486.75	29.1543
1490.9	108.46
1495.06	214.647
1499.21	72.4443
1503.35	64.9648
1507.5	70.9385
1511.64	183.994
1515.78	238.332
1519.92	37.7695
1524.05	96.5742
1528.18	130.447
1532.31	130.684
1536.44	82.3389
1540.56	78.2012
1544.69	157.016
1548.8	76.3135
1552.92	106.905
1557.03	184.394
1561.14	36.2148
1565.25	146.385
1569.36	234.756
