Measurement: Raman, 514 nm, ccw, Raman Data Processed
Mineral: Clinozoisite
Rruff sample: R040085
Ideal chemistry: Ca_2_Al_3_(Si_2_O_7_)(SiO_4_)O(OH)
Locality: Alamos, Sonora, Mexico
Source: University of Arizona Mineral Museum
Description: Divergent aggregate of red thin prismatic crystals
Measured chemistry: Ca_2.03_(Al_0.90_Fe_0.13_)_3_(Si_1.00_O_4_)(Si_2.00_O_7_)O(OH)
Pin_id: S00052
Orientation: Laser parallel to -b* (0 -1 0). Fiducial mark perpendicular to laser is parallel to c [0 0 1]
Raman shift (cm-1)	intensity
118.891	0
123.079	358.975
127.265	575.381
131.449	831.846
135.631	1379.27
139.81	1857.99
143.988	1757.12
148.163	1417.43
152.336	1419.89
156.507	1253.84
160.675	1543.27
164.842	2116.73
169.006	2225.57
173.168	1709.59
177.328	1225.38
181.485	742.949
185.641	632.281
189.794	433.176
193.945	174.05
198.094	7.079
202.241	79.723
206.385	13.417
210.528	66.21
214.668	48.423
218.806	20.001
222.942	60.933
227.076	21.257
231.207	268.964
235.337	299.712
239.464	690.982
243.589	1262.75
247.712	2004.79
251.833	3006.91
255.951	2889.4
260.068	2136.68
264.182	1437.31
268.294	903.652
272.404	831.27
276.512	754.935
280.618	599.095
284.721	379.252
288.823	335.043
292.922	504.727
297.019	466.521
301.114	559.698
305.207	433.875
309.298	208.777
313.387	114.188
317.473	100.06
321.558	276.377
325.64	363.066
329.72	479.774
333.798	786.389
337.874	1093.14
341.948	1450.11
346.019	2157.48
350.089	3425.2
354.156	4043.27
358.222	2841.65
362.285	1669.94
366.346	1048.35
370.405	694.705
374.462	454.073
378.516	197.583
382.569	46.491
386.62	174.547
390.668	142.199
394.714	74.171
398.759	64.866
402.801	83.688
406.841	52.261
410.879	130.545
414.915	8.601
418.949	33.611
422.98	306.104
427.01	638.756
431.037	841.385
435.063	904.037
439.086	1256.86
443.108	1889.84
447.127	2993.03
451.144	4556.51
455.159	4960.22
459.172	3694.14
463.183	2368.29
467.192	1742.61
471.198	1747.16
475.203	1572.41
479.206	1637.82
483.206	1584.02
487.205	1849.8
491.201	1679.17
495.196	1375.14
499.188	1280.44
503.178	1265.84
507.166	1561.35
511.153	1436.95
515.137	1472.63
519.119	1498.39
523.099	1344.22
527.077	1350.3
531.053	1006.28
535.027	742.434
538.998	168.73
542.968	115.102
546.936	53.182
550.902	0.021
554.865	102.033
558.827	281.969
562.786	520.6
566.744	1312.82
570.7	2714.39
574.653	2028.25
578.604	815.074
582.554	453.23
586.501	429.693
590.447	356.674
594.39	473.117
598.331	779.328
602.271	947.613
606.208	1194.15
610.143	1030.18
614.077	716.527
618.008	464.262
621.937	194.15
625.865	190.602
629.79	236.223
633.713	51.867
637.634	27.287
641.553	102.928
645.471	48.455
649.386	254.033
653.299	298.848
657.21	333.559
661.12	388.152
665.027	374.045
668.932	318.402
672.835	182.635
676.737	216.746
680.636	91.883
684.533	164.59
688.428	198.311
692.322	181.906
696.213	185.367
700.102	18.693
703.99	260.996
707.875	169.008
711.758	48.342
715.64	4.094
719.519	226.312
723.397	181.844
727.272	100.496
731.146	49.51
735.017	121.082
738.887	161.266
742.755	131.043
746.62	100.512
750.484	169.84
754.346	59.037
758.206	178.08
762.063	106.957
765.919	135.695
769.773	5.693
773.625	37.264
777.475	40.943
781.323	129.01
785.169	206.957
789.013	235.895
792.856	252.467
796.696	30.035
800.534	36.006
804.371	299.83
808.205	127.822
812.037	245.02
815.868	17.871
819.697	369.113
823.523	346.02
827.348	282.854
831.171	99.617
834.992	186.229
838.811	282.818
842.628	269.529
846.443	706.189
850.256	812.807
854.067	1307.72
857.876	1744.29
861.684	1790.54
865.489	1756.03
869.293	1748.73
873.095	1818.85
876.894	2397.12
880.692	2600.22
884.488	2115.43
888.282	1592.98
892.074	1227.86
895.864	904.402
899.652	700.408
903.439	756.936
907.223	733.404
911.006	998.32
914.786	1064.71
918.565	792.309
922.342	526.258
926.117	269.488
929.89	475.797
933.661	182.559
937.43	159.787
941.198	216.984
944.963	104.406
948.727	71.234
952.488	208.67
956.248	16.154
960.006	94.139
963.762	12.246
967.516	199.086
971.269	467.496
975.019	316.074
978.767	594.838
982.514	893.799
986.259	813.094
990.002	502.174
993.743	411.816
997.482	421.725
1001.22	421.922
1004.95	342.443
1008.69	236.871
1012.42	244.613
1016.15	465.465
1019.88	86.668
1023.6	498.342
1027.33	444.018
1031.05	496.355
1034.77	375.463
1038.49	775.629
1042.21	516.424
1045.92	527.457
1049.63	638.816
1053.35	320.467
1057.05	632.568
1060.76	572.072
1064.47	384.461
1068.17	417.502
1071.87	398.918
1075.57	442.648
1079.27	746.791
1082.97	811.328
1086.66	1096.07
1090.36	1210.99
1094.05	1246.28
1097.73	1041.93
1101.42	817.941
1105.11	904.191
1108.79	850.797
1112.47	908.055
1116.15	675.98
1119.83	1094.6
1123.51	364.139
1127.18	504.609
1130.86	206.051
1134.53	258.475
1138.19	632.041
1141.86	126.93
1145.53	443.414
1149.19	451.811
1152.85	412.445
1156.51	544.977
1160.17	731.324
1163.83	256.381
1167.48	198.033
1171.13	22.309
1174.78	79.543
1178.43	83.34
