Measurement: Raman, 514 nm, ccw, Raman Data Processed
Mineral: Clinozoisite
Rruff sample: R040085
Ideal chemistry: Ca_2_Al_3_(Si_2_O_7_)(SiO_4_)O(OH)
Locality: Alamos, Sonora, Mexico
Source: University of Arizona Mineral Museum
Description: Divergent aggregate of red thin prismatic crystals
Measured chemistry: Ca_2.03_(Al_0.90_Fe_0.13_)_3_(Si_1.00_O_4_)(Si_2.00_O_7_)O(OH)
Pin_id: M00391
Orientation: Laser parallel to c* (0 0 1). Fiducial mark perpendicular to laser is parallel to a [1 0 0]
Raman shift (cm-1)	intensity
178.282	0
183.176	18.4082
188.067	72.834
192.956	291.19
197.843	860.568
202.727	1455.98
207.609	1791.45
212.489	2393.49
217.366	2468.05
222.24	3046.81
227.112	3279.29
231.982	3191.5
236.849	3340.82
241.714	4783.44
246.577	7961.27
251.437	9814.68
256.294	8376.3
261.149	6057.64
266.002	6151.02
270.852	7741.83
275.7	5920.69
280.545	2807.99
285.388	877.475
290.229	259.156
295.067	428.928
299.902	991.582
304.735	1504.6
309.566	1645.92
314.394	2043.65
319.22	1410.98
324.043	1205.34
328.864	1105.54
333.682	583.104
338.498	186.252
343.311	140.568
348.122	255.285
352.931	34.834
357.737	441.223
362.54	438.885
367.341	334.965
372.14	270.607
376.936	289.084
381.73	706.094
386.521	1920.87
391.31	4000.38
396.096	4555.71
400.88	3031.94
405.661	1365.11
410.44	1653.08
415.216	4351.51
419.99	10166.5
424.761	17317.7
429.53	15716
434.297	10334.9
439.061	10000.2
443.822	10292.1
448.581	15977
453.337	14891.1
458.091	9992.65
462.843	7104.52
467.592	5851.82
472.338	6427.08
477.082	6624.95
481.824	6547.78
486.563	6521.15
491.3	5651.39
496.034	4933.25
500.765	4826.94
505.494	4996.81
510.221	5411.51
514.945	5711.4
519.666	5683.09
524.385	5866.4
529.102	4858.23
533.816	3361.1
538.527	2342.95
543.236	2794.74
547.943	3246.42
552.647	4140.96
557.348	5995.32
562.047	10503.5
566.744	19861.7
571.438	20382.6
576.129	9687.53
580.818	3976.56
585.504	2866.64
590.188	3518.01
594.87	5828.21
599.549	10047.7
604.225	11382.2
608.899	8987.52
613.57	5445.53
618.239	3065.22
622.905	2585.38
627.569	1760.63
632.23	1391.13
636.889	725.271
641.545	1001.2
646.198	832.857
650.849	1152.27
655.498	1905.16
660.144	2556.39
664.787	2978.76
669.428	2629.33
674.067	2731.85
678.703	2627.54
683.336	2715.3
687.967	2955.9
692.595	3203.28
697.221	2944.41
701.844	1915.23
706.465	1225.69
711.083	700.74
715.698	124.324
720.311	62.1758
724.922	76.0703
729.53	105.254
734.135	168.041
738.738	185.488
743.338	81.8281
747.936	305.385
752.531	133.324
757.124	99.416
761.714	49.7852
766.302	32.207
770.887	212.816
775.469	18.8301
780.049	176.656
784.626	5.18945
789.201	29.9629
793.773	179.477
798.343	107.756
802.91	612.867
807.475	661.971
812.037	778.162
816.596	1030.5
821.153	1627.03
825.707	2694.76
830.259	3070.72
834.808	3324.91
839.355	2823.37
843.899	2426.11
848.441	2738.15
852.98	2955.98
857.516	3071.57
862.05	3815.11
866.581	4160.62
871.11	5181.29
875.636	6162.09
880.159	5723.24
884.68	4897.17
889.199	3893.12
893.714	3736.18
898.228	4341.9
902.738	5967.58
907.246	7798.77
911.752	9776.92
916.255	11461.7
920.755	11920.8
925.253	11229.1
929.748	10440.4
934.241	9491.41
938.731	7869.07
943.218	6692.35
947.703	5488.02
952.186	4935.37
956.665	5169.9
961.142	4954.66
965.617	4458.23
970.089	3944.69
974.558	4271.03
979.025	6148.26
983.489	7655.38
987.951	5965.5
992.41	3433.74
996.866	1902.46
1001.32	1471.96
1005.77	286.57
1010.22	49.5703
1014.67	37.5117
1019.11	95.8555
1023.55	41.5742
1027.99	456.769
1032.42	502.356
1036.86	990.043
1041.29	1217.89
1045.72	1725.11
1050.14	1909.48
1054.56	1321.44
1058.98	1302.24
1063.4	1810.72
1067.82	3012.59
1072.23	4521.02
1076.64	7007.44
1081.05	9682.63
1085.45	14775.8
1089.85	22353.4
1094.25	22676.4
1098.65	12385.3
1103.04	5232.44
1107.43	2454.08
1111.82	894.957
1116.21	829.269
1120.59	633.305
1124.97	480.258
1129.35	320.68
1133.73	261.297
1138.1	12.3516
1142.47	268.184
1146.84	188.734
1151.21	67.7031
1155.57	61.293
1159.93	10.7422
1164.29	3.17969
1168.64	67.8516
1172.99	93.4258
1177.34	4.01172
1181.69	13.293
1186.04	99.9961
1190.38	85.9492
1194.72	96.0469
1199.05	205.727
1203.39	217.32
1207.72	35.5664
1212.05	383.508
1216.37	227.762
1220.7	99.4258
1225.02	249.578
1229.34	92.8789
1233.65	285.051
1237.97	510
1242.28	302.902
1246.59	344.039
1250.89	328.137
1255.19	322.762
1259.49	136.625
1263.79	353.699
1268.09	385.734
1272.38	309.043
1276.67	488.555
1280.95	309.113
1285.24	56.418
1289.52	357.488
1293.8	366.078
1298.08	353.633
1302.35	489.043
1306.62	334.609
1310.89	199.246
1315.15	330.731
1319.42	467.016
1323.68	396.394
1327.94	401.305
1332.19	446.211
1336.44	107.848
1340.69	326.824
1344.94	525.582
1349.19	133.352
1353.43	163.934
1357.67	427.582
1361.9	468.062
1366.14	328.543
1370.37	111.504
1374.6	502.688
1378.83	269.16
1383.05	18.0586
1387.27	240.867
1391.49	231.309
1395.7	3.98047
1399.92	127.336
1404.13	348.754
1408.34	77.5
1412.54	180.773
1416.74	208.516
1420.94	150.797
1425.14	402.453
1429.34	209.211
1433.53	344.668
1437.72	679.941
1441.9	446.484
1446.09	422.656
1450.27	868.348
1454.45	644.062
1458.63	510.715
1462.8	869.262
1466.97	483.465
1471.14	364.898
1475.31	686.871
1479.47	391.777
1483.63	694.5
1487.79	312.934
1491.94	424.867
1496.09	243.316
1500.24	91.3789
1504.39	272.629
1508.54	366.977
1512.68	318.387
1516.82	413.809
1520.95	70.0586
1525.09	525.785
1529.22	296.797
1533.35	500.359
1537.47	100.297
1541.6	13.5508
1545.72	342.793
1549.83	416.606
1553.95	224.027
1558.06	384.598
1562.17	236.34
1566.28	217.336
1570.38	1.62109
