Measurement: Raman, 514 nm, ccw, Raman Data Processed
Mineral: Clinozoisite
Rruff sample: R040085
Ideal chemistry: Ca_2_Al_3_(Si_2_O_7_)(SiO_4_)O(OH)
Locality: Alamos, Sonora, Mexico
Source: University of Arizona Mineral Museum
Description: Divergent aggregate of red thin prismatic crystals
Measured chemistry: Ca_2.03_(Al_0.90_Fe_0.13_)_3_(Si_1.00_O_4_)(Si_2.00_O_7_)O(OH)
Pin_id: M00327
Orientation: Laser parallel to (1 0 1). Fiducial mark perpendicular to laser is parallel to -b [0 -1 0]
Raman shift (cm-1)	intensity
191.734	0
196.622	14.252
201.507	104.963
206.389	139.877
211.269	24.0293
216.147	237.775
221.022	217.315
225.895	331.685
230.765	633.652
235.633	1452.44
240.498	1628.8
245.361	2769.78
250.222	4727.28
255.08	5384.78
259.936	4557.19
264.789	3710.53
269.64	3920.57
274.488	3464.95
279.334	2518.15
284.178	1859.56
289.019	1403.31
293.857	1361.48
298.693	835.533
303.527	982.193
308.358	470.957
313.187	759.043
318.013	1051.67
322.837	1605.79
327.659	1777.38
332.478	2066.62
337.294	2549.1
342.108	3270.68
346.92	4189.15
351.729	4833.23
356.535	3093.85
361.34	1549.19
366.141	841.301
370.94	587.981
375.737	349.102
380.531	148.574
385.323	652.32
390.113	950.293
394.9	862.387
399.684	192.379
404.466	137.672
409.245	400.672
414.022	197.781
418.797	215.004
423.569	837.184
428.338	1168.31
433.105	1330.38
437.87	1632.4
442.632	2747.48
447.391	4675.62
452.149	5733.23
456.903	4051.59
461.655	2217.79
466.405	1383.02
471.152	1697.01
475.897	1547.06
480.639	1734.21
485.378	1845.49
490.116	1324.06
494.85	732.168
499.582	805.223
504.312	926.445
509.039	1286.11
513.764	1592.97
518.486	1412.85
523.206	1441.55
527.923	1063.03
532.638	509.258
537.35	352.137
542.059	94.1953
546.766	76
551.471	119.5
556.173	516.09
560.873	1268.3
565.57	2787.96
570.264	5406.09
574.957	3447.68
579.646	1171.32
584.333	545.711
589.018	1007.87
593.7	1258.79
598.379	2003.19
603.056	2031.71
607.73	2186.61
612.402	1449.02
617.072	1201.61
621.739	598.414
626.403	250.391
631.065	79.0312
635.724	4.50391
640.381	75.8672
645.035	301.469
649.687	48.0078
654.336	412.348
658.983	385.832
663.627	277.961
668.268	269.984
672.907	397.891
677.544	448.008
682.178	337.426
686.809	333.961
691.438	341.098
696.065	665.371
700.688	698.383
705.31	451.996
709.929	537.191
714.545	43.9609
719.158	137.09
723.77	70.3711
728.378	149.219
732.984	299.918
737.588	206.309
742.189	101.25
746.787	79.7227
751.383	49.3086
755.976	89.9688
760.567	40.4883
765.155	7.32031
769.741	3.86719
774.324	36.918
778.904	327.039
783.482	121.707
788.058	117.449
792.631	410.652
797.201	78.8828
801.769	208.262
806.334	172.875
810.897	356.723
815.457	29.9805
820.014	573.375
824.569	375.617
829.122	602.297
833.671	603.445
838.219	481.035
842.763	824.066
847.306	1488.56
851.845	1066.31
856.382	1821.34
860.917	2194.24
865.448	2642.17
869.978	3414.53
874.505	4102.28
879.029	4642.57
883.55	4896.9
888.069	4566.45
892.586	5152.57
897.1	5520.68
901.611	4664.65
906.12	4675.94
910.626	5006.57
915.129	5071.77
919.63	4011.88
924.129	3304.18
928.625	2649.23
933.118	2064.55
937.609	1429.61
942.097	1426.97
946.582	738.492
951.065	769.598
955.546	727.277
960.023	346.059
964.499	196.789
968.971	300.473
973.441	794.117
977.909	1013.74
982.374	1646.14
986.836	1732.75
991.295	995.481
995.753	365.898
1000.21	202.637
1004.66	43.2852
1009.11	64.9766
1013.55	340.555
1018	67.2539
1022.44	290.035
1026.88	486.559
1031.32	765.883
1035.75	585.559
1040.18	388.606
1044.61	464.801
1049.04	547.199
1053.46	655.832
1057.88	507.731
1062.3	400.215
1066.71	685.055
1071.13	677.578
1075.54	829.598
1079.94	886.746
1084.35	907.793
1088.75	1487.12
1093.15	1859.51
1097.55	1607.96
1101.94	720.527
1106.34	303.129
1110.73	327.758
1115.11	137.402
1119.5	407.074
1123.88	361.598
1128.26	88.0078
1132.63	231.332
1137.01	109.277
1141.38	19.3242
1145.75	116.422
1150.12	78.6875
1154.48	166.531
1158.84	123.703
1163.2	194.68
1167.55	284.988
1171.91	108.238
1176.26	350.422
1180.61	188.527
1184.95	129.559
1189.29	270.496
1193.63	232.156
1197.97	193.902
1202.31	259.473
1206.64	574.93
1210.97	321.277
1215.29	509.508
1219.62	597.59
1223.94	90.5508
1228.26	179.398
1232.57	243.129
1236.89	252.734
1241.2	292.211
1245.51	251.754
1249.81	330.019
1254.12	120.93
1258.42	94.2148
1262.72	266.805
1267.01	339.644
1271.3	52.8008
1275.59	459.469
1279.88	298.231
1284.17	95.9688
1288.45	158.273
1292.73	224.934
1297.01	80.0469
1301.28	496.082
1305.55	444.266
1309.82	552.769
1314.09	236.273
1318.35	410.82
1322.61	491.398
1326.87	291.758
1331.13	241.078
1335.38	502.812
1339.63	351.199
1343.88	540.711
1348.12	548.008
1352.37	274.711
1356.61	461.731
1360.85	555.953
1365.08	514.254
1369.31	796.66
1373.54	569.168
1377.77	374.762
1381.99	348.16
1386.22	486.199
1390.43	172.117
1394.65	79.1953
1398.87	535.527
1403.08	327.297
1407.29	538.445
1411.49	160.809
1415.69	432.492
1419.89	365.031
1424.09	439.375
1428.29	395.469
1432.48	363.742
1436.67	290.434
1440.86	127.879
1445.04	528.043
1449.23	380.473
1453.4	489.078
1457.58	358.758
1461.76	219.531
1465.93	237.414
1470.1	424.387
1474.26	546.465
1478.43	198.793
1482.59	199.988
1486.75	219.695
1490.9	583.078
1495.06	286.992
1499.21	253.367
1503.35	386.047
1507.5	476.207
1511.64	463.539
1515.78	369.742
1519.92	116.691
1524.05	331.023
1528.18	346.398
1532.31	262.703
1536.44	136.426
1540.56	351.984
1544.69	385
1548.8	315.027
1552.92	202.012
1557.03	543.504
1561.14	285.844
1565.25	345.844
1569.36	90.3477
