Measurement: Raman, 514 nm, ccw, Raman Data Processed
Mineral: Clinozoisite
Rruff sample: R040085
Ideal chemistry: Ca_2_Al_3_(Si_2_O_7_)(SiO_4_)O(OH)
Locality: Alamos, Sonora, Mexico
Source: University of Arizona Mineral Museum
Description: Divergent aggregate of red thin prismatic crystals
Measured chemistry: Ca_2.03_(Al_0.90_Fe_0.13_)_3_(Si_1.00_O_4_)(Si_2.00_O_7_)O(OH)
Pin_id: M00391
Orientation: Laser parallel to c* (0 0 1). Fiducial mark perpendicular to laser is parallel to a [1 0 0]
Raman shift (cm-1)	intensity
185.622	0
190.512	214.764
195.4	249.982
200.286	236.18
205.169	675.725
210.049	916.314
214.928	1553.45
219.803	1702.11
224.677	2293.06
229.548	3586.36
234.416	4461.35
239.282	3667.67
244.146	3057.37
249.007	3101.48
253.866	2542.05
258.722	2412.87
263.576	1294.51
268.427	1916.11
273.276	2271.69
278.123	1487.7
282.967	862.867
287.809	991.771
292.648	714.475
297.485	880.729
302.319	1070.12
307.151	1636.97
311.98	1818.08
316.807	1652.25
321.631	1085.37
326.454	1572.53
331.273	2484.75
336.09	4025.72
340.905	6115.93
345.717	9067.6
350.527	11319.5
355.334	8667.7
360.139	4179.84
364.941	1794.47
369.741	593.309
374.538	99.8008
379.333	157.613
384.126	315.836
388.916	72.0547
393.703	453.477
398.488	569.398
403.271	326.762
408.051	250.547
412.828	167.188
417.603	1069.84
422.376	2957.48
427.146	4359.14
431.914	3698.01
436.679	3773.4
441.442	5109.29
446.202	7983.39
450.96	9874.21
455.715	9104.3
460.467	7359.81
465.218	5953.43
469.965	5953.45
474.711	5559.73
479.454	5047.64
484.194	4334.76
488.932	3258.72
493.667	2492.34
498.4	2639.72
503.13	3497.87
507.858	3460.69
512.583	2974.36
517.306	2563.65
522.026	1868.24
526.744	1337.99
531.459	541.977
536.172	240.809
540.882	429.562
545.59	696.777
550.295	1047.85
554.998	1954.48
559.698	4157.25
564.396	10320.3
569.091	19342.9
573.784	16086
578.474	7317.47
583.162	4504.71
587.847	5078.96
592.529	7044.79
597.209	9312.05
601.887	12003.3
606.562	11602.7
611.235	7763.05
615.905	5068.17
620.572	3419.13
625.237	2447.95
629.9	1657.64
634.56	1364.45
639.217	1302.53
643.872	1757.74
648.524	2060.81
653.174	2586.32
657.821	2657.25
662.466	2043.38
667.108	1276.88
671.748	1063.86
676.385	1031.24
681.02	1100.4
685.652	1082.32
690.281	1091.3
694.908	1508.09
699.533	1840
704.155	1766.62
708.774	796.918
713.391	473.887
718.005	207.508
722.617	116.492
727.226	14.4062
731.833	2.58984
736.437	127.113
741.039	59.0156
745.638	193.184
750.234	84.2852
754.828	8.09375
759.419	59.6016
764.008	42.8711
768.595	334.984
773.178	88.4141
777.759	40.0391
782.338	274.734
786.914	216.281
791.488	171.477
796.059	165.539
800.627	85.2188
805.193	86.5273
809.756	341.473
814.317	198.051
818.875	526.281
823.431	876.164
827.984	1219.71
832.534	1555.93
837.082	1674.8
841.627	1433.35
846.17	1790.57
850.71	2050.79
855.248	2284.16
859.783	2899.76
864.316	2948.13
868.846	3507.26
873.373	4679.07
877.898	6075.04
882.42	6647.84
886.94	6506.51
891.457	6552.2
895.971	7591.47
900.483	10463
904.993	15257.6
909.5	20586.1
914.004	22518.6
918.505	20218.4
923.004	16783.2
927.501	13938.5
931.995	11021.5
936.486	7838.71
940.975	5136.47
945.461	3538.59
949.945	2698.07
954.426	2281.9
958.904	2449.12
963.38	2320.71
967.853	2260.68
972.324	2630.03
976.792	3816.79
981.258	6078.96
985.72	6305.54
990.181	4208.53
994.639	2143.22
999.094	1540.64
1003.55	1069.01
1008	396.324
1012.44	113.473
1016.89	157.723
1021.33	251.816
1025.77	592.469
1030.21	805.664
1034.64	983.863
1039.07	1125.26
1043.5	1772.43
1047.93	2188.22
1052.35	1302.01
1056.78	774.859
1061.19	450.312
1065.61	493.324
1070.02	630.398
1074.43	644.883
1078.84	1387.33
1083.25	2014.48
1087.65	3420.97
1092.05	5732.08
1096.45	4678.35
1100.85	2262.23
1105.24	1241.15
1109.63	531.566
1114.02	402.586
1118.4	543.906
1122.78	27.7891
1127.16	278.141
1131.54	0.773438
1135.92	232.176
1140.29	322.754
1144.66	157.543
1149.02	130.051
1153.39	10.9531
1157.75	158.195
1162.11	63.3125
1166.46	401.328
1170.82	304.766
1175.17	41.9258
1179.52	173.75
1183.86	383.098
1188.21	172.102
1192.55	22.6953
1196.89	19.0898
1201.22	161.992
1205.55	288.684
1209.88	119.898
1214.21	432.754
1218.54	45.8594
1222.86	355.652
1227.18	531.055
1231.5	568.578
1235.81	116.527
1240.12	458.344
1244.43	217.152
1248.74	508.977
1253.04	180.539
1257.34	219.922
1261.64	326.078
1265.94	295.078
1270.23	245.836
1274.52	436.398
1278.81	320.289
1283.1	253.559
1287.38	556.711
1291.66	17.1641
1295.94	218.191
1300.21	519.055
1304.48	458.762
1308.75	481.707
1313.02	809.394
1317.29	312.898
1321.55	697.309
1325.81	245.977
1330.06	269.445
1334.32	357.328
1338.57	140.5
1342.82	290.402
1347.06	411.129
1351.31	308.117
1355.55	395.336
1359.79	247.82
1364.02	75.0195
1368.26	377.777
1372.49	397.152
1376.71	16.5664
1380.94	428.371
1385.16	256.816
1389.38	280.492
1393.6	19.2148
1397.81	416.004
1402.02	451.422
1406.23	252.414
1410.44	245.004
1414.64	287.738
1418.85	100.246
1423.04	201.957
1427.24	290.652
1431.43	293.996
1435.62	217.926
1439.81	893.965
1444	824.246
1448.18	1076.23
1452.36	962.277
1456.54	1063.5
1460.71	597.93
1464.89	637.465
1469.06	506.914
1473.22	594.492
1477.39	855.125
1481.55	529.945
1485.71	154.227
1489.86	298.09
1494.02	407.047
1498.17	29.7109
1502.32	308.715
1506.46	277.371
1510.61	145.074
1514.75	424.156
1518.88	496.176
1523.02	153.059
1527.15	5.92188
1531.28	622.91
1535.41	136.559
1539.53	342.769
1543.66	569.078
1547.78	413.481
1551.89	492.84
1556.01	57.1445
1560.12	591.844
1564.23	11.5781
1568.33	262.828
1572.43	0
