Measurement: Raman, 514 nm, ccw, Raman Data Processed
Mineral: Clinozoisite
Rruff sample: R040085
Ideal chemistry: Ca_2_Al_3_(Si_2_O_7_)(SiO_4_)O(OH)
Locality: Alamos, Sonora, Mexico
Source: University of Arizona Mineral Museum
Description: Divergent aggregate of red thin prismatic crystals
Measured chemistry: Ca_2.03_(Al_0.90_Fe_0.13_)_3_(Si_1.00_O_4_)(Si_2.00_O_7_)O(OH)
Pin_id: S00323
Orientation: Laser parallel to a* (1 0 0). Fiducial mark perpendicular to laser is parallel to b [0 1 0]
Raman shift (cm-1)	intensity
130.055	0
132.843	479.988
135.631	508.553
138.417	994.613
141.203	1117.46
143.988	1297.04
146.771	1136.56
149.554	1068.04
152.336	976.789
155.117	937.439
157.896	979.631
160.675	1482.86
163.453	1847.86
166.23	1949.29
169.006	2097.93
171.781	1664.81
174.555	1279.82
177.328	1078.55
180.1	624.004
182.871	702.041
185.641	541.129
188.41	291.184
191.178	152.123
193.945	203.939
196.711	16.957
199.476	129.037
202.241	33.857
205.004	107.895
207.766	111.455
210.528	14.549
213.288	17.217
216.048	20.146
218.806	95.58
221.564	75.342
224.32	26.678
227.076	141.604
229.83	250.195
232.584	249.1
235.337	478.307
238.088	897.809
240.839	837.609
243.589	1687.71
246.338	2548.12
249.086	3128.73
251.833	3909.51
254.579	3950.42
257.324	3477.73
260.068	3143.25
262.811	2171.25
265.553	2093.02
268.294	1676.28
271.035	1578.46
273.774	1184.02
276.512	1026.55
279.25	1039.39
281.986	812.545
284.721	625.99
287.456	539.721
290.19	523.738
292.922	858.029
295.654	808.627
298.385	835.857
301.114	885.232
303.843	445.719
306.571	597.021
309.298	248.973
312.024	351.465
314.749	324.379
317.473	277.684
320.196	381.367
322.919	445.359
325.64	549.691
328.36	754.334
331.08	1039.07
333.798	1043.83
336.516	1438.67
339.232	1603.76
341.948	1969.11
344.662	2254.62
347.376	3270.38
350.089	3976.38
352.801	4182.6
355.512	3809.06
358.222	2775.6
360.931	1782.5
363.639	964.854
366.346	741.121
369.052	524.766
371.757	278.178
374.462	223.205
377.165	160.715
379.868	118.822
382.569	72.883
385.27	64.457
387.969	36.594
390.668	152.258
393.366	128.867
396.063	120.121
398.759	69.26
401.454	98.684
404.148	178.26
406.841	48.049
409.533	78.086
412.224	91.715
414.915	28.6
417.604	144.236
420.293	229.662
422.98	370.398
425.667	681.434
428.353	952.578
431.037	963.803
433.721	1095.11
436.404	1196.43
439.086	1377.87
441.767	2089.43
444.448	2561.12
447.127	3612.92
449.805	5424.85
452.482	6286.9
455.159	5999.12
457.834	4701.51
460.509	3944.11
463.183	3076.92
465.856	2539.9
468.527	2374.82
471.198	2309.93
473.868	2133.36
476.538	2007.31
479.206	2324.17
481.873	2049.31
484.539	2193.74
487.205	2268.51
489.869	1536.83
492.533	1381.06
495.196	1375.39
497.857	1199.84
500.518	1024.41
503.178	969.08
505.837	1143.89
508.495	1268.84
511.153	1413.88
513.809	1449
516.464	1834.29
519.119	1641.9
521.772	1667.23
524.425	1442.64
527.077	1738.14
529.728	1413.72
532.377	1289.4
535.027	925.174
537.675	631
540.322	576.883
542.968	248.094
545.613	321.914
548.258	53.186
550.902	62.855
553.544	43.768
556.186	299.885
558.827	121.395
561.467	387.891
564.106	1104.5
566.744	1755.41
569.381	2802.47
572.018	3073.48
574.653	2608.27
577.288	1735.25
579.921	963.201
582.554	663.314
585.186	269.629
587.817	646.785
590.447	343.09
593.076	459.391
595.704	876.367
598.331	632.652
600.958	939.084
603.583	1085.74
606.208	992.875
608.832	1019.52
611.455	924.666
614.077	749.41
616.698	595.641
619.318	307.092
621.937	146.547
624.556	294.219
627.173	250.389
629.79	161.402
632.405	77.426
635.02	146.76
637.634	69.525
640.247	74.984
642.859	136.98
645.471	240.385
648.081	167.023
650.691	332.273
653.299	397.254
655.907	380.9
658.514	386.656
661.12	361.369
663.725	560.268
666.329	374.84
668.932	380.943
671.534	95.559
674.136	19.898
676.737	194.119
679.336	318.297
681.935	342.686
684.533	396.711
687.13	490.609
689.726	494.422
692.322	518.146
694.916	331.787
697.51	425.342
700.102	378.84
702.694	342.27
705.285	613.055
707.875	236.363
710.464	379.609
713.052	452.797
715.64	205.754
718.226	91.516
720.812	168.969
723.397	106.766
725.981	175.152
728.564	337.004
731.146	98.746
733.727	119.617
736.308	161.723
738.887	372.758
741.466	93.492
744.043	244.113
746.62	314.641
749.196	105.062
751.771	215.379
754.346	275.594
756.919	165.707
759.492	95.719
762.063	125.609
764.634	275.391
767.204	334.996
769.773	75.57
772.341	173.609
774.909	412.645
777.475	261.504
780.041	300.219
782.605	22.973
785.169	163.613
787.732	201.926
790.294	88.617
792.856	214.629
795.416	61.324
797.976	29.332
800.534	36.996
803.092	110.438
805.649	158.004
808.205	94.539
810.76	332.707
813.315	250.254
815.868	192.68
818.421	484.066
820.972	10.742
823.523	317.309
826.073	193.707
828.623	227.781
831.171	164.129
833.718	320.402
836.265	596.617
838.811	372.773
841.356	588.871
843.9	354.906
846.443	700.887
848.985	816.816
851.527	532.715
854.067	658.59
856.607	468.52
859.146	964.301
861.684	1400.04
864.221	1136.65
866.757	1312.29
869.293	2162.52
871.828	2577.95
874.361	2878.76
876.894	3063.38
879.426	3028.74
881.958	3079.38
884.488	2833.96
887.018	2557.53
889.546	2002.67
892.074	2214.04
894.601	2348.29
897.127	2253.36
899.652	1658.39
902.177	1622.73
904.7	1977.69
907.223	1632.64
909.745	1747.32
912.266	1621.1
914.786	1595.53
917.306	1350.4
919.824	1466.33
922.342	1132.56
924.859	1197.3
927.375	976.953
929.89	1108.46
932.404	421.738
934.918	791.391
937.43	546.176
939.942	571.137
942.453	495.402
944.963	340.406
947.472	594.422
949.981	926.457
952.488	579.625
954.995	394.352
957.501	339.574
960.006	486.648
962.51	661.484
965.014	415.926
967.516	337.141
970.018	442.715
972.519	397.664
975.019	403.316
977.518	368.844
980.017	694.824
982.514	1240.68
985.011	1587.64
987.507	1243.39
990.002	541.211
992.496	757.5
994.989	814.793
997.482	572.004
999.974	38.633
1002.46	221.801
1004.95	388.699
1007.44	285.891
1009.93	232.879
1012.42	49.07
1014.91	347.738
1017.39	423.938
1019.88	589.703
1022.36	497.668
1024.85	340.215
1027.33	465.562
1029.81	510.973
1032.29	476.715
1034.77	412.816
1037.25	608.961
1039.73	425.152
1042.21	531.395
1044.68	597.723
1047.16	854.246
1049.63	891.094
1052.11	928.168
1054.58	435.43
1057.05	1082.86
1059.53	1090.4
1062	726.387
1064.47	444.254
1066.94	332.348
1069.4	800.117
1071.87	658.93
1074.34	257.926
1076.81	597.07
1079.27	1166.36
1081.74	985.762
1084.2	1105.29
1086.66	1304.88
1089.12	1457.06
1091.59	1706.52
1094.05	1514.36
1096.51	904.027
1098.96	913.934
1101.42	1004.16
1103.88	464.684
1106.34	735.508
1108.79	606.656
1111.25	638.145
1113.7	399.953
1116.15	27.895
1118.61	644.711
1121.06	717.703
1123.51	601.074
1125.96	104.809
1128.41	168.949
1130.86	283.793
1133.3	619.57
1135.75	23.879
1138.19	293.453
1140.64	641.668
1143.08	990.875
1145.53	605.262
1147.97	73.777
1150.41	937.309
1152.85	743.031
1155.29	540.996
1157.73	565.723
1160.17	1025.39
1162.61	742.812
1165.05	347.098
1167.48	0.773
1169.92	0
