Measurement: Raman, 514 nm, ccw, Raman Data Processed
Mineral: Clinohumite
Rruff sample: R040122
Ideal chemistry: Mg_9_(SiO_4_)_4_F_2_
Locality: Anzahamazonono,  Madagascar
Source: University of Arizona Mineral Museum
Description: Orange-brown blebs embedded in calcite matrix
Measured chemistry: (Mg_0.96_Fe_0.02_Ti_0.01_Ca_0.01_)_9_(SiO_4_)_4_(F_0.59_(OH)_0.41_)_2_
Pin_id: M00157
Orientation: Laser parallel to (0 1 1). Fiducial mark perpendicular to laser is parallel to a [1 0 0]
Raman shift (cm-1)	intensity
54.966	0
59.164	58.085
63.36	144.371
67.554	111.323
71.747	161.43
75.937	234.357
80.125	67.926
84.311	141.918
88.496	193.524
92.678	385.488
96.858	237.048
101.036	169.977
105.212	142.143
109.387	187.193
113.559	94.609
117.729	227.362
121.897	13.582
126.063	26.254
130.228	4.32
134.39	1.878
138.55	27.944
142.709	26.475
146.865	10.888
151.019	41.005
155.171	124.094
159.322	126.324
163.47	263.628
167.617	323.995
171.761	351.555
175.904	581.219
180.044	879.019
184.183	1094.84
188.319	997.753
192.454	1022.73
196.586	1537.8
200.717	1908.97
204.846	1791.21
208.972	1412.55
213.097	1010
217.22	940.597
221.341	1253.91
225.46	1738
229.577	2233.37
233.692	2454.7
237.805	2449.93
241.916	2294.01
246.025	2008.89
250.132	1982.62
254.237	2146.24
258.34	2069.56
262.442	1707.47
266.541	1595.06
270.639	1340.69
274.734	1054.43
278.828	1001.33
282.919	1085.81
287.009	1184.37
291.097	1171.95
295.183	1118.78
299.266	1045.3
303.348	1236.97
307.428	1627.49
311.507	2169.31
315.583	2768.51
319.657	3589.88
323.729	3307.43
327.8	2127.95
331.868	1556.78
335.935	1210.7
339.999	963.529
344.062	711.343
348.123	527.404
352.182	457.729
356.239	355.315
360.294	264.123
364.347	148.205
368.398	142.625
372.448	91.285
376.495	68.072
380.54	52.964
384.584	112.973
388.626	229.989
392.666	357.956
396.704	228.872
400.74	179.732
404.774	185.536
408.806	313.283
412.836	477.971
416.865	569.6
420.891	810.167
424.916	424.677
428.939	292.13
432.959	174.525
436.978	58.856
440.996	50.12
445.011	17.734
449.024	14.751
453.036	2.875
457.045	42.109
461.053	39.543
465.059	30.888
469.063	14.194
473.065	35.359
477.065	71.407
481.063	30.356
485.06	114.201
489.054	36.941
493.047	8.432
497.038	18.854
501.027	113.053
505.014	157.685
508.999	249.134
512.982	257.58
516.964	226.392
520.944	268.839
524.921	310.285
528.897	284.992
532.871	366.703
536.844	366.203
540.814	381.756
544.783	432.164
548.749	541.709
552.714	507.376
556.677	315.143
560.638	347.687
564.597	375.01
568.555	487.113
572.511	577.998
576.464	644.665
580.416	810.117
584.366	1119.36
588.315	1582.39
592.261	2424.21
596.206	3787.82
600.148	6823.17
604.089	11255.5
608.028	14552.3
611.965	11800.9
615.901	6710.05
619.834	3662.84
623.766	2084.95
627.696	1308.75
631.624	817.221
635.551	557.955
639.475	347.593
643.398	238.143
647.318	128.531
651.237	6.362
655.155	5.566
659.07	53.979
662.984	38.603
666.895	69.797
670.805	137.599
674.713	19.024
678.62	128.925
682.524	124.627
686.427	49.893
690.328	72.672
694.227	34.784
698.124	56.19
702.02	33.13
705.913	9.392
709.805	76.637
713.695	146.879
717.584	292.126
721.47	527.387
725.355	696.672
729.238	916.989
733.119	1278.35
736.998	1520.76
740.876	2132.23
744.752	2670.77
748.626	3136.39
752.498	3260.1
756.368	2929.9
760.237	2632.86
764.104	2208
767.969	2203.32
771.832	2651.19
775.693	3833.28
779.553	6049.69
783.411	9112.46
787.267	8961.56
791.122	6834.86
794.974	5732.35
798.825	6032.01
802.674	8177.86
806.522	11348.9
810.367	12701.6
814.211	12651.8
818.053	14000.5
821.893	18310.6
825.732	30992.6
829.568	46922.1
833.403	41650.8
837.236	29988.9
841.068	31678.4
844.898	40050.9
848.726	38347.7
852.552	31284
856.376	36309.7
860.199	47853.7
864.02	37188
867.839	21381.7
871.656	13404.8
875.472	9618.3
879.286	7212.2
883.098	5307.53
886.909	3910.28
890.717	3160.45
894.524	2519
898.33	2069.94
902.133	1844.26
905.935	1636.96
909.735	1428.9
913.533	1295.22
917.33	1235.81
921.124	1283.24
924.918	1217.03
928.709	1054.89
932.499	939.61
936.286	802.608
940.073	744.043
943.857	723.487
947.64	764.921
951.421	1025.65
955.2	1327.72
958.978	2327.57
962.753	5168.69
966.527	11064.8
970.3	11840.2
974.071	7249.6
977.84	4481.24
981.607	2676.78
985.372	1705.99
989.136	1249.86
992.898	954.406
996.659	764.82
1000.42	802.336
1004.17	682.441
1007.93	681.022
1011.68	726.818
1015.43	678.292
1019.18	530.665
1022.93	419.916
1026.68	513.552
1030.42	490.021
1034.17	465.527
1037.91	451.424
1041.65	373.51
1045.39	296.167
1049.12	274.911
1052.86	191.887
1056.59	127.826
1060.33	11.478
1064.06	76.568
1067.78	115.308
1071.51	129.521
1075.23	57.982
1078.96	55.792
1082.68	86.922
1086.4	35.559
1090.12	36.769
1093.83	43.849
1097.55	141.84
1101.26	42.733
1104.97	43.585
1108.68	55.754
1112.39	23.539
1116.1	49.356
1119.8	52.439
1123.5	102.889
1127.2	25.284
1130.9	4.797
1134.6	14.706
1138.3	46.192
1141.99	4.372
1145.69	33.746
1149.38	46.064
1153.07	32.963
1156.76	46.307
1160.44	63.608
1164.13	64.743
1167.81	126.131
1171.49	59.634
1175.17	42.603
1178.85	51.021
1182.52	61.715
1186.2	108.341
1189.87	88.993
1193.54	159.739
1197.21	226.68
1200.88	147.22
1204.55	189.599
1208.21	156.674
1211.88	186.732
1215.54	262.858
1219.2	209.023
1222.86	217.386
1226.51	283.624
1230.17	246.845
1233.82	258.378
1237.47	229.788
1241.12	294.693
1244.77	269.822
1248.42	188.166
1252.06	250.454
1255.71	302.397
1259.35	179.002
1262.99	156.878
1266.63	225.464
1270.26	168.118
1273.9	188.644
1277.53	131.079
1281.16	187.363
1284.8	164.06
1288.42	158.087
1292.05	98.394
1295.68	89.075
1299.3	1.315
1302.92	85.697
1306.55	93.256
1310.16	129.82
1313.78	95.708
1317.4	95.19
1321.01	56.222
1324.62	22.945
1328.24	48.581
1331.85	17.161
1335.45	42.137
1339.06	51.234
1342.66	81.574
1346.27	114.925
1349.87	75.504
1353.47	55.745
1357.07	31.783
1360.66	153.316
1364.26	76.681
1367.85	37.789
1371.44	71.954
1375.04	114.304
1378.62	114.758
1382.21	105.232
1385.8	94.778
1389.38	65.517
1392.96	93.87
1396.54	80.951
1400.12	55.521
1403.7	50.832
1407.28	19.541
1410.85	60.421
1414.42	121.394
1417.99	60.202
1421.56	163.451
1425.13	11.003
1428.7	89.398
1432.26	31.095
1435.83	85.909
1439.39	197.742
1442.95	39.502
1446.51	125.324
1450.06	50.107
1453.62	121.682
1457.17	95.659
1460.73	145.262
1464.28	98.845
1467.83	73.026
1471.37	117.626
1474.92	78.505
1478.46	112.991
1482.01	22.579
1485.55	144.533
1489.09	82.481
1492.63	58.974
1496.16	91.081
1499.7	14.577
1503.23	98.145
1506.76	86.351
1510.29	17.191
1513.82	11.569
1517.35	37.931
1520.88	47.725
1524.4	27.059
