Measurement: Raman, 514 nm, ccw, Raman Data Processed
Mineral: Clinochlore
Rruff sample: R060725
Ideal chemistry: Mg_5_Al(AlSi_3_O_10_)(OH)_8_
Locality: Crestmore Quarry, Riverside, California, USA
Source: Bob Jenkins
Description: Green transparent books of mica
Measured chemistry: (Mg_4.65_Al_1.12_Fe^2+^_0.17_[box]_0.06_)_Σ=6_(Si_3.00_Al_1.00_)_Σ=4_O_10_(OH)_8_
Pin_id: L01861
Raman shift (cm-1)	intensity
184.341	0
189.243	99.0161
194.143	255.912
199.04	696.599
203.935	1344.59
208.827	1166.31
213.716	460.557
218.602	248.852
223.486	76.8274
228.367	135.39
233.245	79.479
238.12	112.515
242.993	30.3076
247.863	37.7581
252.731	5.14453
257.596	43.3389
262.458	20.8481
267.317	32.2661
272.174	128.911
277.028	214.97
281.879	302.338
286.728	179.011
291.574	103.693
296.417	79.4131
301.258	65.272
306.096	59.5251
310.931	55.1733
315.764	178.208
320.594	299.825
325.421	250.301
330.246	299.858
335.068	417.631
339.887	673.236
344.703	1099.95
349.517	2178.63
354.329	3379.19
359.137	3416.75
363.943	2066.86
368.746	1089.69
373.547	647.47
378.345	582.356
383.14	453.728
387.932	554.37
392.722	493.213
397.51	331.269
402.294	123.932
407.076	179.124
411.855	230.933
416.632	210.025
421.406	320.329
426.177	395.84
430.946	439.555
435.712	433.473
440.475	380.006
445.236	396.921
449.994	456.639
454.75	561.799
459.502	746.478
464.253	680.065
469	492.227
473.745	236.477
478.487	164.201
483.227	135.776
487.964	164.465
492.698	120.595
497.43	165.523
502.159	205.569
506.885	219.748
511.609	342.058
516.33	446.498
521.049	591.066
525.764	889.759
530.478	1064.57
535.188	1318.56
539.896	1572.8
544.602	2571.18
549.304	4227.74
554.004	4047.47
558.702	1844.31
563.397	920.221
568.089	518.28
572.779	329.442
577.466	195.691
582.15	123.007
586.832	26.5781
591.511	41.1753
596.188	9.06006
600.862	37.835
605.533	64.0898
610.202	9.68799
614.868	51.332
619.531	15.8857
624.192	122.156
628.85	0.45752
633.506	125.775
638.159	179.736
642.81	233.083
647.457	319.385
652.103	587.997
656.745	958.163
661.385	1383.55
666.023	1936.2
670.658	2869.58
675.29	3664.32
679.92	4195.68
684.547	4109.27
689.171	3487.58
693.793	2688.19
698.413	2082.71
703.029	1525.31
707.643	1220.23
712.255	964.15
716.864	715.671
721.47	577.719
726.074	443.092
730.675	386.905
735.274	288.659
739.87	224.135
744.463	162.463
749.054	245.211
753.643	226.035
758.228	167.079
762.812	163.209
767.392	88.2671
771.97	4.04053
776.546	71.6064
781.118	8.37891
785.689	126.19
790.256	61.8877
794.822	79.2647
799.384	8.76855
803.944	61.2422
808.502	140.69
813.057	108.086
817.609	44.4077
822.159	60.6997
826.706	76.9419
831.251	20.1245
835.793	67.2788
840.332	71.585
844.869	8.63818
849.404	19.7319
853.936	68.1118
858.465	32.0552
862.992	85.6592
867.516	85.417
872.037	113.312
876.557	11.6709
881.073	43.5303
885.587	31.8828
890.099	67.3027
894.608	35.1484
899.114	9.32471
903.618	95.7949
908.119	45.6313
912.618	159.11
917.114	138.663
921.608	89.105
926.099	76.5513
930.588	121.003
935.074	156.424
939.557	129.681
944.038	195.184
948.517	116.443
952.993	169.14
957.466	174.593
961.937	195.312
966.405	196.458
970.871	211.216
975.334	247.882
979.795	246.943
984.253	268.309
988.709	168.147
993.162	236.921
997.613	245.298
1002.06	230.297
1006.51	128.404
1010.95	148.991
1015.39	212.998
1019.83	61.9868
1024.26	204.3
1028.7	269.123
1033.13	143.16
1037.56	308.592
1041.98	404.654
1046.4	371.672
1050.83	431.668
1055.24	462.675
1059.66	245.775
1064.07	473.718
1068.48	327.495
1072.89	482.559
1077.3	494.248
1081.7	819.268
1086.1	865.18
1090.5	618.466
1094.89	355.349
1099.29	223.358
1103.68	181.193
1108.06	37.04
1112.45	76.0239
1116.83	94.9316
1121.21	85.7852
1125.59	10.4077
1129.97	31.3623
1134.34	59.8301
1138.71	50.0806
1143.08	53.6792
1147.44	14.7515
1151.81	6.3374
1156.17	46.7446
1160.53	89.8994
1164.88	49.0425
1169.23	152.15
1173.59	64.2022
1177.93	2.1919
1182.28	110.138
1186.62	64.0513
1190.96	92.9209
1195.3	94.7446
1199.64	21.519
1203.97	67.2246
1208.3	34.8062
1212.63	175.085
1216.96	6.26318
1221.28	46.3901
1225.6	40.4756
1229.92	107.52
1234.24	81.4722
1238.55	12.3701
1242.86	152.208
1247.17	134.029
1251.47	40.1943
1255.78	23.3638
1260.08	49.9815
1264.38	0.510254
1268.68	87.2148
1272.97	148.759
1277.26	137.107
1281.55	10.9497
1285.84	122.389
1290.12	67.9321
1294.4	94.6602
1298.68	110.039
1302.96	67.4404
1307.23	128.639
1311.51	104.912
1315.78	164.305
1320.04	119.583
1324.31	71.9966
1328.57	150.499
1332.83	108.831
1337.09	58.4605
1341.34	92.7969
1345.59	59.0884
1349.84	57.0732
1354.09	128.85
1358.34	20.2334
1362.58	58.791
1366.82	38.2568
1371.06	134.873
1375.29	160.461
1379.52	91.3638
1383.75	119.079
1387.98	1.78711
1392.21	38.5996
1396.43	122.373
1400.65	128.127
1404.87	116.234
1409.09	113.83
1413.3	111.322
1417.51	90.7358
1421.72	42.8433
1425.93	104.736
1430.13	174.399
1434.33	98.0273
1438.53	143.981
1442.73	143.936
1446.92	103.939
1451.11	171.076
1455.3	190.655
1459.49	114.33
1463.67	82.1387
1467.86	201.093
1472.04	73.1743
1476.21	76.4702
1480.39	110.445
1484.56	197.727
1488.73	87.0532
1492.9	74.0122
1497.06	54.5488
1501.23	138.294
1505.39	41.3281
1509.55	160.619
1513.7	1.14648
1517.85	126.918
1522	145.833
1526.15	115.194
1530.3	60.9155
1534.44	95.9624
1538.58	82.3828
1542.72	82.3945
1546.86	154.83
1550.99	105.873
1555.13	62.1519
1559.26	30.2651
