Measurement: Raman, 514 nm, ccw, Raman Data Processed
Mineral: Clinozoisite
Rruff sample: R060284
Ideal chemistry: Ca_2_Al_3_(Si_2_O_7_)(SiO_4_)O(OH)
Locality: near Zagi Mountain, Khaffor Dehri, North-West Frontier Province, Pakistan
Source: Herb Obodda
Description: Greenish-brown fragment of a prismatic crystal
Measured chemistry: Ca_2.00_(Al_0.90_Fe^3+^_0.10_)_3_(Si_1.00_O_4_)(Si_2.00_O_7_)O(OH)
Pin_id: L00766
Orientation: Laser parallel to b* (0 1 0). Fiducial mark perpendicular to laser is parallel to c [0 0 1]
Raman shift (cm-1)	intensity
118.134	0
123.058	150.375
127.979	2017.59
132.898	6513.16
137.814	11667.8
142.728	13583.6
147.639	11986.6
152.549	10539.9
157.455	12045.2
162.359	16710.8
167.261	19396.3
172.161	16609.3
177.058	10095.5
181.952	5437.4
186.845	2575.99
191.734	977.482
196.622	362.421
201.507	88.5879
206.389	197.622
211.269	231.393
216.147	217.244
221.022	228.285
225.895	650.746
230.765	2316.23
235.633	5443.93
240.498	11408.7
245.361	21321.5
250.222	33400.7
255.08	38267.2
259.936	29996.7
264.789	18631.5
269.64	12559.2
274.488	9076.82
279.334	6793.82
284.178	5315.26
289.019	4970.77
293.857	5217.66
298.693	5270.06
303.527	4542.27
308.358	3274.82
313.187	2666.58
318.013	2989.3
322.837	4098.62
327.659	6648.78
332.478	10303.7
337.294	13998.1
342.108	19911
346.92	29088.6
351.729	34958.3
356.535	26204.1
361.34	12398.9
366.141	5053.92
370.94	2026.7
375.737	187.919
380.531	381.7
385.323	333.045
390.113	311.239
394.9	488.651
399.684	333.031
404.466	358.072
409.245	413.063
414.022	298.022
418.797	2303.44
423.569	5225.32
428.338	7912.33
433.105	10105.2
437.87	14507.2
442.632	25272.5
447.391	41604.5
452.149	51219.2
456.903	42611
461.655	27156.7
466.405	19268.6
471.152	17209.9
475.897	17762.7
480.639	19139.8
485.378	19002
490.116	15190.4
494.85	10782.2
499.582	8961.94
504.312	9856.04
509.039	11691.5
513.764	14856.8
518.486	17219.5
523.206	17258.5
527.923	16358.5
532.638	11508.7
537.35	5421.04
542.059	2274.44
546.766	1472.85
551.471	1587.48
556.173	3173.21
560.873	7232.76
565.57	16084.3
570.264	25754.8
574.957	19317.2
579.646	6614.69
584.333	2982.61
589.018	2947.68
593.7	3891.59
598.379	5433.69
603.056	7043.56
607.73	6644.13
612.402	4012.01
617.072	2069.75
621.739	917.112
626.403	378.899
631.065	26.0068
635.724	147.668
640.381	123.105
645.035	210.339
649.687	1047.58
654.336	1993.52
658.983	2228.02
663.627	1503.71
668.268	988.547
672.907	918.172
677.544	1014.09
682.178	1487.78
686.809	1890.52
691.438	1882.66
696.065	2069.87
700.688	2246.15
705.31	1824.44
709.929	1087.68
714.545	420.399
719.158	78.9092
723.77	8.69043
728.378	19.6895
732.984	144.387
737.588	34.9238
742.189	6.33301
746.787	150.234
751.383	82.0576
755.976	126.661
760.567	36.3926
765.155	107.304
769.741	58.5703
774.324	4.74707
778.904	2.96191
783.482	180.238
788.058	105.676
792.631	17.2539
797.201	86.1406
801.769	166.504
806.334	186.455
810.897	411.021
815.457	489.282
820.014	738.278
824.569	1057.02
829.122	1256.53
833.671	1559.79
838.219	1810.82
842.763	2436.45
847.306	3203.43
851.845	4189.83
856.382	5955.11
860.917	7641.29
865.448	9746.52
869.978	13548.8
874.505	19180.7
879.029	23123.3
883.55	20965.5
888.069	14184.4
892.586	9343.05
897.1	7266.29
901.611	6898.76
906.12	8068.18
910.626	9850.86
915.129	9907.35
919.63	7314.45
924.129	4825.46
928.625	3093.94
933.118	2199.06
937.609	1629.41
942.097	1120.62
946.582	727.614
951.065	546.743
955.546	428.267
960.023	620.693
964.499	857.606
968.971	1244.87
973.441	2337.55
977.909	4379.63
982.374	7635.13
986.836	7972.08
991.295	5198.62
995.753	2493.42
1000.21	1445.1
1004.66	595.394
1009.11	295.8
1013.55	2.48047
1018	157.136
1022.44	396.856
1026.88	567.702
1031.32	738.284
1035.75	971.091
1040.18	1391.91
1044.61	1740.88
1049.04	1943.72
1053.46	1708.78
1057.88	1653.12
1062.3	2066.06
1066.71	2271.37
1071.13	2535.84
1075.54	2773.97
1079.94	3576.13
1084.35	5148.28
1088.75	7884.29
1093.15	9806.72
1097.55	6915.59
1101.94	3080.64
1106.34	1942.27
1110.73	1430.28
1115.11	1044.43
1119.5	1062.96
1123.88	788.111
1128.26	434.455
1132.63	136.719
1137.01	125.018
1141.38	23.2959
1145.75	141.654
1150.12	70.6025
1154.48	5.56055
1158.84	45.3857
1163.2	92.4209
1167.55	99.0859
1171.91	74.7998
1176.26	36.044
1180.61	19.0869
1184.95	47.6895
1189.29	33.0185
1193.63	85.9072
1197.97	81.5371
1202.31	248.108
1206.64	181.608
1210.97	7.18262
1215.29	57.4941
1219.62	13.3623
1223.94	53.7959
1228.26	26.7549
1232.57	51.9307
1236.89	40.9902
1241.2	40.4463
1245.51	106.362
1249.81	137.573
1254.12	2.71973
1258.42	85.417
1262.72	4.30078
1267.01	191.555
1271.3	2.76953
1275.59	203.756
1279.88	85.0644
1284.17	106.596
1288.45	37.7275
1292.73	230.709
1297.01	98.2412
1301.28	53.3096
1305.55	121.293
1309.82	172.81
1314.09	300.616
1318.35	257.634
1322.61	266.521
1326.87	149.48
1331.13	283.707
1335.38	187.613
1339.63	208.344
1343.88	142.288
1348.12	258.35
1352.37	260.927
1356.61	348.115
1360.85	229.249
1365.08	272.446
1369.31	173.598
1373.54	192.728
1377.77	330.217
1381.99	220.99
1386.22	125.112
1390.43	129.871
1394.65	185.164
1398.87	139.135
1403.08	265.591
1407.29	290.937
1411.49	140.988
1415.69	245.116
1419.89	755.735
1424.09	122.183
1428.29	8.07715
1432.48	252.724
1436.67	237.846
1440.86	243.336
1445.04	299.751
1449.23	352.006
1453.4	327.613
1457.58	228.923
1461.76	246.34
1465.93	242.06
1470.1	215.53
1474.26	148.434
1478.43	183.397
1482.59	221.367
1486.75	280.517
1490.9	203.751
1495.06	159.856
1499.21	114.968
1503.35	55.4619
1507.5	152.728
1511.64	243.918
1515.78	255.191
1519.92	140.517
1524.05	184.052
1528.18	202.811
1532.31	88.9531
1536.44	166.913
1540.56	34.7861
1544.69	525.45
1548.8	46.042
1552.92	127.7
1557.03	157.45
1561.14	75.2207
1565.25	167.087
1569.36	150.618
