Measurement: Raman, 514 nm, ccw, Raman Data Processed
Mineral: Clinoenstatite
Rruff sample: R070276
Ideal chemistry: MgSiO_3_
Locality: Synthetic, at 15 GPa and 1600 C by Juergen Konzett
Source: Juergen Konzett
Description: Colorless grains associated with stishovite
Measured chemistry: Mg_1.00_Si_1.00_O_3_ ; trace to minor amounts of Na
Pin_id: M00224
Orientation: Laser parallel to c* (0 0 1). Fiducial mark perpendicular to laser is parallel to a [1 0 0]
Raman shift (cm-1)	intensity
126.36	0
130.07	171.799
133.778	189.287
137.485	127.711
141.19	345.441
144.894	211.65
148.596	166.697
152.296	155.777
155.995	526.957
159.692	303.148
163.388	59.5977
167.082	35.375
170.775	151.588
174.465	295.057
178.155	207.963
181.842	198.236
185.528	302.123
189.213	602.979
192.896	796.098
196.577	795.363
200.256	644.797
203.934	484.951
207.611	82.7422
211.286	31.4844
214.959	104.592
218.631	44.459
222.301	287.984
225.969	89.1445
229.636	56.6465
233.302	405.066
236.965	818.357
240.628	1243.46
244.288	1569.09
247.947	734.043
251.604	277.668
255.26	63.9473
258.915	347.258
262.567	101.287
266.218	156.129
269.868	326.275
273.516	139.826
277.162	250.221
280.807	226.5
284.45	39.4648
288.092	15.9785
291.732	137.008
295.37	8.36133
299.007	141.986
302.642	311.127
306.276	118.125
309.908	8.32227
313.539	154.619
317.168	925.918
320.795	790.033
324.421	807.195
328.046	1325.7
331.668	1485.85
335.289	2531.09
338.909	3371.03
342.527	3525.92
346.144	2471.57
349.759	1913.58
353.372	1378.52
356.984	1231.99
360.594	1811.69
364.203	2365.91
367.81	2997.35
371.415	2380.16
375.019	1272.28
378.622	982.715
382.223	631.158
385.822	721.479
389.42	681.684
393.016	785.777
396.611	1060.76
400.204	1545.63
403.795	1662.28
407.386	1362.46
410.974	1153.22
414.561	1222.78
418.146	1226.65
421.73	892.137
425.312	1085.82
428.893	1398.21
432.472	1404.85
436.05	692.955
439.626	471.529
443.201	380.182
446.774	177.508
450.345	99.0215
453.915	29.3125
457.483	15.4141
461.05	10.8359
464.615	48.8125
468.179	89.7852
471.741	275.543
475.302	72.3906
478.861	16.0254
482.419	321.492
485.975	68.8125
489.529	293.971
493.082	370.996
496.634	98.8965
500.184	459.728
503.732	408.502
507.279	504.273
510.825	761.986
514.368	814.588
517.911	527.082
521.451	585.445
524.991	576.666
528.528	591.74
532.065	401.664
535.599	267.44
539.132	307.045
542.664	260.432
546.194	195.699
549.723	262.828
553.25	399.844
556.775	398.719
560.299	71.582
563.822	28.332
567.343	50.9141
570.862	28.2207
574.38	87.1699
577.896	12.8906
581.411	215.75
584.925	29.4277
588.437	380.916
591.947	432.734
595.456	211.656
598.963	120.656
602.469	175.307
605.973	157.582
609.476	206.391
612.977	230.111
616.477	239.861
619.975	318.785
623.472	361.334
626.967	610.41
630.461	260.184
633.953	324.566
637.444	649.711
640.933	409.668
644.421	459.594
647.907	859.508
651.392	856.199
654.875	880.059
658.357	1186.16
661.837	1416.12
665.316	1752.41
668.793	1407.66
672.269	1239.51
675.743	736.168
679.216	1177.69
682.687	1096.28
686.157	1522.96
689.625	1381.27
693.092	923.703
696.557	619.379
700.021	283.547
703.483	102.512
706.944	213.367
710.403	77.8203
713.861	250.473
717.318	78.5547
720.773	19.9648
724.226	9.87891
727.678	167.152
731.128	58.3281
734.577	109.137
738.025	168.269
741.47	43.6992
744.915	53.1289
748.358	91.3477
751.799	18.3594
755.239	231.356
758.678	83.543
762.115	225.691
765.551	43.4883
768.985	190.004
772.417	93.1641
775.848	72.7969
779.278	115.211
782.706	166.898
786.133	282.633
789.558	71.0781
792.982	168.25
796.404	373.164
799.825	260.836
803.245	749.082
806.663	462.582
810.079	575.453
813.494	363.394
816.907	687.414
820.319	499.852
823.73	364.16
827.139	548.668
830.547	517.734
833.953	399.594
837.358	626.695
840.761	588.695
844.163	872.535
847.563	1124.73
850.962	1021.68
854.359	1266.16
857.755	1189.51
861.15	1151.72
864.543	877.621
867.934	615.988
871.324	256.086
874.713	352.543
878.1	423.199
881.486	172.305
884.87	414.176
888.253	0.949219
891.634	225.957
895.014	53.7852
898.393	187.793
901.77	31.9219
905.145	183.492
908.519	242.438
911.892	334.797
915.263	335.812
918.633	430.754
922.001	434.516
925.368	469.828
928.734	715.227
932.098	313.695
935.46	62.75
938.821	185.488
942.181	44.8438
945.539	194.629
948.896	198.617
952.251	1.55469
955.605	115.148
958.958	17.8477
962.309	154.731
965.658	175.887
969.006	215.656
972.353	24.2891
975.698	122.68
979.042	239.816
982.385	419.91
985.726	402.758
989.065	445.473
992.403	454.019
995.74	690.457
999.075	967.613
1002.41	1123.38
1005.74	1345.77
1009.07	1773.49
1012.4	2073.23
1015.73	2178.27
1019.06	2568.4
1022.38	2933.04
1025.71	4441.34
1029.03	5477.79
1032.35	6090.8
1035.67	5733.74
1038.99	4559.59
1042.3	2821.8
1045.62	1193.31
1048.93	1060.85
1052.24	565.648
1055.56	689.566
1058.87	154.746
1062.17	254.234
1065.48	340.426
1068.79	366.68
1072.09	453.594
1075.39	367.602
1078.69	298.887
1081.99	289.918
1085.29	285.074
1088.59	5.58203
1091.88	192.543
1095.18	159.144
1098.47	42.8711
1101.76	434.996
1105.05	407.418
1108.34	685.469
1111.63	571
1114.91	545.719
1118.2	395.035
1121.48	477.996
1124.76	392.059
1128.04	204.172
1131.32	40.4141
1134.6	247.516
1137.87	199.574
1141.15	25.4102
1144.42	240.035
1147.69	125.492
1150.96	52.3789
1154.23	239.367
1157.5	85.7891
1160.76	56.8906
1164.03	93.9453
1167.29	203.637
1170.55	183.121
1173.81	463.715
1177.07	120.547
1180.33	138.984
1183.58	480.008
1186.84	445.543
1190.09	343.09
1193.34	342.719
1196.6	148.309
1199.84	80.2656
1203.09	82.6641
1206.34	266.695
1209.58	440.481
1212.83	376.289
1216.07	432.969
1219.31	16.7461
1222.55	281.004
1225.79	488.66
1229.02	338.856
1232.26	129.762
1235.49	392.957
1238.73	328.051
1241.96	3.24219
1245.19	381.086
1248.41	251.699
