Measurement: Raman, 514 nm, ccw, Raman Data Processed
Mineral: Clinozoisite
Rruff sample: R040085
Ideal chemistry: Ca_2_Al_3_(Si_2_O_7_)(SiO_4_)O(OH)
Locality: Alamos, Sonora, Mexico
Source: University of Arizona Mineral Museum
Description: Divergent aggregate of red thin prismatic crystals
Measured chemistry: Ca_2.03_(Al_0.90_Fe_0.13_)_3_(Si_1.00_O_4_)(Si_2.00_O_7_)O(OH)
Pin_id: S00052
Orientation: Laser parallel to -b* (0 -1 0). Fiducial mark perpendicular to laser is parallel to c [0 0 1]
Raman shift (cm-1)	intensity
123.079	0
127.265	142.789
131.449	573.056
135.631	1088.74
139.81	1507.88
143.988	1315.22
148.163	996.41
152.336	909.063
156.507	825.84
160.675	920.757
164.842	1149.83
169.006	1254.45
173.168	1010.15
177.328	728.282
181.485	297.391
185.641	307.333
189.794	138.008
193.945	89.372
198.094	118.016
202.241	44.802
206.385	58.737
210.528	77.415
214.668	36.979
218.806	21.92
222.942	71.187
227.076	180.158
231.207	535.505
235.337	541.092
239.464	426.922
243.589	672.889
247.712	1198.41
251.833	1693.62
255.951	1722.75
260.068	1218.37
264.182	805.281
268.294	624.116
272.404	654.042
276.512	770.42
280.618	577.114
284.721	164.112
288.823	80.436
292.922	348.14
297.019	267.814
301.114	268.281
305.207	159.064
309.298	29.929
313.387	140.604
317.473	88.884
321.558	111.496
325.64	161.614
329.72	300.749
333.798	299.229
337.874	417.815
341.948	646.627
346.019	975.648
350.089	1484.87
354.156	1804.27
358.222	1541.78
362.285	973.994
366.346	592.551
370.405	485.531
374.462	293.755
378.516	217.901
382.569	51.632
386.62	18.786
390.668	242.344
394.714	412.918
398.759	203.623
402.801	25.315
406.841	145.956
410.879	102.516
414.915	9.197
418.949	221.089
422.98	763.207
427.01	1345.58
431.037	1417.98
435.063	1230.42
439.086	1263.04
443.108	1575.84
447.127	2218.78
451.144	3011.89
455.159	3325.16
459.172	2678.57
463.183	1972.08
467.192	1305.69
471.198	1479.42
475.203	1333.23
479.206	1289.81
483.206	973.555
487.205	1160.77
491.201	1095.06
495.196	1045.15
499.188	749.25
503.178	753.382
507.166	1027.54
511.153	1121.73
515.137	1095.94
519.119	920.189
523.099	1044.48
527.077	1019.1
531.053	803.95
535.027	478.651
538.998	73.625
542.968	105.363
546.936	250.383
550.902	185.079
554.865	60.057
558.827	313.359
562.786	671.646
566.744	1297.75
570.7	2492.89
574.653	2031.16
578.604	864.956
582.554	490.873
586.501	457.027
590.447	244.399
594.39	395.782
598.331	874.611
602.271	1370.57
606.208	1282.48
610.143	1166.83
614.077	696.767
618.008	568.133
621.937	495.284
625.865	231.228
629.79	292.118
633.713	64.861
637.634	203.002
641.553	326.271
645.471	98.502
649.386	100.517
653.299	211.889
657.21	363.234
661.12	324.407
665.027	305.078
668.932	337.182
672.835	287.455
676.737	1117.52
680.636	677.367
684.533	117.004
688.428	256.414
692.322	265.605
696.213	404.57
700.102	203.334
703.99	201.889
707.875	141.463
711.758	75.201
715.64	142.904
719.519	120.029
723.397	93.352
727.272	197.229
731.146	8.35
735.017	383.537
738.887	158.246
742.755	42.527
746.62	16.506
750.484	100.139
754.346	223.406
758.206	226.336
762.063	68.889
765.919	68.865
769.773	57
773.625	64.486
777.475	275.678
781.323	56.545
785.169	67.012
789.013	6.814
792.856	86.416
796.696	115.928
800.534	99.582
804.371	208.6
808.205	41.928
812.037	30.889
815.868	179.697
819.697	478.938
823.523	107.422
827.348	115.754
831.171	283.957
834.992	392.039
838.811	679.6
842.628	427.449
846.443	575.201
850.256	502.691
854.067	820.264
857.876	1407.51
861.684	1594.8
865.489	1421.61
869.293	1220.64
873.095	1013.31
876.894	1548.1
880.692	1719.56
884.488	1462.61
888.282	1112.91
892.074	918.459
895.864	582.947
899.652	646.092
903.439	1017.21
907.223	1119.73
911.006	1564.7
914.786	1633.19
918.565	1193.62
922.342	1295.18
926.117	1129.44
929.89	1233.11
933.661	777.133
937.43	666.582
941.198	603.588
944.963	346.23
948.727	463.299
952.488	591.18
956.248	519.311
960.006	417.67
963.762	116.182
967.516	285.166
971.269	464.33
975.019	322.066
978.767	761.645
982.514	911.459
986.259	681.57
990.002	561.918
993.743	432.564
997.482	483.793
1001.22	425.113
1004.95	216.82
1008.69	148.959
1012.42	18.432
1016.15	225.01
1019.88	268.893
1023.6	473.596
1027.33	385.115
1031.05	311.465
1034.77	258.018
1038.49	517.801
1042.21	608.439
1045.92	749.541
1049.63	941.188
1053.35	663.402
1057.05	576.277
1060.76	409.805
1064.47	303.961
1068.17	478.715
1071.87	813.936
1075.57	969.623
1079.27	1054.99
1082.97	1201.69
1086.66	1558.89
1090.36	2136.61
1094.05	2504.84
1097.73	1763.59
1101.42	1172.59
1105.11	902.123
1108.79	651.748
1112.47	591.883
1116.15	203.023
1119.83	215.207
1123.51	518.453
1127.18	432.789
1130.86	318.297
1134.53	225.125
1138.19	103.346
1141.86	16.867
1145.53	284.764
1149.19	268.678
1152.85	555.275
1156.51	675.018
1160.17	728.316
1163.83	304.635
1167.48	208.725
1171.13	49.023
1174.78	319.973
1178.43	453.326
1182.08	0
