Measurement: Raman, 514 nm, ccw, Raman Data Processed
Mineral: Clinoenstatite
Rruff sample: R070276
Ideal chemistry: MgSiO_3_
Locality: Synthetic, at 15 GPa and 1600 C by Juergen Konzett
Source: Juergen Konzett
Description: Colorless grains associated with stishovite
Measured chemistry: Mg_1.00_Si_1.00_O_3_ ; trace to minor amounts of Na
Pin_id: M00224
Orientation: Laser parallel to c* (0 0 1). Fiducial mark perpendicular to laser is parallel to a [1 0 0]
Raman shift (cm-1)	intensity
128.833	0
132.542	23.9258
136.25	197.353
139.955	696.697
143.66	594.867
147.362	268.469
151.063	427.172
154.762	266.357
158.46	279.684
162.156	17.9922
165.851	22.8418
169.544	9.05078
173.235	39.6465
176.925	80.2188
180.613	123.623
184.3	148.51
187.985	229.824
191.668	148.529
195.35	348.652
199.03	271.113
202.709	511.867
206.386	608.779
210.061	391.857
213.735	30.5664
217.407	293.812
221.078	274.486
224.747	193.557
228.414	339.826
232.08	560.578
235.744	771.771
239.407	1145.57
243.068	1531.23
246.728	1642.14
250.386	632.238
254.042	140.693
257.697	173.397
261.35	96.0723
265.001	72.1055
268.651	260.685
272.3	372.58
275.947	418.926
279.592	538.377
283.236	133.098
286.878	138.256
290.518	33.0723
294.157	244.176
297.795	435.152
301.431	467.99
305.065	316.246
308.698	166.846
312.329	353.617
315.958	478.148
319.586	599.336
323.213	987.668
326.838	1080.08
330.461	1503.57
334.083	1834.44
337.703	3024.74
341.321	3529
344.938	2821.07
348.554	1696.36
352.168	890.172
355.78	612.098
359.391	418.316
363	171.875
366.608	319.381
370.214	288.664
373.818	360.127
377.421	85.4512
381.023	72.7246
384.622	246.607
388.221	407.33
391.818	208.119
395.413	64.2656
399.006	258.197
402.598	167.291
406.189	279.637
409.778	7.96094
413.365	224.541
416.951	137.769
420.536	67.3633
424.118	85.1348
427.7	218.369
431.279	1.08008
434.858	215.668
438.434	116.836
442.009	210.697
445.583	115.328
449.155	202.978
452.725	162.154
456.294	86.1269
459.861	1.33594
463.427	174.713
466.991	167.307
470.554	186.621
474.115	130.713
477.675	111.633
481.233	122.394
484.79	69.0898
488.345	160.75
491.898	152.279
495.45	274.562
499.001	188.678
502.55	160.803
506.097	91.8828
509.643	301.742
513.187	189.397
516.73	79.209
520.271	8.77148
523.811	56.584
527.349	212.201
530.886	261.652
534.421	50.9707
537.955	147.752
541.487	31.7539
545.017	369.578
548.547	174.25
552.074	276.385
555.6	155.736
559.125	79.0762
562.648	178.25
566.169	145.764
569.689	260.225
573.207	356.342
576.724	261.209
580.24	257.74
583.754	144.051
587.266	145.856
590.777	171.039
594.286	155.256
597.794	327.941
601.3	121.654
604.805	222.315
608.309	174.109
611.81	267.359
615.311	255.484
618.809	699.889
622.307	850.424
625.802	472.516
629.297	438.523
632.789	254.68
636.281	663.418
639.77	329.262
643.259	631.012
646.745	732.908
650.231	1082.89
653.714	1348.23
657.197	1956.88
660.677	3151.14
664.157	4043.28
667.634	3724.12
671.111	2888.95
674.585	2578.67
678.059	2770.42
681.53	3613.03
685.001	4506.85
688.469	5376.84
691.937	4102.25
695.402	2515.6
698.867	1055.68
702.329	1170.11
705.791	592.744
709.251	578.002
712.709	323.289
716.166	263.385
719.621	185.408
723.075	217.367
726.527	307.481
729.978	277.42
733.428	297.008
736.876	296.945
740.322	189.92
743.767	103.875
747.21	91.9219
750.652	104.121
754.093	160.125
757.532	215.728
760.969	9.3418
764.406	202.5
767.84	55.0645
771.273	118.119
774.705	37.3027
778.135	125.668
781.564	120.449
784.991	0.009766
788.417	403.91
791.841	151.244
795.264	206.49
798.685	182.535
802.105	288.326
805.523	163.912
808.94	336.269
812.356	432.615
815.77	131.565
819.182	302.422
822.593	301.098
826.003	392.486
829.411	182.746
832.818	128.523
836.223	101.41
839.627	515.207
843.029	329.652
846.43	466.328
849.829	335.414
853.227	437.156
856.623	441.68
860.018	482.699
863.412	332.914
866.804	163.699
870.194	336.758
873.583	485.445
876.971	117.82
880.357	94.8164
883.742	113.062
887.125	73.2305
890.507	113.141
893.888	70.5078
897.267	73.3594
900.644	93.7148
904.02	29.5898
907.395	157.934
910.768	73.2227
914.14	310.481
917.51	145.953
920.879	335.09
924.246	149.035
927.612	242.289
930.976	408.457
934.339	406.785
937.701	605.586
941.061	691.762
944.42	193.055
947.777	276.5
951.133	221.691
954.487	274.07
957.84	316.148
961.192	536.141
964.542	367.008
967.89	162.711
971.238	85.625
974.583	25.875
977.928	214.25
981.271	295.238
984.612	457.277
987.952	717.41
991.291	926.328
994.628	872.496
997.964	1510.07
1001.3	2875.7
1004.63	5004.15
1007.96	8067.76
1011.29	10395.2
1014.62	8862.41
1017.95	5407.58
1021.27	3081.2
1024.6	2691.4
1027.92	2486.77
1031.24	2798.52
1034.56	2474.13
1037.88	1778.03
1041.2	1133.74
1044.51	833.762
1047.83	684.281
1051.14	464.09
1054.45	542.59
1057.76	91.8398
1061.07	313.695
1064.38	253.266
1067.68	137.648
1070.99	335.715
1074.29	124.816
1077.59	232.543
1080.89	10.7812
1084.19	49.6016
1087.49	50.2656
1090.79	225.859
1094.08	76.8477
1097.37	130.043
1100.66	153.203
1103.95	153.828
1107.24	324.809
1110.53	306.898
1113.82	292.578
1117.1	324.859
1120.38	346.281
1123.67	170.82
1126.95	277.957
1130.23	398.848
1133.5	219.383
1136.78	17.6445
1140.05	191.797
1143.33	67.0703
1146.6	97.6133
1149.87	88.3594
1153.14	285.809
1156.41	189.535
1159.67	222.934
1162.94	212.652
1166.2	200.781
1169.46	498.816
1172.72	213.75
1175.98	119.363
1179.24	115.84
1182.5	488.875
1185.75	241.281
1189.01	259.059
1192.26	137.461
1195.51	294.723
1198.76	219.043
1202.01	109.891
1205.26	273.723
1208.5	390.359
1211.75	262.309
1214.99	185.547
1218.23	25.082
1221.47	243.981
1224.71	593.617
1227.94	225.406
1231.18	291.352
1234.41	233.414
1237.65	133.504
1240.88	6.37109
1244.11	206.992
1247.34	0
