Measurement: Raman, 514 nm, ccw, Raman Data Processed
Mineral: Clinoptilolite-Ca
Rruff sample: R060662
Ideal chemistry: Ca_3_(Si_30_Al_6_)O_72_20H_2_O
Locality: Succor Creek, Malheur County, Oregon, USA
Source: Michael Scott
Description: Group of colorless platy prismatic crystals
Measured chemistry: (Ca_1.02_Na_0.97_K_0.59_)_Σ=2.58_(Si_14.40_Al_3.60_)_Σ=18_O_36_·10.96H_2_O
Pin_id: M00134
Orientation: Laser parallel to (1 0 1). Fiducial mark perpendicular to laser is parallel to b [0 1 0]
Raman shift (cm-1)	intensity
134.127	0
139.043	455.617
143.956	561.943
148.867	832.475
153.775	934.312
158.681	995.356
163.585	974.354
168.486	628.301
173.385	569.6
178.282	1007.53
183.176	1109.46
188.067	1120.4
192.956	1070.42
197.843	892.84
202.727	886.137
207.609	155.397
212.489	13.8164
217.366	245.731
222.24	230.881
227.112	112.555
231.982	247.519
236.849	651.717
241.714	986.482
246.577	1348.58
251.437	1834.2
256.294	2170.12
261.149	2255.52
266.002	2082.47
270.852	1924.98
275.7	1795.91
280.545	2034.73
285.388	2084.22
290.229	2501.26
295.067	2665.47
299.902	2659.18
304.735	2922.9
309.566	3155.75
314.394	3903.99
319.22	4532.74
324.043	4885.91
328.864	5139.19
333.682	5038.83
338.498	5224.72
343.311	5604.47
348.122	6285.67
352.931	7129.34
357.737	8109.47
362.54	9260.91
367.341	10704.7
372.14	12482.1
376.936	14391.6
381.73	16896.2
386.521	20508
391.31	26203
396.096	31650.6
400.88	35064.1
405.661	34174.7
410.44	29984.6
415.216	23522.6
419.99	17911.9
424.761	12583.7
429.53	8832.62
434.297	6493.68
439.061	5429.52
443.822	4763.58
448.581	5585.61
453.337	6880.88
458.091	10043.6
462.843	12735
467.592	14966.4
472.338	18286.1
477.082	21868.2
481.824	21331.6
486.563	16536.2
491.3	9702.22
496.034	5456.83
500.765	2900.04
505.494	1806.85
510.221	1108.55
514.945	932.738
519.666	529.152
524.385	201.127
529.102	129.435
533.816	143.654
538.527	13.4492
543.236	42.6406
547.943	92.4316
552.647	258.299
557.348	152.432
562.047	34.4863
566.744	44.3496
571.438	15.7988
576.129	279.455
580.818	523.09
585.504	650.484
590.188	1034.66
594.87	1453.38
599.549	1981.32
604.225	2774.32
608.899	4074.82
613.57	4235.22
618.239	3970.55
622.905	3114.62
627.569	2465.65
632.23	1808.41
636.889	1112.87
641.545	1124.09
646.198	1011.2
650.849	878.971
655.498	714.734
660.144	631.307
664.787	363.752
669.428	304.426
674.067	2.50977
678.703	105.744
683.336	210.748
687.967	201.807
692.595	131.859
697.221	344.301
701.844	90.3965
706.465	83.5195
711.083	66.8613
715.698	403.934
720.311	188.219
724.922	378.227
729.53	78.4004
734.135	127.094
738.738	178.047
743.338	159.199
747.936	186.434
752.531	147.84
757.124	335.283
761.714	348.617
766.302	575.621
770.887	513.766
775.469	433.914
780.049	650.502
784.626	777.219
789.201	545.07
793.773	340.172
798.343	351.69
802.91	337.371
807.475	428.315
812.037	159.496
816.596	167.723
821.153	384.994
825.707	27.4277
830.259	121.154
834.808	4.26953
839.355	26.6172
843.899	255.553
848.441	281.656
852.98	132.053
857.516	317.336
862.05	379.115
866.581	35.1094
871.11	250.316
875.636	9.54688
880.159	25.3379
884.68	57.4414
889.199	43.6641
893.714	94.1133
898.228	8.87695
902.738	116.822
907.246	50.291
911.752	87.2676
916.255	53.4297
920.755	55.7891
925.253	160.315
929.748	256.303
934.241	88.9863
938.731	14.3457
943.218	42.5469
947.703	87.5508
952.186	120.719
956.665	268.943
961.142	42.1953
965.617	284.728
970.089	169.049
974.558	339.99
979.025	290.537
983.489	329.289
987.951	570.566
992.41	549.205
996.866	681.789
1001.32	879.584
1005.77	912.248
1010.22	534.482
1014.67	938.769
1019.11	1019.4
1023.55	1196.43
1027.99	1049.32
1032.42	993.664
1036.86	1207.94
1041.29	1230.17
1045.72	1095.33
1050.14	1020.25
1054.56	890.717
1058.98	1180.98
1063.4	980.818
1067.82	775.039
1072.23	927.918
1076.64	1069.81
1081.05	1420.36
1085.45	1434.88
1089.85	1970.87
1094.25	2000.46
1098.65	2282.11
1103.04	2531.11
1107.43	2659.49
1111.82	3067.96
1116.21	3206.91
1120.59	3426.58
1124.97	3630.1
1129.35	3428.72
1133.73	3831.57
1138.1	3831.12
1142.47	3965.17
1146.84	4011.36
1151.21	4065.43
1155.57	3902.95
1159.93	3714.49
1164.29	3509.8
1168.64	3395.23
1172.99	2952.95
1177.34	2593.92
1181.69	2384.39
1186.04	2028.19
1190.38	1938.54
1194.72	1431.46
1199.05	1032.83
1203.39	822.406
1207.72	551.305
1212.05	728.492
1216.37	365.106
1220.7	369.875
1225.02	77.7539
1229.34	144.812
1233.65	27.4727
1237.97	6.53516
1242.28	39.793
1246.59	45.9414
1250.89	34.9727
1255.19	79.5781
1259.49	94.6055
1263.79	322.379
1268.09	227.691
1272.38	79.457
1276.67	335.949
1280.95	32.0234
1285.24	74.0117
1289.52	43.8828
1293.8	201.656
1298.08	198.141
1302.35	87.5898
1306.62	99.8672
1310.89	326.004
1315.15	341.992
1319.42	552.824
1323.68	469.481
1327.94	441.012
1332.19	295.469
1336.44	176.746
1340.69	319.773
1344.94	75.3633
1349.19	228.188
1353.43	517.316
1357.67	212.203
1361.9	55.1953
1366.14	421.902
1370.37	262.394
1374.6	205.168
1378.83	144.055
1383.05	166.484
1387.27	345.113
1391.49	275.844
1395.7	158.293
1399.92	14.1758
1404.13	200.801
1408.34	44.7773
1412.54	167.723
1416.74	69.5703
1420.94	321.141
1425.14	204.051
1429.34	278.844
1433.53	452.047
1437.72	527.551
1441.9	796.191
1446.09	1070.86
1450.27	1126.1
1454.45	936.023
1458.63	1133.62
1462.8	686.051
1466.97	942.41
1471.14	538.699
1475.31	333.93
1479.47	428.273
1483.63	282.082
1487.79	254.703
1491.94	125.301
1496.09	316.883
1500.24	128.238
1504.39	39.8125
1508.54	333.676
1512.68	451.16
1516.82	126.039
1520.95	422.867
1525.09	371.363
1529.22	81.6367
1533.35	152.336
1537.47	174.184
1541.6	110.293
1545.72	29.2148
1549.83	359.949
1553.95	437.34
1558.06	170.051
1562.17	120.18
1566.28	265.492
1570.38	434.566
