Measurement: Raman, 514 nm, ccw, Raman Data Processed
Mineral: Clinoptilolite-Ca
Rruff sample: R060662
Ideal chemistry: Ca_3_(Si_30_Al_6_)O_72_20H_2_O
Locality: Succor Creek, Malheur County, Oregon, USA
Source: Michael Scott
Description: Group of colorless platy prismatic crystals
Measured chemistry: (Ca_1.02_Na_0.97_K_0.59_)_Σ=2.58_(Si_14.40_Al_3.60_)_Σ=18_O_36_·10.96H_2_O
Pin_id: M00397
Orientation: Laser parallel to c* (0 0 1). Fiducial mark perpendicular to laser is parallel to -a [-1 0 0]
Raman shift (cm-1)	intensity
84.837	0
89.777	1244.23
94.714	3500.18
99.649	5195.09
104.582	6933.1
109.512	9464.19
114.44	10472.8
119.365	11869.1
124.288	14451.8
129.209	17773.2
134.127	21631.2
139.043	23599.1
143.956	22804.7
148.867	20328.8
153.775	17493
158.681	14605.6
163.585	12056.9
168.486	9226.6
173.385	7383.5
178.282	5096.07
183.176	3422.9
188.067	2164.92
192.956	1683.95
197.843	1328.92
202.727	612.037
207.609	365.273
212.489	510.344
217.366	709.686
222.24	906.031
227.112	755.332
231.982	43.3262
236.849	839.916
241.714	2331.62
246.577	3294.55
251.437	4047.46
256.294	3783.93
261.149	3976.18
266.002	3299.25
270.852	2430.24
275.7	1604.23
280.545	990.894
285.388	653.287
290.229	399.908
295.067	110.445
299.902	196.295
304.735	37.666
309.566	215.941
314.394	560.541
319.22	975.023
324.043	1534.64
328.864	2140.28
333.682	2595.69
338.498	2792.28
343.311	2871.39
348.122	3083.24
352.931	3926.1
357.737	4516.95
362.54	5680.43
367.341	7184.72
372.14	8845.22
376.936	11359.1
381.73	14718.1
386.521	19077.8
391.31	25056.5
396.096	32027.8
400.88	36417.2
405.661	36181.1
410.44	30904.1
415.216	24434.9
419.99	17955.7
424.761	13031.6
429.53	8651.61
434.297	6008.86
439.061	4285.62
443.822	3486.18
448.581	2829.8
453.337	3323.06
458.091	4648.35
462.843	7028.62
467.592	10219.2
472.338	16223.8
477.082	24167.5
481.824	29270.2
486.563	25424.1
491.3	15986.2
496.034	8243.75
500.765	4127.21
505.494	2038.44
510.221	1079.55
514.945	533.133
519.666	39.3516
524.385	22.4121
529.102	85.5508
533.816	100.049
538.527	50.3945
543.236	140.338
547.943	182.652
552.647	50.0508
557.348	312.074
562.047	84.5703
566.744	32.5898
571.438	126.488
576.129	51.166
580.818	162.734
585.504	615.023
590.188	930.955
594.87	1703.71
599.549	2781.87
604.225	4138.71
608.899	5443.19
613.57	5993.15
618.239	5518.51
622.905	4425.3
627.569	2933.74
632.23	1737.93
636.889	1466.58
641.545	1131.74
646.198	711.318
650.849	332.984
655.498	164.477
660.144	131.402
664.787	96.0801
669.428	117.908
674.067	20.4395
678.703	71.2012
683.336	100.652
687.967	104.885
692.595	93.8359
697.221	43.3965
701.844	115.805
706.465	130.406
711.083	289.639
715.698	212.512
720.311	418.262
724.922	527.736
729.53	448.248
734.135	562.082
738.738	496.348
743.338	815.857
747.936	555.25
752.531	925.938
757.124	1125.46
761.714	1506.39
766.302	1801.42
770.887	2237.34
775.469	3002.76
780.049	3993.53
784.626	4741.89
789.201	5391.8
793.773	5661.46
798.343	5737.06
802.91	4788.14
807.475	3992.51
812.037	3482.92
816.596	3393.24
821.153	2928.04
825.707	2240.74
830.259	1163.76
834.808	602.994
839.355	601.617
843.899	502.336
848.441	397.734
852.98	250.022
857.516	337.201
862.05	396.56
866.581	393.109
871.11	435.853
875.636	59.7949
880.159	35.9023
884.68	51.4746
889.199	170.285
893.714	126.289
898.228	95.4668
902.738	26.7598
907.246	237.773
911.752	51.4453
916.255	53.1973
920.755	5.84961
925.253	88.6035
929.748	52.3066
934.241	6.75781
938.731	3.50977
943.218	126.809
947.703	157.01
952.186	173.865
956.665	15.7559
961.142	197.514
965.617	183.957
970.089	249.123
974.558	175.016
979.025	378.555
983.489	472.727
987.951	561.609
992.41	823.633
996.866	740.244
1001.32	766.875
1005.77	757.219
1010.22	1122.87
1014.67	917.307
1019.11	1085.11
1023.55	1375.48
1027.99	1344.86
1032.42	1334.28
1036.86	1462.56
1041.29	1476.98
1045.72	1565.44
1050.14	1473.35
1054.56	1485.6
1058.98	1376
1063.4	1492.43
1067.82	1677.34
1072.23	1476.66
1076.64	1637.54
1081.05	1684.8
1085.45	2122.97
1089.85	2380.24
1094.25	2474.66
1098.65	3087.22
1103.04	3283.38
1107.43	3534.7
1111.82	3594.17
1116.21	3921.57
1120.59	3917.94
1124.97	3675.76
1129.35	3726.57
1133.73	4003.39
1138.1	3681.39
1142.47	3592.18
1146.84	3557.07
1151.21	3609.55
1155.57	3397.17
1159.93	3154.95
1164.29	3148.67
1168.64	3060.03
1172.99	2750.73
1177.34	2883.66
1181.69	2440.22
1186.04	2221.1
1190.38	1951.66
1194.72	1584.69
1199.05	1371.91
1203.39	1125.36
1207.72	736.045
1212.05	531.93
1216.37	585.748
1220.7	265.955
1225.02	335.736
1229.34	228.662
1233.65	158.268
1237.97	160.883
1242.28	75.416
1246.59	52.8105
1250.89	261.887
1255.19	163.158
1259.49	140.859
1263.79	199.912
1268.09	179.435
1272.38	284.81
1276.67	60.9023
1280.95	628.086
1285.24	214.51
1289.52	161.607
1293.8	509.047
1298.08	176.879
1302.35	349.578
1306.62	370.57
1310.89	158.709
1315.15	369.414
1319.42	292.914
1323.68	432.805
1327.94	190.307
1332.19	312.441
1336.44	102.182
1340.69	306.592
1344.94	51.5879
1349.19	169.928
1353.43	327.986
1357.67	285.387
1361.9	198.84
1366.14	286.992
1370.37	250.484
1374.6	323.842
1378.83	277.906
1383.05	527.047
1387.27	298.006
1391.49	13.7832
1395.7	398.182
1399.92	129.553
1404.13	259.228
1408.34	270.906
1412.54	93.9082
1416.74	207.541
1420.94	54.9512
1425.14	125.41
1429.34	153.785
1433.53	289.769
1437.72	520.438
1441.9	372.238
1446.09	241.262
1450.27	476.332
1454.45	476.285
1458.63	479.652
1462.8	112.918
1466.97	558.461
1471.14	188.152
1475.31	573.891
1479.47	382.758
1483.63	409.371
1487.79	92.0938
1491.94	224.438
1496.09	196.609
1500.24	197.984
1504.39	196.461
1508.54	255.078
1512.68	258.019
1516.82	48.4883
1520.95	47.4258
1525.09	237.731
1529.22	91.0234
1533.35	184.934
1537.47	208.465
1541.6	201.269
1545.72	79.0352
1549.83	216.062
1553.95	239.07
1558.06	301.379
1562.17	84.9766
1566.28	52.5078
1570.38	272.168
