Measurement: Raman, 514 nm, ccw, Raman Data Processed
Mineral: Clinozoisite
Rruff sample: R060284
Ideal chemistry: Ca_2_Al_3_(Si_2_O_7_)(SiO_4_)O(OH)
Locality: near Zagi Mountain, Khaffor Dehri, North-West Frontier Province, Pakistan
Source: Herb Obodda
Description: Greenish-brown fragment of a prismatic crystal
Measured chemistry: Ca_2.00_(Al_0.90_Fe^3+^_0.10_)_3_(Si_1.00_O_4_)(Si_2.00_O_7_)O(OH)
Pin_id: L00506
Orientation: Laser parallel to -a* (-1 0 0). Fiducial mark perpendicular to laser is parallel to b [0 1 0]
Raman shift (cm-1)	intensity
118.134	0
123.058	48.1553
127.979	868.514
132.898	2682.48
137.814	5566.02
142.728	7418.67
147.639	7532.1
152.549	7034.26
157.455	7585.61
162.359	8100.26
167.261	8604.32
172.161	7548.3
177.058	4774.28
181.952	1969.04
186.845	373.123
191.734	424.731
196.622	422.522
201.507	230.957
206.389	693.067
211.269	1446.99
216.147	1828.33
221.022	2200.27
225.895	3336.34
230.765	5989.48
235.633	9819.86
240.498	11263.9
245.361	13829.9
250.222	19623.8
255.08	23273.7
259.936	19801.7
264.789	16284.7
269.64	18008.7
274.488	20485.2
279.334	17468.5
284.178	12499.6
289.019	9297.37
293.857	7540.71
298.693	6914.57
303.527	6209.11
308.358	6153.09
313.187	7228.86
318.013	8675.25
322.837	10791.1
327.659	12308.4
332.478	15418
337.294	20521
342.108	25832.5
346.92	30257.1
351.729	32598.8
356.535	23254.3
361.34	11403.8
366.141	6610.24
370.94	4943.64
375.737	3584.03
380.531	3275.51
385.323	5160.09
390.113	6037.72
394.9	4365.36
399.684	2209.97
404.466	248.707
409.245	1387.9
414.022	912.598
418.797	1396.74
423.569	5419.71
428.338	9104.51
433.105	8675.16
437.87	8875.68
442.632	14892.1
447.391	27681.9
452.149	39914.8
456.903	36191
461.655	24398.7
466.405	18621.7
471.152	17841.5
475.897	17992.3
480.639	17865.6
485.378	16267.5
490.116	11142.9
494.85	6884.4
499.582	5661.58
504.312	7440.81
509.039	9206.9
513.764	8641.51
518.486	8446.43
523.206	7877.45
527.923	7437.45
532.638	4875.3
537.35	1448.89
542.059	129.136
546.766	117.569
551.471	578.849
556.173	2184.04
560.873	6575.94
565.57	17183.5
570.264	34393.6
574.957	28085.1
579.646	10133.5
584.333	5747.65
589.018	6980.51
593.7	9920.61
598.379	13682.8
603.056	18044.4
607.73	17644.4
612.402	12378.1
617.072	8461.74
621.739	4651.33
626.403	1725.06
631.065	548.948
635.724	152.211
640.381	126.19
645.035	278.096
649.687	1648.17
654.336	3275.55
658.983	3801.58
663.627	2627.57
668.268	1933.31
672.907	1637.92
677.544	1994.64
682.178	2819.41
686.809	3085.55
691.438	3170.52
696.065	3751.04
700.688	3979.98
705.31	3310.68
709.929	2048.04
714.545	943.018
719.158	215.548
723.77	59.2685
728.378	124.537
732.984	145.324
737.588	164.581
742.189	109.401
746.787	342.821
751.383	326.216
755.976	234.548
760.567	253.745
765.155	168.368
769.741	218.683
774.324	112.486
778.904	59.831
783.482	51.1855
788.058	87.9824
792.631	269.715
797.201	455.679
801.769	530.09
806.334	897.094
810.897	1212.8
815.457	1855.27
820.014	2414.55
824.569	3014.82
829.122	3494.15
833.671	4145.41
838.219	4950.61
842.763	5922.82
847.306	7214.09
851.845	8868.51
856.382	11620
860.917	16104.5
865.448	22433.4
869.978	30384.4
874.505	34006.9
879.029	36380.3
883.55	38887.9
888.069	41080.1
892.586	46832
897.1	48925.9
901.611	42301.1
906.12	37584.4
910.626	39079.9
915.129	38901.5
919.63	32661.4
924.129	26001.6
928.625	21331.2
933.118	16951
937.609	12238.3
942.097	8045.76
946.582	5249.31
951.065	3978.95
955.546	3425.66
960.023	3548.59
964.499	3636.69
968.971	3965.05
973.441	5226.76
977.909	8774.84
982.374	14564.4
986.836	16249.4
991.295	10448.1
995.753	5433.49
1000.21	3055.54
1004.66	1576.6
1009.11	611.888
1013.55	535.233
1018	1018.67
1022.44	2508.35
1026.88	5231.11
1031.32	6033.23
1035.75	4755.65
1040.18	3943.77
1044.61	3801.45
1049.04	3567.28
1053.46	2779.34
1057.88	1865.9
1062.3	1095.5
1066.71	858.557
1071.13	1227.83
1075.54	2031.77
1079.94	3848.06
1084.35	6684.6
1088.75	12310.1
1093.15	18601
1097.55	14261.3
1101.94	6294.47
1106.34	3151.59
1110.73	1886.7
1115.11	1461.08
1119.5	1485.62
1123.88	1236.37
1128.26	600.812
1132.63	66.5977
1137.01	10.0762
1141.38	0.431641
1145.75	133.629
1150.12	98.0889
1154.48	54.5732
1158.84	88.7168
1163.2	95.4228
1167.55	70.3242
1171.91	99.875
1176.26	78.0195
1180.61	63.7637
1184.95	46.6758
1189.29	27.5254
1193.63	31.2109
1197.97	87.2812
1202.31	57.7315
1206.64	14.3711
1210.97	62.5205
1215.29	103.098
1219.62	100.783
1223.94	178.965
1228.26	113.886
1232.57	97.2002
1236.89	177.228
1241.2	143.449
1245.51	197.196
1249.81	76.7266
1254.12	206.847
1258.42	45.3496
1262.72	168.567
1267.01	305.138
1271.3	379.232
1275.59	259.543
1279.88	323.913
1284.17	360.678
1288.45	177.161
1292.73	330.269
1297.01	278.966
1301.28	256.556
1305.55	225.457
1309.82	180.31
1314.09	190.901
1318.35	366.576
1322.61	351.533
1326.87	350.054
1331.13	387.15
1335.38	308.964
1339.63	298.232
1343.88	284.709
1348.12	426.827
1352.37	298.928
1356.61	274.162
1360.85	411.047
1365.08	227.243
1369.31	565.882
1373.54	452.019
1377.77	374.381
1381.99	192.714
1386.22	310.28
1390.43	266.816
1394.65	214.073
1398.87	215.691
1403.08	283.687
1407.29	218.012
1411.49	323.184
1415.69	263.263
1419.89	161.415
1424.09	185.9
1428.29	264.42
1432.48	266.147
1436.67	293.631
1440.86	302.113
1445.04	270.308
1449.23	298.263
1453.4	194.759
1457.58	351.586
1461.76	253.206
1465.93	205.326
1470.1	292.676
1474.26	84.1348
1478.43	206.304
1482.59	74.6846
1486.75	130.735
1490.9	206.186
1495.06	135.34
1499.21	67.0459
1503.35	25.3018
1507.5	150.938
1511.64	147.279
1515.78	36.3408
1519.92	168.799
1524.05	114.383
1528.18	120.329
1532.31	188.96
1536.44	88.4277
1540.56	59.8789
1544.69	202.471
1548.8	21.9414
1552.92	216.181
1557.03	10.4482
1561.14	40.0361
1565.25	3.80762
1569.36	159.882
