Measurement: Raman, 514 nm, ccw, Raman Data Processed
Mineral: Clinochlore
Rruff sample: R060725
Ideal chemistry: Mg_5_Al(AlSi_3_O_10_)(OH)_8_
Locality: Crestmore Quarry, Riverside, California, USA
Source: Bob Jenkins
Description: Green transparent books of mica
Measured chemistry: (Mg_4.65_Al_1.12_Fe^2+^_0.17_[box]_0.06_)_Σ=6_(Si_3.00_Al_1.00_)_Σ=4_O_10_(OH)_8_
Pin_id: L01861
Raman shift (cm-1)	intensity
169.617	0
174.528	109.881
179.435	118.988
184.341	127.111
189.243	134.384
194.143	207.298
199.04	732.144
203.935	1447.62
208.827	1214.19
213.716	599.643
218.602	238.438
223.486	152.322
228.367	91.1279
233.245	45.2393
238.12	38.7978
242.993	59.541
247.863	9.50879
252.731	78.0977
257.596	11.751
262.458	169.03
267.317	291.221
272.174	519.832
277.028	841.06
281.879	884.73
286.728	375.057
291.574	289.892
296.417	187.246
301.258	293.121
306.096	195.513
310.931	180.434
315.764	306.78
320.594	338.769
325.421	412.779
330.246	546.285
335.068	469.975
339.887	760.84
344.703	1379.31
349.517	2638.4
354.329	3958.23
359.137	3734.25
363.943	2145.67
368.746	1037.5
373.547	722.725
378.345	447.943
383.14	434.713
387.932	495.382
392.722	534.056
397.51	263.941
402.294	203.011
407.076	202.764
411.855	381.856
416.632	461.286
421.406	800.053
426.177	1127.16
430.946	841.602
435.712	870.388
440.475	462.506
445.236	287.954
449.994	448.342
454.75	281.483
459.502	256.303
464.253	454.156
469	268.868
473.745	208.779
478.487	250.655
483.227	37.4258
487.964	1.29883
492.698	95.0977
497.43	100.811
502.159	140.845
506.885	416.196
511.609	455.857
516.33	744.849
521.049	783.18
525.764	1219.88
530.478	1525.95
535.188	1472.39
539.896	2120.14
544.602	3413.21
549.304	5580.59
554.004	5095.27
558.702	2149.24
563.397	1193.51
568.089	534.165
572.779	452.156
577.466	166.417
582.15	159.922
586.832	157.663
591.511	117.393
596.188	23.3623
600.862	92.9434
605.533	36.4609
610.202	11.7949
614.868	9.61621
619.531	91.7871
624.192	309.35
628.85	122.792
633.506	167.839
638.159	11.0723
642.81	311.777
647.457	304.368
652.103	863.129
656.745	1187.62
661.385	1772.7
666.023	2610.94
670.658	3578.32
675.29	4568.83
679.92	5271.67
684.547	5191.74
689.171	4104.8
693.793	3207.14
698.413	2560.23
703.029	1953.97
707.643	1654.06
712.255	1212.01
716.864	826.584
721.47	697.894
726.074	654.438
730.675	458.541
735.274	285.977
739.87	192.633
744.463	226.106
749.054	218.385
753.643	236.31
758.228	259.048
762.812	231.311
767.392	121.928
771.97	173.248
776.546	9.34766
781.118	165.447
785.689	100.856
790.256	65.6738
794.822	116.862
799.384	69.8916
803.944	221.916
808.502	132.934
813.057	69.9424
817.609	66.9238
822.159	48.8125
826.706	187.617
831.251	115.329
835.793	5.99902
840.332	28.4873
844.869	18.7822
849.404	74.8926
853.936	245.946
858.465	133.964
862.992	72.0244
867.516	127.137
872.037	170.456
876.557	52.8877
881.073	47.4062
885.587	87.2861
890.099	10.5391
894.608	37.6055
899.114	13.6924
903.618	154.872
908.119	135.36
912.618	186.611
917.114	218.861
921.608	241.31
926.099	37.7158
930.588	171.47
935.074	136.707
939.557	375.86
944.038	246.028
948.517	237.119
952.993	238.94
957.466	249.571
961.937	316.249
966.405	398.661
970.871	240.182
975.334	202.839
979.795	260.188
984.253	363.222
988.709	233.273
993.162	305.701
997.613	364.058
1002.06	332.94
1006.51	377.981
1010.95	309.805
1015.39	161.9
1019.83	391.267
1024.26	274.875
1028.7	237.252
1033.13	247.427
1037.56	474.945
1041.98	407.334
1046.4	633.525
1050.83	475.111
1055.24	683.995
1059.66	457.55
1064.07	404.127
1068.48	413.619
1072.89	624.515
1077.3	809.253
1081.7	939.246
1086.1	1200.34
1090.5	785.077
1094.89	525.886
1099.29	525.734
1103.68	59.4463
1108.06	42.7158
1112.45	254.876
1116.83	10.1777
1121.21	165.347
1125.59	128.132
1129.97	102.014
1134.34	48.0293
1138.71	140.033
1143.08	193.816
1147.44	261.592
1151.81	17.168
1156.17	38.2578
1160.53	11.1055
1164.88	98.0098
1169.23	29.6816
1173.59	100.295
1177.93	141.918
1182.28	133.002
1186.62	63.6836
1190.96	93.1875
1195.3	196.619
1199.64	65.791
1203.97	24.0254
1208.3	9.78516
1212.63	58.3848
1216.96	196.826
1221.28	127.121
1225.6	141.291
1229.92	260.34
1234.24	251.08
1238.55	211.719
1242.86	140.41
1247.17	71.2402
1251.47	156.6
1255.78	406.738
1260.08	214.734
1264.38	55.9941
1268.68	245.19
1272.97	207.201
1277.26	82.7734
1281.55	10.3027
1285.84	277.361
1290.12	240.869
1294.4	387.168
1298.68	168.238
1302.96	131.914
1307.23	216.289
1311.51	332.125
1315.78	259.334
1320.04	132.861
1324.31	205.225
1328.57	244.34
1332.83	18.7754
1337.09	287.367
1341.34	207.014
1345.59	157.281
1349.84	199.652
1354.09	42.5039
1358.34	132.932
1362.58	127.031
1366.82	38.5527
1371.06	190.137
1375.29	83.4805
1379.52	179.494
1383.75	186.312
1387.98	152.369
1392.21	124.408
1396.43	94.0156
1400.65	148.562
1404.87	53.9258
1409.09	12.6738
1413.3	92.2012
1417.51	195.127
1421.72	201.959
1425.93	113.061
1430.13	186.756
1434.33	209.725
1438.53	272.065
1442.73	162.594
1446.92	209.795
1451.11	313.225
1455.3	337.451
1459.49	170.856
1463.67	291.426
1467.86	303.174
1472.04	175.512
1476.21	291.391
1480.39	348.533
1484.56	315.953
1488.73	276.08
1492.9	88.6719
1497.06	61.4219
1501.23	85.3555
1505.39	69.5644
1509.55	83.5
1513.7	218.799
1517.85	39.5137
1522	226.59
1526.15	105.209
1530.3	6.48242
1534.44	235.894
1538.58	250.656
1542.72	76.1406
1546.86	146.551
1550.99	61.668
1555.13	50.7871
1559.26	1.08594
