Measurement: Raman, 514 nm, ccw, Raman Data Processed
Mineral: Clinoptilolite-Ca
Rruff sample: R060662
Ideal chemistry: Ca_3_(Si_30_Al_6_)O_72_20H_2_O
Locality: Succor Creek, Malheur County, Oregon, USA
Source: Michael Scott
Description: Group of colorless platy prismatic crystals
Measured chemistry: (Ca_1.02_Na_0.97_K_0.59_)_Σ=2.58_(Si_14.40_Al_3.60_)_Σ=18_O_36_·10.96H_2_O
Pin_id: M00221
Orientation: Laser parallel to b* (0 1 0). Fiducial mark perpendicular to laser is parallel to c [0 0 1]
Raman shift (cm-1)	intensity
221.022	0
225.895	150.525
230.765	129.406
235.633	187.957
240.498	480.074
245.361	1067.37
250.222	1412.05
255.08	1444.32
259.936	1336.23
264.789	1440.72
269.64	957.725
274.488	862.957
279.334	673.914
284.178	55.8145
289.019	115.074
293.857	137.809
298.693	113.668
303.527	223.773
308.358	488.844
313.187	372.41
318.013	472.543
322.837	502.103
327.659	749.447
332.478	926.928
337.294	1274.5
342.108	1524.16
346.92	2192.86
351.729	3176.66
356.535	3805.09
361.34	4913.47
366.141	5924.54
370.94	7178.9
375.737	8518.74
380.531	10028.2
385.323	12504.9
390.113	15935.8
394.9	20496.3
399.684	24869.9
404.466	26819.7
409.245	24743.7
414.022	20685.6
418.797	15756.6
423.569	11525.4
428.338	8087.32
433.105	5540.6
437.87	4180.05
442.632	3288.49
447.391	3225.83
452.149	4278.94
456.903	6156.74
461.655	8246.16
466.405	9959.13
471.152	10879.6
475.897	12700.6
480.639	14787
485.378	12965.9
490.116	8959.23
494.85	5147.93
499.582	2758.01
504.312	1629.45
509.039	1022.24
513.764	661.551
518.486	186.397
523.206	64.6523
527.923	41.8535
532.638	107.615
537.35	30.5117
542.059	98.9805
546.766	18.8262
551.471	50.6777
556.173	8.58008
560.873	143.336
565.57	329.238
570.264	334.676
574.957	393.619
579.646	624.041
584.333	928.057
589.018	1072.13
593.7	1705.82
598.379	2214.77
603.056	2977.51
607.73	4541.84
612.402	4806.05
617.072	5149.12
621.739	4958.06
626.403	4269.84
631.065	3065.49
635.724	2273.43
640.381	2229.71
645.035	2054.53
649.687	1696.64
654.336	1421.93
658.983	1000.87
663.627	664.779
668.268	308.768
672.907	388.607
677.544	244.732
682.178	99.1172
686.809	53.8926
691.438	57.9355
696.065	166.307
700.688	65.9629
705.31	87.7324
709.929	46.7598
714.545	149.619
719.158	48.6719
723.77	260.211
728.378	541.799
732.984	264.531
737.588	317.43
742.189	365.516
746.787	474.812
751.383	523.348
755.976	499.135
760.567	1126.2
765.155	1001.58
769.741	1054.28
774.324	1186.32
778.904	1248.74
783.482	1323.56
788.058	1445.7
792.631	1477.92
797.201	1323.48
801.769	1569.05
806.334	1560.65
810.897	1657.94
815.457	1679.76
820.014	1862.45
824.569	1498.63
829.122	994.621
833.671	801.299
838.219	788.031
842.763	752.238
847.306	1042.28
851.845	1486.9
856.382	2100.62
860.917	2049.44
865.448	1387.22
869.978	815.559
874.505	729.113
879.029	429.549
883.55	362.291
888.069	391.117
892.586	186.047
897.1	219.103
901.611	210.312
906.12	195.695
910.626	140.273
915.129	243.072
919.63	37.8945
924.129	130.791
928.625	76.8066
933.118	20.6406
937.609	238.754
942.097	113.635
946.582	96.0625
951.065	66.6816
955.546	281.022
960.023	253.197
964.499	181.543
968.971	263.037
973.441	236.586
977.909	296.984
982.374	525.352
986.836	388.518
991.295	642.389
995.753	1041.87
1000.21	1924.9
1004.66	1709.47
1009.11	1230.59
1013.55	1363.15
1018	1206.69
1022.44	1562.47
1026.88	1514.74
1031.32	1634.74
1035.75	1296.21
1040.18	1527.54
1044.61	1290.36
1049.04	1259.8
1053.46	1417.13
1057.88	1227.7
1062.3	858.475
1066.71	846.234
1071.13	1075.83
1075.54	1105.71
1079.94	1237.77
1084.35	1659.8
1088.75	1476.19
1093.15	1765.1
1097.55	2164.66
1101.94	2410.35
1106.34	2697.99
1110.73	2968.43
1115.11	3052.51
1119.5	3125.21
1123.88	3403.53
1128.26	2581.47
1132.63	2453.02
1137.01	2242.2
1141.38	2004
1145.75	2107.43
1150.12	2315.48
1154.48	2318.41
1158.84	2394.43
1163.2	2310.31
1167.55	2332.79
1171.91	2140.87
1176.26	2069.53
1180.61	1591.78
1184.95	1594.61
1189.29	990.146
1193.63	598.654
1197.97	448.863
1202.31	196.826
1206.64	147.389
1210.97	17.2852
1215.29	17.5723
1219.62	129.359
1223.94	66.5137
1228.26	42.8047
1232.57	71.8613
1236.89	459.728
1241.2	348.144
1245.51	325.894
1249.81	151.5
1254.12	318.807
1258.42	277.195
1262.72	568.309
1267.01	415.947
1271.3	561.047
1275.59	690.564
1279.88	565.461
1284.17	438.725
1288.45	319.562
1292.73	534.551
1297.01	631.824
1301.28	318.361
1305.55	551.135
1309.82	792.113
1314.09	671.574
1318.35	773.566
1322.61	779.988
1326.87	477.607
1331.13	411.475
1335.38	289.57
1339.63	269.231
1343.88	261.897
1348.12	229.305
1352.37	106.211
1356.61	27.4414
1360.85	275.504
1365.08	33.75
1369.31	303.982
1373.54	236.631
1377.77	260.332
1381.99	381.467
1386.22	257.791
1390.43	313.598
1394.65	182.941
1398.87	1.99023
1403.08	256.471
1407.29	221.496
1411.49	244.703
1415.69	113.711
1419.89	71.834
1424.09	132.615
1428.29	382.478
1432.48	875.254
1436.67	1442.87
1440.86	2219.39
1445.04	2727.32
1449.23	2947.6
1453.4	3142.41
1457.58	3159.37
1461.76	2344.81
1465.93	1581.41
1470.1	1414.06
1474.26	989.406
1478.43	1017.79
1482.59	772.965
1486.75	694.078
1490.9	300.906
1495.06	66.3574
1499.21	50.6191
1503.35	2.29688
1507.5	31.5156
1511.64	32.0957
1515.78	209.369
1519.92	224.111
1524.05	165.807
1528.18	242.772
1532.31	835.514
1536.44	494.055
1540.56	380.721
1544.69	370.773
1548.8	267.432
1552.92	641.801
1557.03	320.916
1561.14	144.816
1565.25	237.106
1569.36	171.098
