Measurement: Raman, 514 nm, ccw, Raman Data Processed
Mineral: Clinozoisite
Rruff sample: R040085
Ideal chemistry: Ca_2_Al_3_(Si_2_O_7_)(SiO_4_)O(OH)
Locality: Alamos, Sonora, Mexico
Source: University of Arizona Mineral Museum
Description: Divergent aggregate of red thin prismatic crystals
Measured chemistry: Ca_2.03_(Al_0.90_Fe_0.13_)_3_(Si_1.00_O_4_)(Si_2.00_O_7_)O(OH)
Pin_id: S00323
Orientation: Laser parallel to a* (1 0 0). Fiducial mark perpendicular to laser is parallel to b [0 1 0]
Raman shift (cm-1)	intensity
137.024	0
139.81	5.096
142.596	9.961
145.38	69.922
148.163	185.664
150.945	232.424
153.726	237.393
156.507	278.568
159.286	384.787
162.064	405.139
164.842	510.051
167.618	566.562
170.393	925.643
173.168	987.049
175.941	970.541
178.714	565.846
181.485	582.703
184.256	300.854
187.025	400.133
189.794	270.422
192.562	28.367
195.328	303.697
198.094	136.564
200.859	441.102
203.623	186.514
206.385	562.686
209.147	519.979
211.908	647.756
214.668	586.012
217.427	854.734
220.185	633.883
222.942	763.014
225.698	582.146
228.453	881.391
231.207	1550.81
233.96	1890.46
236.713	1830.35
239.464	1520.52
242.214	1280.97
244.964	1081.71
247.712	1062.76
250.459	1004.1
253.206	985.742
255.951	877.709
258.696	680.098
261.439	632.389
264.182	620.164
266.924	573.432
269.665	746.982
272.404	970.811
275.143	1207.74
277.881	986.223
280.618	770.545
283.354	615.148
286.089	560.031
288.823	485.195
291.556	560.629
294.288	346.324
297.019	462.283
299.75	388.504
302.479	531.262
305.207	349.045
307.935	318.82
310.661	509.531
313.387	611.012
316.111	543.154
318.835	615.871
321.558	479.104
324.279	282.805
327	346.963
329.72	501.506
332.439	726.414
335.157	1021.67
337.874	1207.25
340.59	1393.13
343.305	1529.31
346.019	1815.76
348.733	2472.47
351.445	3159.43
354.156	2946.64
356.867	2573.89
359.576	1601.58
362.285	1008.97
364.992	597.602
367.699	475.914
370.405	294.424
373.11	204.469
375.814	33.342
378.516	11.162
381.218	132.664
383.92	131.549
386.62	35.822
389.319	107.801
392.017	167.502
394.714	277.881
397.411	287.902
400.106	538.1
402.801	78.465
405.495	49.135
408.187	50.041
410.879	149.035
413.57	27.914
416.26	143.371
418.949	224.844
421.637	356.629
424.324	768.49
427.01	1050.48
429.695	1212.7
432.379	1205.06
435.063	1260.8
437.745	1350.22
440.427	1162.88
443.108	1735.65
445.787	2208.55
448.466	2491.58
451.144	2704.76
453.821	2948.13
456.497	2501.67
459.172	2435.38
461.846	1869.24
464.519	1713.22
467.192	1397.42
469.863	1751.81
472.534	1726.48
475.203	1463.34
477.872	1316.25
480.54	1141.37
483.206	1026.64
485.872	574.934
488.537	710.475
491.201	776.199
493.864	512.033
496.527	367.971
499.188	574.02
501.848	681.164
504.508	756.402
507.166	982.736
509.824	1059.16
512.481	835.723
515.137	932.365
517.792	949.982
520.446	756.781
523.099	813.65
525.751	220.59
528.402	207.594
531.053	15.338
533.702	121.766
536.351	171.076
538.998	134.012
541.645	83.561
544.291	44.67
546.936	58.596
549.58	365.557
552.223	152.529
554.865	169.539
557.507	396.586
560.147	966.543
562.786	1041.52
565.425	1708.78
568.063	3171.91
570.7	5199.93
573.335	5313.26
575.97	3435.97
578.604	1793.55
581.238	1061.1
583.87	923.725
586.501	1224
589.132	1403.88
591.761	1684.36
594.39	2156.64
597.018	2584.94
599.645	3142.23
602.271	3869.86
604.896	3958.44
607.52	3909.62
610.143	3040.19
612.766	2700.69
615.387	1835.36
618.008	1609.02
620.628	1306.17
623.247	575.688
625.865	608.572
628.482	546.328
631.098	467.033
633.713	464.471
636.327	411.336
638.941	305.352
641.553	234.596
644.165	441.275
646.776	136.213
649.386	473.039
651.995	209.846
654.603	367.221
657.21	603.547
659.817	719.799
662.422	607.826
665.027	512.91
667.63	565.619
670.233	361.566
672.835	407.436
675.436	603.215
678.036	278.898
680.636	514.5
683.234	720.02
685.832	315.449
688.428	169.441
691.024	564.703
693.619	601.098
696.213	559.207
698.806	639.895
701.398	471.129
703.99	636.121
706.58	596.949
709.17	311.773
711.758	496.023
714.346	10.695
716.933	475.227
719.519	1219.51
722.105	363.551
724.689	257.438
727.272	98.77
729.855	174.812
732.437	518.25
735.017	801.371
737.597	185.777
740.176	33.289
742.755	18.938
745.332	170.957
747.908	17.152
750.484	64.523
753.059	196.074
755.633	117.535
758.206	99.984
760.778	70.137
763.349	1.23
765.919	157.863
768.489	22.711
771.057	593.105
773.625	163.301
776.192	13.344
778.758	26.758
781.323	182.957
783.887	442.441
786.451	301.707
789.013	320.883
791.575	60.039
794.136	478.82
796.696	207.566
799.255	63.336
801.813	161.805
804.371	210.117
806.927	278.336
809.483	206.465
812.037	204.508
814.591	352.465
817.144	360.34
819.697	578.137
822.248	395.801
824.798	303.336
827.348	470.793
829.897	827.293
832.445	524.629
834.992	311.945
837.538	339.25
840.083	356.5
842.628	643.711
845.171	700.887
847.714	558.055
850.256	315.246
852.797	862.445
855.337	749.633
857.876	847.504
860.415	964.629
862.953	604.113
865.489	1521.11
868.025	1445.16
870.56	1312
873.095	920.934
875.628	1727.55
878.16	1716.86
880.692	2373.43
883.223	1939.96
885.753	2271.02
888.282	2427.17
890.81	2518.01
893.338	2818.65
895.864	2645.2
898.39	3211.52
900.915	3779.99
903.439	3704.98
905.962	4461.25
908.484	5317.36
911.006	6373.12
913.526	7067.54
916.046	6857.41
918.565	5740.41
921.083	5534.53
923.6	4975.52
926.117	5005.33
928.632	3979.26
931.147	3490.83
933.661	3186.2
936.174	2478.14
938.686	1874.59
941.198	1640.52
943.708	1170.43
946.218	1196.31
948.727	1290.39
951.235	1221.17
953.742	775.363
956.248	1031.87
958.754	828.375
961.258	714.316
963.762	361.332
966.265	738.43
968.767	1285.37
971.269	982.664
973.769	533.387
976.269	990.914
978.767	1529.3
981.265	1387.32
983.762	995.273
986.259	1444.08
988.754	1323.18
991.249	1242.34
993.743	841.016
996.236	232.512
998.728	441.602
1001.22	840.906
1003.71	579.207
1006.2	52.691
1008.69	114.82
1011.18	233.895
1013.66	728.125
1016.15	333.793
1018.63	399.621
1021.12	325.656
1023.6	741.875
1026.09	668.438
1028.57	465.445
1031.05	642.828
1033.53	920.418
1036.01	768.102
1038.49	575.875
1040.97	1033.93
1043.44	1032.39
1045.92	1111.18
1048.4	1100.22
1050.87	1139.74
1053.35	1259.44
1055.82	1219.46
1058.29	259.785
1060.76	710.387
1063.23	551.191
1065.7	952.188
1068.17	513.453
1070.64	545
1073.11	606.707
1075.57	1258.28
1078.04	719.969
1080.5	471.711
1082.97	863.582
1085.43	1284.23
1087.89	1991.65
1090.36	1674.18
1092.82	2317.16
1095.28	2090.61
1097.73	1484.49
1100.19	508.859
1102.65	483.719
1105.11	1039.07
1107.56	694.902
1110.02	131.238
1112.47	498.078
1114.93	815.457
1117.38	533.398
1119.83	161.973
1122.28	561.289
1124.73	511.645
1127.18	783.277
1129.63	586.02
1132.08	160.016
1134.53	725.301
1136.97	962.16
1139.42	926.91
1141.86	7.199
1144.31	433.352
1146.75	924.441
1149.19	557.504
1151.63	196.914
1154.07	237.125
1156.51	637.625
1158.95	204.887
