Measurement: Raman, 514 nm, ccw, Raman Data Processed
Mineral: Clinozoisite
Rruff sample: R060284
Ideal chemistry: Ca_2_Al_3_(Si_2_O_7_)(SiO_4_)O(OH)
Locality: near Zagi Mountain, Khaffor Dehri, North-West Frontier Province, Pakistan
Source: Herb Obodda
Description: Greenish-brown fragment of a prismatic crystal
Measured chemistry: Ca_2.00_(Al_0.90_Fe^3+^_0.10_)_3_(Si_1.00_O_4_)(Si_2.00_O_7_)O(OH)
Pin_id: L00766
Orientation: Laser parallel to b* (0 1 0). Fiducial mark perpendicular to laser is parallel to c [0 0 1]
Raman shift (cm-1)	intensity
118.134	0
123.058	1102.43
127.979	4714.41
132.898	11646.7
137.814	17075.1
142.728	15801.4
147.639	12537.6
152.549	11270.5
157.455	12154.8
162.359	12599.5
167.261	11899.1
172.161	8286.44
177.058	4030.91
181.952	1150.3
186.845	223.361
191.734	700.582
196.622	442.638
201.507	330.299
206.389	1095.49
211.269	2063.37
216.147	3069.5
221.022	4289.48
225.895	6495.48
230.765	9158.84
235.633	9547.36
240.498	9655.39
245.361	14013.8
250.222	22371.5
255.08	24511
259.936	18737.1
264.789	12273.9
269.64	11926.6
274.488	13049.1
279.334	8932.51
284.178	3793.46
289.019	2382.35
293.857	2415.2
298.693	3059.49
303.527	2836.34
308.358	1947.29
313.187	1503.76
318.013	955.025
322.837	1281.33
327.659	2493.18
332.478	3443.66
337.294	3668.46
342.108	5003.44
346.92	8904.89
351.729	12881.5
356.535	10134.1
361.34	5224.62
366.141	2434.35
370.94	318.74
375.737	1069.28
380.531	1121.37
385.323	121.078
390.113	2373.6
394.9	4445.05
399.684	3994.73
404.466	1366.39
409.245	80.957
414.022	1967.38
418.797	7971.16
423.569	19314.3
428.338	25358
433.105	21119.4
437.87	17868.8
442.632	24441.9
447.391	35709.7
452.149	42078.1
456.903	36090.9
461.655	24553.2
466.405	18562.1
471.152	17054.9
475.897	16053.4
480.639	14466.4
485.378	12973
490.116	10218.5
494.85	7380.02
499.582	6230.31
504.312	6740.2
509.039	8804.85
513.764	11091.8
518.486	12360.9
523.206	12675
527.923	13148.8
532.638	9377.11
537.35	4044.04
542.059	2136.51
546.766	2056.92
551.471	3293.7
556.173	5330.18
560.873	9942.79
565.57	22011.4
570.264	38203
574.957	28568.8
579.646	9568.93
584.333	3950.41
589.018	3857.02
593.7	6458.56
598.379	11188.8
603.056	17122.2
607.73	17548.1
612.402	11128.7
617.072	5655.23
621.739	3134.36
626.403	1698.95
631.065	886.49
635.724	251.473
640.381	237.48
645.035	267.272
649.687	274.775
654.336	1500.89
658.983	2508.43
663.627	3150.5
668.268	3263.33
672.907	2698.25
677.544	2885.99
682.178	3618.46
686.809	4278.55
691.438	4374.18
696.065	4326.25
700.688	3577.67
705.31	2414.37
709.929	1121.26
714.545	213.257
719.158	40.0498
723.77	141.776
728.378	192.555
732.984	118.936
737.588	89.583
742.189	188.547
746.787	189.834
751.383	340.398
755.976	250.456
760.567	82.9668
765.155	60.9648
769.741	21.7471
774.324	82.9736
778.904	125.686
783.482	133.218
788.058	174.652
792.631	198.951
797.201	425.816
801.769	483.451
806.334	759.96
810.897	1149.47
815.457	1702.05
820.014	2405.78
824.569	3741.71
829.122	5390.91
833.671	6186.44
838.219	5868.4
842.763	5359.84
847.306	5380.85
851.845	5977.73
856.382	6975.15
860.917	8223.33
865.448	9820.02
869.978	12194.1
874.505	15827.1
879.029	18480.3
883.55	17165.2
888.069	12989.7
892.586	10241.7
897.1	10113.2
901.611	12346.3
906.12	16380.6
910.626	22040.9
915.129	25172.4
919.63	24968.5
924.129	22209.7
928.625	19772.3
933.118	17315.3
937.609	15178
942.097	12737.9
946.582	10119.7
951.065	8163.72
955.546	8212.84
960.023	8690.99
964.499	8606.4
968.971	7363.02
973.441	7268.88
977.909	9808.03
982.374	14890.6
986.836	15812.7
991.295	10779.3
995.753	5755.43
1000.21	3044.67
1004.66	1450.16
1009.11	419.637
1013.55	13.3389
1018	3.31152
1022.44	217.571
1026.88	499.673
1031.32	1350.33
1035.75	2386.85
1040.18	4358.46
1044.61	6107.79
1049.04	6827.94
1053.46	6148.02
1057.88	5139.92
1062.3	4587.2
1066.71	5190.83
1071.13	6808.77
1075.54	10167.4
1079.94	14879.2
1084.35	21944.6
1088.75	34332.5
1093.15	44709.3
1097.55	33175.3
1101.94	14840
1106.34	6183.69
1110.73	3201.42
1115.11	1881.09
1119.5	1137.13
1123.88	905.634
1128.26	583.354
1132.63	584.443
1137.01	453.185
1141.38	376.862
1145.75	215.53
1150.12	229.09
1154.48	75.2481
1158.84	5.49707
1163.2	23.0439
1167.55	3.60254
1171.91	42.0928
1176.26	105.135
1180.61	76.3438
1184.95	80.8027
1189.29	51.8252
1193.63	37.1357
1197.97	2.72461
1202.31	31.1895
1206.64	2.96289
1210.97	73.3486
1215.29	85.1582
1219.62	141.222
1223.94	74.7637
1228.26	128
1232.57	138.183
1236.89	175.296
1241.2	112.494
1245.51	123.287
1249.81	287.303
1254.12	274.041
1258.42	61.083
1262.72	296.397
1267.01	248.836
1271.3	456.505
1275.59	516.995
1279.88	345.508
1284.17	490.014
1288.45	346.898
1292.73	323.327
1297.01	345.738
1301.28	243.519
1305.55	398.378
1309.82	566.216
1314.09	454.698
1318.35	542.954
1322.61	503.923
1326.87	463.512
1331.13	301.676
1335.38	326.975
1339.63	396.927
1343.88	304.323
1348.12	323.146
1352.37	404.163
1356.61	303.574
1360.85	431.269
1365.08	438.095
1369.31	452.598
1373.54	452.768
1377.77	486.871
1381.99	361.526
1386.22	295.641
1390.43	285.428
1394.65	291.227
1398.87	271.704
1403.08	252.027
1407.29	347.748
1411.49	340.913
1415.69	151.026
1419.89	192.873
1424.09	307.508
1428.29	272.694
1432.48	196.083
1436.67	216.238
1440.86	362.325
1445.04	558.903
1449.23	628.234
1453.4	615.454
1457.58	761.671
1461.76	473.399
1465.93	462.129
1470.1	407.104
1474.26	281.276
1478.43	160.891
1482.59	183.817
1486.75	294.248
1490.9	109.936
1495.06	164.362
1499.21	29.6846
1503.35	186.667
1507.5	170.285
1511.64	232.906
1515.78	94.7519
1519.92	147.241
1524.05	154.849
1528.18	209.608
1532.31	201.953
1536.44	381.361
1540.56	172.866
1544.69	289.487
1548.8	99.9756
1552.92	72.8252
1557.03	69.4785
1561.14	200.365
1565.25	269.975
1569.36	73.3379
