Measurement: Raman, 514 nm, ccw, Raman Data Processed
Mineral: Clinochlore
Rruff sample: R060725
Ideal chemistry: Mg_5_Al(AlSi_3_O_10_)(OH)_8_
Locality: Crestmore Quarry, Riverside, California, USA
Source: Bob Jenkins
Description: Green transparent books of mica
Measured chemistry: (Mg_4.65_Al_1.12_Fe^2+^_0.17_[box]_0.06_)_Σ=6_(Si_3.00_Al_1.00_)_Σ=4_O_10_(OH)_8_
Pin_id: L01967
Raman shift (cm-1)	intensity
116.226	0
121.166	138.109
126.104	384.187
131.038	788.524
135.97	722.399
140.9	503.748
145.826	345.744
150.751	185.179
155.672	64.2571
160.591	17.9399
165.507	11.7585
170.421	55.8955
175.332	44.9519
180.241	98.7019
185.147	263.385
190.05	627.393
194.951	2094.39
199.849	4833.77
204.744	8495.6
209.637	7082.81
214.527	2466.34
219.415	987.106
224.3	540.206
229.182	301.59
234.062	103.219
238.939	25.0896
243.813	9.20508
248.685	15.4358
253.555	59.8438
258.421	0.320068
263.285	13.8096
268.147	44.396
273.005	208.951
277.862	424.832
282.715	516.855
287.566	285.874
292.414	220.785
297.26	177.808
302.103	147.004
306.944	182.234
311.782	74.4907
316.617	93.418
321.449	86.3308
326.279	114.593
331.107	178.613
335.931	266.208
340.754	438.81
345.573	859.581
350.39	1660.52
355.204	2527.61
360.016	2330.85
364.825	1369.24
369.631	621.894
374.435	363.565
379.236	252.371
384.034	211.308
388.83	353.373
393.623	433.15
398.414	148.753
403.202	46.1997
407.987	38.2351
412.77	72.8784
417.55	116.714
422.328	84.6638
427.103	207.726
431.875	286.9
436.644	317.188
441.411	296.78
446.176	237.821
450.937	390.416
455.696	398.95
460.453	624.94
465.207	778.192
469.958	859.186
474.706	730.245
479.452	472.377
484.196	251.585
488.936	148.866
493.674	92.2163
498.41	24.634
503.143	30.1152
507.873	73.6575
512.6	157.25
517.325	203.896
522.047	305.595
526.767	549.349
531.484	827.15
536.198	1171.1
540.91	1956.24
545.619	3670.61
550.326	5988.11
555.03	5006.7
559.731	1972.43
564.429	824.226
569.125	423.062
573.819	136.954
578.509	169.92
583.197	20.1348
587.883	65.375
592.565	66.9309
597.246	40.9309
601.923	25.3901
606.598	64.1013
611.27	99.5046
615.94	247.906
620.607	284.304
625.271	287.698
629.933	378.086
634.592	336.466
639.248	428.838
643.902	671.199
648.553	1026.55
653.202	1496.91
657.847	2160.09
662.491	3014.63
667.131	3780.93
671.769	4794.2
676.405	5776.8
681.037	6235.04
685.667	5610.78
690.295	4430.05
694.92	3188.02
699.542	2273.52
704.161	1453.24
708.778	1148.61
713.392	843.954
718.004	643.381
722.613	477.584
727.219	396.484
731.823	320.155
736.424	184.845
741.022	195.283
745.618	163.889
750.211	151.646
754.802	150.405
759.39	149.165
763.975	186.928
768.557	160.694
773.137	191.464
777.715	97.2383
782.289	149.018
786.861	83.8037
791.431	98.6001
795.998	65.4028
800.562	45.21
805.123	27.3999
809.682	28.1719
814.238	19.5723
818.792	7.68506
823.343	16.9551
827.891	0.744629
832.437	65.5813
836.98	0.127686
841.52	5.30029
846.058	18.2436
850.593	13.8027
855.125	15.4485
859.655	11.0317
864.182	120.503
868.707	61.3794
873.229	104.603
877.748	144.958
882.265	152.542
886.779	135.191
891.29	175.895
895.799	192.623
900.305	154.387
904.808	199.197
909.309	264.072
913.807	174.964
918.303	120.874
922.796	207.802
927.286	212.746
931.773	185.704
936.258	285.443
940.741	244.426
945.22	211.571
949.697	269.097
954.172	361.582
958.643	357.529
963.113	368.534
967.579	353.789
972.043	385.662
976.504	449.221
980.963	448.734
985.419	572.342
989.872	543.366
994.323	650.672
998.771	772.475
1003.22	821.063
1007.66	661.516
1012.1	500.489
1016.54	387.245
1020.97	353.402
1025.4	569.561
1029.83	721.045
1034.26	988.935
1038.68	1339.8
1043.11	1725.79
1047.53	1966.78
1051.94	2174.65
1056.36	1856.58
1060.77	1529.31
1065.17	1124.99
1069.58	780.624
1073.98	477.206
1078.38	314.969
1082.78	278.567
1087.18	336.079
1091.57	179.544
1095.96	53.9658
1100.35	86.3691
1104.73	12.8672
1109.11	49.2895
1113.49	102.557
1117.87	33.9722
1122.24	68.8442
1126.62	99.1538
1130.98	50.9399
1135.35	78.4912
1139.71	55.853
1144.08	61.0322
1148.43	42.9653
1152.79	92.7734
1157.14	36.4727
1161.49	0.913574
1165.84	0.587891
1170.18	101.93
1174.53	94.1401
1178.87	118.276
1183.2	24.335
1187.54	92.3144
1191.87	109.22
1196.2	122.054
1200.53	125.816
1204.85	99.3682
1209.17	101.935
1213.49	125.481
1217.81	69.9468
1222.12	76.3408
1226.43	76.6616
1230.74	119.38
1235.05	232.235
1239.35	139.525
1243.65	52.7651
1247.95	38.1904
1252.24	35.7778
1256.54	139.473
1260.82	111.513
1265.11	118.817
1269.4	37.2026
1273.68	101.603
1277.96	265.901
1282.23	127.311
1286.51	261.646
1290.78	252.065
1295.05	255.414
1299.31	172.881
1303.58	80.2173
1307.84	98.604
1312.1	169.677
1316.35	155.008
1320.61	103.34
1324.86	60.644
1329.1	151.903
1333.35	0.853516
1337.59	24.1235
1341.83	42.2056
1346.07	174.313
1350.3	65.3848
1354.53	63.374
1358.76	128.348
1362.99	184.24
1367.21	108.139
1371.43	90.1211
1375.65	127.311
1379.87	96.291
1384.08	15.5757
1388.29	78.6021
1392.5	86.1445
1396.71	72.5757
1400.91	69.9673
1405.11	32.4282
1409.31	112.103
1413.5	61.6606
1417.7	64.3701
1421.89	50.2119
1426.07	144.875
1430.26	43.5024
1434.44	196.346
1438.62	208.35
1442.8	246.523
1446.97	257.616
1451.14	262.665
1455.31	253.75
1459.48	107.907
1463.64	92.7622
1467.8	128.795
1471.96	146.592
1476.12	94.2754
1480.27	79.2715
1484.42	193.281
1488.57	139.243
1492.71	99.0674
1496.85	58.9092
1500.99	165.71
1505.13	17.498
1509.27	23.3682
1513.4	39.3267
1517.53	169.512
1521.65	110.105
1525.78	7.13916
1529.9	170.474
1534.02	72.1377
1538.13	31.6699
1542.25	65.4199
1546.36	80.4043
1550.47	112.525
1554.57	91.2022
1558.68	1.28809
1562.78	0
