Measurement: Raman, 514 nm, ccw, Raman Data Processed
Mineral: Clinohumite
Rruff sample: R040122
Ideal chemistry: Mg_9_(SiO_4_)_4_F_2_
Locality: Anzahamazonono,  Madagascar
Source: University of Arizona Mineral Museum
Description: Orange-brown blebs embedded in calcite matrix
Measured chemistry: (Mg_0.96_Fe_0.02_Ti_0.01_Ca_0.01_)_9_(SiO_4_)_4_(F_0.59_(OH)_0.41_)_2_
Pin_id: S00005
Orientation: Laser parallel to c* (0 0 1). Fiducial mark perpendicular to laser is parallel to a [1 0 0]
Raman shift (cm-1)	intensity
128.84	0
133.003	50.705
137.164	138.125
141.323	113.978
145.48	192.731
149.635	235.619
153.788	215.237
157.939	137.871
162.088	100.52
166.235	3.751
170.38	53.371
174.523	47.086
178.664	210.585
182.803	463.999
186.94	509.86
191.076	362.782
195.209	275.254
199.34	192.057
203.47	172.211
207.597	261.035
211.722	196.186
215.846	227.747
219.967	163.676
224.087	71.885
228.204	59.285
232.32	28.85
236.434	92.667
240.545	126.813
244.655	168.312
248.763	48.38
252.869	106.163
256.973	88.058
261.075	160.464
265.175	276.509
269.273	377.821
273.369	377.843
277.463	455.553
281.556	519.08
285.646	420.695
289.734	407.945
293.821	429.306
297.905	451.792
301.988	702.542
306.069	863.636
310.147	638.979
314.224	628.146
318.299	751.469
322.372	818.211
326.443	766.338
330.512	738.556
334.579	752.125
338.645	698.619
342.708	794.921
346.769	1019.94
350.829	1180.62
354.887	1114.84
358.942	728.584
362.996	534.851
367.048	405.612
371.098	273.78
375.146	249.316
379.192	134.224
383.236	152.461
387.279	137.443
391.319	80.311
395.358	21.769
399.394	77.673
403.429	120.026
407.462	101.807
411.493	50.404
415.522	61.168
419.549	59.628
423.575	91.912
427.598	235.142
431.619	234.634
435.639	173.201
439.657	191.128
443.673	222.273
447.687	239.883
451.699	213.951
455.709	195.246
459.717	378.4
463.724	401.955
467.728	588.674
471.731	454.265
475.732	600.823
479.731	638.27
483.728	878.6
487.723	1007.98
491.716	1277.55
495.708	1471.42
499.697	1351.26
503.685	1552.43
507.671	1459.68
511.655	1348
515.637	1325.08
519.617	1392.15
523.596	1542.53
527.572	1978.65
531.547	2392.74
535.52	2904.45
539.491	3105.13
543.46	3441.55
547.427	3845.36
551.393	2926.31
555.356	2015.86
559.318	1369
563.278	1014.26
567.236	895.494
571.192	767.367
575.147	692.619
579.099	426.604
583.05	589.326
586.999	373.479
590.946	376.231
594.891	417.216
598.834	586.82
602.776	765.2
606.715	882.46
610.653	878.864
614.589	544.129
618.523	509.34
622.456	263.895
626.386	168.286
630.315	151.438
634.242	94.15
638.167	26.515
642.09	47.959
646.012	50.542
649.931	114.255
653.849	28.268
657.765	64.045
661.679	31.581
665.592	9.058
669.502	18.136
673.411	75.691
677.318	48.199
681.223	46.434
685.126	39.755
689.028	121.894
692.927	2.812
696.825	202.492
700.721	161.022
704.616	258.437
708.508	454.774
712.399	370.147
716.288	434.711
720.175	938.625
724.06	1091.85
727.944	1513.07
731.825	2122.61
735.705	2859.76
739.584	3386.93
743.46	4373.35
747.334	5168.77
751.207	6412.89
755.078	6756.18
758.947	5880.46
762.815	4825.97
766.68	3470.78
770.544	3023.13
774.406	3382.15
778.267	4938.86
782.125	6704.28
785.982	7205.9
789.837	6379.21
793.69	5164.38
797.542	4057.96
801.391	3740.89
805.239	4835.06
809.085	5304.72
812.93	5368.14
816.772	6116.92
820.613	7739.45
824.452	13932.1
828.29	24148.9
832.125	21457.5
835.959	13749.4
839.791	12533.4
843.621	14818
847.45	13241.7
851.277	9316.98
855.102	8202.38
858.925	9908.4
862.746	7794.79
866.566	5004.79
870.384	3553.82
874.2	2284.8
878.015	1255.76
881.828	807.197
885.639	547.812
889.448	230.479
893.256	130.195
897.061	159.34
900.865	77.633
904.668	266.51
908.468	246.25
912.267	594.098
916.064	481.881
919.86	340.012
923.653	517.32
927.445	174.805
931.236	251.654
935.024	42.01
938.811	3.754
942.596	50.459
946.379	234.016
950.161	139.285
953.94	435.158
957.719	1011
961.495	2572.12
965.27	4873.2
969.043	4140.28
972.814	2178.19
976.583	958.143
980.351	286.666
984.117	454.803
987.882	225.34
991.644	321.824
995.405	104.293
999.165	29.77
1002.92	126.871
1006.68	64.104
1010.43	219.682
1014.18	366.807
1017.93	332.32
1021.68	201.969
1025.43	122.922
1029.18	2.688
1032.92	277.562
1036.66	28.799
1040.4	413.18
1044.14	384.961
1047.88	235.396
1051.62	390.68
1055.35	259.258
1059.08	410.156
1062.81	380.928
1066.54	309.947
1070.27	318.988
1073.99	146.117
1077.72	182.373
1081.44	289.561
1085.16	282.861
1088.88	291.57
1092.59	512.791
1096.31	312.178
1100.02	337.186
1103.73	12.221
1107.44	32.785
1111.15	171.832
1114.86	245.648
1118.57	249.473
1122.27	182.262
1125.97	5.508
1129.67	156.156
1133.37	46.348
1137.07	165.512
1140.76	215.375
1144.45	75.051
1148.15	122.566
1151.84	260.074
1155.53	227.887
1159.21	111.223
1162.9	145.602
1166.58	136.496
1170.26	261.438
1173.94	207.004
1177.62	322.766
1181.3	398.91
1184.97	172.836
1188.65	106.176
1192.32	79.715
1195.99	143.645
1199.66	515.887
1203.33	427.52
1206.99	529.848
1210.65	463.672
1214.32	326.152
1217.98	634.434
1221.64	523.102
1225.29	553.957
1228.95	732.512
1232.6	771.996
1236.26	879.148
1239.91	914.637
1243.56	700.109
1247.2	663.715
1250.85	494.887
1254.49	465.367
1258.13	692.848
1261.78	967.484
1265.41	967.664
1269.05	1195.41
1272.69	747.488
1276.32	793.406
1279.95	716
1283.59	379.766
1287.21	453.094
1290.84	678.711
1294.47	530.516
1298.09	529.516
1301.72	265.109
1305.34	147.121
1308.96	208.844
1312.58	85.031
1316.19	183.48
1319.81	124.145
1323.42	460.297
1327.03	707.664
1330.64	712.605
1334.25	342.535
1337.86	486.633
1341.46	273.246
1345.07	60.23
1348.67	26.066
1352.27	1.082
1355.87	245.32
1359.46	598.734
1363.06	531.562
1366.65	833.609
1370.25	376.164
1373.84	508.531
1377.43	377.023
1381.02	366.984
1384.6	400.113
1388.18	411.855
1391.77	283.391
1395.35	575.203
1398.93	744.301
1402.51	592.172
1406.08	1013.11
1409.66	706.566
1413.23	575.004
1416.8	164.391
1420.37	227.246
1423.94	20.371
1427.51	242.266
1431.08	148.484
1434.64	602.113
1438.2	438.047
1441.76	1084.27
1445.32	1067.1
1448.88	705.551
1452.43	460.918
1455.99	344.828
1459.54	141.445
1463.09	0
