Measurement: Raman, 514 nm, ccw, Raman Data Processed
Mineral: Clinochlore
Rruff sample: R060725
Ideal chemistry: Mg_5_Al(AlSi_3_O_10_)(OH)_8_
Locality: Crestmore Quarry, Riverside, California, USA
Source: Bob Jenkins
Description: Green transparent books of mica
Measured chemistry: (Mg_4.65_Al_1.12_Fe^2+^_0.17_[box]_0.06_)_Σ=6_(Si_3.00_Al_1.00_)_Σ=4_O_10_(OH)_8_
Pin_id: L01967
Raman shift (cm-1)	intensity
116.226	0
121.166	255.801
126.104	690.057
131.038	1103.45
135.97	1111.79
140.9	817.479
145.826	464.01
150.751	221.786
155.672	102.716
160.591	30.5977
165.507	26.4028
170.421	23.0273
175.332	76.3555
180.241	66.24
185.147	215.644
190.05	934.478
194.951	3230.24
199.849	7337.54
204.744	13007.5
209.637	9165.84
214.527	3168.16
219.415	1339.04
224.3	718.17
229.182	401.568
234.062	233.157
238.939	142.934
243.813	89.8975
248.685	30.0461
253.555	59.6235
258.421	58.4021
263.285	18.4705
268.147	77.7871
273.005	348.366
277.862	665.19
282.715	714.089
287.566	470.601
292.414	286.479
297.26	290.221
302.103	212.043
306.944	152.554
311.782	31.4243
316.617	53.6929
321.449	73.7956
326.279	214.225
331.107	296.48
335.931	503.829
340.754	702.927
345.573	1291.15
350.39	2450.5
355.204	3540.95
360.016	3151.51
364.825	1744.97
369.631	773.484
374.435	432.484
379.236	410.878
384.034	337.982
388.83	436.13
393.623	522.939
398.414	241.446
403.202	70.9595
407.987	138.418
412.77	48.2441
417.55	112.873
422.328	157.497
427.103	355.134
431.875	300.802
436.644	458.993
441.411	357.441
446.176	343.664
450.937	347.27
455.696	446.491
460.453	703.725
465.207	921.859
469.958	1038.33
474.706	893.819
479.452	549.339
484.196	291.9
488.936	146.499
493.674	84.1338
498.41	13.8023
503.143	33.5015
507.873	75.2285
512.6	131.981
517.325	286.757
522.047	487.553
526.767	775.586
531.484	1168.33
536.198	1659.46
540.91	2926.81
545.619	5594.45
550.326	8783.31
555.03	6563.34
559.731	2561.5
564.429	1105.76
569.125	487.575
573.819	262.272
578.509	103.568
583.197	78.1689
587.883	66.3018
592.565	47.2632
597.246	74.417
601.923	33.6348
606.598	77.5649
611.27	259.462
615.94	242.336
620.607	457.185
625.271	420.01
629.933	405.81
634.592	473.584
639.248	637.333
643.902	799.055
648.553	1313.75
653.202	2017.42
657.847	2808.06
662.491	3877.72
667.131	5255.16
671.769	6818.78
676.405	8142.41
681.037	8618.88
685.667	7660.31
690.295	5914.22
694.92	4217.5
699.542	2958.93
704.161	2072.12
708.778	1619.25
713.392	1262.35
718.004	1052.75
722.613	814.55
727.219	683.721
731.823	460.095
736.424	384.147
741.022	215.586
745.618	201.775
750.211	166.67
754.802	132.584
759.39	179.519
763.975	228.475
768.557	214.453
773.137	219.455
777.715	233.481
782.289	333.535
786.861	275.615
791.431	127.724
795.998	95.8613
800.562	11.9717
805.123	38.8472
809.682	39.082
814.238	52.8516
818.792	73.6348
823.343	13.4531
827.891	19.2725
832.437	80.9795
836.98	19.5146
841.52	74.0752
846.058	0.129395
850.593	63.1719
855.125	137.829
859.655	10.9273
864.182	29.6855
868.707	82.791
873.229	148.276
877.748	173.49
882.265	194.065
886.779	220.076
891.29	188.138
895.799	278.245
900.305	158.398
904.808	208.596
909.309	275.839
913.807	272.126
918.303	157.451
922.796	262.815
927.286	198.213
931.773	202.645
936.258	261.348
940.741	213.396
945.22	273.175
949.697	367.641
954.172	392.249
958.643	382.894
963.113	402.044
967.579	422.184
972.043	520.626
976.504	537.832
980.963	653.174
985.419	807.838
989.872	843.776
994.323	1257.43
998.771	1826.89
1003.22	2211.29
1007.66	1149.75
1012.1	686.405
1016.54	627.454
1020.97	713.346
1025.4	803.928
1029.83	1151.45
1034.26	1572.01
1038.68	1987.54
1043.11	2421.1
1047.53	2802.37
1051.94	2813.19
1056.36	2455.91
1060.77	2053.74
1065.17	1371.71
1069.58	1014.61
1073.98	676.48
1078.38	412.395
1082.78	331.293
1087.18	349.109
1091.57	180.837
1095.96	117.499
1100.35	93.1519
1104.73	57.7642
1109.11	69.98
1113.49	0.783203
1117.87	56.6782
1122.24	12.5185
1126.62	70.4585
1130.98	40.0225
1135.35	39.333
1139.71	151.444
1144.08	73.3574
1148.43	27.1685
1152.79	87.8706
1157.14	206.501
1161.49	104.034
1165.84	98.4697
1170.18	128.805
1174.53	130.037
1178.87	258.17
1183.2	168.21
1187.54	195.157
1191.87	268.015
1196.2	187.784
1200.53	145.466
1204.85	146.061
1209.17	150.571
1213.49	167.995
1217.81	254.333
1222.12	215.591
1226.43	272.766
1230.74	230.753
1235.05	233.593
1239.35	160.907
1243.65	141.206
1247.95	70.4351
1252.24	93.1709
1256.54	68.2383
1260.82	186.188
1265.11	193.718
1269.4	296.1
1273.68	423.338
1277.96	478.022
1282.23	652.862
1286.51	934.468
1290.78	861.387
1295.05	684.949
1299.31	585.474
1303.58	469.934
1307.84	353.634
1312.1	389.34
1316.35	318.047
1320.61	254.846
1324.86	214.636
1329.1	120.274
1333.35	251.067
1337.59	134.894
1341.83	182.758
1346.07	198.624
1350.3	107.454
1354.53	113.289
1358.76	44.0864
1362.99	142.904
1367.21	107.902
1371.43	70.0996
1375.65	128.387
1379.87	47.1333
1384.08	42.4209
1388.29	12.7969
1392.5	39.0513
1396.71	78.0024
1400.91	34.9644
1405.11	49.1216
1409.31	70.2856
1413.5	2.63916
1417.7	24.0107
1421.89	169.249
1426.07	188.009
1430.26	290.549
1434.44	545.798
1438.62	686.79
1442.8	709.013
1446.97	607.444
1451.14	533.326
1455.31	511.344
1459.48	513.515
1463.64	330.862
1467.8	272.661
1471.96	260.392
1476.12	208.312
1480.27	190.589
1484.42	177.488
1488.57	124.738
1492.71	172.015
1496.85	175.971
1500.99	180.379
1505.13	82.4766
1509.27	144.445
1513.4	182.805
1517.53	187.909
1521.65	117.525
1525.78	128.051
1529.9	190.425
1534.02	163.318
1538.13	29.1811
1542.25	134.584
1546.36	169.894
1550.47	92.0757
1554.57	220.19
1558.68	91.4639
1562.78	0
