Measurement: Raman, 514 nm, ccw, Raman Data Processed
Mineral: Clinozoisite
Rruff sample: R060284
Ideal chemistry: Ca_2_Al_3_(Si_2_O_7_)(SiO_4_)O(OH)
Locality: near Zagi Mountain, Khaffor Dehri, North-West Frontier Province, Pakistan
Source: Herb Obodda
Description: Greenish-brown fragment of a prismatic crystal
Measured chemistry: Ca_2.00_(Al_0.90_Fe^3+^_0.10_)_3_(Si_1.00_O_4_)(Si_2.00_O_7_)O(OH)
Pin_id: L01751
Orientation: Laser parallel to (1 0 1). Fiducial mark perpendicular to laser is parallel to -b [0 -1 0]
Raman shift (cm-1)	intensity
118.134	0
123.058	197.535
127.979	331.269
132.898	17.8408
137.814	81.1943
142.728	251.973
147.639	1061.34
152.549	1920.08
157.455	2741.47
162.359	3534.98
167.261	4523.97
172.161	5933.81
177.058	4935
181.952	2610.59
186.845	1462.12
191.734	1263.48
196.622	1739.61
201.507	2878.47
206.389	4173.32
211.269	5488.01
216.147	6179.12
221.022	6575.02
225.895	8163.98
230.765	11676.2
235.633	14333.6
240.498	11693.5
245.361	8901.84
250.222	8681
255.08	7469.93
259.936	5305.16
264.789	4014.26
269.64	5922.71
274.488	8140.63
279.334	5685.32
284.178	3401.86
289.019	3094.54
293.857	3018.36
298.693	2901.93
303.527	3101.96
308.358	3864.14
313.187	4614.27
318.013	3623.23
322.837	3151.74
327.659	3993.7
332.478	6417.22
337.294	10202.4
342.108	14304.7
346.92	21339.2
351.729	26867
356.535	19480
361.34	9203.44
366.141	4121.21
370.94	1563.35
375.737	50.8789
380.531	591.581
385.323	573.72
390.113	145.56
394.9	1542.38
399.684	1705.79
404.466	388.968
409.245	626.898
414.022	271.971
418.797	2370.28
423.569	7109.46
428.338	10391.1
433.105	9642.46
437.87	9698.47
442.632	14009.1
447.391	20600.3
452.149	25037.3
456.903	21857.4
461.655	16448.4
466.405	14012.8
471.152	13116.9
475.897	11485.8
480.639	9746.5
485.378	7502.99
490.116	5441.16
494.85	4295.93
499.582	4984.07
504.312	6544.21
509.039	7473.15
513.764	6616.81
518.486	5885.94
523.206	4171.74
527.923	1952.32
532.638	537.317
537.35	187.89
542.059	219.519
546.766	709.191
551.471	1594.4
556.173	3597.02
560.873	8884.75
565.57	22866.5
570.264	44492.1
574.957	33667.6
579.646	13654.9
584.333	8953.54
589.018	11519.6
593.7	16841.3
598.379	23877.4
603.056	30742.4
607.73	28748.1
612.402	18323
617.072	10641.7
621.739	6240.69
626.403	3317.43
631.065	2066.56
635.724	1748.32
640.381	1516.8
645.035	1550.42
649.687	2500.24
654.336	4026.93
658.983	4532.38
663.627	3559.53
668.268	2633.78
672.907	2171.19
677.544	2157.24
682.178	2365.06
686.809	2527.59
691.438	2680.41
696.065	3202.87
700.688	3975.39
705.31	3582.46
709.929	2167.02
714.545	980.032
719.158	407.461
723.77	171.247
728.378	8.83789
732.984	25.6079
737.588	104.27
742.189	104.037
746.787	203.106
751.383	218.648
755.976	307.852
760.567	86.8481
765.155	212.375
769.741	216.508
774.324	176.011
778.904	67.3535
783.482	11.9604
788.058	15.5044
792.631	73.1108
797.201	77.4507
801.769	214.911
806.334	368.66
810.897	560.783
815.457	862.327
820.014	1215.34
824.569	1759.85
829.122	2568.91
833.671	3245.53
838.219	3584.74
842.763	3869.58
847.306	3998.1
851.845	4301.34
856.382	5146.38
860.917	6184.78
865.448	7619.83
869.978	9948.92
874.505	12508.6
879.029	15582
883.55	17664.9
888.069	18280.5
892.586	20324.7
897.1	24302
901.611	30186.7
906.12	40514.4
910.626	53225.1
915.129	57014.4
919.63	51150.1
924.129	41758.7
928.625	34209.2
933.118	26484.9
937.609	17997.3
942.097	11902.1
946.582	7762.18
951.065	5863.25
955.546	5289.31
960.023	5019.28
964.499	5132.29
968.971	5264.29
973.441	6109.32
977.909	9042.43
982.374	13779.6
986.836	14298.1
991.295	8804.85
995.753	4284.84
1000.21	2199.33
1004.66	1082.57
1009.11	440.163
1013.55	252.91
1018	554.009
1022.44	1184.49
1026.88	2394.43
1031.32	3058.85
1035.75	3434.74
1040.18	4322.53
1044.61	5089.93
1049.04	5251.83
1053.46	4277.11
1057.88	2860.88
1062.3	1687.71
1066.71	953.89
1071.13	895.663
1075.54	1320.75
1079.94	2153.55
1084.35	4449.04
1088.75	9194.57
1093.15	14025
1097.55	10740.9
1101.94	4624.17
1106.34	2116.39
1110.73	1077.56
1115.11	874.024
1119.5	916.981
1123.88	681.288
1128.26	326.933
1132.63	122.078
1137.01	68.835
1141.38	57.0772
1145.75	58.9863
1150.12	7.49512
1154.48	42.5898
1158.84	34.4463
1163.2	117.983
1167.55	46.124
1171.91	79.4853
1176.26	151.825
1180.61	126.999
1184.95	0.402344
1189.29	50.7129
1193.63	48.791
1197.97	8.11914
1202.31	2.87598
1206.64	64.1777
1210.97	65.3574
1215.29	105.13
1219.62	128.685
1223.94	36.7051
1228.26	113.086
1232.57	95.7637
1236.89	3.50195
1241.2	194.252
1245.51	90.7432
1249.81	136.735
1254.12	147.732
1258.42	117.258
1262.72	218.82
1267.01	198.327
1271.3	178.005
1275.59	325.099
1279.88	289.65
1284.17	230.769
1288.45	210.191
1292.73	166.733
1297.01	281.376
1301.28	254.83
1305.55	242.315
1309.82	179.091
1314.09	250.754
1318.35	196.814
1322.61	195.497
1326.87	210.967
1331.13	214.852
1335.38	165.576
1339.63	224.654
1343.88	196.909
1348.12	276.115
1352.37	342.741
1356.61	180.81
1360.85	265.365
1365.08	209.585
1369.31	261.91
1373.54	149.835
1377.77	271.429
1381.99	292.87
1386.22	248.742
1390.43	137.683
1394.65	115.296
1398.87	266.456
1403.08	143.632
1407.29	216.517
1411.49	97.1699
1415.69	91.9717
1419.89	247.288
1424.09	84.9394
1428.29	124.685
1432.48	71.6846
1436.67	114.155
1440.86	143.5
1445.04	66.2227
1449.23	198.075
1453.4	165.172
1457.58	214.648
1461.76	150.254
1465.93	98.0869
1470.1	248.893
1474.26	63.8272
1478.43	130.918
1482.59	142.145
1486.75	158.852
1490.9	218.778
1495.06	107.913
1499.21	193.866
1503.35	93.5469
1507.5	143.279
1511.64	137.894
1515.78	20.6094
1519.92	109.912
1524.05	94.9316
1528.18	134.754
1532.31	179.603
1536.44	186.416
1540.56	99.2822
1544.69	89.7578
1548.8	162.562
1552.92	153.131
1557.03	56.248
1561.14	102.374
1565.25	72.7607
1569.36	119.1
