Measurement: Raman, 514 nm, ccw, Raman Data Processed
Mineral: Clinozoisite
Rruff sample: R060284
Ideal chemistry: Ca_2_Al_3_(Si_2_O_7_)(SiO_4_)O(OH)
Locality: near Zagi Mountain, Khaffor Dehri, North-West Frontier Province, Pakistan
Source: Herb Obodda
Description: Greenish-brown fragment of a prismatic crystal
Measured chemistry: Ca_2.00_(Al_0.90_Fe^3+^_0.10_)_3_(Si_1.00_O_4_)(Si_2.00_O_7_)O(OH)
Pin_id: L01751
Orientation: Laser parallel to (1 0 1). Fiducial mark perpendicular to laser is parallel to -b [0 -1 0]
Raman shift (cm-1)	intensity
118.134	0
123.058	15.9746
127.979	351.06
132.898	1576.64
137.814	4051.11
142.728	6712.95
147.639	7353.2
152.549	7077.35
157.455	6809.75
162.359	7778.57
167.261	9177.76
172.161	7763.41
177.058	5254.68
181.952	2886.51
186.845	1290.76
191.734	620.045
196.622	79.7978
201.507	103.456
206.389	12.2031
211.269	64.7022
216.147	119.127
221.022	110.162
225.895	554.255
230.765	2174.26
235.633	4956.88
240.498	8348.37
245.361	12630.4
250.222	19111.8
255.08	23881.1
259.936	19839
264.789	12126.6
269.64	8100.6
274.488	6254.72
279.334	4585.91
284.178	3153
289.019	2441.45
293.857	2541.6
298.693	2572.34
303.527	2593.71
308.358	2222.58
313.187	1680.74
318.013	1372.9
322.837	2204.66
327.659	3773.16
332.478	6692.35
337.294	9605.11
342.108	11983.4
346.92	16735.1
351.729	21845.3
356.535	18208.5
361.34	8809.46
366.141	3812.58
370.94	1565.18
375.737	246.63
380.531	205.471
385.323	233.834
390.113	370.688
394.9	773.601
399.684	715.664
404.466	149.864
409.245	362.749
414.022	291.851
418.797	1878.7
423.569	5250.25
428.338	8495.45
433.105	9004.27
437.87	9848.69
442.632	15951.7
447.391	29022.5
452.149	42932.5
456.903	42140.5
461.655	29753.6
466.405	22800.6
471.152	21028.8
475.897	20911.3
480.639	20615.9
485.378	19926.5
490.116	14884.3
494.85	9553.45
499.582	6642.21
504.312	6343.29
509.039	6948.82
513.764	7509
518.486	9039.47
523.206	9621.97
527.923	9645.91
532.638	7915.73
537.35	3686.01
542.059	1324.4
546.766	603.552
551.471	692.244
556.173	1758.16
560.873	4182.72
565.57	9783.25
570.264	17545.7
574.957	16219.1
579.646	5425.51
584.333	2196.9
589.018	2130.76
593.7	2803.38
598.379	3793.49
603.056	4986.73
607.73	4927.59
612.402	3421.09
617.072	1799.95
621.739	959.781
626.403	436.185
631.065	45.8105
635.724	48.8047
640.381	59.5791
645.035	285.253
649.687	722.451
654.336	1825.44
658.983	2234.91
663.627	1666.73
668.268	1224.28
672.907	1030.1
677.544	1146.39
682.178	1603.11
686.809	1917.26
691.438	2142.49
696.065	2169.05
700.688	2228.99
705.31	1932.18
709.929	1196.58
714.545	368.163
719.158	235.888
723.77	11.294
728.378	126.356
732.984	100.819
737.588	30.9492
742.189	77.8252
746.787	41.581
751.383	59.668
755.976	130.276
760.567	30.248
765.155	37.3652
769.741	87.9375
774.324	23.252
778.904	48.5996
783.482	5.11621
788.058	0.538086
792.631	23.5693
797.201	195.33
801.769	165.784
806.334	236.184
810.897	339.577
815.457	424.981
820.014	639.41
824.569	799.883
829.122	1153.41
833.671	1221.99
838.219	1424.62
842.763	1951.35
847.306	2357.17
851.845	3382.12
856.382	4478.08
860.917	6069.46
865.448	8235.33
869.978	11564.1
874.505	15522.1
879.029	19027.2
883.55	18087.5
888.069	13423.8
892.586	9643.38
897.1	7665.69
901.611	5995.64
906.12	4506.02
910.626	3833.15
915.129	3476.85
919.63	2748.59
924.129	1860.66
928.625	1415.02
933.118	1150.84
937.609	1073.57
942.097	796.904
946.582	590.619
951.065	587.58
955.546	599.842
960.023	735.394
964.499	1149.23
968.971	1423.39
973.441	2332.9
977.909	4499.82
982.374	8035.15
986.836	9815.89
991.295	6574.08
995.753	3375.9
1000.21	1732.83
1004.66	875.202
1009.11	356.471
1013.55	13.9131
1018	13.8252
1022.44	357.91
1026.88	588.047
1031.32	787.032
1035.75	280.192
1040.18	295.372
1044.61	97.624
1049.04	52.706
1053.46	4.90332
1057.88	85.3662
1062.3	371.667
1066.71	627.339
1071.13	985.785
1075.54	1739.56
1079.94	2965.58
1084.35	5070.01
1088.75	8989.95
1093.15	12154.2
1097.55	9666.13
1101.94	4077.05
1106.34	2041.15
1110.73	1450.26
1115.11	1296.09
1119.5	837.602
1123.88	676.148
1128.26	375.141
1132.63	267.827
1137.01	2.48633
1141.38	78.8115
1145.75	181.641
1150.12	267.387
1154.48	7.27832
1158.84	142.007
1163.2	17.7578
1167.55	81.0322
1171.91	50.3623
1176.26	51.8926
1180.61	4.85156
1184.95	39.2383
1189.29	96.1397
1193.63	47.5117
1197.97	117.85
1202.31	30.8311
1206.64	31.3916
1210.97	13.459
1215.29	52.627
1219.62	58.4355
1223.94	59.1494
1228.26	48.919
1232.57	78.3887
1236.89	0.293945
1241.2	96.8037
1245.51	104.787
1249.81	135.595
1254.12	72.1787
1258.42	147.265
1262.72	24.7949
1267.01	80.958
1271.3	279.643
1275.59	1.10156
1279.88	228.022
1284.17	5.34766
1288.45	204.737
1292.73	55.0449
1297.01	165.66
1301.28	92.1025
1305.55	8.13965
1309.82	222.258
1314.09	240.543
1318.35	179.043
1322.61	276.175
1326.87	272.348
1331.13	351.343
1335.38	166.947
1339.63	183.499
1343.88	277.789
1348.12	173.078
1352.37	122.494
1356.61	414.951
1360.85	272.116
1365.08	365.942
1369.31	270.058
1373.54	354.054
1377.77	318.556
1381.99	190.359
1386.22	359.275
1390.43	239.641
1394.65	220.287
1398.87	228.179
1403.08	279.56
1407.29	269.338
1411.49	208.42
1415.69	221.151
1419.89	306.915
1424.09	225.054
1428.29	83.6543
1432.48	103.576
1436.67	278.938
1440.86	82.085
1445.04	108.427
1449.23	325.154
1453.4	301.701
1457.58	152.894
1461.76	191.675
1465.93	189.94
1470.1	20.0117
1474.26	221.526
1478.43	127.587
1482.59	188.952
1486.75	206.71
1490.9	119.019
1495.06	133.422
1499.21	21.3457
1503.35	51.9951
1507.5	48.7637
1511.64	163.004
1515.78	205.452
1519.92	58.9121
1524.05	282.033
1528.18	141.453
1532.31	206.643
1536.44	268.147
1540.56	225.103
1544.69	55.873
1548.8	144.62
1552.92	147.828
1557.03	100.03
1561.14	106.994
1565.25	32.5908
1569.36	125.09
