Measurement: Raman, 514 nm, ccw, Raman Data Processed
Mineral: Clinozoisite
Rruff sample: R040085
Ideal chemistry: Ca_2_Al_3_(Si_2_O_7_)(SiO_4_)O(OH)
Locality: Alamos, Sonora, Mexico
Source: University of Arizona Mineral Museum
Description: Divergent aggregate of red thin prismatic crystals
Measured chemistry: Ca_2.03_(Al_0.90_Fe_0.13_)_3_(Si_1.00_O_4_)(Si_2.00_O_7_)O(OH)
Pin_id: S00323
Orientation: Laser parallel to a* (1 0 0). Fiducial mark perpendicular to laser is parallel to b [0 1 0]
Raman shift (cm-1)	intensity
137.024	0
141.203	93.721
145.38	57.92
149.554	177.514
153.726	30.736
157.896	251.492
162.064	393.262
166.23	524.271
170.393	650.561
174.555	405.568
178.714	297.371
182.871	161.215
187.025	43.254
191.178	103.719
195.328	41.947
199.476	68.723
203.623	118.344
207.766	63.127
211.908	145.879
216.048	159.496
220.185	130.287
224.32	88.742
228.453	303.955
232.584	459.602
236.713	545.686
240.839	582.172
244.964	929.061
249.086	1226.27
253.206	1653.8
257.324	1671.54
261.439	1359.91
265.553	1207.13
269.665	1428.86
273.774	1399.25
277.881	1364.78
281.986	1037.16
286.089	998.674
290.19	690.625
294.288	442.996
298.385	545.779
302.479	506.85
306.571	355.387
310.661	515.127
314.749	485.562
318.835	716.473
322.919	847.734
327	839.318
331.08	981.09
335.157	1223
339.232	1544.91
343.305	1817.38
347.376	2019.91
351.445	2540.86
355.512	2233.23
359.576	1574.68
363.639	828.232
367.699	757.193
371.757	482.008
375.814	493.914
379.868	314.07
383.92	207.041
387.969	343.438
392.017	449.654
396.063	330.191
400.106	317.287
404.148	204.426
408.187	221.934
412.224	49.854
416.26	111.914
420.293	36.588
424.324	295.584
428.353	724.949
432.379	744.531
436.404	544.303
440.427	874.24
444.448	1324.3
448.466	1894.56
452.482	2805.02
456.497	2365.64
460.509	1826.5
464.519	1277.56
468.527	1248.92
472.534	1210.47
476.538	1072.57
480.54	1003.13
484.539	918.432
488.537	846.205
492.533	568.842
496.527	331.426
500.518	464.225
504.508	537.148
508.495	791.855
512.481	615.121
516.464	728.801
520.446	702.383
524.425	426.039
528.402	649.881
532.377	583.83
536.351	32.227
540.322	231.695
544.291	14.543
548.258	29.588
552.223	127.102
556.186	206.391
560.147	575.764
564.106	734.709
568.063	1729.3
572.018	2419.88
575.97	1902.31
579.921	953.156
583.87	438.736
587.817	534.469
591.761	668.281
595.704	1112.96
599.645	1096.9
603.583	1702.35
607.52	1529.5
611.455	1273.83
615.387	1164.33
619.318	577.08
623.247	391.113
627.173	273.676
631.098	298.457
635.02	50.473
638.941	223.453
642.859	40.027
646.776	74.4
650.691	176.209
654.603	223.977
658.514	355.109
662.422	40.965
666.329	270.771
670.233	586.561
674.136	169.111
678.036	178.258
681.935	167.291
685.832	425.967
689.726	514.395
693.619	621.518
697.51	295.754
701.398	445.67
705.285	563.119
709.17	254.393
713.052	593.16
716.933	379.266
720.812	104.758
724.689	120.564
728.564	205.383
732.437	379.824
736.308	56.307
740.176	66.711
744.043	179.305
747.908	71.611
751.771	103.629
755.633	115.365
759.492	40.969
763.349	187.896
767.204	428.666
771.057	359.098
774.909	319.139
778.758	158.732
782.605	7.973
786.451	306.904
790.294	134.859
794.136	161.762
797.976	324.346
801.813	161.938
805.649	109.424
809.483	186.615
813.315	583.473
817.144	378.457
820.972	72.232
824.798	26.299
828.623	279.105
832.445	554.605
836.265	699.867
840.083	265.055
843.9	379.992
847.714	424.887
851.527	649.691
855.337	1034.51
859.146	1179.37
862.953	1084.52
866.757	1649.11
870.56	2127.61
874.361	2606.25
878.16	2319.16
881.958	2526.5
885.753	2807.46
889.546	3263.14
893.338	3883.24
897.127	3705.18
900.915	3277.43
904.7	3249.64
908.484	2712.19
912.266	2782.04
916.046	3062.26
919.824	2864.04
923.6	2059.36
927.375	1972.28
931.147	1363.46
934.918	1264.26
938.686	896.961
942.453	959.684
946.218	721.773
949.981	1020.31
953.742	530.258
957.501	422.688
961.258	419.578
965.014	542.754
968.767	801.332
972.519	449.316
976.269	330.43
980.017	538.895
983.762	403.656
987.507	788.961
991.249	795.098
994.989	831.465
998.728	236.902
1002.46	327.008
1006.2	17.016
1009.93	178.953
1013.66	525.535
1017.39	342.527
1021.12	459.238
1024.85	711.383
1028.57	608.082
1032.29	621.574
1036.01	673.906
1039.73	659.008
1043.44	894.336
1047.16	839.848
1050.87	795.664
1054.58	431.859
1058.29	18.625
1062	665.773
1065.7	793.262
1069.4	921.238
1073.11	629.734
1076.81	704.512
1080.5	434.078
1084.2	683.926
1087.89	1464.09
1091.59	1704.52
1095.28	1534.81
1098.96	984.707
1102.65	175.898
1106.34	587.184
1110.02	309.188
1113.7	241.914
1117.38	475.402
1121.06	479.656
1124.73	714.758
1128.41	100.707
1132.08	7.879
1135.75	56.059
1139.42	535.438
1143.08	936.32
1146.75	868.938
1150.41	721.965
1154.07	356.25
1157.73	486.746
1161.39	135.375
1165.05	286.805
1168.7	488.699
1172.35	877.23
1176	446.113
1179.65	0
