Measurement: Raman, 514 nm, ccw, Raman Data Processed
Mineral: Clinochlore
Rruff sample: R060725
Ideal chemistry: Mg_5_Al(AlSi_3_O_10_)(OH)_8_
Locality: Crestmore Quarry, Riverside, California, USA
Source: Bob Jenkins
Description: Green transparent books of mica
Measured chemistry: (Mg_4.65_Al_1.12_Fe^2+^_0.17_[box]_0.06_)_Σ=6_(Si_3.00_Al_1.00_)_Σ=4_O_10_(OH)_8_
Pin_id: L01967
Raman shift (cm-1)	intensity
116.226	0
121.166	239.57
126.104	899.391
131.038	1583.71
135.97	1552.42
140.9	1163.12
145.826	714.183
150.751	465.946
155.672	224.257
160.591	87.1689
165.507	70.6006
170.421	3.64014
175.332	46.2395
180.241	33.3262
185.147	33.3152
190.05	148.387
194.951	310.822
199.849	739.903
204.744	1336.73
209.637	961.102
214.527	335.851
219.415	112.868
224.3	56.8955
229.182	17.9421
234.062	9.09326
238.939	1.35644
243.813	46.2625
248.685	27.8084
253.555	68.583
258.421	10.345
263.285	68.3547
268.147	1.98853
273.005	153.955
277.862	234.269
282.715	284.508
287.566	258.519
292.414	198.186
297.26	183.207
302.103	173.152
306.944	176.252
311.782	158.669
316.617	208.531
321.449	273.121
326.279	278.935
331.107	362.774
335.931	466.495
340.754	648.202
345.573	1143.9
350.39	2060.78
355.204	2938.76
360.016	2746.84
364.825	1743.01
369.631	986.274
374.435	638.206
379.236	498.906
384.034	470.372
388.83	435.677
393.623	418.256
398.414	289.394
403.202	180.132
407.987	145.2
412.77	289.012
417.55	279.26
422.328	347.545
427.103	423.865
431.875	422.228
436.644	390.638
441.411	433.112
446.176	441.007
450.937	390.422
455.696	476.229
460.453	591.176
465.207	575.086
469.958	406.157
474.706	122.267
479.452	216.474
484.196	200.772
488.936	128.158
493.674	112.178
498.41	145.193
503.143	157.839
507.873	219.568
512.6	261.379
517.325	361.274
522.047	505.287
526.767	751.483
531.484	981.841
536.198	1176.5
540.91	1492.41
545.619	2457.62
550.326	3807.06
555.03	3066.72
559.731	1398.45
564.429	771.289
569.125	439.221
573.819	306.292
578.509	145.563
583.197	35.9263
587.883	47.3291
592.565	52.4556
597.246	102.463
601.923	45.0486
606.598	11.5212
611.27	0.155273
615.94	39.1189
620.607	89.167
625.271	145.58
629.933	176.889
634.592	163.232
639.248	238.609
643.902	265.016
648.553	461.452
653.202	673.917
657.847	1095.41
662.491	1488.92
667.131	2049.45
671.769	2728
676.405	3477.56
681.037	3856.13
685.667	3697.7
690.295	3051.74
694.92	2444.29
699.542	1838.09
704.161	1447.87
708.778	1036.77
713.392	890.643
718.004	750.573
722.613	561.393
727.219	467.414
731.823	335.671
736.424	304.731
741.022	201.972
745.618	188.446
750.211	211.096
754.802	92.5908
759.39	226.835
763.975	152.527
768.557	139.762
773.137	126.991
777.715	97.2129
782.289	169.428
786.861	193.634
791.431	95.833
795.998	91.0227
800.562	152.203
805.123	40.3745
809.682	46.5361
814.238	94.6873
818.792	69.8274
823.343	48.0435
827.891	28.9209
832.437	0.165527
836.98	17.2764
841.52	46.4961
846.058	29.7515
850.593	29.2119
855.125	71.5879
859.655	23.3796
864.182	128.654
868.707	30.9365
873.229	27.4136
877.748	60.3023
882.265	9.07812
886.779	111.004
891.29	80.0449
895.799	16.1326
900.305	39.2424
904.808	19.322
909.309	93.4021
913.807	126.476
918.303	55.5547
922.796	72.6626
927.286	89.7632
931.773	183.856
936.258	219.975
940.741	191.084
945.22	151.184
949.697	273.274
954.172	228.356
958.643	231.157
963.113	205.019
967.579	166.82
972.043	264.547
976.504	198.233
980.963	282.483
985.419	263.225
989.872	343.521
994.323	337.243
998.771	528.477
1003.22	572.76
1007.66	347.011
1012.1	216.712
1016.54	200.401
1020.97	215.295
1025.4	183.434
1029.83	255.845
1034.26	251.524
1038.68	338.98
1043.11	432.985
1047.53	453.918
1051.94	484.693
1056.36	518.576
1060.77	405.509
1065.17	378.275
1069.58	375.076
1073.98	324.85
1078.38	549.592
1082.78	514.303
1087.18	621.029
1091.57	444.692
1095.96	333.397
1100.35	179.129
1104.73	150.792
1109.11	24.5183
1113.49	56.0737
1117.87	34.377
1122.24	17.0649
1126.62	11.73
1130.98	16.645
1135.35	129.913
1139.71	18.5183
1144.08	92.0022
1148.43	6.4209
1152.79	81.6211
1157.14	0.259277
1161.49	4.74707
1165.84	79.6709
1170.18	58.5664
1174.53	68.4185
1178.87	12.2344
1183.2	73.9658
1187.54	13.6148
1191.87	72.228
1196.2	104.791
1200.53	28.2725
1204.85	91.7222
1209.17	68.1411
1213.49	66.5303
1217.81	123.89
1222.12	115.22
1226.43	12.522
1230.74	34.793
1235.05	185.806
1239.35	97.481
1243.65	66.604
1247.95	15.707
1252.24	177.315
1256.54	118.303
1260.82	73.9282
1265.11	81.0859
1269.4	57.6279
1273.68	34.4424
1277.96	85.208
1282.23	122.45
1286.51	157.978
1290.78	67.958
1295.05	183.426
1299.31	98.9961
1303.58	232.923
1307.84	144.84
1312.1	156.998
1316.35	79.9097
1320.61	82.8501
1324.86	64.8852
1329.1	40.8648
1333.35	121.853
1337.59	16.855
1341.83	82.8691
1346.07	44.8457
1350.3	55.8813
1354.53	76.8667
1358.76	106.869
1362.99	70.8779
1367.21	12.1108
1371.43	58.9321
1375.65	4.64307
1379.87	31.4731
1384.08	56.6128
1388.29	31.7861
1392.5	64.0606
1396.71	7.28857
1400.91	94.9844
1405.11	3.34863
1409.31	66.5537
1413.5	22.8887
1417.7	68.8188
1421.89	49.2275
1426.07	37.8223
1430.26	81.5254
1434.44	95.8354
1438.62	160.002
1442.8	131.613
1446.97	125.436
1451.14	131.34
1455.31	240.306
1459.48	201.339
1463.64	137.448
1467.8	171.08
1471.96	111.086
1476.12	104.465
1480.27	66.6436
1484.42	148.182
1488.57	111.491
1492.71	69.918
1496.85	61.9722
1500.99	41.5498
1505.13	55.5298
1509.27	98.8984
1513.4	105.294
1517.53	59.7324
1521.65	55.2754
1525.78	32.2588
1529.9	92.6909
1534.02	47.5132
1538.13	11.7363
1542.25	57.2153
1546.36	27.4639
1550.47	126.921
1554.57	152.625
1558.68	9.50879
1562.78	0
