Measurement: Raman, 514 nm, ccw, Raman Data Processed
Mineral: Clinozoisite
Rruff sample: R060284
Ideal chemistry: Ca_2_Al_3_(Si_2_O_7_)(SiO_4_)O(OH)
Locality: near Zagi Mountain, Khaffor Dehri, North-West Frontier Province, Pakistan
Source: Herb Obodda
Description: Greenish-brown fragment of a prismatic crystal
Measured chemistry: Ca_2.00_(Al_0.90_Fe^3+^_0.10_)_3_(Si_1.00_O_4_)(Si_2.00_O_7_)O(OH)
Pin_id: L00714
Orientation: Laser parallel to c* (0 0 1). Fiducial mark perpendicular to laser is parallel to a [1 0 0]
Raman shift (cm-1)	intensity
118.134	0
123.058	211.268
127.979	16.0371
132.898	294.251
137.814	863.4
142.728	985.391
147.639	1338.35
152.549	1749.52
157.455	1996.85
162.359	1793.53
167.261	2270.17
172.161	3677.25
177.058	3051.31
181.952	970.416
186.845	50.793
191.734	97.9893
196.622	86.4434
201.507	754.61
206.389	1594.08
211.269	2808.66
216.147	3628.6
221.022	3667.62
225.895	4528.58
230.765	7976.41
235.633	11777.4
240.498	10251.8
245.361	8170.77
250.222	9108.64
255.08	8226.69
259.936	6052.98
264.789	4163.44
269.64	6555.01
274.488	9999.43
279.334	7129.49
284.178	4797.98
289.019	3825.31
293.857	3679.17
298.693	3460.36
303.527	3159.09
308.358	3870.55
313.187	4729.92
318.013	4436.1
322.837	4018.01
327.659	4555.58
332.478	6898.99
337.294	10979.7
342.108	14830.5
346.92	19689.8
351.729	24978.5
356.535	18817.4
361.34	8966.81
366.141	4085.59
370.94	2062.78
375.737	551.392
380.531	59.6123
385.323	190.449
390.113	1038.84
394.9	1860.28
399.684	1921.13
404.466	37.8935
409.245	1065.02
414.022	455.441
418.797	2238.4
423.569	8188.89
428.338	12633
433.105	10108.6
437.87	9049.73
442.632	12710.3
447.391	21261.6
452.149	28965.7
456.903	25818.7
461.655	19137.8
466.405	16255
471.152	15830.9
475.897	15096.5
480.639	13349.9
485.378	10371.2
490.116	6841.25
494.85	4905.71
499.582	5159.44
504.312	7427.2
509.039	9140.69
513.764	7382.69
518.486	5891.74
523.206	3900.2
527.923	1852.75
532.638	452.18
537.35	22.7661
542.059	262.746
546.766	676.345
551.471	1236.44
556.173	2830.95
560.873	7015.18
565.57	18623.5
570.264	44114.4
574.957	35630.7
579.646	13325.4
584.333	8006.93
589.018	10073.4
593.7	14764.1
598.379	20920
603.056	28771.2
607.73	28068.1
612.402	18100.3
617.072	10454.5
621.739	5826.48
626.403	3394.97
631.065	2065.15
635.724	1724.3
640.381	1403.16
645.035	1509.06
649.687	2478.04
654.336	4310.53
658.983	4655.5
663.627	3890.58
668.268	3022.19
672.907	2361.38
677.544	2226.45
682.178	2714.77
686.809	3135.89
691.438	3255.66
696.065	3737.12
700.688	4426.79
705.31	3798.58
709.929	2376.47
714.545	1140.42
719.158	484.394
723.77	76.3037
728.378	100.601
732.984	4.07568
737.588	40.7593
742.189	34.1665
746.787	153.577
751.383	172.916
755.976	252.269
760.567	259.879
765.155	160.74
769.741	157.557
774.324	142.041
778.904	113.864
783.482	76.5659
788.058	49.6831
792.631	89.3452
797.201	173.238
801.769	380.218
806.334	431.428
810.897	618.961
815.457	866.912
820.014	1439.37
824.569	2024.33
829.122	2661.85
833.671	3390.93
838.219	3832.6
842.763	4264.91
847.306	4604.93
851.845	5214.72
856.382	6393.15
860.917	8489.83
865.448	11770.8
869.978	16565.9
874.505	19338.6
879.029	21400.5
883.55	23144
888.069	24567.1
892.586	28509.9
897.1	32743
901.611	34867.1
906.12	40694.4
910.626	51228.2
915.129	54812.1
919.63	47908.2
924.129	39546.1
928.625	32749.5
933.118	25762.2
937.609	18258.4
942.097	12332.1
946.582	8531.49
951.065	6736.07
955.546	6174.94
960.023	6172.89
964.499	5897.83
968.971	5942.9
973.441	6573.49
977.909	9827.59
982.374	16287.2
986.836	17727.5
991.295	10867.4
995.753	5243.99
1000.21	2615.64
1004.66	1169.35
1009.11	455.552
1013.55	98.938
1018	467.15
1022.44	1263.85
1026.88	2934.28
1031.32	3931.64
1035.75	3969.02
1040.18	4492.34
1044.61	5425.23
1049.04	5693.13
1053.46	4701.21
1057.88	3094.08
1062.3	1745.03
1066.71	1139.53
1071.13	1138.13
1075.54	1978.45
1079.94	3759.78
1084.35	7216.31
1088.75	14012.4
1093.15	21969.8
1097.55	16793.6
1101.94	7034.03
1106.34	2784.97
1110.73	1474.71
1115.11	956.273
1119.5	533.028
1123.88	459.542
1128.26	207.615
1132.63	82.9072
1137.01	77.2139
1141.38	60.9248
1145.75	54.5552
1150.12	17.1279
1154.48	50.4121
1158.84	142.634
1163.2	202.507
1167.55	126.2
1171.91	112.659
1176.26	50.4233
1180.61	50.2114
1184.95	25.9311
1189.29	42.8081
1193.63	39.9351
1197.97	14.7573
1202.31	76.8765
1206.64	79.0523
1210.97	26.2471
1215.29	156.167
1219.62	12.6621
1223.94	83.3227
1228.26	32.416
1232.57	100.834
1236.89	156.056
1241.2	164.092
1245.51	151.894
1249.81	105.39
1254.12	157.73
1258.42	100.936
1262.72	304.637
1267.01	305.428
1271.3	233.296
1275.59	290.165
1279.88	386.249
1284.17	302.833
1288.45	300.608
1292.73	391.296
1297.01	264.187
1301.28	302.433
1305.55	255.384
1309.82	294.826
1314.09	285.576
1318.35	302.624
1322.61	303.543
1326.87	260.008
1331.13	262.41
1335.38	433.948
1339.63	360.208
1343.88	335.554
1348.12	314.986
1352.37	260.386
1356.61	312.259
1360.85	327.127
1365.08	318.359
1369.31	334.019
1373.54	345.935
1377.77	267.501
1381.99	293.712
1386.22	262.571
1390.43	260.268
1394.65	151.366
1398.87	248.569
1403.08	198.974
1407.29	205.842
1411.49	202.409
1415.69	322.089
1419.89	150.728
1424.09	213.825
1428.29	150.857
1432.48	201.338
1436.67	148
1440.86	216.633
1445.04	223.587
1449.23	200.542
1453.4	181.315
1457.58	95.2495
1461.76	223.27
1465.93	139.699
1470.1	127.067
1474.26	143.559
1478.43	137.224
1482.59	180.02
1486.75	115.86
1490.9	108.019
1495.06	93.1235
1499.21	112.014
1503.35	73.4795
1507.5	176.58
1511.64	147.572
1515.78	135.583
1519.92	42.2827
1524.05	12.9448
1528.18	161.718
1532.31	64.4438
1536.44	24.3926
1540.56	22.5693
1544.69	19.5649
1548.8	77.8491
1552.92	252.5
1557.03	22.8901
1561.14	36.9258
1565.25	99.2368
1569.36	33.7856
