Measurement: Raman, 514 nm, ccw, Raman Data Processed
Mineral: Clinozoisite
Rruff sample: R040085
Ideal chemistry: Ca_2_Al_3_(Si_2_O_7_)(SiO_4_)O(OH)
Locality: Alamos, Sonora, Mexico
Source: University of Arizona Mineral Museum
Description: Divergent aggregate of red thin prismatic crystals
Measured chemistry: Ca_2.03_(Al_0.90_Fe_0.13_)_3_(Si_1.00_O_4_)(Si_2.00_O_7_)O(OH)
Pin_id: M00327
Orientation: Laser parallel to (1 0 1). Fiducial mark perpendicular to laser is parallel to -b [0 -1 0]
Raman shift (cm-1)	intensity
191.734	0
196.622	64.4121
201.507	293.973
206.389	183.736
211.269	10.0996
216.147	73.9961
221.022	73.0723
225.895	530.564
230.765	570.662
235.633	1513.81
240.498	3258.18
245.361	6389.14
250.222	11456.2
255.08	13018.8
259.936	9139.57
264.789	5663.59
269.64	4024.83
274.488	2604.56
279.334	1835.13
284.178	1434.04
289.019	1273.64
293.857	1258.37
298.693	1429.25
303.527	883.459
308.358	771.344
313.187	625.098
318.013	883.674
322.837	947.043
327.659	2018.19
332.478	2921.15
337.294	3740.72
342.108	4877.03
346.92	7762.03
351.729	8666.44
356.535	5284
361.34	2312.05
366.141	1188.31
370.94	386.316
375.737	77.9766
380.531	139.836
385.323	127.606
390.113	191.375
394.9	347.481
399.684	178.867
404.466	52.4844
409.245	153.711
414.022	156.039
418.797	535.934
423.569	1507.04
428.338	2409.36
433.105	2861.55
437.87	4115.73
442.632	7934.1
447.391	12301.3
452.149	13431.5
456.903	8716.13
461.655	4480.21
466.405	3130.62
471.152	2870.25
475.897	3065.42
480.639	4138.03
485.378	4438
490.116	3568.39
494.85	2359.55
499.582	2321.64
504.312	2629.95
509.039	3237.28
513.764	4062.68
518.486	4914.11
523.206	4281.81
527.923	3556.61
532.638	2185.07
537.35	551.418
542.059	374.629
546.766	157.648
551.471	216.57
556.173	719.43
560.873	2033.77
565.57	5351.83
570.264	9673.58
574.957	4951
579.646	1609.06
584.333	761.434
589.018	760.793
593.7	1117.39
598.379	1615.86
603.056	2077.03
607.73	2071.95
612.402	1123.33
617.072	606.984
621.739	267.07
626.403	150.516
631.065	38.3906
635.724	5.70703
640.381	121.606
645.035	19.0664
649.687	311.301
654.336	584.441
658.983	308.93
663.627	302.875
668.268	202.375
672.907	261.68
677.544	111.41
682.178	337.555
686.809	680.117
691.438	363.219
696.065	770.871
700.688	852.227
705.31	603.227
709.929	259.836
714.545	184.039
719.158	74.8047
723.77	78.0781
728.378	128.84
732.984	343.801
737.588	96.1602
742.189	131.582
746.787	265.516
751.383	232.492
755.976	44.7969
760.567	155.867
765.155	92.7422
769.741	64.1758
774.324	25.7031
778.904	93.75
783.482	196.621
788.058	184.59
792.631	161.891
797.201	7.625
801.769	461.887
806.334	193.781
810.897	239.027
815.457	356.621
820.014	448.574
824.569	408.922
829.122	735.656
833.671	569.789
838.219	983.316
842.763	891.242
847.306	1330.58
851.845	1612.34
856.382	1975.51
860.917	2533.78
865.448	3206.34
869.978	4387.06
874.505	5725.21
879.029	6670.68
883.55	5741.66
888.069	4525.61
892.586	3682.83
897.1	2828.48
901.611	2499.8
906.12	3216.88
910.626	3699.56
915.129	3649.92
919.63	2538.77
924.129	1907.46
928.625	1244.85
933.118	1134.02
937.609	674.738
942.097	572.477
946.582	282.481
951.065	180.543
955.546	385.848
960.023	361.07
964.499	247.168
968.971	283.227
973.441	803.32
977.909	1146.39
982.374	1912.42
986.836	2072.42
991.295	874.441
995.753	644.418
1000.21	380.641
1004.66	281.246
1009.11	75.9883
1013.55	19.0039
1018	49.2656
1022.44	95.5781
1026.88	586.234
1031.32	341.59
1035.75	224.332
1040.18	686.07
1044.61	685.227
1049.04	880.312
1053.46	770.125
1057.88	1036.64
1062.3	951.254
1066.71	1133.09
1071.13	1113.11
1075.54	992.211
1079.94	1321.39
1084.35	1884.83
1088.75	2613.18
1093.15	2891.61
1097.55	2163.11
1101.94	1113.69
1106.34	816.82
1110.73	522.547
1115.11	579.344
1119.5	270.211
1123.88	198.16
1128.26	156.172
1132.63	371.305
1137.01	308.438
1141.38	160.195
1145.75	430.578
1150.12	170.047
1154.48	101.094
1158.84	354.871
1163.2	117.012
1167.55	291.867
1171.91	239.695
1176.26	307.109
1180.61	293.414
1184.95	31.6328
1189.29	135.789
1193.63	110.93
1197.97	248.922
1202.31	252.684
1206.64	462.793
1210.97	21.1641
1215.29	478.875
1219.62	179.566
1223.94	467.617
1228.26	31.8945
1232.57	103.461
1236.89	276.91
1241.2	276.266
1245.51	85.6055
1249.81	106.934
1254.12	152.246
1258.42	180.449
1262.72	314.312
1267.01	129.106
1271.3	41.9258
1275.59	154.363
1279.88	106.144
1284.17	97.1836
1288.45	145.926
1292.73	323.672
1297.01	585.809
1301.28	430.035
1305.55	134.453
1309.82	204.293
1314.09	185.664
1318.35	428.621
1322.61	121.707
1326.87	329.883
1331.13	171.098
1335.38	20.3711
1339.63	481.543
1343.88	147.938
1348.12	510.414
1352.37	519.969
1356.61	418.613
1360.85	126.867
1365.08	378.691
1369.31	317.641
1373.54	289.707
1377.77	61.8164
1381.99	313.07
1386.22	273.363
1390.43	438.031
1394.65	49.6055
1398.87	321.629
1403.08	82.6953
1407.29	205.195
1411.49	181.984
1415.69	202.848
1419.89	95.2891
1424.09	70.1953
1428.29	294.539
1432.48	472.598
1436.67	169.949
1440.86	453.992
1445.04	352.262
1449.23	451.945
1453.4	198.234
1457.58	443.797
1461.76	33.5938
1465.93	310.617
1470.1	402.082
1474.26	73.9531
1478.43	414.125
1482.59	351.09
1486.75	225.023
1490.9	244.242
1495.06	229.883
1499.21	200.949
1503.35	365.348
1507.5	308.121
1511.64	62.082
1515.78	107.508
1519.92	52.7227
1524.05	148.828
1528.18	1.89453
1532.31	188.164
1536.44	381.809
1540.56	61.418
1544.69	112.312
1548.8	104.566
1552.92	76.4258
1557.03	320.832
1561.14	383.879
1565.25	109.488
1569.36	376.336
