Measurement: Raman, 514 nm, ccw, Raman Data Processed
Mineral: Clinoptilolite-Ca
Rruff sample: R060662
Ideal chemistry: Ca_3_(Si_30_Al_6_)O_72_20H_2_O
Locality: Succor Creek, Malheur County, Oregon, USA
Source: Michael Scott
Description: Group of colorless platy prismatic crystals
Measured chemistry: (Ca_1.02_Na_0.97_K_0.59_)_Σ=2.58_(Si_14.40_Al_3.60_)_Σ=18_O_36_·10.96H_2_O
Pin_id: M00397
Orientation: Laser parallel to c* (0 0 1). Fiducial mark perpendicular to laser is parallel to -a [-1 0 0]
Raman shift (cm-1)	intensity
84.837	0
89.777	1330.23
94.714	2906.83
99.649	4030.11
104.582	5649.59
109.512	8083.44
114.44	9017.35
119.365	8840.72
124.288	7356.28
129.209	5253.32
134.127	4298.39
139.043	4107.08
143.956	4271.54
148.867	5153.22
153.775	4976.44
158.681	4577.03
163.585	3403.19
168.486	2355.16
173.385	1345.9
178.282	886.006
183.176	390.219
188.067	449.93
192.956	197.572
197.843	211.069
202.727	184.56
207.609	452.427
212.489	524.115
217.366	572.145
222.24	579.618
227.112	408.481
231.982	96.2295
236.849	419.118
241.714	1059.9
246.577	1546.59
251.437	2327.15
256.294	2814.84
261.149	3211.41
266.002	3228.51
270.852	3010.71
275.7	3104.84
280.545	3165.54
285.388	3277.37
290.229	3547.61
295.067	3681.62
299.902	3924.51
304.735	4086.2
309.566	4410.45
314.394	5263.08
319.22	5979.78
324.043	6856.23
328.864	7049.29
333.682	7115.75
338.498	7306.55
343.311	7819.25
348.122	8408.37
352.931	9278.75
357.737	10139.1
362.54	11772.6
367.341	13480.7
372.14	15791.3
376.936	18063.9
381.73	21651
386.521	26457.9
391.31	32950.1
396.096	40510.1
400.88	45313.3
405.661	44251.4
410.44	38427.1
415.216	30420.7
419.99	22655.5
424.761	16218.2
429.53	11210.8
434.297	8149.35
439.061	6409.58
443.822	5982.63
448.581	6456.91
453.337	8184.59
458.091	11674.7
462.843	15335.3
467.592	17924.4
472.338	21203.3
477.082	26630.3
481.824	29570.3
486.563	24268.7
491.3	14999.2
496.034	8157.08
500.765	4230.44
505.494	2449.38
510.221	1651.75
514.945	1110.36
519.666	631.312
524.385	505.57
529.102	148.983
533.816	223.627
538.527	167.85
543.236	130.977
547.943	100.42
552.647	102.356
557.348	97.5938
562.047	126.81
566.744	245.389
571.438	83.0039
576.129	373.847
580.818	784.093
585.504	932.845
590.188	1350.11
594.87	1879.05
599.549	2778.33
604.225	3932.11
608.899	5104.36
613.57	6110.08
618.239	5702.26
622.905	5507.87
627.569	3783.89
632.23	2498.3
636.889	2024.07
641.545	2034.12
646.198	2023.39
650.849	1614.81
655.498	1089.32
660.144	524.848
664.787	319.736
669.428	270.754
674.067	2.71973
678.703	170.652
683.336	155.076
687.967	74.9834
692.595	17.0713
697.221	53.9199
701.844	2.79102
706.465	258.576
711.083	815.367
715.698	1027.64
720.311	972.652
724.922	707.904
729.53	574.258
734.135	627.706
738.738	606.249
743.338	743.885
747.936	998.359
752.531	703.724
757.124	913.821
761.714	1356.19
766.302	1404.75
770.887	1592.92
775.469	1631.76
780.049	1586.79
784.626	1310.3
789.201	1318.15
793.773	1155.33
798.343	1052.15
802.91	778.199
807.475	727.122
812.037	865.985
816.596	689.42
821.153	693.902
825.707	630.252
830.259	759.035
834.808	649.274
839.355	693.243
843.899	557.318
848.441	650.92
852.98	425.045
857.516	629.484
862.05	415.118
866.581	391.389
871.11	409.518
875.636	589.551
880.159	371.282
884.68	300.427
889.199	363.904
893.714	220.285
898.228	224.793
902.738	409.329
907.246	299.127
911.752	274.227
916.255	151.186
920.755	231.48
925.253	297.649
929.748	205.451
934.241	23.7871
938.731	107.791
943.218	95.3398
947.703	90.1162
952.186	59.1582
956.665	38.084
961.142	17.3984
965.617	53.5605
970.089	17.1875
974.558	81.3848
979.025	48.7441
983.489	115.455
987.951	331.805
992.41	319.037
996.866	460.391
1001.32	408.486
1005.77	600.09
1010.22	472.492
1014.67	775.701
1019.11	660.557
1023.55	736.516
1027.99	854.789
1032.42	909.797
1036.86	1096.22
1041.29	1049.99
1045.72	801.268
1050.14	815.24
1054.56	725.564
1058.98	618.481
1063.4	794.346
1067.82	914.904
1072.23	1165.58
1076.64	1730.95
1081.05	2234.75
1085.45	2290.72
1089.85	2400.75
1094.25	2578.1
1098.65	3062.85
1103.04	3144
1107.43	3426.15
1111.82	4148.75
1116.21	4257.4
1120.59	4517.6
1124.97	4470.44
1129.35	4896.99
1133.73	4926.17
1138.1	4920.1
1142.47	4803.82
1146.84	4777.48
1151.21	5011.77
1155.57	4922.7
1159.93	4683.38
1164.29	4377.48
1168.64	4142.31
1172.99	3688.77
1177.34	3280.88
1181.69	3001.64
1186.04	2457.06
1190.38	1726.17
1194.72	1228.01
1199.05	834.637
1203.39	483.106
1207.72	173.389
1212.05	164.639
1216.37	51.7285
1220.7	45.6641
1225.02	134.457
1229.34	143.74
1233.65	0.105469
1237.97	82.2227
1242.28	70.5039
1246.59	365.066
1250.89	149.156
1255.19	243.381
1259.49	324.062
1263.79	151.803
1268.09	328.731
1272.38	350.115
1276.67	163.092
1280.95	270.262
1285.24	241.648
1289.52	198.992
1293.8	111.641
1298.08	221.457
1302.35	162.731
1306.62	197.641
1310.89	155.053
1315.15	146.746
1319.42	181.494
1323.68	256.144
1327.94	291.697
1332.19	186.586
1336.44	41.1836
1340.69	259.867
1344.94	110.451
1349.19	92.125
1353.43	64.9297
1357.67	93.8516
1361.9	106.906
1366.14	155.426
1370.37	21.7324
1374.6	132.408
1378.83	71.1582
1383.05	4.99219
1387.27	1.56641
1391.49	37.7207
1395.7	53.6465
1399.92	44.834
1404.13	2.44141
1408.34	172.059
1412.54	200.777
1416.74	263.506
1420.94	100.418
1425.14	264.705
1429.34	70.6328
1433.53	139.682
1437.72	150.1
1441.9	117.098
1446.09	218.188
1450.27	222.377
1454.45	177.471
1458.63	142.494
1462.8	78.6504
1466.97	54.748
1471.14	56.1562
1475.31	245.356
1479.47	153.066
1483.63	321.682
1487.79	188.781
1491.94	61.2441
1496.09	70.3613
1500.24	19.3262
1504.39	85.1856
1508.54	13.1172
1512.68	180.371
1516.82	237.324
1520.95	320.06
1525.09	173.1
1529.22	351.69
1533.35	180.371
1537.47	259.004
1541.6	231.426
1545.72	180.691
1549.83	282.191
1553.95	277.33
1558.06	206.514
1562.17	145.768
1566.28	50.1484
1570.38	1.625
