Measurement: Raman, 514 nm, ccw, Raman Data Processed
Mineral: Clinohumite
Rruff sample: R040122
Ideal chemistry: Mg_9_(SiO_4_)_4_F_2_
Locality: Anzahamazonono,  Madagascar
Source: University of Arizona Mineral Museum
Description: Orange-brown blebs embedded in calcite matrix
Measured chemistry: (Mg_0.96_Fe_0.02_Ti_0.01_Ca_0.01_)_9_(SiO_4_)_4_(F_0.59_(OH)_0.41_)_2_
Pin_id: M00126
Orientation: Laser parallel to -b* (0 -1 0). Fiducial mark perpendicular to laser is parallel to -c [0 0 -1]
Raman shift (cm-1)	intensity
124.288	0
129.209	61.4775
134.127	11.144
139.043	107.976
143.956	116.877
148.867	190.514
153.775	115.473
158.681	253.773
163.585	326.11
168.486	429.214
173.385	523.463
178.282	671.44
183.176	889.832
188.067	916.415
192.956	874.033
197.843	1459.29
202.727	1564.03
207.609	1144.12
212.489	900.435
217.366	841.5
222.24	1116.35
227.112	1576.21
231.982	1785.08
236.849	1867.87
241.714	1626.46
246.577	1463.7
251.437	1642.22
256.294	1540.95
261.149	1463.04
266.002	1322.79
270.852	892.453
275.7	750.106
280.545	809.915
285.388	824.498
290.229	990.967
295.067	852.158
299.902	839.227
304.735	1040.52
309.566	1409.93
314.394	1898.06
319.22	2900.55
324.043	2471.96
328.864	1458.33
333.682	1034.39
338.498	647.127
343.311	636.579
348.122	436.458
352.931	259.769
357.737	266.692
362.54	237.102
367.341	26.3398
372.14	22.9238
376.936	69.9961
381.73	34.5078
386.521	118.555
391.31	283.206
396.096	228.474
400.88	135.183
405.661	224.235
410.44	352.653
415.216	447.366
419.99	399.498
424.761	404.338
429.53	152.663
434.297	58.2822
439.061	93.9316
443.822	13.5732
448.581	64.5742
453.337	116.922
458.091	30.8496
462.843	20.5264
467.592	41.2402
472.338	96.9336
477.082	11.0684
481.824	52.0361
486.563	24.9307
491.3	16.7188
496.034	73.3818
500.765	219.976
505.494	97.6475
510.221	269.723
514.945	154.682
519.666	192.144
524.385	236.352
529.102	301.743
533.816	214.062
538.527	195.356
543.236	373.655
547.943	435.737
552.647	371.883
557.348	341.524
562.047	441.576
566.744	397.38
571.438	555.255
576.129	519.124
580.818	846.495
585.504	1178.75
590.188	1805.22
594.87	2901.28
599.549	5693.22
604.225	9979.15
608.899	11642.8
613.57	6808.29
618.239	3463.53
622.905	1660.51
627.569	814.625
632.23	537.139
636.889	419.627
641.545	179.739
646.198	73.4473
650.849	185.648
655.498	76.6367
660.144	76.2022
664.787	66.6348
669.428	61.4111
674.067	127.365
678.703	10.4453
683.336	8.39062
687.967	24.6572
692.595	27.2871
697.221	21.7627
701.844	87.4141
706.465	83.542
711.083	162.722
715.698	54.7324
720.311	84.6191
724.922	394.71
729.53	806.774
734.135	764.744
738.738	1131.65
743.338	1551.52
747.936	1942.4
752.531	1998.33
757.124	1746.27
761.714	1343.32
766.302	1301.42
770.887	1579.61
775.469	2807.89
780.049	5042.31
784.626	6951.18
789.201	5269.69
793.773	3707.49
798.343	4114.26
802.91	6054.65
807.475	8367.15
812.037	8704.46
816.596	9606.65
821.153	13683.8
825.707	26008.1
830.259	38183.2
834.808	27349.9
839.355	24065.7
843.899	31816.2
848.441	30016.8
852.98	25118.2
857.516	33668.3
862.05	33378
866.581	17089.1
871.11	9420.82
875.636	6290.02
880.159	4386.84
884.68	2855.24
889.199	2008.16
893.714	1339.66
898.228	984.736
902.738	980.434
907.246	658.574
911.752	768.34
916.255	827.156
920.755	495.654
925.253	480.762
929.748	418.492
934.241	213.602
938.731	155.242
943.218	150.818
947.703	120.684
952.186	509.012
956.665	1119.59
961.142	3356.16
965.617	8072.09
970.089	8951.09
974.558	4508.97
979.025	2334.08
983.489	1432.99
987.951	833.731
992.41	519.729
996.866	529.551
1001.32	395.252
1005.77	433.816
1010.22	291.307
1014.67	346.693
1019.11	257.557
1023.55	85.7578
1027.99	228.41
1032.42	255.34
1036.86	303.654
1041.29	83.8301
1045.72	68.8144
1050.14	140.99
1054.56	109.961
1058.98	169.09
1063.4	2.00586
1067.82	73.5547
1072.23	75.5352
1076.64	34.1348
1081.05	58.127
1085.45	78.0879
1089.85	50.4121
1094.25	129.916
1098.65	242.732
1103.04	244.6
1107.43	20.0527
1111.82	0.023438
1116.21	242.369
1120.59	51.5703
1124.97	282.377
1129.35	45.4629
1133.73	259.348
1138.1	71.2637
1142.47	160.039
1146.84	120.674
1151.21	207.885
1155.57	91.5098
1159.93	132.682
1164.29	37.0781
1168.64	260.332
1172.99	130.18
1177.34	10.7422
1181.69	288.102
1186.04	227.764
1190.38	118.178
1194.72	167.512
1199.05	176.123
1203.39	156.291
1207.72	47.1738
1212.05	50.8379
1216.37	293.514
1220.7	299.834
1225.02	136.881
1229.34	232.193
1233.65	279.539
1237.97	339.019
1242.28	333.568
1246.59	372.219
1250.89	160.111
1255.19	279.924
1259.49	200.701
1263.79	270.682
1268.09	325.748
1272.38	209.037
1276.67	137.955
1280.95	96.4316
1285.24	127.547
1289.52	73.8691
1293.8	127.465
1298.08	30.1348
1302.35	251.773
1306.62	39.8301
1310.89	80.5879
1315.15	130.184
1319.42	150.443
1323.68	182.922
1327.94	146.682
1332.19	210.377
1336.44	125.023
1340.69	116.131
1344.94	241.481
1349.19	180.096
1353.43	33.2578
1357.67	295.643
1361.9	74.8184
1366.14	307.248
1370.37	98.2051
1374.6	94.8965
1378.83	57.6113
1383.05	43.9531
1387.27	225.781
1391.49	189.623
1395.7	80.1758
1399.92	225.426
1404.13	107.002
1408.34	34.8047
1412.54	89.6035
1416.74	221.465
1420.94	29.7969
1425.14	19.4863
1429.34	157.385
1433.53	77.0742
1437.72	190.065
1441.9	53.0137
1446.09	86.5957
1450.27	293.379
1454.45	28.3438
1458.63	9.05078
1462.8	283.699
1466.97	86.9668
1471.14	141.986
1475.31	52.5938
1479.47	123.457
1483.63	291.951
1487.79	196.867
1491.94	171.924
1496.09	319.353
1500.24	81.9981
1504.39	400.777
1508.54	63.7441
1512.68	188.975
1516.82	195.264
1520.95	180.738
1525.09	413.781
1529.22	280.404
1533.35	146.76
1537.47	235.637
1541.6	321.394
1545.72	113.785
1549.83	12.6738
1553.95	263.4
1558.06	74.4219
1562.17	124.764
1566.28	0.902344
1570.38	45.1309
