Measurement: Raman, 514 nm, ccw, Raman Data Processed
Mineral: Clinozoisite
Rruff sample: R040085
Ideal chemistry: Ca_2_Al_3_(Si_2_O_7_)(SiO_4_)O(OH)
Locality: Alamos, Sonora, Mexico
Source: University of Arizona Mineral Museum
Description: Divergent aggregate of red thin prismatic crystals
Measured chemistry: Ca_2.03_(Al_0.90_Fe_0.13_)_3_(Si_1.00_O_4_)(Si_2.00_O_7_)O(OH)
Pin_id: M00327
Orientation: Laser parallel to (1 0 1). Fiducial mark perpendicular to laser is parallel to -b [0 -1 0]
Raman shift (cm-1)	intensity
191.734	0
196.622	18.4785
201.507	268.168
206.389	220.264
211.269	345.666
216.147	595.453
221.022	538.742
225.895	905.053
230.765	1444.93
235.633	2067.03
240.498	1390.19
245.361	1084.71
250.222	1348.52
255.08	1392.43
259.936	982.16
264.789	741.891
269.64	1061.54
274.488	1242.27
279.334	762.703
284.178	339.898
289.019	656.547
293.857	577.809
298.693	332.641
303.527	532.148
308.358	666.043
313.187	892.777
318.013	585.809
322.837	705.086
327.659	678.59
332.478	1070.34
337.294	1848.79
342.108	2504.66
346.92	4004.39
351.729	4632.11
356.535	2875.13
361.34	1231.87
366.141	359.559
370.94	376.453
375.737	149.418
380.531	56.3828
385.323	74.4727
390.113	198.957
394.9	422.297
399.684	440.535
404.466	119.652
409.245	179.305
414.022	182.418
418.797	560.871
423.569	1395.5
428.338	1505.09
433.105	1707.22
437.87	1528.57
442.632	2007.7
447.391	3184.93
452.149	4003.95
456.903	3347.23
461.655	2292.49
466.405	2145.61
471.152	1904.66
475.897	2010.47
480.639	1767.17
485.378	1394.01
490.116	911.199
494.85	710.434
499.582	812.894
504.312	1204.28
509.039	814.453
513.764	915.488
518.486	913.25
523.206	465.152
527.923	137.344
532.638	68.0586
537.35	13.7656
542.059	216.203
546.766	196.766
551.471	147.406
556.173	876.453
560.873	1787.09
565.57	4511.25
570.264	8466.9
574.957	4573.03
579.646	1884.64
584.333	1413.71
589.018	2031.14
593.7	2758.55
598.379	3554.32
603.056	4905.44
607.73	4104.93
612.402	2582.89
617.072	1493.45
621.739	901.574
626.403	300.172
631.065	326.168
635.724	197.652
640.381	370.008
645.035	588.504
649.687	613.125
654.336	1045
658.983	1007.4
663.627	510.195
668.268	557.32
672.907	425.394
677.544	497.106
682.178	418.625
686.809	573.949
691.438	329.391
696.065	474.902
700.688	887.203
705.31	628.227
709.929	503.965
714.545	329.391
719.158	242.492
723.77	100.152
728.378	104.379
732.984	90.0078
737.588	45.125
742.189	1.42969
746.787	42.5234
751.383	263.652
755.976	3.33984
760.567	124.816
765.155	34.8789
769.741	49.4375
774.324	72.5273
778.904	47.7773
783.482	90.5586
788.058	250.328
792.631	4.80469
797.201	274.918
801.769	143.316
806.334	253.219
810.897	223.543
815.457	94.1719
820.014	444.039
824.569	375.418
829.122	723.301
833.671	611.684
838.219	472.566
842.763	574.957
847.306	876.856
851.845	784.281
856.382	864.617
860.917	1312.69
865.448	1288.4
869.978	1880.91
874.505	2012.43
879.029	2742.87
883.55	3031.77
888.069	2583.75
892.586	3338.97
897.1	3805.24
901.611	4634.47
906.12	6559.21
910.626	8401.44
915.129	9260.87
919.63	7569.35
924.129	6384.41
928.625	5076.28
933.118	4125.43
937.609	2746.19
942.097	1755.95
946.582	1221.49
951.065	802.918
955.546	851.648
960.023	816.289
964.499	750.848
968.971	770.328
973.441	1005.77
977.909	1725.24
982.374	2406.05
986.836	2343.52
991.295	1334.96
995.753	592.981
1000.21	243.695
1004.66	258.125
1009.11	63.9297
1013.55	35.1914
1018	59.3672
1022.44	129.703
1026.88	417.188
1031.32	338.082
1035.75	246.113
1040.18	347.148
1044.61	1026.42
1049.04	532.16
1053.46	578.008
1057.88	375.121
1062.3	215.289
1066.71	83.625
1071.13	300.941
1075.54	341.758
1079.94	215.59
1084.35	1140.54
1088.75	1806.45
1093.15	2452.4
1097.55	1363.39
1101.94	942.254
1106.34	495.137
1110.73	228.984
1115.11	431.676
1119.5	159.297
1123.88	248.078
1128.26	342.043
1132.63	116.668
1137.01	102.266
1141.38	170.199
1145.75	89.7344
1150.12	317.68
1154.48	282.039
1158.84	75.6406
1163.2	288.902
1167.55	276.816
1171.91	410.832
1176.26	495.316
1180.61	302.621
1184.95	108.715
1189.29	337.606
1193.63	255.281
1197.97	126.703
1202.31	139.508
1206.64	312.863
1210.97	72.3125
1215.29	234.07
1219.62	287.203
1223.94	140.109
1228.26	456.801
1232.57	454.273
1236.89	8.55859
1241.2	398.164
1245.51	420.266
1249.81	115.703
1254.12	68.3867
1258.42	5.04688
1262.72	69.5664
1267.01	272.738
1271.3	319.926
1275.59	101.019
1279.88	10.6758
1284.17	104.344
1288.45	88.8594
1292.73	367.707
1297.01	234.82
1301.28	244.062
1305.55	200.356
1309.82	495.367
1314.09	580.109
1318.35	429.965
1322.61	491.801
1326.87	427.578
1331.13	395.098
1335.38	362.926
1339.63	531.102
1343.88	475.266
1348.12	309.883
1352.37	456.336
1356.61	327.656
1360.85	184.965
1365.08	637.617
1369.31	61.0391
1373.54	609.676
1377.77	363.918
1381.99	206.91
1386.22	459.051
1390.43	305.246
1394.65	360.852
1398.87	639.586
1403.08	259.469
1407.29	310.152
1411.49	320.457
1415.69	7.97656
1419.89	286.531
1424.09	201.242
1428.29	547.824
1432.48	133.203
1436.67	297.969
1440.86	306.144
1445.04	450.66
1449.23	494.269
1453.4	585.453
1457.58	423.691
1461.76	418.223
1465.93	222.844
1470.1	141.652
1474.26	377.981
1478.43	186.531
1482.59	398.836
1486.75	229.871
1490.9	266.453
1495.06	50.668
1499.21	410.398
1503.35	242.469
1507.5	68.0273
1511.64	187.676
1515.78	567.965
1519.92	443.266
1524.05	257.746
1528.18	283.68
1532.31	414.383
1536.44	337.754
1540.56	556.016
1544.69	259.598
1548.8	49.1602
1552.92	499.082
1557.03	186.477
1561.14	283.523
1565.25	309.473
1569.36	453.871
