Measurement: Raman, 514 nm, ccw, Raman Data Processed
Mineral: Clinozoisite
Rruff sample: R060284
Ideal chemistry: Ca_2_Al_3_(Si_2_O_7_)(SiO_4_)O(OH)
Locality: near Zagi Mountain, Khaffor Dehri, North-West Frontier Province, Pakistan
Source: Herb Obodda
Description: Greenish-brown fragment of a prismatic crystal
Measured chemistry: Ca_2.00_(Al_0.90_Fe^3+^_0.10_)_3_(Si_1.00_O_4_)(Si_2.00_O_7_)O(OH)
Pin_id: L00714
Orientation: Laser parallel to c* (0 0 1). Fiducial mark perpendicular to laser is parallel to a [1 0 0]
Raman shift (cm-1)	intensity
118.134	0
123.058	147.194
127.979	503.567
132.898	907.125
137.814	1803.55
142.728	3246.29
147.639	3445.39
152.549	3421.45
157.455	2896.09
162.359	1939.59
167.261	1041.86
172.161	517.269
177.058	563.014
181.952	67.1123
186.845	195.086
191.734	190.93
196.622	242.482
201.507	124.939
206.389	284.3
211.269	513.871
216.147	322.017
221.022	85.374
225.895	655.493
230.765	2204.39
235.633	4719.27
240.498	6536.38
245.361	8647.96
250.222	12334
255.08	13680.7
259.936	10657.6
264.789	6996.48
269.64	7164.52
274.488	8851.81
279.334	7191.57
284.178	3746.2
289.019	2588.99
293.857	2304.36
298.693	2255.83
303.527	2780.81
308.358	2875.6
313.187	2308.62
318.013	1030.75
322.837	908.317
327.659	1712.16
332.478	3347.12
337.294	4785.59
342.108	5031.55
346.92	6033.77
351.729	6798.77
356.535	5700.13
361.34	3870.98
366.141	2550.28
370.94	1530.97
375.737	596.126
380.531	68.8291
385.323	736.067
390.113	2236.03
394.9	3731.78
399.684	3168.18
404.466	1343.4
409.245	103.181
414.022	1477.2
418.797	5728.32
423.569	14547.1
428.338	21576.5
433.105	17406.8
437.87	13129.9
442.632	17122
447.391	30595.3
452.149	45674.2
456.903	46365.8
461.655	35524.1
466.405	30384.4
471.152	29669.1
475.897	28273.6
480.639	25713.6
485.378	21627.8
490.116	14765.7
494.85	8609.27
499.582	6057.54
504.312	5549.82
509.039	5190.26
513.764	4791.87
518.486	3449.37
523.206	1908.51
527.923	548.014
532.638	325.275
537.35	572.753
542.059	309.81
546.766	8.16211
551.471	888.28
556.173	2466.6
560.873	5123.74
565.57	12260.6
570.264	23595.2
574.957	19713.5
579.646	6544.28
584.333	3081.64
589.018	3045.01
593.7	4231.21
598.379	6289.87
603.056	8916.18
607.73	9861.27
612.402	6594.84
617.072	3975.69
621.739	2399.12
626.403	1279.07
631.065	611.37
635.724	248.228
640.381	69.8926
645.035	231.242
649.687	937.35
654.336	2059.05
658.983	2781.21
663.627	2693.08
668.268	2296.31
672.907	2058.23
677.544	1952.35
682.178	2317.28
686.809	3274.74
691.438	3677.26
696.065	3731.26
700.688	3414.69
705.31	2548.52
709.929	1337.72
714.545	652.263
719.158	324.111
723.77	164.215
728.378	14.2315
732.984	13.6435
737.588	30.3311
742.189	62.9707
746.787	120.599
751.383	85.1103
755.976	56.5391
760.567	143.827
765.155	70.0019
769.741	83.5547
774.324	32.6904
778.904	93.3838
783.482	115.327
788.058	56.0225
792.631	177.502
797.201	33.5469
801.769	212.715
806.334	298.294
810.897	464.496
815.457	654.231
820.014	723.882
824.569	1067.68
829.122	1446.26
833.671	2022.64
838.219	2340.86
842.763	2780.98
847.306	3168.05
851.845	3749.11
856.382	5035.17
860.917	7058.85
865.448	10098.7
869.978	14170.1
874.505	17600.7
879.029	19297.5
883.55	18071.2
888.069	15000.9
892.586	13741.4
897.1	12725.7
901.611	10483.1
906.12	7505.4
910.626	6296.57
915.129	5837.57
919.63	5071.79
924.129	4648.19
928.625	4771.36
933.118	5200.27
937.609	5182.28
942.097	4958.93
946.582	4213.59
951.065	3763.32
955.546	4038.13
960.023	4429.91
964.499	4682.66
968.971	4756.39
973.441	5395.12
977.909	8658.94
982.374	15016.9
986.836	16999.9
991.295	11273.2
995.753	5604.63
1000.21	2814.78
1004.66	1283.65
1009.11	639.287
1013.55	187.834
1018	261.499
1022.44	633.484
1026.88	1168.05
1031.32	1773.45
1035.75	1790.87
1040.18	2373.47
1044.61	2939.75
1049.04	3434.48
1053.46	2995.83
1057.88	1990.85
1062.3	1493.06
1066.71	1456.53
1071.13	2218.19
1075.54	4243.98
1079.94	7869.03
1084.35	13664.6
1088.75	23346.2
1093.15	32218.5
1097.55	24492.2
1101.94	9667.83
1106.34	3771.36
1110.73	2207.95
1115.11	1620.44
1119.5	1574.75
1123.88	1103.36
1128.26	746.808
1132.63	439.702
1137.01	422.086
1141.38	257.882
1145.75	168.315
1150.12	159.288
1154.48	28.3262
1158.84	41.0762
1163.2	29.4658
1167.55	166.596
1171.91	122.893
1176.26	25.2598
1180.61	136.132
1184.95	139.006
1189.29	129.393
1193.63	139.156
1197.97	1
1202.31	17.1572
1206.64	81.0391
1210.97	81.9844
1215.29	77.9844
1219.62	50.208
1223.94	119.75
1228.26	54.8555
1232.57	146.395
1236.89	21.3594
1241.2	154.589
1245.51	91.1641
1249.81	171.011
1254.12	191.144
1258.42	10.4121
1262.72	240.476
1267.01	119.845
1271.3	216.258
1275.59	217.003
1279.88	246.844
1284.17	306.889
1288.45	65.8857
1292.73	309.85
1297.01	188.295
1301.28	118.964
1305.55	275.964
1309.82	309.237
1314.09	292.191
1318.35	255.188
1322.61	177.763
1326.87	329.161
1331.13	302.44
1335.38	221.747
1339.63	321.185
1343.88	316.934
1348.12	433.846
1352.37	392.91
1356.61	429.956
1360.85	384.275
1365.08	273.123
1369.31	462.494
1373.54	422.573
1377.77	401.992
1381.99	298.323
1386.22	410.982
1390.43	317.464
1394.65	453.356
1398.87	160.516
1403.08	214.102
1407.29	388.938
1411.49	303.808
1415.69	366.539
1419.89	289.864
1424.09	311.171
1428.29	127.485
1432.48	118.019
1436.67	189.38
1440.86	228.231
1445.04	192.694
1449.23	253.238
1453.4	102.744
1457.58	127.803
1461.76	140.376
1465.93	245.619
1470.1	157.315
1474.26	107.763
1478.43	56.0117
1482.59	207.69
1486.75	127.349
1490.9	342.333
1495.06	108.468
1499.21	112.199
1503.35	270.076
1507.5	92.6064
1511.64	270.521
1515.78	338.478
1519.92	207.541
1524.05	181.064
1528.18	20.4365
1532.31	159.648
1536.44	195.936
1540.56	63.6416
1544.69	200.91
1548.8	119.089
1552.92	233.573
1557.03	37.206
1561.14	177.957
1565.25	106.511
1569.36	3.07519
