Measurement: Raman, 514 nm, ccw, Raman Data Processed
Mineral: Clinozoisite
Rruff sample: R040085
Ideal chemistry: Ca_2_Al_3_(Si_2_O_7_)(SiO_4_)O(OH)
Locality: Alamos, Sonora, Mexico
Source: University of Arizona Mineral Museum
Description: Divergent aggregate of red thin prismatic crystals
Measured chemistry: Ca_2.03_(Al_0.90_Fe_0.13_)_3_(Si_1.00_O_4_)(Si_2.00_O_7_)O(OH)
Pin_id: S00052
Orientation: Laser parallel to -b* (0 -1 0). Fiducial mark perpendicular to laser is parallel to c [0 0 1]
Raman shift (cm-1)	intensity
130.055	0
132.843	469.432
135.631	565.555
138.417	1041.27
141.203	1228.66
143.988	1159.93
146.771	1059.17
149.554	937.225
152.336	1028.73
155.117	958.432
157.896	734.604
160.675	801.438
163.453	749.277
166.23	656.154
169.006	568.57
171.781	437.857
174.555	241.434
177.328	365.854
180.1	39.404
182.871	255.098
185.641	219.162
188.41	142.885
191.178	96.336
193.945	149.691
196.711	92.979
199.476	63.898
202.241	110.754
205.004	112.637
207.766	15.906
210.528	220.391
213.288	149.16
216.048	541.814
218.806	290.309
221.564	480.062
224.32	401.342
227.076	534.391
229.83	649.475
232.584	479.555
235.337	439.844
238.088	480.316
240.839	370.951
243.589	641.754
246.338	642.717
249.086	783.768
251.833	1144.84
254.579	1076.06
257.324	922.332
260.068	783.67
262.811	641.842
265.553	506.625
268.294	508.234
271.035	849.941
273.774	1163.91
276.512	1275.81
279.25	927.588
281.986	509.484
284.721	191.49
287.456	76.396
290.19	55.818
292.922	88.061
295.654	10.77
298.385	110.691
301.114	41.072
303.843	206.453
306.571	106.393
309.298	59.604
312.024	153.082
314.749	106.76
317.473	0.584
320.196	15.498
322.919	208.461
325.64	172.486
328.36	126.602
331.08	180.625
333.798	237.701
336.516	208.672
339.232	162.793
341.948	186.932
344.662	270.219
347.376	264.389
350.089	538.455
352.801	562.664
355.512	936.898
358.222	981.156
360.931	715.439
363.639	377.762
366.346	397.812
369.052	480.936
371.757	445.316
374.462	359.629
377.165	73.736
379.868	2.375
382.569	21.418
385.27	55.33
387.969	58.984
390.668	292.613
393.366	406.234
396.063	519.941
398.759	753.705
401.454	467.633
404.148	471.66
406.841	335.836
409.533	50.158
412.224	134.566
414.915	71
417.604	3.461
420.293	408
422.98	1252.65
425.667	2017.46
428.353	2692.38
431.037	2617.42
433.721	2202.49
436.404	1647.55
439.086	1392.6
441.767	1191.14
444.448	1142.78
447.127	1327.9
449.805	2088.32
452.482	2522.78
455.159	2491.09
457.834	1905.41
460.509	1564.43
463.183	1525.56
465.856	1360.88
468.527	1276.6
471.198	1192.39
473.868	978.213
476.538	924.07
479.206	1130.07
481.873	1086.03
484.539	805.865
487.205	1163.11
489.869	939.922
492.533	816.145
495.196	1157.04
497.857	1253.17
500.518	1399.12
503.178	1065.29
505.837	991.229
508.495	1077.16
511.153	1093.1
513.809	939.045
516.464	724.975
519.119	430.912
521.772	696.904
524.425	1062.56
527.077	1098.67
529.728	734.568
532.377	560.438
535.027	456.281
537.675	182.193
540.322	44.232
542.968	90.234
545.613	177.52
548.258	202.734
550.902	152.246
553.544	202.172
556.186	558.871
558.827	467.859
561.467	583.973
564.106	1072.58
566.744	1579.24
569.381	2737.2
572.018	3433.55
574.653	3183.18
577.288	1902.18
579.921	1124.42
582.554	955.43
585.186	481.551
587.817	553.883
590.447	479.43
593.076	406.598
595.704	1042.75
598.331	1147.95
600.958	1562.64
603.583	1767.27
606.208	2012.34
608.832	2273.8
611.455	1895.71
614.077	1270.7
616.698	918.352
619.318	588.688
621.937	603.414
624.556	468.305
627.173	307.133
629.79	406.914
632.405	311.051
635.02	141.766
637.634	56.219
640.247	250.234
642.859	25.555
645.471	108.039
648.081	152.453
650.691	465.809
653.299	479.008
655.907	402.051
658.514	164.996
661.12	537.805
663.725	830.816
666.329	553.402
668.932	480.836
671.534	303.188
674.136	225.434
676.737	207.559
679.336	429.57
681.935	351.461
684.533	453.238
687.13	284.902
689.726	376.441
692.322	217.863
694.916	169.172
697.51	260.387
700.102	41.234
702.694	171.883
705.285	452.723
707.875	43.41
710.464	103.898
713.052	264.23
715.64	114.332
718.226	155.812
720.812	126.297
723.397	147.09
725.981	101.785
728.564	270.527
731.146	0.832
733.727	222.379
736.308	65.66
738.887	333.438
741.466	169.031
744.043	258.109
746.62	105.102
749.196	31.949
751.771	128.641
754.346	275.219
756.919	317.355
759.492	198.043
762.063	65.711
764.634	110.301
767.204	476.055
769.773	178.449
772.341	36.707
774.909	261.695
777.475	236.535
780.041	271.262
782.605	64.16
785.169	280.176
787.732	85.586
790.294	168.238
792.856	260.719
795.416	83.699
797.976	482.992
800.534	163.754
803.092	198.855
805.649	202.117
808.205	180.383
810.76	303.316
813.315	286.117
815.868	69.059
818.421	651.926
820.972	85.277
823.523	277.355
826.073	669.922
828.623	682.395
831.171	744.727
833.718	557.102
836.265	689.445
838.811	381.734
841.356	713.98
843.9	626.176
846.443	738.25
848.985	1230.09
851.527	1272.18
854.067	1832.69
856.607	2154.43
859.146	2206.25
861.684	2313.92
864.221	1712.44
866.757	1123.95
869.293	1471.97
871.828	1430.85
874.361	1241.57
876.894	1451
879.426	672.121
881.958	722.078
884.488	817.266
887.018	601.23
889.546	392
892.074	658.773
894.601	635.965
897.127	893.82
899.652	644.371
902.177	833
904.7	1364.24
907.223	1205.91
909.745	1527.6
912.266	1399.2
914.786	2084.09
917.306	2034.84
919.824	2269.61
922.342	2397.63
924.859	2028.61
927.375	1675.45
929.89	2037.04
932.404	1638.54
934.918	1530.57
937.43	1482.71
939.942	1568.23
942.453	1320.41
944.963	852.324
947.472	934.141
949.981	866.621
952.488	858.312
954.995	811.043
957.501	443.867
960.006	566.828
962.51	969.898
965.014	1133.07
967.516	636.055
970.018	39.473
972.519	538.062
975.019	341.746
977.518	695.57
980.017	809.547
982.514	1293.68
985.011	1860.21
987.507	1264.69
990.002	1020.58
992.496	1055.44
994.989	862.055
997.482	1148.07
999.974	573.605
1002.46	639.773
1004.95	685.762
1007.44	651.906
1009.93	758.207
1012.42	404.645
1014.91	764.047
1017.39	561.922
1019.88	658.766
1022.36	515.824
1024.85	448.363
1027.33	401.398
1029.81	594.598
1032.29	628.305
1034.77	492.461
1037.25	606.93
1039.73	961.578
1042.21	1146.35
1044.68	1051.31
1047.16	1046.77
1049.63	1252.78
1052.11	1349.06
1054.58	875.668
1057.05	1042.64
1059.53	1199.91
1062	947.402
1064.47	625.367
1066.94	393.559
1069.4	1021.98
1071.87	1000.66
1074.34	669.707
1076.81	719
1079.27	1418.51
1081.74	1758.2
1084.2	1948.1
1086.66	2618.17
1089.12	3198.43
1091.59	3988.9
1094.05	3929.51
1096.51	2710.23
1098.96	1781.25
1101.42	1732.81
1103.88	1024.89
1106.34	1187.5
1108.79	1010.68
1111.25	1214.43
1113.7	798.719
1116.15	653.59
1118.61	789.047
1121.06	535.117
1123.51	591.824
1125.96	39.195
1128.41	87.301
1130.86	286.219
1133.3	476.055
1135.75	43.047
1138.19	259
1140.64	522.281
1143.08	896.891
1145.53	872.98
1147.97	10.707
1150.41	610.316
1152.85	763.668
1155.29	653.129
1157.73	197.754
1160.17	1027.01
1162.61	679.578
1165.05	505.824
1167.48	39.645
1169.92	0
