Measurement: Raman, 514 nm, ccw, Raman Data Processed
Mineral: Clinoptilolite-Ca
Rruff sample: R060662
Ideal chemistry: Ca_3_(Si_30_Al_6_)O_72_20H_2_O
Locality: Succor Creek, Malheur County, Oregon, USA
Source: Michael Scott
Description: Group of colorless platy prismatic crystals
Measured chemistry: (Ca_1.02_Na_0.97_K_0.59_)_Σ=2.58_(Si_14.40_Al_3.60_)_Σ=18_O_36_·10.96H_2_O
Pin_id: M00221
Orientation: Laser parallel to b* (0 1 0). Fiducial mark perpendicular to laser is parallel to c [0 0 1]
Raman shift (cm-1)	intensity
221.022	0
225.895	22.2598
230.765	451.305
235.633	905.775
240.498	1635.76
245.361	1995.16
250.222	2399.6
255.08	2444.45
259.936	2960.66
264.789	2046.79
269.64	1945.75
274.488	1647.02
279.334	1399.57
284.178	769.143
289.019	685.557
293.857	827.551
298.693	726.402
303.527	686.283
308.358	207.922
313.187	7.46484
318.013	113.107
322.837	63.7754
327.659	29.0742
332.478	301.934
337.294	517.609
342.108	632.559
346.92	1110.89
351.729	1659.98
356.535	2281.02
361.34	2765.58
366.141	3703.08
370.94	5001.61
375.737	6166.06
380.531	8053.4
385.323	10164.5
390.113	12932.6
394.9	16871.2
399.684	20256.1
404.466	21588
409.245	19415.2
414.022	15401.8
418.797	11228.2
423.569	7932.82
428.338	5199.06
433.105	3581.71
437.87	2289.03
442.632	1596.47
447.391	1421.39
452.149	1623.85
456.903	2364.53
461.655	3603.37
466.405	5285.85
471.152	7557.25
475.897	10646.5
480.639	12740
485.378	11605.8
490.116	7755.9
494.85	4296.26
499.582	2405.88
504.312	1264.75
509.039	827.861
513.764	294.269
518.486	121.867
523.206	24.9219
527.923	34.0527
532.638	114.428
537.35	87.0508
542.059	152.434
546.766	9.36328
551.471	29.4883
556.173	304.674
560.873	99.041
565.57	215.775
570.264	410.469
574.957	386.357
579.646	468.809
584.333	695.211
589.018	844.6
593.7	1380.44
598.379	1829.11
603.056	2364.89
607.73	3150.96
612.402	3824
617.072	4059.89
621.739	3942.61
626.403	3416.58
631.065	2447.51
635.724	1871.7
640.381	1438.72
645.035	1696.6
649.687	1511.25
654.336	1243.26
658.983	847.484
663.627	671.162
668.268	239.07
672.907	57.1621
677.544	82.2559
682.178	47.9219
686.809	12.2578
691.438	91.1699
696.065	68.0742
700.688	46.4492
705.31	85.9746
709.929	149.303
714.545	140.959
719.158	496.144
723.77	357.209
728.378	469.023
732.984	654.031
737.588	705.256
742.189	851.711
746.787	873.412
751.383	949.375
755.976	1152.62
760.567	1381.16
765.155	1862.04
769.741	2109.25
774.324	2342.84
778.904	2854.81
783.482	3209.47
788.058	3464.46
792.631	3440.93
797.201	3217.75
801.769	2936.78
806.334	2657.15
810.897	2926.38
815.457	3202.31
820.014	3190.35
824.569	2538.33
829.122	1683.46
833.671	1208.58
838.219	1184.57
842.763	884.551
847.306	1091.19
851.845	1424.62
856.382	1858.39
860.917	1981.73
865.448	1278.99
869.978	807.555
874.505	703.111
879.029	349.674
883.55	165.273
888.069	336.924
892.586	335.852
897.1	285.473
901.611	147.412
906.12	288.287
910.626	197.719
915.129	186.127
919.63	57.3574
924.129	20.9473
928.625	187.588
933.118	108.352
937.609	5.17578
942.097	2.65625
946.582	8.53125
951.065	18.7988
955.546	163.633
960.023	84.5762
964.499	117.795
968.971	160.125
973.441	251.357
977.909	211.225
982.374	300.756
986.836	650.807
991.295	551.342
995.753	1101.34
1000.21	1722.8
1004.66	1456.7
1009.11	1024.06
1013.55	1127.89
1018	1129.19
1022.44	1449.98
1026.88	1457.26
1031.32	1412.05
1035.75	1552.35
1040.18	1477.17
1044.61	1691.52
1049.04	1578.4
1053.46	1497.76
1057.88	1229.19
1062.3	1266.75
1066.71	1297.25
1071.13	1259.13
1075.54	1172.29
1079.94	1535.14
1084.35	1823.31
1088.75	1752.98
1093.15	1751.91
1097.55	2180.34
1101.94	2200.78
1106.34	2536.41
1110.73	2697.58
1115.11	2984.31
1119.5	2792.09
1123.88	2414.91
1128.26	2464.82
1132.63	2407.77
1137.01	2107.28
1141.38	2334.36
1145.75	2287.02
1150.12	2177.24
1154.48	2173.05
1158.84	2008.45
1163.2	1899.41
1167.55	2104.96
1171.91	1626.07
1176.26	1569.75
1180.61	1364.99
1184.95	892.861
1189.29	897.479
1193.63	563.775
1197.97	369.789
1202.31	168.519
1206.64	96.8086
1210.97	22.2617
1215.29	51.8027
1219.62	299.231
1223.94	202.498
1228.26	193.984
1232.57	256.373
1236.89	437.154
1241.2	193.445
1245.51	268.244
1249.81	269.547
1254.12	207.639
1258.42	237.469
1262.72	383.029
1267.01	502.197
1271.3	503.941
1275.59	334.172
1279.88	377.891
1284.17	283.555
1288.45	304.225
1292.73	273.519
1297.01	533.143
1301.28	403.143
1305.55	479.494
1309.82	652.176
1314.09	903.141
1318.35	733.361
1322.61	912.818
1326.87	413.58
1331.13	913.703
1335.38	164.69
1339.63	197.719
1343.88	81.4238
1348.12	181.256
1352.37	181.519
1356.61	6.50781
1360.85	375.914
1365.08	183.047
1369.31	186.168
1373.54	313.24
1377.77	188.228
1381.99	223.547
1386.22	376.031
1390.43	323.143
1394.65	104.223
1398.87	192.701
1403.08	215.957
1407.29	10.6484
1411.49	224.168
1415.69	73.3144
1419.89	325.312
1424.09	174.568
1428.29	550.033
1432.48	1084.65
1436.67	1441.6
1440.86	2023.31
1445.04	2477.82
1449.23	2724.24
1453.4	2863.8
1457.58	2502.04
1461.76	2084.13
1465.93	1711.23
1470.1	1166.79
1474.26	951.938
1478.43	623.908
1482.59	677.99
1486.75	699.875
1490.9	327.695
1495.06	188.053
1499.21	78.2754
1503.35	35.8281
1507.5	53.6758
1511.64	96.0996
1515.78	160.223
1519.92	170.959
1524.05	365.453
1528.18	360.766
1532.31	702.354
1536.44	403.078
1540.56	521.873
1544.69	568.043
1548.8	537.717
1552.92	555.856
1557.03	299.285
1561.14	249.434
1565.25	123.322
1569.36	349.072
