Measurement: Raman, 514 nm, ccw, Raman Data Processed
Mineral: Clinohumite
Rruff sample: R040122
Ideal chemistry: Mg_9_(SiO_4_)_4_F_2_
Locality: Anzahamazonono,  Madagascar
Source: University of Arizona Mineral Museum
Description: Orange-brown blebs embedded in calcite matrix
Measured chemistry: (Mg_0.96_Fe_0.02_Ti_0.01_Ca_0.01_)_9_(SiO_4_)_4_(F_0.59_(OH)_0.41_)_2_
Pin_id: M00126
Orientation: Laser parallel to -b* (0 -1 0). Fiducial mark perpendicular to laser is parallel to -c [0 0 -1]
Raman shift (cm-1)	intensity
124.288	0
129.209	38.044
134.127	13.1455
139.043	259.577
143.956	73.5176
148.867	94.46
153.775	242.81
158.681	148.57
163.585	329.598
168.486	438.542
173.385	299.546
178.282	616.159
183.176	764.088
188.067	849.443
192.956	651.64
197.843	882.491
202.727	1094.8
207.609	939.5
212.489	808.925
217.366	688.222
222.24	603.483
227.112	865.749
231.982	1124.96
236.849	1281.11
241.714	1077.27
246.577	1023.03
251.437	1005.67
256.294	967.921
261.149	1047.6
266.002	720.146
270.852	493.432
275.7	604.438
280.545	660.225
285.388	576.155
290.229	502.644
295.067	410.438
299.902	345.354
304.735	572.269
309.566	612.079
314.394	822.188
319.22	1305.38
324.043	1162.45
328.864	625.192
333.682	636.546
338.498	377.465
343.311	119.909
348.122	27.9551
352.931	148.306
357.737	163.946
362.54	42.4355
367.341	71.3223
372.14	34.1065
376.936	19.4619
381.73	97.2109
386.521	20.7207
391.31	106.011
396.096	150.933
400.88	122.218
405.661	43.2803
410.44	188.06
415.216	291.454
419.99	370.348
424.761	222.695
429.53	162.44
434.297	249.559
439.061	271.015
443.822	183.707
448.581	121.582
453.337	247.615
458.091	24.7734
462.843	121.016
467.592	319.32
472.338	297.684
477.082	203.086
481.824	110.502
486.563	153.916
491.3	25.2988
496.034	134.611
500.765	21.8809
505.494	40.041
510.221	107.893
514.945	124.057
519.666	171.975
524.385	215.383
529.102	240.527
533.816	578.217
538.527	313.996
543.236	495.484
547.943	470.207
552.647	555.453
557.348	324.584
562.047	281.504
566.744	271.344
571.438	341.025
576.129	753.236
580.818	1352.18
585.504	1605.6
590.188	1399.45
594.87	1812.72
599.549	3091.92
604.225	5195.19
608.899	6149.67
613.57	3710.55
618.239	1816.82
622.905	1131.47
627.569	635.5
632.23	349.103
636.889	233.703
641.545	274.693
646.198	119.619
650.849	23.3652
655.498	21.0879
660.144	37.7539
664.787	9.69336
669.428	40.5586
674.067	23.0098
678.703	53.0625
683.336	221.85
687.967	8.42383
692.595	74.5723
697.221	231.223
701.844	9.40234
706.465	8.04883
711.083	37.0996
715.698	50.7793
720.311	424.943
724.922	456.262
729.53	748.199
734.135	1178.8
738.738	1664.05
743.338	1954.98
747.936	2404.61
752.531	2311.93
757.124	1868.98
761.714	1508.79
766.302	1404.51
770.887	1538.68
775.469	2136.9
780.049	3726.61
784.626	5198
789.201	4338.69
793.773	3217.32
798.343	3247.53
802.91	4427.26
807.475	6159.06
812.037	6513.29
816.596	6622.27
821.153	8598.95
825.707	15726.8
830.259	24020.4
834.808	17890
839.355	15931.8
843.899	21619.5
848.441	21567.3
852.98	18343.4
857.516	25086.9
862.05	26437.7
866.581	14843.9
871.11	9457.43
875.636	8456.27
880.159	6598.57
884.68	3702.34
889.199	2250.44
893.714	1375.9
898.228	881.574
902.738	815.832
907.246	957.129
911.752	1120.85
916.255	977.312
920.755	736.398
925.253	284.168
929.748	526.736
934.241	333.658
938.731	102.15
943.218	122.65
947.703	205.576
952.186	457.435
956.665	882.793
961.142	2713.2
965.617	6723.79
970.089	7073.03
974.558	3392.7
979.025	1810.88
983.489	672.775
987.951	209.879
992.41	176.365
996.866	163.115
1001.32	333.037
1005.77	344.332
1010.22	292.793
1014.67	238.232
1019.11	93.4512
1023.55	57.8555
1027.99	240.688
1032.42	125.856
1036.86	223.826
1041.29	6.97266
1045.72	278.471
1050.14	162.496
1054.56	179.231
1058.98	179.887
1063.4	21.498
1067.82	36.9297
1072.23	102.738
1076.64	24.0469
1081.05	360.344
1085.45	37.7812
1089.85	25.9453
1094.25	90.1074
1098.65	157.975
1103.04	36.6328
1107.43	13.8125
1111.82	162.262
1116.21	335.252
1120.59	224.779
1124.97	338.654
1129.35	148.295
1133.73	273.766
1138.1	288.435
1142.47	310.367
1146.84	287.508
1151.21	132.625
1155.57	202.008
1159.93	361.488
1164.29	296.1
1168.64	280.691
1172.99	277.574
1177.34	157.356
1181.69	371.188
1186.04	106.344
1190.38	349.332
1194.72	185.418
1199.05	192.231
1203.39	298.586
1207.72	245.676
1212.05	514.285
1216.37	144.383
1220.7	101.527
1225.02	128.5
1229.34	286.644
1233.65	302.019
1237.97	330.18
1242.28	516.207
1246.59	366.18
1250.89	240.289
1255.19	307.231
1259.49	130.508
1263.79	272.91
1268.09	299.262
1272.38	205.769
1276.67	239.894
1280.95	49.6602
1285.24	164.699
1289.52	325.027
1293.8	314.816
1298.08	140.305
1302.35	196.758
1306.62	263.625
1310.89	3.75391
1315.15	16.5312
1319.42	310.406
1323.68	285.32
1327.94	427.402
1332.19	101.109
1336.44	190.871
1340.69	277.668
1344.94	348.832
1349.19	367.981
1353.43	454.32
1357.67	338.691
1361.9	361.176
1366.14	218.332
1370.37	330.363
1374.6	176.012
1378.83	89.3008
1383.05	372.445
1387.27	222.144
1391.49	186.902
1395.7	100.519
1399.92	198.883
1404.13	57.4453
1408.34	64.1484
1412.54	261.945
1416.74	59.5117
1420.94	42.8789
1425.14	95.3242
1429.34	243.652
1433.53	253.555
1437.72	32.8359
1441.9	287.719
1446.09	230.062
1450.27	50.1055
1454.45	40.2539
1458.63	369.496
1462.8	53.6172
1466.97	354.113
1471.14	263.719
1475.31	386.703
1479.47	375.883
1483.63	386.043
1487.79	460.082
1491.94	484.164
1496.09	366.215
1500.24	184.34
1504.39	403.699
1508.54	210.84
1512.68	634.969
1516.82	529.902
1520.95	261.086
1525.09	74.8164
1529.22	298.812
1533.35	539.367
1537.47	344.719
1541.6	200.57
1545.72	130.293
1549.83	40.0312
1553.95	337.106
1558.06	192.559
1562.17	542.863
1566.28	61.043
1570.38	150.461
