Measurement: Raman, 514 nm, ccw, Raman Data Processed
Mineral: Clinozoisite
Rruff sample: R060284
Ideal chemistry: Ca_2_Al_3_(Si_2_O_7_)(SiO_4_)O(OH)
Locality: near Zagi Mountain, Khaffor Dehri, North-West Frontier Province, Pakistan
Source: Herb Obodda
Description: Greenish-brown fragment of a prismatic crystal
Measured chemistry: Ca_2.00_(Al_0.90_Fe^3+^_0.10_)_3_(Si_1.00_O_4_)(Si_2.00_O_7_)O(OH)
Pin_id: L00766
Orientation: Laser parallel to b* (0 1 0). Fiducial mark perpendicular to laser is parallel to c [0 0 1]
Raman shift (cm-1)	intensity
118.134	0
123.058	803.085
127.979	2641.41
132.898	5717.63
137.814	10131.9
142.728	11235.5
147.639	9819.89
152.549	10427.9
157.455	8821.24
162.359	6304.87
167.261	3840.62
172.161	1310.54
177.058	91.5205
181.952	490.678
186.845	29.6553
191.734	677.644
196.622	1518.26
201.507	2705.76
206.389	3887.24
211.269	5298.84
216.147	5868.17
221.022	6002.57
225.895	6489.63
230.765	6944.39
235.633	6881.86
240.498	6977.96
245.361	10446.8
250.222	15399.6
255.08	16507.3
259.936	12782.7
264.789	10199.4
269.64	13220.3
274.488	17783.3
279.334	13323.5
284.178	5280.99
289.019	2502.86
293.857	2067.28
298.693	2544.51
303.527	3077.51
308.358	3619.85
313.187	4027.3
318.013	3220.96
322.837	2734.54
327.659	2477.66
332.478	1745.71
337.294	597.124
342.108	104.602
346.92	105.384
351.729	682.316
356.535	682.898
361.34	139.792
366.141	641.299
370.94	883.738
375.737	752.572
380.531	2.42383
385.323	1825.47
390.113	5289.2
394.9	8456.34
399.684	8378.41
404.466	4874.37
409.245	2471.3
414.022	4466.24
418.797	12299.4
423.569	25867.8
428.338	34805.7
433.105	27327.3
437.87	17945.9
442.632	16937.9
447.391	23411.3
452.149	31354.5
456.903	29028.7
461.655	20163.8
466.405	15603
471.152	14857.1
475.897	14164.8
480.639	13010
485.378	11763.2
490.116	10697
494.85	9351.47
499.582	8250.88
504.312	8266.4
509.039	8889.54
513.764	9586.77
518.486	9740.14
523.206	10695.6
527.923	12608.6
532.638	10418.4
537.35	5899.87
542.059	5058.85
546.766	5664.97
551.471	7109.43
556.173	9053.4
560.873	14087.8
565.57	26343.7
570.264	43575.9
574.957	34476.4
579.646	12561.7
584.333	6171.95
589.018	6201.61
593.7	9097.36
598.379	14937.2
603.056	22596.4
607.73	23750.9
612.402	15573.5
617.072	8503.79
621.739	5412.47
626.403	3612.98
631.065	2583
635.724	1428.15
640.381	883.949
645.035	419.835
649.687	756.669
654.336	1792.4
658.983	3265.01
663.627	4497.58
668.268	5128.01
672.907	4421.29
677.544	4327.57
682.178	4968.75
686.809	5815.73
691.438	5772.44
696.065	5453.77
700.688	4381.65
705.31	2785
709.929	1355.73
714.545	483.771
719.158	5.03125
723.77	37.0195
728.378	215.277
732.984	214.582
737.588	67.0391
742.189	326.798
746.787	262
751.383	241.318
755.976	265.853
760.567	319.745
765.155	169.867
769.741	126.678
774.324	26.6562
778.904	93.7412
783.482	16.4902
788.058	133.613
792.631	165.664
797.201	301.981
801.769	501.876
806.334	703.464
810.897	1098.8
815.457	1437.93
820.014	2169.9
824.569	3602.74
829.122	5349.5
833.671	6170.23
838.219	5906.97
842.763	5438.76
847.306	5444.67
851.845	5338.75
856.382	5996.35
860.917	6930.76
865.448	7801.59
869.978	9255.03
874.505	10771.1
879.029	11792.6
883.55	10523.7
888.069	8863.22
892.586	7846.57
897.1	8617.94
901.611	11105.6
906.12	15760.7
910.626	21126.9
915.129	25153.1
919.63	26589.2
924.129	25885
928.625	24001.2
933.118	21818.6
937.609	19501.4
942.097	16636.9
946.582	13426.6
951.065	11125.5
955.546	10812.5
960.023	11256.4
964.499	11115.5
968.971	9431.72
973.441	8540.06
977.909	10822.5
982.374	15586.1
986.836	16694
991.295	11318.1
995.753	6069.89
1000.21	3489.76
1004.66	1883.05
1009.11	724.745
1013.55	272.095
1018	35.6182
1022.44	185.633
1026.88	562.354
1031.32	1124.13
1035.75	2106.73
1040.18	3878.97
1044.61	5536.6
1049.04	6237.61
1053.46	5448.07
1057.88	4386.16
1062.3	3599.22
1066.71	4223.46
1071.13	6464.92
1075.54	10866.3
1079.94	16957.9
1084.35	25597.8
1088.75	39834.6
1093.15	52455.6
1097.55	39829.3
1101.94	17658.4
1106.34	6988.87
1110.73	3237.52
1115.11	1734.02
1119.5	1608.55
1123.88	1176.28
1128.26	879.731
1132.63	569.151
1137.01	407.841
1141.38	485.773
1145.75	371.134
1150.12	309.397
1154.48	108.492
1158.84	7.57519
1163.2	105.113
1167.55	62.7559
1171.91	243.804
1176.26	143.495
1180.61	94.2139
1184.95	99.0195
1189.29	204.293
1193.63	2.79102
1197.97	106.515
1202.31	25.5215
1206.64	71.3408
1210.97	49.833
1215.29	17.1934
1219.62	146.682
1223.94	33.3262
1228.26	138.749
1232.57	137.554
1236.89	236.161
1241.2	373.784
1245.51	269.581
1249.81	174.45
1254.12	326.264
1258.42	362.18
1262.72	323.233
1267.01	451.231
1271.3	549.755
1275.59	406.468
1279.88	540.048
1284.17	360.698
1288.45	407.759
1292.73	430.144
1297.01	530.842
1301.28	518.786
1305.55	544.924
1309.82	549.816
1314.09	426.216
1318.35	420.756
1322.61	379.69
1326.87	372.356
1331.13	315.167
1335.38	231.613
1339.63	277.293
1343.88	95.9102
1348.12	259.994
1352.37	311.211
1356.61	156.29
1360.85	328.129
1365.08	328.021
1369.31	314.31
1373.54	427.741
1377.77	201.155
1381.99	279.211
1386.22	324.036
1390.43	295.734
1394.65	123.465
1398.87	183.884
1403.08	166.75
1407.29	247.613
1411.49	102.024
1415.69	152.831
1419.89	82.9287
1424.09	33.9492
1428.29	185.651
1432.48	175.607
1436.67	183.734
1440.86	202.207
1445.04	385.046
1449.23	347.94
1453.4	297.007
1457.58	368.175
1461.76	327.772
1465.93	200.643
1470.1	229.9
1474.26	155.083
1478.43	208.219
1482.59	54.1514
1486.75	155.457
1490.9	73.709
1495.06	20.3623
1499.21	68.8623
1503.35	99.2266
1507.5	88.1084
1511.64	73.8262
1515.78	116.73
1519.92	38.7764
1524.05	186.713
1528.18	63.665
1532.31	108.594
1536.44	209.44
1540.56	158.929
1544.69	110.444
1548.8	69.3848
1552.92	161.209
1557.03	152.755
1561.14	102.99
1565.25	37.582
1569.36	75.8203
