Measurement: Raman, 514 nm, ccw, Raman Data Processed
Mineral: Clinozoisite
Rruff sample: R040085
Ideal chemistry: Ca_2_Al_3_(Si_2_O_7_)(SiO_4_)O(OH)
Locality: Alamos, Sonora, Mexico
Source: University of Arizona Mineral Museum
Description: Divergent aggregate of red thin prismatic crystals
Measured chemistry: Ca_2.03_(Al_0.90_Fe_0.13_)_3_(Si_1.00_O_4_)(Si_2.00_O_7_)O(OH)
Pin_id: M00391
Orientation: Laser parallel to c* (0 0 1). Fiducial mark perpendicular to laser is parallel to a [1 0 0]
Raman shift (cm-1)	intensity
178.282	0
183.176	236.185
188.067	1546
192.956	1263.64
197.843	194.041
202.727	207.103
207.609	142.559
212.489	102.699
217.366	676.631
222.24	1011.54
227.112	1278.53
231.982	2610.04
236.849	3210.76
241.714	3314.16
246.577	3983.04
251.437	5502.66
256.294	5690.44
261.149	4591.69
266.002	3831.94
270.852	4172.31
275.7	3894.28
280.545	2665.72
285.388	2238.42
290.229	2290.86
295.067	2173.43
299.902	1647.04
304.735	1346.35
309.566	1426.02
314.394	1269.12
319.22	794.773
324.043	720.58
328.864	1168.93
333.682	1603.63
338.498	2520.17
343.311	3374.36
348.122	4602.94
352.931	4648.32
357.737	2483.62
362.54	1129.47
367.341	120.791
372.14	369.758
376.936	638.893
381.73	257.641
386.521	14.8965
391.31	1042.73
396.096	1232.45
400.88	1269.34
405.661	370.428
410.44	273.75
415.216	1069.33
419.99	3241.61
424.761	5944.12
429.53	5979.59
434.297	4519.15
439.061	3800.46
443.822	5220.53
448.581	8194.19
453.337	9527.73
458.091	7507.73
462.843	5414.13
467.592	5128.35
472.338	5662.92
477.082	5649.47
481.824	4944.22
486.563	3928.72
491.3	3093.72
496.034	2651.25
500.765	3337.38
505.494	4064.15
510.221	4007.78
514.945	3094.95
519.666	2578.98
524.385	1972.85
529.102	1437.56
533.816	1145.36
538.527	572.539
543.236	806.082
547.943	1077.96
552.647	1491.17
557.348	2548.68
562.047	5209.47
566.744	11749.6
571.438	16548.1
576.129	9580.02
580.818	3994.63
585.504	2632.89
590.188	3550.4
594.87	5126.6
599.549	7776.21
604.225	10021
608.899	7822.33
613.57	4921.15
618.239	3160.87
622.905	2432.18
627.569	1721.88
632.23	1096.8
636.889	967.031
641.545	1033.15
646.198	1077.69
650.849	1471.53
655.498	2087.56
660.144	2152.53
664.787	1743.82
669.428	1311.98
674.067	1436.72
678.703	1168.84
683.336	1518.22
687.967	1462.84
692.595	1533.67
697.221	1915.69
701.844	1597.88
706.465	1158.21
711.083	630.656
715.698	133.195
720.311	201.723
724.922	8.12891
729.53	105.629
734.135	151.574
738.738	165.805
743.338	15.9609
747.936	39.6641
752.531	117.84
757.124	36.1875
761.714	93.1719
766.302	275.926
770.887	201.375
775.469	210.359
780.049	13.7812
784.626	170.316
789.201	236.773
793.773	239.816
798.343	121.578
802.91	273.156
807.475	318.543
812.037	635.805
816.596	576.008
821.153	494.203
825.707	1206.89
830.259	1643.59
834.808	1787.83
839.355	1801.11
843.899	1843.46
848.441	1886.9
852.98	2200.43
857.516	2602.89
862.05	3137.72
866.581	3907.45
871.11	4773.23
875.636	5671.82
880.159	5718.24
884.68	5582.56
889.199	5165.35
893.714	5079.59
898.228	6704.06
902.738	8414.43
907.246	11923.8
911.752	14554.7
916.255	14565.5
920.755	12772.2
925.253	11116.6
929.748	9281.51
934.241	7863.37
938.731	6239.83
943.218	4992.41
947.703	4277.13
952.186	4311.62
956.665	3946.5
961.142	3432.55
965.617	2880.77
970.089	2492.12
974.558	2933.63
979.025	4548.31
983.489	6083.15
987.951	5528.18
992.41	2930.46
996.866	1416.21
1001.32	884.781
1005.77	322.633
1010.22	21.3047
1014.67	32.5078
1019.11	25.4297
1023.55	272.977
1027.99	470.617
1032.42	740.926
1036.86	1041.52
1041.29	1126.59
1045.72	1638.84
1050.14	1439.25
1054.56	1243.53
1058.98	1039.57
1063.4	643.93
1067.82	937.949
1072.23	1575.39
1076.64	2630.68
1081.05	3864.52
1085.45	6063.32
1089.85	9670.73
1094.25	11560.6
1098.65	7432
1103.04	3093.82
1107.43	1474.02
1111.82	843.5
1116.21	389.762
1120.59	200.879
1124.97	393.336
1129.35	230.227
1133.73	517.016
1138.1	188.082
1142.47	9.46484
1146.84	154.082
1151.21	72.8164
1155.57	30.875
1159.93	84.0781
1164.29	108.738
1168.64	258.238
1172.99	201.191
1177.34	113.352
1181.69	203.953
1186.04	41.0117
1190.38	173.394
1194.72	164.07
1199.05	139.973
1203.39	385.094
1207.72	8.38672
1212.05	398.797
1216.37	246.117
1220.7	102.348
1225.02	367.809
1229.34	174.609
1233.65	217.086
1237.97	135.539
1242.28	457.34
1246.59	249.516
1250.89	244.055
1255.19	57.0664
1259.49	74.5
1263.79	481.59
1268.09	617.379
1272.38	609.391
1276.67	454.133
1280.95	215.215
1285.24	472.488
1289.52	122.129
1293.8	199.559
1298.08	491.844
1302.35	72.0859
1306.62	641.383
1310.89	489.094
1315.15	441.781
1319.42	724.227
1323.68	603.371
1327.94	586.691
1332.19	348.848
1336.44	413.469
1340.69	411.996
1344.94	310.129
1349.19	341.848
1353.43	271.469
1357.67	257.273
1361.9	417.402
1366.14	380.672
1370.37	290.656
1374.6	495.141
1378.83	434.887
1383.05	239.223
1387.27	243.875
1391.49	419.664
1395.7	356.477
1399.92	40.1133
1404.13	29.4219
1408.34	57.1016
1412.54	177.262
1416.74	85.5938
1420.94	226.305
1425.14	39.4492
1429.34	63.5117
1433.53	473.539
1437.72	539.769
1441.9	941.672
1446.09	1033.8
1450.27	1318.95
1454.45	1089.55
1458.63	840.363
1462.8	922.004
1466.97	770.266
1471.14	628.965
1475.31	388.602
1479.47	794.359
1483.63	440.582
1487.79	229.691
1491.94	286.766
1496.09	90.875
1500.24	105.809
1504.39	333.625
1508.54	342.152
1512.68	295.844
1516.82	185.699
1520.95	71.4922
1525.09	218.219
1529.22	159.871
1533.35	147.766
1537.47	462.082
1541.6	84.6094
1545.72	89.5273
1549.83	42.5156
1553.95	145.543
1558.06	87.2305
1562.17	347.836
1566.28	85.082
1570.38	0.742188
