Measurement: Raman, 514 nm, ccw, Raman Data Processed
Mineral: Clinoptilolite-Ca
Rruff sample: R060662
Ideal chemistry: Ca_3_(Si_30_Al_6_)O_72_20H_2_O
Locality: Succor Creek, Malheur County, Oregon, USA
Source: Michael Scott
Description: Group of colorless platy prismatic crystals
Measured chemistry: (Ca_1.02_Na_0.97_K_0.59_)_Σ=2.58_(Si_14.40_Al_3.60_)_Σ=18_O_36_·10.96H_2_O
Pin_id: M00063
Orientation: Laser parallel to -a* (-1 0 0). Fiducial mark perpendicular to laser is parallel to b [0 1 0]
Raman shift (cm-1)	intensity
134.127	0
139.043	801.311
143.956	1437.6
148.867	1720.56
153.775	1843.4
158.681	1787.34
163.585	2042.76
168.486	1997.14
173.385	2258.82
178.282	2551.82
183.176	2429.84
188.067	1902.74
192.956	1443.11
197.843	1002.86
202.727	790.784
207.609	23.4121
212.489	198.069
217.366	295.858
222.24	227.668
227.112	81.1211
231.982	727.085
236.849	1432.12
241.714	2405.71
246.577	3186.56
251.437	3639.18
256.294	3608.25
261.149	3433.13
266.002	2965.48
270.852	2480.62
275.7	2018.81
280.545	1529.19
285.388	1544.2
290.229	1682.82
295.067	1917.23
299.902	2541.23
304.735	3121.77
309.566	3433.69
314.394	3876.58
319.22	4083.16
324.043	4389.57
328.864	4731.97
333.682	5049.95
338.498	5654.85
343.311	6229.81
348.122	6881.86
352.931	8019.34
357.737	9219.79
362.54	11069.4
367.341	13148.1
372.14	15376.5
376.936	17650
381.73	21110.8
386.521	25926.4
391.31	33277.2
396.096	41548.9
400.88	47532.6
405.661	48430.6
410.44	42874.7
415.216	34805.2
419.99	26233.5
424.761	19037.1
429.53	13620.1
434.297	10028.9
439.061	7883.18
443.822	7001.4
448.581	7377.34
453.337	9121.02
458.091	12932
462.843	16590
467.592	19115.7
472.338	21728.7
477.082	27703.3
481.824	31523.9
486.563	26959.5
491.3	16822.5
496.034	8903.42
500.765	4579.79
505.494	2422.03
510.221	1382.82
514.945	892.724
519.666	507.07
524.385	229.578
529.102	194.571
533.816	23.1562
538.527	25.2764
543.236	213.624
547.943	248.015
552.647	300.558
557.348	215.399
562.047	304.404
566.744	25.46
571.438	180.418
576.129	417.335
580.818	653.174
585.504	880.599
590.188	1407.63
594.87	1788.98
599.549	2860.4
604.225	4259.13
608.899	5742.5
613.57	6615.95
618.239	6196.92
622.905	5118.29
627.569	3662.58
632.23	2430.9
636.889	1651.33
641.545	1093.66
646.198	757.786
650.849	492.668
655.498	303.266
660.144	135.411
664.787	188.397
669.428	117.795
674.067	18.1299
678.703	135.552
683.336	6.99316
687.967	107.158
692.595	116.846
697.221	1.41699
701.844	8.07227
706.465	39.9551
711.083	99.4785
715.698	40.4346
720.311	227.359
724.922	117.084
729.53	253.949
734.135	227.486
738.738	185.071
743.338	217.079
747.936	202.333
752.531	338.407
757.124	403.059
761.714	424.762
766.302	499.254
770.887	481.875
775.469	622.973
780.049	654.117
784.626	623.303
789.201	608.84
793.773	577.585
798.343	405.296
802.91	536.773
807.475	690.635
812.037	632.288
816.596	868.658
821.153	895.149
825.707	509.269
830.259	245.418
834.808	150.44
839.355	38.9536
843.899	2.96631
848.441	50.7949
852.98	75.3677
857.516	24.7895
862.05	49.0718
866.581	44.8252
871.11	71.394
875.636	70.1401
880.159	89.082
884.68	61.3442
889.199	32.3247
893.714	47.0391
898.228	41.1274
902.738	2.45312
907.246	35.0908
911.752	62.3579
916.255	0.916992
920.755	33.9204
925.253	95.6894
929.748	83.7197
934.241	117.59
938.731	10.0356
943.218	1.14209
947.703	193.386
952.186	160.788
956.665	210.974
961.142	222.989
965.617	280.523
970.089	368.13
974.558	409.188
979.025	400.025
983.489	451.532
987.951	535.721
992.41	677.168
996.866	655.582
1001.32	852.624
1005.77	840.014
1010.22	948.313
1014.67	990.287
1019.11	1099.84
1023.55	1207.11
1027.99	1221.32
1032.42	1162.59
1036.86	1303.8
1041.29	1359.81
1045.72	1422.14
1050.14	1260.53
1054.56	1282.2
1058.98	1249.66
1063.4	1182.38
1067.82	1086.84
1072.23	1303.93
1076.64	1480.12
1081.05	1617.06
1085.45	2027.25
1089.85	2355.69
1094.25	2604.38
1098.65	3198.35
1103.04	3443.64
1107.43	3693.43
1111.82	3979.63
1116.21	4149.39
1120.59	4194.43
1124.97	4225.11
1129.35	4024.67
1133.73	4134.1
1138.1	4174.54
1142.47	4138.57
1146.84	4322.03
1151.21	4354.1
1155.57	4341.22
1159.93	4398.4
1164.29	4115.62
1168.64	3914.59
1172.99	3723.84
1177.34	3332.82
1181.69	3022.91
1186.04	2552.21
1190.38	2239.67
1194.72	1664.85
1199.05	1382.51
1203.39	1070.23
1207.72	827.88
1212.05	618.004
1216.37	356.318
1220.7	356.912
1225.02	217.933
1229.34	145.179
1233.65	102.651
1237.97	78.9707
1242.28	140.072
1246.59	93.584
1250.89	11.2856
1255.19	29.5483
1259.49	29.1157
1263.79	100.8
1268.09	58.9873
1272.38	80.0772
1276.67	28.124
1280.95	93.3691
1285.24	86.2114
1289.52	0.695801
1293.8	23.7285
1298.08	9.48682
1302.35	27.1787
1306.62	75.4839
1310.89	34.6963
1315.15	152.174
1319.42	91.7378
1323.68	125.725
1327.94	70.5806
1332.19	48.7524
1336.44	104.389
1340.69	98.4697
1344.94	77.1304
1349.19	61.0781
1353.43	65.4282
1357.67	78.6885
1361.9	44.1846
1366.14	71.3818
1370.37	145.183
1374.6	57.2915
1378.83	114.312
1383.05	259.36
1387.27	163.566
1391.49	46.9956
1395.7	144.247
1399.92	122.637
1404.13	10.0845
1408.34	7.96533
1412.54	163.888
1416.74	125.493
1420.94	101.597
1425.14	81.2559
1429.34	80.5093
1433.53	56.7915
1437.72	146.231
1441.9	190.583
1446.09	139.728
1450.27	167.083
1454.45	115.303
1458.63	39.5147
1462.8	164.377
1466.97	98.3696
1471.14	52.7656
1475.31	135.123
1479.47	98.1846
1483.63	34.04
1487.79	67.0381
1491.94	121.495
1496.09	43.5039
1500.24	13.6885
1504.39	12.0967
1508.54	66.2715
1512.68	126.494
1516.82	87.9668
1520.95	3.41894
1525.09	111.829
1529.22	91.8623
1533.35	113.432
1537.47	96.0293
1541.6	44.8438
1545.72	122.934
1549.83	81.8701
1553.95	358.287
1558.06	164.869
1562.17	127.8
1566.28	3.5459
1570.38	2.25488
