Measurement: Raman, 514 nm, ccw, Raman Data Processed
Mineral: Colemanite
Rruff sample: R050102
Ideal chemistry: CaB_3_O_4_(OH)_3_H_2_O
Locality: Kramer deposit, Boron, Kern County, California, USA
Source: Rock Currier
Description: Colorless prismatic to tabular crystals
Measured chemistry: Ca_1.00_B_3.00_O_4_(OH)_3_Â·H_2_O ; trace amounts of Na; B assumed by stoichiometry and charge balance.
Pin_id: L00081
Orientation: Laser parallel to a* (1 0 0). Fiducial mark perpendicular to laser is parallel to b [0 1 0]
Raman shift (cm-1)	intensity
74.399	0
78.594	456.14
82.787	1854.2
86.978	4527.58
91.166	4385.04
95.353	2373.4
99.538	3129.13
103.72	4144.17
107.901	2062.32
112.079	1408.06
116.256	1040.55
120.43	335.731
124.602	439.142
128.772	1624.52
132.94	1873.78
137.106	1387.11
141.27	1682.92
145.432	2303.3
149.592	2616.98
153.749	1831.95
157.905	1516.9
162.059	1693.3
166.21	1933.7
170.36	3368.82
174.507	6167.77
178.652	6828.39
182.796	3869.55
186.937	1570.58
191.076	451.3
195.213	308.835
199.349	229.932
203.482	281.939
207.613	354.792
211.742	148.292
215.869	651.165
219.994	1827.03
224.117	2678.07
228.237	1819.11
232.356	1732.73
236.473	2085.36
240.588	2343.35
244.701	2403.58
248.811	2166.65
252.92	2207.66
257.027	2406.04
261.131	3229.27
265.234	3616.17
269.334	3184.77
273.433	2593.07
277.53	1633.87
281.624	1050.71
285.717	863.508
289.807	782.943
293.896	1081.26
297.982	1508.52
302.067	2072.99
306.149	3301.89
310.23	4057.07
314.308	3071.37
318.385	2955.32
322.459	3548.91
326.532	3422.11
330.602	2575.03
334.671	1637.85
338.737	1181.93
342.802	965.467
346.864	857.637
350.925	628.033
354.983	597.784
359.04	661.669
363.094	431.454
367.147	309.128
371.197	141.846
375.246	295.624
379.293	589.656
383.337	844.905
387.38	1299.54
391.421	993.644
395.459	707.328
399.496	360.617
403.531	53.454
407.564	205.565
411.594	76.733
415.623	33.41
419.65	95.261
423.675	88.679
427.698	6.195
431.719	90.463
435.738	71.416
439.755	342.331
443.77	212.432
447.783	661.769
451.795	1500.39
455.804	2668.47
459.811	1905.95
463.816	842.863
467.82	409.263
471.821	605.206
475.821	1170.72
479.818	1945.81
483.814	1390.48
487.808	615.119
491.799	550.377
495.789	439.806
499.777	283.671
503.763	176.267
507.747	788.348
511.729	1218.69
515.709	648.232
519.687	265.378
523.663	330.033
527.638	667.071
531.61	1173.41
535.581	1358.38
539.549	2790.3
543.516	3813.8
547.48	3088.34
551.443	2690.94
555.404	3403.04
559.363	6043.41
563.32	13429.2
567.275	14238.8
571.228	7448.42
575.18	5189.14
579.129	3804.66
583.076	2499.63
587.022	2215.92
590.966	2217.74
594.907	2603.09
598.847	4267.73
602.785	8412.27
606.721	18181.5
610.655	31681.6
614.588	21694
618.518	9235.4
622.446	4316.85
626.373	2127.48
630.298	1048.56
634.22	639.717
638.141	300.889
642.06	182.039
645.977	206.848
649.892	304.975
653.806	151.328
657.717	327.549
661.627	905.186
665.534	2205.84
669.44	3498.85
673.344	2879.56
677.246	1319.38
681.146	548.674
685.045	208.705
688.941	161.23
692.836	248.688
696.728	278.582
700.619	308.402
704.508	28.123
708.395	107.771
712.28	347.369
716.164	496.934
720.045	516.498
723.925	526.16
727.802	805.945
731.678	1426.13
735.552	3176.75
739.424	6117.75
743.295	9439.19
747.163	8654.39
751.03	5180.44
754.895	2604.86
758.758	1204.6
762.619	655.662
766.478	39.41
770.335	211.867
774.191	38.988
778.044	631.225
781.896	1205.21
785.746	2614.71
789.594	2893.13
793.441	1587.41
797.285	789.184
801.128	361.746
804.969	35.062
808.808	58.646
812.645	583.979
816.48	204.258
820.314	154.412
824.145	114.363
827.975	114.133
831.803	813.75
835.629	1213.24
839.454	1772.59
843.276	1795.49
847.097	1374.54
850.916	1013.02
854.733	750.764
858.548	927.389
862.362	995.848
866.173	1144.15
869.983	1302.31
873.791	1650.44
877.597	1668.28
881.402	1916.53
885.204	1674.05
889.005	1111.41
892.804	628.84
896.601	13.883
900.397	313.193
904.19	1.971
907.982	33.607
911.772	97.695
915.56	37.604
919.347	289.148
923.131	145.25
926.914	53.258
930.695	189.215
934.474	81.078
938.252	37.508
942.027	3.479
945.801	144.164
949.573	134.639
953.344	554.939
957.112	910.879
960.879	1179.99
964.644	1559.41
968.407	1699.27
972.168	1548.07
975.928	1424.3
979.686	1162.79
983.442	1111.87
987.196	1040.74
990.949	969.408
994.699	1377.92
998.448	1746.31
1002.2	1724.5
1005.94	1512.55
1009.68	1000.46
1013.43	748.209
1017.17	545.787
1020.9	423.201
1024.64	890.441
1028.38	827.516
1032.11	455.324
1035.84	522.621
1039.57	568.424
1043.3	925.164
1047.02	1217.74
1050.75	1201.31
1054.47	1915.12
1058.19	3097.41
1061.91	3539.11
1065.63	3423.72
1069.34	2999.33
1073.06	3155.18
1076.77	3321.53
1080.48	3473.66
1084.19	3536.77
1087.89	2800.27
1091.6	1901.85
1095.3	1676.62
1099.01	1471.14
1102.7	1316.27
1106.4	980.326
1110.1	863.68
1113.8	656.814
1117.49	229.711
1121.18	702.324
1124.87	1044.67
1128.56	1246.79
1132.24	1658.84
1135.93	1711.04
1139.61	1514.39
1143.29	1347.87
1146.97	1150.1
1150.65	1395.6
1154.32	1760.95
1158	1576.18
1161.67	1681.13
1165.34	1415.44
1169.01	899.84
1172.67	513.713
1176.34	297.727
1180	231.846
1183.67	396.465
1187.33	772.59
1190.98	470.066
1194.64	228.113
1198.3	186.414
1201.95	124.986
1205.6	316.109
1209.25	223.34
1212.9	523.375
1216.55	574.064
1220.19	445.359
1223.84	487.336
1227.48	490.002
1231.12	523.543
1234.76	448.184
1238.39	430.174
1242.03	1191.06
1245.66	1261.35
1249.29	1307.83
1252.92	1803.81
1256.55	1209.82
1260.17	808.609
1263.8	1134.88
1267.42	526.52
1271.04	499.223
1274.66	575.516
1278.28	1057.43
1281.9	470.246
1285.51	192.348
1289.13	503.723
