Measurement: Raman, 514 nm, ccw, Raman Data Processed
Mineral: Colemanite
Rruff sample: R050102
Ideal chemistry: CaB_3_O_4_(OH)_3_H_2_O
Locality: Kramer deposit, Boron, Kern County, California, USA
Source: Rock Currier
Description: Colorless prismatic to tabular crystals
Measured chemistry: Ca_1.00_B_3.00_O_4_(OH)_3_Â·H_2_O ; trace amounts of Na; B assumed by stoichiometry and charge balance.
Pin_id: L00081
Orientation: Laser parallel to a* (1 0 0). Fiducial mark perpendicular to laser is parallel to b [0 1 0]
Raman shift (cm-1)	intensity
73	0
77.196	644.097
81.389	1782.52
85.581	4123.01
89.77	6589.97
93.958	4114.1
98.143	1200.02
102.326	285.83
106.508	209.353
110.687	105.415
114.864	105.273
119.039	80.998
123.211	66.555
127.382	163.864
131.551	262.883
135.718	722.406
139.882	650.371
144.045	685.407
148.205	650.357
152.364	813.06
156.52	936.489
160.674	1269.6
164.826	1694.35
168.977	2001.02
173.125	3309.52
177.271	5178.96
181.415	2959.25
185.557	1079.71
189.697	380.277
193.835	81.232
197.97	31.911
202.104	137.771
206.236	32.258
210.366	167.575
214.493	47.479
218.619	202.174
222.742	460.658
226.864	812.367
230.984	1192.93
235.101	2038.43
239.216	3863.64
243.33	4970.83
247.441	4969.44
251.551	4184.77
255.658	4254.55
259.763	4710.99
263.867	5083.26
267.968	5379.37
272.067	5073.05
276.164	3541.08
280.26	1702.86
284.353	1001.53
288.444	696.383
292.533	716.812
296.62	1357.14
300.705	2527.34
304.789	4866.38
308.87	7492.31
312.949	5929.03
317.026	2624.4
321.101	1389.45
325.174	1824.36
329.246	2169.12
333.315	2284.55
337.382	2094.82
341.447	1839.83
345.51	1881.3
349.571	1776.05
353.63	1429.69
357.688	822.292
361.743	711.466
365.796	423.081
369.847	485.351
373.897	460.013
377.944	871.157
381.989	1771.64
386.032	2923.1
390.074	2934.43
394.113	1815.57
398.151	1206.52
402.186	767.309
406.219	257.891
410.251	218.173
414.28	138.126
418.308	97.604
422.334	183.533
426.357	75.457
430.379	37.991
434.399	178.735
438.416	35.034
442.432	0.761
446.446	24.042
450.458	170.657
454.468	85.063
458.476	109.193
462.482	183.079
466.486	106.587
470.488	59.588
474.488	152.303
478.486	774.844
482.482	776.526
486.477	389.449
490.469	181.521
494.459	140.555
498.448	122.246
502.434	123.654
506.419	4.631
510.402	145.375
514.383	165.984
518.361	226.469
522.338	276.875
526.313	537.334
530.286	938.01
534.257	2478.97
538.227	4660.19
542.194	7531.42
546.159	6408.21
550.123	4889.41
554.084	5050.48
558.044	8051.42
562.001	16535.7
565.957	23336.4
569.911	13126.6
573.863	6696.17
577.813	4301.07
581.761	3143.98
585.707	3171.74
589.651	3430.7
593.594	4065.15
597.534	4957.39
601.473	7944.62
605.409	16056.4
609.344	31431.5
613.277	28630.5
617.208	12052
621.137	5313.34
625.064	2854.3
628.99	1586.56
632.913	898.355
636.834	431.16
640.754	344.039
644.672	176.992
648.588	370.018
652.502	92.037
656.414	199.348
660.324	998.373
664.232	2973.46
668.138	5816.47
672.043	5619.68
675.946	3033.13
679.846	1546.68
683.745	960.33
687.642	554.076
691.538	247.914
695.431	61.842
699.322	135.852
703.212	199.9
707.1	123.932
710.985	68.047
714.869	137.754
718.751	476.447
722.632	700.742
726.51	515.135
730.386	969.639
734.261	1954.38
738.134	4356.72
742.005	9392.04
745.874	12048.1
749.741	7506.52
753.607	3700.36
757.47	2008.45
761.332	1023.72
765.192	947.672
769.05	474.613
772.906	442.678
776.76	849.965
780.613	1683.05
784.463	3857.41
788.312	4487.82
792.159	2485.19
796.004	1002.48
799.847	599.762
803.689	227.039
807.528	107.199
811.366	115.477
815.202	171.775
819.036	99.162
822.868	206.543
826.699	603.908
830.527	651.254
834.354	1128.57
838.179	1805.86
842.002	1723.16
845.824	1850.38
849.643	1567.56
853.461	1104.69
857.277	966.32
861.091	413.34
864.903	510.219
868.713	744.199
872.522	901.424
876.329	768.705
880.134	596.316
883.937	383.377
887.739	430.422
891.538	367.428
895.336	404.285
899.132	231.16
902.926	201.953
906.718	45.818
910.509	100.119
914.298	235.088
918.085	280.061
921.87	94.32
925.653	58.191
929.435	228.24
933.215	344.613
936.993	327.131
940.769	309.361
944.544	211.439
948.316	413.4
952.087	565.24
955.856	716.953
959.623	1408.63
963.389	1883.31
967.153	2134.7
970.915	1115.95
974.675	967.061
978.433	729.994
982.19	698.816
985.945	859.465
989.698	639.959
993.449	610.295
997.199	320.475
1000.95	450.502
1004.69	330.389
1008.44	500.189
1012.18	419.879
1015.92	459.777
1019.66	243.238
1023.4	172.59
1027.13	313.895
1030.87	525.943
1034.6	574.328
1038.33	354.965
1042.06	486.432
1045.78	633.152
1049.51	471.285
1053.23	502.232
1056.95	1032.46
1060.67	1651.82
1064.39	1580.09
1068.11	1867.2
1071.82	2284.76
1075.53	3251.36
1079.24	4382.36
1082.95	5011.7
1086.66	5272.61
1090.37	4497.38
1094.07	3014.89
1097.77	2012.18
1101.47	1429.12
1105.17	1365.49
1108.87	1191.56
1112.56	1377.23
1116.26	1072.67
1119.95	807.943
1123.64	563.02
1127.33	137.867
1131.01	292.5
1134.7	326.986
1138.38	841.387
1142.06	945.721
1145.74	940.156
1149.42	534.785
1153.1	400.717
1156.77	345.828
1160.44	342.566
1164.12	579.037
1167.79	584.988
1171.45	661.332
1175.12	327.32
1178.78	117.24
1182.45	58.832
1186.11	154.602
1189.77	312.795
1193.42	270.955
1197.08	789.924
1200.73	599.098
1204.38	518.367
1208.04	147.816
1211.68	62.486
1215.33	237.506
1218.98	617.883
1222.62	638.715
1226.26	1000.07
1229.9	1021.93
1233.54	973.635
1237.18	885.826
1240.82	445.893
1244.45	763.811
1248.08	1122.18
1251.71	1210.65
1255.34	1805.75
1258.97	1927.27
1262.59	1505.54
1266.22	841.02
1269.84	453.148
1273.46	5.207
1277.08	90.406
1280.69	270.398
1284.31	444.961
1287.92	343.652
1291.53	550.766
1295.14	629.777
1298.75	310.371
1302.36	0
