Measurement: Raman, 514 nm, ccw, Raman Data Processed
Mineral: Colemanite
Rruff sample: R050102
Ideal chemistry: CaB_3_O_4_(OH)_3_H_2_O
Locality: Kramer deposit, Boron, Kern County, California, USA
Source: Rock Currier
Description: Colorless prismatic to tabular crystals
Measured chemistry: Ca_1.00_B_3.00_O_4_(OH)_3_Â·H_2_O ; trace amounts of Na; B assumed by stoichiometry and charge balance.
Pin_id: L00081
Orientation: Laser parallel to a* (1 0 0). Fiducial mark perpendicular to laser is parallel to b [0 1 0]
Raman shift (cm-1)	intensity
74.399	0
78.594	110.809
82.787	1893.49
86.978	4110.41
91.166	2947.96
95.353	1283.37
99.538	5663
103.72	9627.36
107.901	4957.51
112.079	3331.73
116.256	2481.88
120.43	1016.85
124.602	764.045
128.772	2572.5
132.94	2612.56
137.106	1769.86
141.27	1515.97
145.432	2392.66
149.592	2681.6
153.749	1492.38
157.905	648.362
162.059	455.895
166.21	930.034
170.36	2864.2
174.507	6326.29
178.652	6413.27
182.796	2162.56
186.937	516.765
191.076	70.468
195.213	223.94
199.349	131.646
203.482	204.642
207.613	216.878
211.742	210.591
215.869	8.359
219.994	193.456
224.117	405.142
228.237	178.231
232.356	169.397
236.473	298.855
240.588	392.277
244.701	569.097
248.811	610.163
252.92	776.396
257.027	768.396
261.131	1032.29
265.234	1220.89
269.334	1238.06
273.433	1290.53
277.53	1296.35
281.624	1394.41
285.717	1540.42
289.807	1870.27
293.896	2170.84
297.982	2674.68
302.067	2681.19
306.149	2614.35
310.23	2580.81
314.308	2794.49
318.385	4188.4
322.459	5212.35
326.532	4605.42
330.602	3028.17
334.671	1646.36
338.737	996.934
342.802	725.841
346.864	619.059
350.925	500.45
354.983	460.448
359.04	452.35
363.094	388.354
367.147	248.849
371.197	129.272
375.246	193.125
379.293	227.867
383.337	349.498
387.38	316.418
391.421	206.02
395.459	45.77
399.496	39.44
403.531	41.582
407.564	0.956
411.594	0.949
415.623	12.08
419.65	46.089
423.675	54.896
427.698	36.2
431.719	60.626
435.738	121.648
439.755	189.213
443.77	182.103
447.783	135.345
451.795	304.989
455.804	390.086
459.811	477.666
463.816	494.803
467.82	642.544
471.821	905.96
475.821	2113.09
479.818	3699.95
483.814	2876.56
487.808	1272.94
491.799	669.082
495.789	382.914
499.777	268.025
503.763	202.084
507.747	282.097
511.729	374.548
515.709	293.103
519.687	188.313
523.663	53.881
527.638	300.153
531.61	692.848
535.581	667.823
539.549	814.069
543.516	982.113
547.48	1200.73
551.443	1538.83
555.404	2471.38
559.363	4942.79
563.32	11214.4
567.275	11963.4
571.228	5399.08
575.18	2688.48
579.129	1805.06
583.076	1453.69
587.022	1525
590.966	1638.22
594.907	2307.16
598.847	4347.48
602.785	9317.2
606.721	21868.1
610.655	40360.2
614.588	28903.1
618.518	12408
622.446	5611.69
626.373	2855.69
630.298	1569.95
634.22	1054.48
638.141	539.262
642.06	394.29
645.977	39.574
649.892	164.883
653.806	36.522
657.717	277.553
661.627	824.219
665.534	1984.08
669.44	3010.92
673.344	2368.08
677.246	995.565
681.146	463.366
685.045	231.482
688.941	69.903
692.836	498.615
696.728	427.589
700.619	536.805
704.508	366.248
708.395	585.919
712.28	745.878
716.164	946.173
720.045	906.867
723.925	868.062
727.802	829.686
731.678	1171.8
735.552	2204.41
739.424	4677.4
743.295	8580.93
747.163	8634.91
751.03	5152.12
754.895	2755.65
758.758	1507.78
762.619	776.817
766.478	65.943
770.335	110.317
774.191	4.611
778.044	427.897
781.896	923.178
785.746	2320.66
789.594	2835.88
793.441	1711.09
797.285	816.363
801.128	381.706
804.969	45.775
808.808	9.325
812.645	15.37
816.48	0.12
820.314	75.135
824.145	300.367
827.975	355.634
831.803	790.927
835.629	1396.24
839.454	1621.57
843.276	1746.92
847.097	1182.26
850.916	817.613
854.733	542.958
858.548	388.295
862.362	413.62
866.173	308.929
869.983	344.215
873.791	239.472
877.597	344.689
881.402	419.864
885.204	444.985
889.005	190.047
892.804	135.062
896.601	260.005
900.397	35.61
904.19	38.386
907.982	58.064
911.772	14.941
915.56	32.327
919.347	250.121
923.131	98.549
926.914	60.902
930.695	211.679
934.474	212.204
938.252	72.582
942.027	262.832
945.801	272.988
949.573	353.047
953.344	693.01
957.112	971.613
960.879	1340.06
964.644	1811.3
968.407	2100.8
972.168	2117.04
975.928	1986.43
979.686	1735.72
983.442	1614.9
987.196	1393.98
990.949	1372.95
994.699	2081.82
998.448	2620.58
1002.2	2619.26
1005.94	2187.85
1009.68	1426.35
1013.43	1034.74
1017.17	743.027
1020.9	811.205
1024.64	1099.27
1028.38	1087.23
1032.11	905.077
1035.84	802.835
1039.57	961.798
1043.3	1269.4
1047.02	1668.61
1050.75	2487.17
1054.47	3185.66
1058.19	4580.34
1061.91	5505.48
1065.63	5223.64
1069.34	4266.15
1073.06	3294.66
1076.77	2641.42
1080.48	2180.7
1084.19	1747.93
1087.89	1333
1091.6	1040.66
1095.3	788.407
1099.01	726.227
1102.7	704.115
1106.4	741.79
1110.1	509.174
1113.8	306.179
1117.49	183.071
1121.18	289.999
1124.87	496.93
1128.56	683.816
1132.24	890.635
1135.93	997.453
1139.61	914.361
1143.29	811.414
1146.97	769.27
1150.65	936.98
1154.32	1285.25
1158	1142.36
1161.67	1339.23
1165.34	1086
1169.01	692.676
1172.67	479.24
1176.34	345.947
1180	243.33
1183.67	281.377
1187.33	500.266
1190.98	270.15
1194.64	190.566
1198.3	8.785
1201.95	37.977
1205.6	206.992
1209.25	254.227
1212.9	185.742
1216.55	327.58
1220.19	389.797
1223.84	422.414
1227.48	235.404
1231.12	228.834
1234.76	272.908
1238.39	327.762
1242.03	853.482
1245.66	1046.67
1249.29	1292.63
1252.92	1720.48
1256.55	1602.47
1260.17	1396.41
1263.8	1385.2
1267.42	812.691
1271.04	708.072
1274.66	680.336
1278.28	684.453
1281.9	486.891
1285.51	282.049
1289.13	462.707
1292.74	223.109
1296.35	0.721
1299.95	0
