Measurement: Raman, 514 nm, ccw, Raman Data Processed
Mineral: Columbite-(Fe)
Rruff sample: R050348
Ideal chemistry: Fe^2+^Nb_2_O_6_
Locality: Lord Hill mine, Stoneham, Oxford County, Maine, USA
Source: California Institute of Technology
Description: Black fragment
Measured chemistry: (Fe^2+^_0.69_Mn^2+^_0.30_Ti_0.01_)(Nb_0.89_Ta_0.10_Ti_0.01_)_2_O_6_
Pin_id: L01882
Orientation: Laser parallel to -a* (-1 0 0). Fiducial mark perpendicular to laser is parallel to b [0 1 0]
Raman shift (cm-1)	intensity
221.022	0
225.895	124.611
230.765	399.446
235.633	863.105
240.498	1560.12
245.361	1808.62
250.222	2019.06
255.08	2266.61
259.936	2240.84
264.789	2489.13
269.64	2254.53
274.488	2131.19
279.334	1737.65
284.178	1171.16
289.019	1055.54
293.857	982.468
298.693	736.716
303.527	657.56
308.358	808.004
313.187	761.095
318.013	1094.96
322.837	944.989
327.659	842.511
332.478	756.498
337.294	519.646
342.108	353.977
346.92	213.943
351.729	305.43
356.535	134.017
361.34	122.445
366.141	40.958
370.94	74.7178
375.737	87.5576
380.531	20.5938
385.323	78.5703
390.113	228.009
394.9	14.6777
399.684	109.303
404.466	15.2236
409.245	72.5996
414.022	123.589
418.797	95.1543
423.569	48.877
428.338	98.3623
433.105	26.252
437.87	188.248
442.632	249.231
447.391	348.872
452.149	357.998
456.903	541.185
461.655	304.807
466.405	547.015
471.152	486.36
475.897	612.29
480.639	652.593
485.378	700.28
490.116	572.433
494.85	776.959
499.582	504.164
504.312	355.806
509.039	500.375
513.764	652.527
518.486	924.154
523.206	911.468
527.923	1075.91
532.638	954.467
537.35	936.572
542.059	852.183
546.766	521.305
551.471	569.606
556.173	339.958
560.873	135.446
565.57	208.693
570.264	149.209
574.957	46.5303
579.646	57.9815
584.333	138.587
589.018	24.5469
593.7	107.328
598.379	99.1904
603.056	96.9668
607.73	16.749
612.402	73.1875
617.072	12.6152
621.739	142.555
626.403	183.768
631.065	78.3369
635.724	203.101
640.381	392.865
645.035	568.156
649.687	447.82
654.336	520.338
658.983	639.413
663.627	695.795
668.268	724.616
672.907	730.139
677.544	980.507
682.178	1111.99
686.809	1223.82
691.438	1272.52
696.065	1436.07
700.688	1668.84
705.31	1878.86
709.929	2140.92
714.545	2096.79
719.158	2511.59
723.77	2745.09
728.378	3036.2
732.984	3274.27
737.588	3783.14
742.189	3974.23
746.787	4452.06
751.383	4753.21
755.976	5076.97
760.567	5473.45
765.155	5860.24
769.741	6133.31
774.324	6237.04
778.904	6435.22
783.482	6572.03
788.058	6740.05
792.631	6795.24
797.201	6925.58
801.769	6926.76
806.334	7048.5
810.897	7392.9
815.457	7524.62
820.014	7621.68
824.569	7963.14
829.122	8352.51
833.671	8701.26
838.219	9334.15
842.763	10133.6
847.306	11322.5
851.845	12722.3
856.382	14673.2
860.917	17024.9
865.448	19698.3
869.978	20764.3
874.505	18531.7
879.029	13235.4
883.55	7921.15
888.069	4874.72
892.586	3062.95
897.1	1905.55
901.611	1413.43
906.12	875.011
910.626	626.731
915.129	368.398
919.63	245.985
924.129	316.444
928.625	194.827
933.118	98.0371
937.609	37.8418
942.097	80.8828
946.582	125.752
951.065	163.058
955.546	116.067
960.023	90.5986
964.499	83.6465
968.971	15.5869
973.441	43.4736
977.909	97.5537
982.374	138.122
986.836	181.006
991.295	147.248
995.753	232.842
1000.21	299.732
1004.66	354.402
1009.11	308.952
1013.55	363.225
1018	203.817
1022.44	282.506
1026.88	244.434
1031.32	322.801
1035.75	446.367
1040.18	531.45
1044.61	418.317
1049.04	361.75
1053.46	540.505
1057.88	532.815
1062.3	649.559
1066.71	578.672
1071.13	755.007
1075.54	391.685
1079.94	582.437
1084.35	450.708
1088.75	528.891
1093.15	434.368
1097.55	517.121
1101.94	344.805
1106.34	307.971
1110.73	547.691
1115.11	357.897
1119.5	421.298
1123.88	474.464
1128.26	382.495
1132.63	306.09
1137.01	192.969
1141.38	100.309
1145.75	191.525
1150.12	148.419
1154.48	185.606
1158.84	204.258
1163.2	64.46
1167.55	189.753
1171.91	67.1279
1176.26	177.223
1180.61	139.735
1184.95	140.417
1189.29	114.567
1193.63	101.06
1197.97	100.643
1202.31	59.8018
1206.64	76.7022
1210.97	61.4541
1215.29	86.3281
1219.62	54.4238
1223.94	27.6367
1228.26	83.875
1232.57	115.277
1236.89	65.5869
1241.2	44.0635
1245.51	65.8291
1249.81	47.1787
1254.12	26.582
1258.42	80.8789
1262.72	28.7139
1267.01	85.1836
1271.3	70.0772
1275.59	2.72559
1279.88	37.0986
1284.17	113.121
1288.45	39.7832
1292.73	65.8311
1297.01	59.5137
1301.28	129.524
1305.55	80.7588
1309.82	110.332
1314.09	41.6992
1318.35	83.1689
1322.61	134.394
1326.87	128.13
1331.13	67.9346
1335.38	152.643
1339.63	180.069
1343.88	213.239
1348.12	105.821
1352.37	228.088
1356.61	147.582
1360.85	182.829
1365.08	188.108
1369.31	124.541
1373.54	167.036
1377.77	103.485
1381.99	155.279
1386.22	86.0322
1390.43	66.9062
1394.65	171.321
1398.87	276.943
1403.08	96.1865
1407.29	103.25
1411.49	115.957
1415.69	189.095
1419.89	109.383
1424.09	130.998
1428.29	120.293
1432.48	185.718
1436.67	1.70019
1440.86	53.6016
1445.04	113.633
1449.23	29.6162
1453.4	63.793
1457.58	69.1992
1461.76	110.255
1465.93	34.2275
1470.1	234.026
1474.26	27.3574
1478.43	97.1562
1482.59	9.51367
1486.75	147.583
1490.9	5.85449
1495.06	126.269
1499.21	56.3281
1503.35	49.3565
1507.5	176.69
1511.64	26.626
1515.78	141.08
1519.92	136.51
1524.05	64.1465
1528.18	234.727
1532.31	133.985
1536.44	134.742
1540.56	117.356
1544.69	46.8076
1548.8	104.472
1552.92	109.675
1557.03	125.517
1561.14	1.34961
1565.25	106.168
1569.36	65.2871
