Measurement: Raman, 514 nm, ccw, Raman Data Processed
Mineral: Columbite-(Fe)
Rruff sample: R050348
Ideal chemistry: Fe^2+^Nb_2_O_6_
Locality: Lord Hill mine, Stoneham, Oxford County, Maine, USA
Source: California Institute of Technology
Description: Black fragment
Measured chemistry: (Fe^2+^_0.69_Mn^2+^_0.30_Ti_0.01_)(Nb_0.89_Ta_0.10_Ti_0.01_)_2_O_6_
Pin_id: L00573
Orientation: Laser parallel to -c* (0 0 -1). Fiducial mark perpendicular to laser is parallel to -a [-1 0 0]
Raman shift (cm-1)	intensity
221.022	0
225.895	61.4395
230.765	57.6533
235.633	219.025
240.498	155.882
245.361	262.566
250.222	360.009
255.08	539.919
259.936	1000.76
264.789	1279.11
269.64	1664.46
274.488	1746.51
279.334	1240.95
284.178	788.888
289.019	301.21
293.857	273.035
298.693	203.916
303.527	258.795
308.358	193.373
313.187	518.398
318.013	576.809
322.837	442.736
327.659	327.842
332.478	239.466
337.294	272.206
342.108	83.8525
346.92	105.312
351.729	55.5117
356.535	101.45
361.34	159.06
366.141	145.69
370.94	82.3652
375.737	171.881
380.531	221.495
385.323	204.283
390.113	194.023
394.9	170.451
399.684	54.1367
404.466	25.3877
409.245	69.3613
414.022	43.999
418.797	78.3516
423.569	45.5566
428.338	41.2461
433.105	62.456
437.87	69.2764
442.632	185.916
447.391	141.933
452.149	140.661
456.903	207.299
461.655	192.728
466.405	280.285
471.152	327.143
475.897	351.7
480.639	401.944
485.378	443.359
490.116	511.258
494.85	502.998
499.582	435.086
504.312	283.58
509.039	436.943
513.764	487.748
518.486	406.894
523.206	544.206
527.923	527.474
532.638	438.7
537.35	415.894
542.059	130.968
546.766	313.547
551.471	214.131
556.173	67.624
560.873	46
565.57	138.116
570.264	4.61426
574.957	20.624
579.646	18.7021
584.333	76.0684
589.018	4.15723
593.7	89.5127
598.379	47.9834
603.056	191.58
607.73	132.346
612.402	360.296
617.072	354.566
621.739	465.937
626.403	649.51
631.065	871.309
635.724	899.487
640.381	790.791
645.035	609.833
649.687	451.708
654.336	349.839
658.983	373.307
663.627	286.96
668.268	259.002
672.907	114.311
677.544	213.895
682.178	268.765
686.809	179.107
691.438	178.072
696.065	232.831
700.688	187.879
705.31	184.846
709.929	147.382
714.545	308.402
719.158	304.237
723.77	155.394
728.378	208.057
732.984	223.288
737.588	152.419
742.189	95.2939
746.787	173.461
751.383	13.0635
755.976	121.737
760.567	313.812
765.155	184.158
769.741	138.77
774.324	57.6406
778.904	189.758
783.482	60.1123
788.058	33.6963
792.631	31.5156
797.201	202.559
801.769	124.09
806.334	262.584
810.897	308.78
815.457	461.711
820.014	626.741
824.569	897.653
829.122	1063.37
833.671	1230.06
838.219	1684.38
842.763	2071.32
847.306	2831.18
851.845	3982.98
856.382	5988.09
860.917	8643.3
865.448	12805.5
869.978	17523.3
874.505	18187.9
879.029	12831.4
883.55	7298.09
888.069	4075.85
892.586	2201.06
897.1	1533.55
901.611	1035.99
906.12	543.2
910.626	389.114
915.129	224.092
919.63	206.156
924.129	220.365
928.625	147.18
933.118	231.801
937.609	32.2754
942.097	206.415
946.582	58.4053
951.065	6.24219
955.546	1.24707
960.023	26.9971
964.499	146.486
968.971	28.0225
973.441	48.9697
977.909	104.633
982.374	154.077
986.836	111.302
991.295	93.0098
995.753	234.394
1000.21	56.1855
1004.66	219.81
1009.11	183.585
1013.55	54.7744
1018	112.676
1022.44	272.177
1026.88	180.717
1031.32	82.1309
1035.75	121.599
1040.18	215.386
1044.61	251.074
1049.04	205.798
1053.46	285.373
1057.88	307.614
1062.3	210.65
1066.71	310.966
1071.13	280.629
1075.54	231.257
1079.94	321.69
1084.35	581.773
1088.75	341.45
1093.15	350.119
1097.55	212.438
1101.94	277.053
1106.34	338.227
1110.73	166.291
1115.11	216.035
1119.5	314.496
1123.88	293.431
1128.26	222.435
1132.63	225.034
1137.01	156.219
1141.38	247.098
1145.75	167.506
1150.12	4.43066
1154.48	44.5908
1158.84	55.6641
1163.2	145.384
1167.55	1.53809
1171.91	71.3603
1176.26	121.041
1180.61	68.5176
1184.95	85.8018
1189.29	196.85
1193.63	167.612
1197.97	119.595
1202.31	150.136
1206.64	211.605
1210.97	65.9307
1215.29	30.8701
1219.62	73.1436
1223.94	145.149
1228.26	177.215
1232.57	84.5449
1236.89	67.8916
1241.2	235.476
1245.51	211.756
1249.81	837.947
1254.12	90.2461
1258.42	167.365
1262.72	225.894
1267.01	119.245
1271.3	89.1279
1275.59	4.29394
1279.88	328.015
1284.17	43.0283
1288.45	224.214
1292.73	51.043
1297.01	181.717
1301.28	185.133
1305.55	200.775
1309.82	169.706
1314.09	338.789
1318.35	208.208
1322.61	296.198
1326.87	260.478
1331.13	188.808
1335.38	207.232
1339.63	465.705
1343.88	243.963
1348.12	308.162
1352.37	127.079
1356.61	168.454
1360.85	156.512
1365.08	67.7852
1369.31	112.943
1373.54	386.256
1377.77	69.9316
1381.99	76.9785
1386.22	239.602
1390.43	171.164
1394.65	347.41
1398.87	248.902
1403.08	98.459
1407.29	147.123
1411.49	45.1348
1415.69	312.664
1419.89	313.654
1424.09	200.234
1428.29	91.5703
1432.48	69.4883
1436.67	85.5664
1440.86	166.106
1445.04	75.375
1449.23	170.098
1453.4	142.947
1457.58	225.459
1461.76	151.492
1465.93	237.856
1470.1	172.268
1474.26	156.025
1478.43	263.715
1482.59	184.356
1486.75	15.2363
1490.9	101.769
1495.06	87.5859
1499.21	178.307
1503.35	174.115
1507.5	234.881
1511.64	98.1426
1515.78	145.111
1519.92	221.168
1524.05	66.5215
1528.18	99.5977
1532.31	244.385
1536.44	227.279
1540.56	86.1699
1544.69	329.07
1548.8	110.506
1552.92	455.641
1557.03	188.557
1561.14	300.826
1565.25	241.572
1569.36	34.6367
