Measurement: Raman, 514 nm, ccw, Raman Data Processed
Mineral: Columbite-(Fe)
Rruff sample: R050348
Ideal chemistry: Fe^2+^Nb_2_O_6_
Locality: Lord Hill mine, Stoneham, Oxford County, Maine, USA
Source: California Institute of Technology
Description: Black fragment
Measured chemistry: (Fe^2+^_0.69_Mn^2+^_0.30_Ti_0.01_)(Nb_0.89_Ta_0.10_Ti_0.01_)_2_O_6_
Pin_id: L00509
Orientation: Laser parallel to -b* (0 -1 0). Fiducial mark perpendicular to laser is parallel to -c [0 0 -1]
Raman shift (cm-1)	intensity
221.022	0
225.895	42.4404
230.765	180.87
235.633	306.683
240.498	399.897
245.361	517.851
250.222	671.52
255.08	639.367
259.936	641.446
264.789	597.703
269.64	621.173
274.488	603.766
279.334	440.755
284.178	311.25
289.019	301.839
293.857	200.572
298.693	169.582
303.527	352.851
308.358	447.64
313.187	398.102
318.013	584.518
322.837	524.796
327.659	485.796
332.478	309.488
337.294	289.538
342.108	175.144
346.92	160.815
351.729	87.3569
356.535	58.9858
361.34	101.352
366.141	36.123
370.94	6.76758
375.737	36.7549
380.531	90.7939
385.323	108.812
390.113	6.54785
394.9	130.258
399.684	14.9385
404.466	105.784
409.245	18.6011
414.022	19.7705
418.797	46.0132
423.569	101.243
428.338	191.532
433.105	59.8921
437.87	153.23
442.632	135.141
447.391	91.9248
452.149	48.2026
456.903	163.56
461.655	91.6733
466.405	105.759
471.152	94.5703
475.897	26.4863
480.639	99.5576
485.378	138.36
490.116	123.671
494.85	137.445
499.582	191.497
504.312	122.405
509.039	130.565
513.764	199.668
518.486	256.504
523.206	349.935
527.923	321.621
532.638	330.801
537.35	318.848
542.059	289.845
546.766	439.01
551.471	309.847
556.173	271.707
560.873	222.356
565.57	259.23
570.264	188.232
574.957	128.919
579.646	136.052
584.333	0.749512
589.018	33.0493
593.7	53.8613
598.379	20.1211
603.056	28.8071
607.73	65.2529
612.402	26.4585
617.072	19.3257
621.739	25.6597
626.403	52.3438
631.065	13.4214
635.724	38.8735
640.381	94.5918
645.035	111.848
649.687	109.547
654.336	147.762
658.983	151.616
663.627	176.342
668.268	288.808
672.907	267.004
677.544	286.932
682.178	543.518
686.809	425.768
691.438	457.688
696.065	442.343
700.688	678.577
705.31	628.346
709.929	703.637
714.545	988.345
719.158	997.461
723.77	1010.09
728.378	1264.6
732.984	1263.18
737.588	1471.07
742.189	1604.78
746.787	1763.29
751.383	1787.94
755.976	2135.72
760.567	2309.23
765.155	2347.25
769.741	2425.95
774.324	2581.94
778.904	2676.41
783.482	2631.23
788.058	2666.93
792.631	2715.8
797.201	2882.58
801.769	2771.07
806.334	2908.37
810.897	2971.95
815.457	2887.05
820.014	3035.69
824.569	3142.56
829.122	3067.25
833.671	3137.35
838.219	3313.5
842.763	3440.71
847.306	3636.86
851.845	3901.21
856.382	4421.55
860.917	4776.98
865.448	5297.49
869.978	5504.14
874.505	4916.91
879.029	3519.74
883.55	2119.6
888.069	1306.55
892.586	708.196
897.1	482.519
901.611	224.482
906.12	241.426
910.626	105.35
915.129	28.2832
919.63	7.10986
924.129	100.772
928.625	25.6035
933.118	53.3833
937.609	6.22266
942.097	64.5606
946.582	4.11377
951.065	27.2822
955.546	8.04883
960.023	12.0649
964.499	4.45459
968.971	64.0029
973.441	35.2378
977.909	144.257
982.374	147.937
986.836	259.405
991.295	196.692
995.753	226.765
1000.21	285.608
1004.66	242.278
1009.11	263.89
1013.55	233.997
1018	233.078
1022.44	290.79
1026.88	239.177
1031.32	336.961
1035.75	343.364
1040.18	335.319
1044.61	220.148
1049.04	328.566
1053.46	521.267
1057.88	398.443
1062.3	392.638
1066.71	384.721
1071.13	316.282
1075.54	319.601
1079.94	371.598
1084.35	226.423
1088.75	251.806
1093.15	245.289
1097.55	128.947
1101.94	250.258
1106.34	230.16
1110.73	174.123
1115.11	175.083
1119.5	124.8
1123.88	217.227
1128.26	251.293
1132.63	291.502
1137.01	155.555
1141.38	138.37
1145.75	81.4175
1150.12	227.018
1154.48	90.0518
1158.84	110.443
1163.2	126.541
1167.55	2.07764
1171.91	60.082
1176.26	12.9077
1180.61	23.7632
1184.95	68.2349
1189.29	41.4658
1193.63	98.6284
1197.97	91.1157
1202.31	73.4668
1206.64	97.7798
1210.97	42.0527
1215.29	56.2266
1219.62	42.2275
1223.94	130.08
1228.26	75.9619
1232.57	104.426
1236.89	60.4883
1241.2	93.9468
1245.51	24.3667
1249.81	16.4658
1254.12	91.4336
1258.42	55.2368
1262.72	0.160156
1267.01	96.1426
1271.3	131.256
1275.59	36.8569
1279.88	177.555
1284.17	81.1973
1288.45	112.262
1292.73	68.4409
1297.01	97.394
1301.28	21.6748
1305.55	46.6977
1309.82	42.6025
1314.09	116.043
1318.35	141.107
1322.61	83.9829
1326.87	152.66
1331.13	205.997
1335.38	178.914
1339.63	229.395
1343.88	202.87
1348.12	181.769
1352.37	218.424
1356.61	185.082
1360.85	99.6777
1365.08	157.525
1369.31	217.696
1373.54	168.049
1377.77	149.326
1381.99	93.0371
1386.22	227.181
1390.43	160.43
1394.65	199.125
1398.87	137.363
1403.08	178.498
1407.29	179.524
1411.49	267.824
1415.69	108.659
1419.89	204.999
1424.09	23.8579
1428.29	111.084
1432.48	74.1421
1436.67	14.9097
1440.86	67.1904
1445.04	98.5698
1449.23	57.9414
1453.4	73.2656
1457.58	83.1416
1461.76	39.1201
1465.93	159.876
1470.1	53.2353
1474.26	80.353
1478.43	101.315
1482.59	14.875
1486.75	87.8774
1490.9	6.40088
1495.06	117.47
1499.21	54.0122
1503.35	109.712
1507.5	115.764
1511.64	75.4155
1515.78	118.369
1519.92	147.338
1524.05	197.163
1528.18	211.684
1532.31	129.72
1536.44	256.817
1540.56	161.132
1544.69	151.37
1548.8	121.085
1552.92	163.345
1557.03	89.687
1561.14	96.8897
1565.25	0.447266
1569.36	67.5869
