Measurement: Raman, 514 nm, ccw, Raman Data Processed
Mineral: Columbite-(Fe)
Rruff sample: R060001
Ideal chemistry: Fe^2+^Nb_2_O_6_
Locality: Gypsy mine, Minas Gerais, Brazil
Source: Eric Van Valkenburg
Description: Steel gray fragment with internal red hints
Measured chemistry: (Fe^2+^_0.52_Mn^2+^_0.48_)_Σ=1_(Nb_1.61_Ta_0.39_)_Σ=2_O_6_
Pin_id: L00607
Orientation: Laser parallel to b* (0 1 0). Fiducial mark perpendicular to laser is parallel to c [0 0 1]
Raman shift (cm-1)	intensity
110.475	0
115.417	250.522
120.358	199.215
125.295	341.344
130.23	706.089
135.163	738.366
140.092	821.991
145.019	332.331
149.944	202.683
154.866	241.159
159.785	101.083
164.702	232.652
169.616	314.254
174.528	259.501
179.437	365.995
184.343	399.721
189.247	580.33
194.148	810.43
199.046	1398.21
203.942	1506.67
208.835	1103.27
213.726	672.97
218.614	347.771
223.5	305.656
228.382	366.605
233.263	388.963
238.14	545.94
243.015	611.898
247.888	777.81
252.758	1058.1
257.625	1541.53
262.49	2203.68
267.352	2874.36
272.211	2905.89
277.068	2414.14
281.922	1404.37
286.773	928.818
291.622	663.68
296.469	527.118
301.312	461.898
306.154	520.199
310.992	664.642
315.828	824.174
320.661	756.751
325.492	462.344
330.32	318.925
335.145	99.4604
339.968	120.918
344.789	67.2649
349.606	28.4702
354.421	97.5303
359.234	62.4417
364.043	97.721
368.851	149.801
373.655	178.241
378.457	125.505
383.256	143.604
388.053	31.5354
392.847	10.7073
397.639	55.8254
402.428	59.9888
407.214	23.4797
411.998	3.54956
416.779	11.1435
421.557	39.0049
426.333	1.69849
431.106	93.6523
435.877	178.078
440.645	109.05
445.41	112.646
450.173	218.885
454.933	204.49
459.691	255.697
464.446	334.718
469.198	422.557
473.948	561.219
478.695	572.713
483.439	661.044
488.181	662.223
492.92	574.95
497.657	571.845
502.391	403.803
507.122	450.287
511.851	367.851
516.577	388.324
521.301	408.719
526.022	549.047
530.74	579.121
535.456	445.174
540.169	319.723
544.879	186.338
549.587	91.8599
554.292	76.2817
558.995	94.9072
563.695	30.0254
568.392	33.7471
573.087	10.9722
577.779	68.7852
582.469	28.876
587.156	33.1113
591.84	35.4717
596.522	50.3252
601.201	174.403
605.877	314.776
610.551	369.464
615.222	549.481
619.891	751.846
624.557	939.138
629.22	1215.68
633.881	1241.19
638.539	1195.1
643.195	1089.44
647.848	678.224
652.498	403.454
657.145	266.15
661.791	190.325
666.433	205.992
671.073	110.163
675.71	182.877
680.345	78.2617
684.977	183.407
689.606	215.557
694.233	143.607
698.857	246.478
703.478	278.002
708.097	266.894
712.714	409.878
717.327	366.556
721.938	482.006
726.547	530.451
731.153	456.966
735.756	587.9
740.356	801.548
744.954	687.894
749.55	796.936
754.142	803.67
758.733	867.689
763.32	922.221
767.905	921.997
772.487	983.418
777.067	994.495
781.644	930.21
786.218	1037.56
790.79	1020.56
795.359	1116.07
799.926	1081.35
804.49	1170.13
809.051	1243.48
813.61	1353.48
818.166	1598.16
822.72	1786.85
827.271	2106.14
831.819	2571.06
836.365	2869.8
840.908	3694.41
845.448	4576.4
849.986	6139.04
854.521	8539.78
859.054	12251
863.584	18098.8
868.111	26414.4
872.636	35075.1
877.158	34813.6
881.677	23450.6
886.194	12091.7
890.709	6366.82
895.22	3502.16
899.729	2404.79
904.236	1632.88
908.74	1131.96
913.241	753.408
917.739	497.756
922.235	352.422
926.729	331.845
931.219	223.707
935.708	197.562
940.193	121.387
944.676	34.169
949.156	26.8257
953.634	29.8066
958.109	61.647
962.582	43.1299
967.051	1.49121
971.519	9.05176
975.983	1.94189
980.445	68.3521
984.905	50.6992
989.362	55.6577
993.816	82.814
998.267	23.7036
1002.72	14.7617
1007.16	47.9312
1011.61	21.7554
1016.05	153.185
1020.49	0.85791
1024.92	68.8052
1029.36	43.1782
1033.79	120.626
1038.21	259.427
1042.64	26.5552
1047.06	74.2939
1051.48	120.626
1055.9	78.5659
1060.32	198.626
1064.73	171.095
1069.14	218.162
1073.55	158.625
1077.95	243.303
1082.35	286.127
1086.75	284.237
1091.15	246.59
1095.54	264.809
1099.93	186.203
1104.32	276.933
1108.71	229.258
1113.09	231.936
1117.47	154.33
1121.85	169.034
1126.23	216.458
1130.6	166.562
1134.97	135.212
1139.34	182.419
1143.7	91.8657
1148.07	118.845
1152.43	73.8823
1156.79	194.197
1161.14	45.6279
1165.49	74.7256
1169.84	77.1802
1174.19	89.2231
1178.54	104.478
1182.88	115.132
1187.22	51.9907
1191.55	166.017
1195.89	100.854
1200.22	109.511
1204.55	43.0049
1208.87	69.3276
1213.2	64.5483
1217.52	93.6856
1221.84	114.719
1226.15	75.1982
1230.47	36.8428
1234.78	67.0396
1239.09	31.1191
1243.39	136.939
1247.69	112.266
1251.99	78.5649
1256.29	50.3975
1260.59	83.0708
1264.88	104.585
1269.17	2.27148
1273.46	89.7734
1277.74	4.13721
1282.02	36.9453
1286.3	10.0283
1290.58	2.05908
1294.86	93.7178
1299.13	13.7065
1303.39	65.2837
1307.66	29.2427
1311.93	44.8745
1316.19	43.6157
1320.45	74.9893
1324.7	148.772
1328.96	92.7681
1333.21	117.463
1337.45	139.757
1341.7	93.9878
1345.94	161.346
1350.18	8.0459
1354.42	39.6631
1358.66	12.4683
1362.89	14.8213
1367.12	42.3491
1371.35	47.8589
1375.57	120.426
1379.8	111.991
1384.02	4.42822
1388.23	1.44189
1392.45	100.106
1396.66	130.086
1400.87	110.066
1405.08	60.0991
1409.28	90.8838
1413.48	49.9204
1417.68	27.4131
1421.88	99.6099
1426.07	85.5693
1430.26	109.183
1434.45	62.7315
1438.64	153.552
1442.82	172.803
1447	97.5288
1451.18	84.2529
1455.35	17.001
1459.53	177.272
1463.7	167.416
1467.87	6.2085
1472.03	91.3135
1476.19	148.733
1480.35	142.161
1484.51	42.0698
1488.67	68.7188
1492.82	118.722
1496.97	41.1416
1501.12	83.2061
1505.26	102.533
1509.4	194.364
1513.54	95.0884
1517.68	52.9077
1521.81	47.9756
1525.94	159.998
1530.07	162.418
1534.2	24.9727
1538.32	17.1904
1542.44	103.244
1546.56	53.8374
1550.68	76.8428
1554.79	305.32
1558.9	86.9136
1563.01	0
