Measurement: Raman, 514 nm, ccw, Raman Data Processed
Mineral: Columbite-(Fe)
Rruff sample: R050348
Ideal chemistry: Fe^2+^Nb_2_O_6_
Locality: Lord Hill mine, Stoneham, Oxford County, Maine, USA
Source: California Institute of Technology
Description: Black fragment
Measured chemistry: (Fe^2+^_0.69_Mn^2+^_0.30_Ti_0.01_)(Nb_0.89_Ta_0.10_Ti_0.01_)_2_O_6_
Pin_id: L00573
Orientation: Laser parallel to -c* (0 0 -1). Fiducial mark perpendicular to laser is parallel to -a [-1 0 0]
Raman shift (cm-1)	intensity
221.022	0
225.895	83.3535
230.765	112.845
235.633	366.674
240.498	696.937
245.361	847.207
250.222	643.743
255.08	697.16
259.936	1023.95
264.789	798.858
269.64	720.383
274.488	797.259
279.334	875.892
284.178	720.262
289.019	568.036
293.857	313.053
298.693	132.784
303.527	129.413
308.358	111.772
313.187	58.6621
318.013	65.0679
322.837	98.4258
327.659	5.03418
332.478	55.4678
337.294	30.3569
342.108	30.7168
346.92	52.5093
351.729	204.936
356.535	109.92
361.34	246.535
366.141	647.237
370.94	293.634
375.737	657.487
380.531	869.49
385.323	1418.73
390.113	1792.69
394.9	2180.27
399.684	2144.33
404.466	1556.04
409.245	1026.5
414.022	640.433
418.797	391.744
423.569	350.904
428.338	254.379
433.105	271.689
437.87	289.965
442.632	208.818
447.391	274.662
452.149	311.114
456.903	360.062
461.655	541.049
466.405	596.339
471.152	591.424
475.897	490.987
480.639	410.648
485.378	558.176
490.116	515.79
494.85	586.831
499.582	443.11
504.312	761.632
509.039	840.392
513.764	1082.32
518.486	1490.4
523.206	1837.63
527.923	2011.02
532.638	1571.57
537.35	1270.3
542.059	903.824
546.766	610.974
551.471	316.341
556.173	217.95
560.873	186.432
565.57	115.591
570.264	44.064
574.957	11.127
579.646	21.9302
584.333	2.27344
589.018	47.1631
593.7	10.5752
598.379	47.2866
603.056	16.0503
607.73	0.150879
612.402	43.2725
617.072	13.041
621.739	208.31
626.403	57.4043
631.065	72.3242
635.724	156.552
640.381	166.214
645.035	194.549
649.687	219.87
654.336	231.815
658.983	137.095
663.627	223.709
668.268	77.667
672.907	148.102
677.544	8.06641
682.178	163.544
686.809	38.4834
691.438	114.826
696.065	1.73633
700.688	113.304
705.31	170.426
709.929	103.956
714.545	151.719
719.158	123.864
723.77	40.917
728.378	6.74512
732.984	21.4307
737.588	113.083
742.189	106.648
746.787	15.7695
751.383	19.8447
755.976	15.7646
760.567	104.304
765.155	112.059
769.741	252.01
774.324	93.1387
778.904	232.439
783.482	155.901
788.058	267.511
792.631	319.259
797.201	460.138
801.769	596.254
806.334	647.069
810.897	915.619
815.457	1179.31
820.014	1556.33
824.569	1861.56
829.122	1905.16
833.671	2279.51
838.219	2743.07
842.763	3324.55
847.306	4413.94
851.845	6138.1
856.382	8497.09
860.917	12533.2
865.448	17775.3
869.978	22268.1
874.505	21485.6
879.029	15176.7
883.55	8671.61
888.069	5129.8
892.586	2978.61
897.1	1862.18
901.611	1219.53
906.12	912.086
910.626	572.224
915.129	419.522
919.63	507.59
924.129	297.769
928.625	207.161
933.118	159.249
937.609	206.135
942.097	42.3008
946.582	21.4473
951.065	41.2881
955.546	52.7978
960.023	456.059
964.499	39.6299
968.971	3.72266
973.441	110.897
977.909	59.6318
982.374	140.609
986.836	80.1426
991.295	211.272
995.753	148.017
1000.21	230.37
1004.66	247.757
1009.11	138.433
1013.55	112.917
1018	133.691
1022.44	300.121
1026.88	227.366
1031.32	128.435
1035.75	186.144
1040.18	227.02
1044.61	192.766
1049.04	177.614
1053.46	442.685
1057.88	293.685
1062.3	315.496
1066.71	377.927
1071.13	374.987
1075.54	389.17
1079.94	395.773
1084.35	440.309
1088.75	367.676
1093.15	451.851
1097.55	325.144
1101.94	251.35
1106.34	202.356
1110.73	187.035
1115.11	320.674
1119.5	615.349
1123.88	825.008
1128.26	497.445
1132.63	178.174
1137.01	164.485
1141.38	63.4492
1145.75	170.668
1150.12	90.5967
1154.48	146.58
1158.84	149.022
1163.2	99.0205
1167.55	27.4111
1171.91	63.0459
1176.26	132.476
1180.61	117.33
1184.95	63.4551
1189.29	109.27
1193.63	84.3477
1197.97	63.208
1202.31	157.622
1206.64	78.3769
1210.97	75.2363
1215.29	47.832
1219.62	70.0215
1223.94	224.91
1228.26	59.1943
1232.57	119.275
1236.89	30.9561
1241.2	93.749
1245.51	13.8926
1249.81	187.523
1254.12	67.4102
1258.42	106.398
1262.72	142.359
1267.01	211.87
1271.3	114.397
1275.59	124.244
1279.88	45.9453
1284.17	205.843
1288.45	189.348
1292.73	255.579
1297.01	264.365
1301.28	281.055
1305.55	239.502
1309.82	375.171
1314.09	443.008
1318.35	347.792
1322.61	345.743
1326.87	410.76
1331.13	497.199
1335.38	353.829
1339.63	383.646
1343.88	292.446
1348.12	447.948
1352.37	438.126
1356.61	276.702
1360.85	432.356
1365.08	377.299
1369.31	369.227
1373.54	393.003
1377.77	287.019
1381.99	262.569
1386.22	284.315
1390.43	200.21
1394.65	211.183
1398.87	227.784
1403.08	295.917
1407.29	286.18
1411.49	209.298
1415.69	330.553
1419.89	187.685
1424.09	125.231
1428.29	105.341
1432.48	126.009
1436.67	170.48
1440.86	0.767578
1445.04	35.8223
1449.23	42.8096
1453.4	65.2519
1457.58	88.4453
1461.76	126.894
1465.93	154.069
1470.1	57.5195
1474.26	79.5918
1478.43	60.4326
1482.59	47.9922
1486.75	35.5459
1490.9	50.1025
1495.06	15.7676
1499.21	46.3242
1503.35	88.9365
1507.5	185.841
1511.64	166.405
1515.78	171.573
1519.92	164.705
1524.05	290.764
1528.18	201.272
1532.31	254.628
1536.44	200.529
1540.56	124.149
1544.69	102.881
1548.8	160.859
1552.92	235.319
1557.03	266.113
1561.14	4.20898
1565.25	161.943
1569.36	0.253906
