Measurement: Raman, 514 nm, ccw, Raman Data Processed
Mineral: Columbite-(Fe)
Rruff sample: R060001
Ideal chemistry: Fe^2+^Nb_2_O_6_
Locality: Gypsy mine, Minas Gerais, Brazil
Source: Eric Van Valkenburg
Description: Steel gray fragment with internal red hints
Measured chemistry: (Fe^2+^_0.52_Mn^2+^_0.48_)_Σ=1_(Nb_1.61_Ta_0.39_)_Σ=2_O_6_
Pin_id: L01167
Orientation: Laser parallel to c* (0 0 1). Fiducial mark perpendicular to laser is parallel to -a [-1 0 0]
Raman shift (cm-1)	intensity
124.061	0
128.997	2208.8
133.93	4469.76
138.86	4320.94
143.788	1578.21
148.713	412.103
153.636	381.585
158.556	70.7588
163.473	71.5644
168.388	3.25684
173.3	75.3828
178.21	52.5293
183.117	26.7969
188.021	442.004
192.923	850.916
197.822	1656.12
202.718	2381.01
207.612	1968.21
212.504	1285.73
217.392	373.896
222.279	83.3037
227.162	282.869
232.043	343.775
236.921	436.736
241.797	913.484
246.67	904.83
251.54	961.773
256.408	985.045
261.274	1032.93
266.136	1048.52
270.996	1389.32
275.854	1673.41
280.709	1338.09
285.561	1071.58
290.41	765.13
295.257	437.272
300.102	274.723
304.944	139.879
309.783	146.835
314.619	100.592
319.453	79.7978
324.285	64.4346
329.113	34.081
333.939	117.598
338.763	75.5947
343.584	60.8721
348.402	54.4531
353.218	244.526
358.031	344.324
362.841	351.4
367.649	1022.69
372.454	1363.09
377.257	2086.62
382.057	3200.11
386.854	4834.77
391.649	6619.72
396.441	7765.74
401.231	7185.86
406.018	5441.07
410.802	3615.37
415.584	2528.71
420.363	1938.31
425.139	1513.06
429.913	1259.49
434.684	1101.48
439.453	1166.95
444.219	1050.69
448.982	1002.48
453.743	1199.28
458.501	1418.08
463.257	1454.43
468.01	1635.31
472.76	1784.88
477.508	1923.52
482.253	2075.16
486.996	2114.7
491.736	2005.14
496.473	1793.32
501.207	1763.99
505.94	1913.77
510.669	1937.76
515.396	2405.02
520.12	3200.54
524.842	4097.31
529.561	4688.28
534.277	4794.5
538.991	3944.9
543.702	3021.41
548.41	2210.93
553.116	1549.47
557.819	1197.87
562.52	1007.51
567.218	712.481
571.913	625.801
576.606	384.499
581.296	254.596
585.984	44.5352
590.669	24.9854
595.351	37.1875
600.031	79.6885
604.708	132.408
609.383	108.255
614.055	76.1894
618.724	22.9453
623.391	103.55
628.055	236.076
632.716	390.253
637.375	589.937
642.031	545.696
646.685	590.925
651.335	496.209
655.984	325.039
660.63	254.42
665.273	192.36
669.913	0.868164
674.551	202.946
679.186	66.6064
683.819	143.859
688.449	229.739
693.076	0.447266
697.701	213.222
702.323	288.187
706.943	302.232
711.56	507.137
716.174	564.781
720.786	677.267
725.395	874.513
730.001	845.604
734.605	957.851
739.206	1032.01
743.805	1181.26
748.401	1298.04
752.995	1442.41
757.585	1538.08
762.173	1827.14
766.759	1894.86
771.342	1973.28
775.922	2076.39
780.5	2185.16
785.075	2118.6
789.648	2306.69
794.217	2381.42
798.785	2317.79
803.349	2422.79
807.911	2650.36
812.471	2708.58
817.027	2994.4
821.582	3468.8
826.133	3785.58
830.682	4371.65
835.228	4996.19
839.772	5632.85
844.313	6542.6
848.852	7989.13
853.387	10409.5
857.921	14062.6
862.451	19717.4
866.979	29192.9
871.505	42931.6
876.028	51637.9
880.548	45207.2
885.065	29111
889.58	15455.1
894.093	7880.28
898.602	4571.09
903.109	2667.25
907.614	1892.2
912.116	1215.4
916.615	761.22
921.112	607.016
925.606	376.419
930.097	361.861
934.586	368.32
939.072	275.818
943.556	201.329
948.037	243.833
952.515	238.375
956.991	9.14062
961.464	17.8633
965.934	140.289
970.402	204.769
974.867	53.6152
979.33	91.3174
983.79	39.3574
988.248	54.3418
992.702	41.4736
997.155	120.579
1001.6	94.2363
1006.05	116.008
1010.5	31.2764
1014.94	69.7695
1019.38	42.9541
1023.81	219.781
1028.25	111.423
1032.68	118.672
1037.11	68.2695
1041.53	235.878
1045.96	304.313
1050.38	209.334
1054.8	267.036
1059.21	309.383
1063.62	425.181
1068.04	402.41
1072.44	524.646
1076.85	360.823
1081.25	442.029
1085.65	470.581
1090.05	325.024
1094.44	380.43
1098.84	370.95
1103.22	318.666
1107.61	247.882
1112	266.658
1116.38	182.422
1120.76	156.21
1125.13	212.708
1129.51	154.46
1133.88	242.83
1138.25	73.2627
1142.61	216.078
1146.98	92.042
1151.34	173.356
1155.7	175.365
1160.05	120.349
1164.4	36.7197
1168.76	119.533
1173.1	89.3897
1177.45	73.0869
1181.79	100.361
1186.13	164.065
1190.47	327.345
1194.8	93.7022
1199.14	62.8213
1203.46	80.7881
1207.79	130.411
1212.12	31.9639
1216.44	117.255
1220.76	88.5439
1225.08	10.0996
1229.39	126.865
1233.7	96.918
1238.01	76.0772
1242.32	160.519
1246.62	144.949
1250.92	54.333
1255.22	51.6826
1259.51	80.9062
1263.81	78.1445
1268.1	146.418
1272.38	118.723
1276.67	65.7666
1280.95	56.458
1285.23	67.2627
1289.51	17.6885
1293.79	131.036
1298.06	78.5166
1302.33	80.3408
1306.6	19.8633
1310.86	51.6758
1315.12	48.1406
1319.38	96.8477
1323.64	178.769
1327.89	183.065
1332.14	65.7734
1336.39	112.172
1340.64	251.08
1344.88	36.6924
1349.12	81.2314
1353.36	183.856
1357.6	82.5039
1361.83	55.1602
1366.06	42.6846
1370.29	104.185
1374.52	174.023
1378.74	125.905
1382.96	252.118
1387.18	11.5645
1391.39	115.907
1395.61	2.64844
1399.82	69.4932
1404.02	0.736328
1408.23	206.102
1412.43	121.639
1416.63	73.084
1420.83	87.9678
1425.02	81.6973
1429.21	122.141
1433.4	89.9736
1437.59	123.311
1441.77	83.0312
1445.95	85.0391
1450.13	123.811
1454.31	61.4219
1458.48	269.935
1462.65	6.55469
1466.82	22.6104
1470.99	185.869
1475.15	175.113
1479.31	64.3086
1483.47	150.089
1487.63	234.214
1491.78	138.772
1495.93	146.254
1500.08	108.998
1504.22	150.394
1508.37	173.102
1512.51	150.762
1516.64	76.6006
1520.78	73.583
1524.91	187.242
1529.04	120.934
1533.17	99.0586
1537.29	157.204
1541.41	174.368
1545.53	31.3145
1549.65	227.358
1553.77	447.149
1557.88	23.1475
1561.99	35.9971
