Measurement: Raman, 514 nm, ccw, Raman Data Processed
Mineral: Columbite-(Fe)
Rruff sample: R060001
Ideal chemistry: Fe^2+^Nb_2_O_6_
Locality: Gypsy mine, Minas Gerais, Brazil
Source: Eric Van Valkenburg
Description: Steel gray fragment with internal red hints
Measured chemistry: (Fe^2+^_0.52_Mn^2+^_0.48_)_Σ=1_(Nb_1.61_Ta_0.39_)_Σ=2_O_6_
Pin_id: L01167
Orientation: Laser parallel to c* (0 0 1). Fiducial mark perpendicular to laser is parallel to -a [-1 0 0]
Raman shift (cm-1)	intensity
130.23	0
135.163	271.926
140.092	646.264
145.019	147.496
149.944	188.673
154.866	294.13
159.785	9.23535
164.702	347.184
169.616	133.56
174.528	176.118
179.437	219.842
184.343	146.266
189.247	486.232
194.148	878.935
199.046	1322.78
203.942	1552.15
208.835	1083.63
213.726	763.351
218.614	353.603
223.5	193.198
228.382	180.689
233.263	209.936
238.14	220.268
243.015	463.361
247.888	690.918
252.758	1098.63
257.625	2118.24
262.49	2226.78
267.352	3017.02
272.211	3023.66
277.068	2388.81
281.922	1373.63
286.773	879.726
291.622	639.717
296.469	605.106
301.312	521.739
306.154	632.146
310.992	546.801
315.828	847.412
320.661	824.45
325.492	616.312
330.32	306.446
335.145	263.552
339.968	77.3174
344.789	172.558
349.606	195.282
354.421	124.469
359.234	41.9775
364.043	151.832
368.851	82.1973
373.655	108.417
378.457	225.756
383.256	343.376
388.053	115.567
392.847	119.04
397.639	2.95117
402.428	182.378
407.214	29.7764
411.998	12.7666
416.779	87.833
421.557	70.6387
426.333	81.6064
431.106	81.9434
435.877	129.753
440.645	99.5264
445.41	320.593
450.173	227.932
454.933	306.453
459.691	269.659
464.446	384.231
469.198	359.289
473.948	678.145
478.695	676.292
483.439	874.572
488.181	864.167
492.92	851.445
497.657	804.41
502.391	748.209
507.122	728.652
511.851	696.514
516.577	662.296
521.301	881.598
526.022	717.217
530.74	944.815
535.456	899.793
540.169	788.733
544.879	557.54
549.587	596.485
554.292	482.791
558.995	472.31
563.695	265.677
568.392	294.672
573.087	193.089
577.779	191.792
582.469	31.7764
587.156	114.23
591.84	151.672
596.522	67.8555
601.201	10.3154
605.877	46.8926
610.551	267.692
615.222	293.057
619.891	541.008
624.557	788.592
629.22	867.894
633.881	1047.9
638.539	1225.6
643.195	1065.21
647.848	719.601
652.498	605.768
657.145	392.223
661.791	355.442
666.433	132.924
671.073	122.172
675.71	3.19629
680.345	0.078125
684.977	127.847
689.606	37.6504
694.233	79.0215
698.857	63.9434
703.478	179.31
708.097	301.959
712.714	377.81
717.327	419.856
721.938	447.344
726.547	609.156
731.153	548.107
735.756	727.179
740.356	764.052
744.954	908.814
749.55	877.452
754.142	895.296
758.733	1140.33
763.32	1162.58
767.905	1294.71
772.487	1182.67
777.067	1128.46
781.644	1133.06
786.218	1263.46
790.79	1346.05
795.359	1284.05
799.926	1371.34
804.49	1377.81
809.051	1538.02
813.61	1674.64
818.166	1705.26
822.72	2127.6
827.271	2566.43
831.819	2833.88
836.365	3334.91
840.908	3761.64
845.448	4506.09
849.986	5809.59
854.521	7772.8
859.054	10683.8
863.584	15172
868.111	22159
872.636	30989
877.158	35445.3
881.677	30489.8
886.194	19493.6
890.709	10556.3
895.22	5517.78
899.729	3229.91
904.236	2088.25
908.74	1320.75
913.241	901.406
917.739	619.194
922.235	322.097
926.729	339.101
931.219	205.264
935.708	178.485
940.193	297.737
944.676	221.023
949.156	20.3311
953.634	29.3809
958.109	26.7744
962.582	90.542
967.051	92.7451
971.519	11.9209
975.983	5.23144
980.445	3.1709
984.905	30.0615
989.362	107.489
993.816	64.3252
998.267	76.4023
1002.72	77.8223
1007.16	41.998
1011.61	104.928
1016.05	80.6123
1020.49	216.055
1024.92	256.261
1029.36	184.173
1033.79	185.242
1038.21	225.151
1042.64	234.081
1047.06	374.78
1051.48	465.253
1055.9	339.372
1060.32	488.59
1064.73	429.552
1069.14	391.713
1073.55	470.676
1077.95	464.875
1082.35	468.449
1086.75	463.947
1091.15	414.96
1095.54	517.404
1099.93	373.047
1104.32	321.356
1108.71	369.44
1113.09	396.164
1117.47	437.394
1121.85	290.633
1126.23	272.306
1130.6	301.821
1134.97	315.748
1139.34	273.496
1143.7	190.643
1148.07	278.701
1152.43	321.759
1156.79	240.493
1161.14	216.81
1165.49	175.256
1169.84	180.142
1174.19	126.98
1178.54	147.481
1182.88	98.7578
1187.22	90.6035
1191.55	135.629
1195.89	139.1
1200.22	205.195
1204.55	2.13672
1208.87	190.675
1213.2	150.94
1217.52	68.1387
1221.84	178.192
1226.15	62.2275
1230.47	87.4297
1234.78	23.0391
1239.09	119.682
1243.39	238.363
1247.69	89.2412
1251.99	13.9639
1256.29	78.5322
1260.59	250.156
1264.88	107.405
1269.17	10.6338
1273.46	69.9248
1277.74	49.333
1282.02	20.6455
1286.3	101.15
1290.58	52.0703
1294.86	11.1367
1299.13	10.8545
1303.39	161.445
1307.66	194.745
1311.93	162.929
1316.19	44.9541
1320.45	8.49512
1324.7	147.843
1328.96	186.559
1333.21	72.0947
1337.45	118.862
1341.7	184.09
1345.94	201.454
1350.18	127.428
1354.42	224.352
1358.66	115.421
1362.89	41.8232
1367.12	123.009
1371.35	6.00293
1375.57	153.439
1379.8	12.5176
1384.02	146.043
1388.23	97.8857
1392.45	216.656
1396.66	161.744
1400.87	172.114
1405.08	65.6201
1409.28	5.71875
1413.48	73.9356
1417.68	83.0537
1421.88	236.392
1426.07	74.2275
1430.26	398.886
1434.45	44.6582
1438.64	227.019
1442.82	152.303
1447	299.067
1451.18	188.943
1455.35	190.857
1459.53	145.665
1463.7	28.4199
1467.87	29.8994
1472.03	130.842
1476.19	338.724
1480.35	93.9219
1484.51	139.079
1488.67	240.445
1492.82	274.802
1496.97	132.973
1501.12	55.1045
1505.26	227.412
1509.4	110.826
1513.54	69.2998
1517.68	351.209
1521.81	289.108
1525.94	80.4961
1530.07	91.7207
1534.2	170.707
1538.32	118.645
1542.44	179.681
1546.56	44.4522
1550.68	281.208
1554.79	559.934
1558.9	61.9023
1563.01	0
