Measurement: Raman, 514 nm, ccw, Raman Data Processed
Mineral: Columbite-(Fe)
Rruff sample: R050348
Ideal chemistry: Fe^2+^Nb_2_O_6_
Locality: Lord Hill mine, Stoneham, Oxford County, Maine, USA
Source: California Institute of Technology
Description: Black fragment
Measured chemistry: (Fe^2+^_0.69_Mn^2+^_0.30_Ti_0.01_)(Nb_0.89_Ta_0.10_Ti_0.01_)_2_O_6_
Pin_id: L01882
Orientation: Laser parallel to -a* (-1 0 0). Fiducial mark perpendicular to laser is parallel to b [0 1 0]
Raman shift (cm-1)	intensity
221.022	0
225.895	113.342
230.765	441.924
235.633	682.107
240.498	1167.15
245.361	1332.62
250.222	1704.25
255.08	2152.3
259.936	2425.81
264.789	2134.9
269.64	2108.72
274.488	1992.26
279.334	2112.47
284.178	1923.76
289.019	1660.75
293.857	1667.94
298.693	1474.32
303.527	1091.7
308.358	939.113
313.187	651.568
318.013	544.885
322.837	273.234
327.659	60.8105
332.478	28.1836
337.294	71.541
342.108	16.6035
346.92	145.445
351.729	6.79492
356.535	105.57
361.34	186.732
366.141	117.877
370.94	361.162
375.737	493.207
380.531	688.496
385.323	1060.28
390.113	1516.13
394.9	1412.94
399.684	1233.2
404.466	945.658
409.245	566.271
414.022	1260.78
418.797	160.951
423.569	198.488
428.338	257.565
433.105	74.5215
437.87	146.16
442.632	148.043
447.391	21.6465
452.149	397.998
456.903	57.1543
461.655	107.853
466.405	424.014
471.152	309.168
475.897	184.484
480.639	248.68
485.378	116.57
490.116	47.1953
494.85	64.5215
499.582	43.2148
504.312	235.242
509.039	169.836
513.764	47.5332
518.486	33.5195
523.206	145.299
527.923	39.9238
532.638	188.43
537.35	160.863
542.059	33.2441
546.766	158.369
551.471	35.4648
556.173	38.9844
560.873	93.0469
565.57	115.893
570.264	41.1289
574.957	217.527
579.646	251.279
584.333	268.205
589.018	440.51
593.7	435.203
598.379	438.697
603.056	448.584
607.73	479.147
612.402	650.959
617.072	1006.91
621.739	764.512
626.403	874.191
631.065	1051.43
635.724	826.865
640.381	1286.41
645.035	878.754
649.687	809.104
654.336	911.582
658.983	855.867
663.627	663.588
668.268	625.592
672.907	402.148
677.544	601.914
682.178	657.068
686.809	508.594
691.438	567.691
696.065	522.117
700.688	621.379
705.31	522.322
709.929	590.322
714.545	501.889
719.158	598.865
723.77	866.176
728.378	788.877
732.984	977.033
737.588	960.512
742.189	1172.49
746.787	1340.07
751.383	1405.17
755.976	1634.94
760.567	1728.28
765.155	1835.99
769.741	1907.07
774.324	2194.53
778.904	2259.26
783.482	2294.34
788.058	2547.71
792.631	2487.24
797.201	2534.7
801.769	2794.45
806.334	3107.96
810.897	3440.32
815.457	3603.15
820.014	3917.73
824.569	4457.19
829.122	4784.37
833.671	5418.21
838.219	5984.7
842.763	7038.79
847.306	8036.46
851.845	9766.61
856.382	11662.2
860.917	13456.1
865.448	15055.5
869.978	15930
874.505	13760.2
879.029	9823.24
883.55	5647.78
888.069	3277.32
892.586	1997.82
897.1	1208.11
901.611	612.279
906.12	435.009
910.626	317.195
915.129	139.894
919.63	150.134
924.129	60.208
928.625	233.98
933.118	93.3184
937.609	7.4668
942.097	88.9688
946.582	133.036
951.065	199.064
955.546	499.218
960.023	835.258
964.499	826.054
968.971	908.052
973.441	964.868
977.909	939.309
982.374	736.999
986.836	642.664
991.295	580.564
995.753	373.227
1000.21	211.561
1004.66	158.846
1009.11	17.3398
1013.55	1.19629
1018	69.2002
1022.44	22.4092
1026.88	83.7686
1031.32	137.398
1035.75	187.981
1040.18	88.9844
1044.61	238.126
1049.04	175.482
1053.46	268.468
1057.88	340.257
1062.3	280.454
1066.71	219.889
1071.13	329.198
1075.54	155.105
1079.94	239.43
1084.35	295.832
1088.75	133.64
1093.15	276.795
1097.55	337.979
1101.94	195.043
1106.34	134.023
1110.73	201.418
1115.11	378.196
1119.5	401.077
1123.88	310.134
1128.26	319.418
1132.63	294.921
1137.01	345.32
1141.38	265.541
1145.75	256.387
1150.12	161.23
1154.48	148.441
1158.84	10.4111
1163.2	230.12
1167.55	16.0195
1171.91	72.4375
1176.26	80.9443
1180.61	22.8721
1184.95	113.255
1189.29	111.242
1193.63	89.0693
1197.97	69.0625
1202.31	98.4346
1206.64	290.542
1210.97	125.462
1215.29	103.13
1219.62	313.785
1223.94	161.597
1228.26	254.573
1232.57	234.858
1236.89	186.791
1241.2	95.6807
1245.51	212.183
1249.81	325.362
1254.12	311.307
1258.42	209.667
1262.72	185.416
1267.01	144.842
1271.3	128.289
1275.59	229.929
1279.88	121.731
1284.17	108.656
1288.45	68.5703
1292.73	163.221
1297.01	190.689
1301.28	24.7373
1305.55	109.198
1309.82	337.872
1314.09	5.39844
1318.35	97.9043
1322.61	196.397
1326.87	103.817
1331.13	113.968
1335.38	177.669
1339.63	119.982
1343.88	190.993
1348.12	361.753
1352.37	660.652
1356.61	107.683
1360.85	93.7129
1365.08	240.197
1369.31	105.033
1373.54	214.709
1377.77	95.9756
1381.99	30.6768
1386.22	0.277344
1390.43	183.865
1394.65	231.925
1398.87	17.0752
1403.08	184.228
1407.29	40.0312
1411.49	5.72852
1415.69	239.902
1419.89	149.682
1424.09	125.798
1428.29	243.053
1432.48	50.5068
1436.67	129.294
1440.86	124.76
1445.04	144.158
1449.23	97.5684
1453.4	19.9941
1457.58	318.139
1461.76	165.024
1465.93	120.826
1470.1	75.666
1474.26	64.2393
1478.43	66.9658
1482.59	238.476
1486.75	236.055
1490.9	201.096
1495.06	295.87
1499.21	153.58
1503.35	105.906
1507.5	39.3184
1511.64	188.586
1515.78	26.7969
1519.92	138.084
1524.05	140.742
1528.18	179.209
1532.31	54.127
1536.44	106.098
1540.56	136.988
1544.69	219.162
1548.8	241.639
1552.92	284.438
1557.03	210.869
1561.14	311.711
1565.25	94.1719
1569.36	203.275
