Measurement: Raman, 514 nm, ccw, Raman Data Processed
Mineral: Columbite-(Fe)
Rruff sample: R060001
Ideal chemistry: Fe^2+^Nb_2_O_6_
Locality: Gypsy mine, Minas Gerais, Brazil
Source: Eric Van Valkenburg
Description: Steel gray fragment with internal red hints
Measured chemistry: (Fe^2+^_0.52_Mn^2+^_0.48_)_Σ=1_(Nb_1.61_Ta_0.39_)_Σ=2_O_6_
Pin_id: L00607
Orientation: Laser parallel to b* (0 1 0). Fiducial mark perpendicular to laser is parallel to c [0 0 1]
Raman shift (cm-1)	intensity
110.475	0
115.417	396.69
120.358	606.717
125.295	935.313
130.23	1417.09
135.163	1303.67
140.092	1074.38
145.019	458.019
149.944	192.782
154.866	69.9033
159.785	52.4253
164.702	39.8523
169.616	266.121
174.528	459.955
179.437	591.038
184.343	527.47
189.247	492.105
194.148	660.896
199.046	998.994
203.942	958.237
208.835	581.419
213.726	450.475
218.614	289.656
223.5	367.947
228.382	498.343
233.263	945.784
238.14	1426.24
243.015	1809.71
247.888	1845.12
252.758	1742.22
257.625	1998.65
262.49	2282.06
267.352	2844.09
272.211	3075.21
277.068	2649.8
281.922	2080.59
286.773	1607.15
291.622	1488.53
296.469	1192.05
301.312	910.025
306.154	713.059
310.992	606.016
315.828	551.153
320.661	530.378
325.492	421.655
330.32	302.904
335.145	197.083
339.968	152.15
344.789	134.067
349.606	99.8206
354.421	62.4062
359.234	58.8218
364.043	166.062
368.851	128.121
373.655	169.992
378.457	162.669
383.256	94.1501
388.053	79.4302
392.847	59.4993
397.639	19.3154
402.428	30.4111
407.214	51.8328
411.998	7.04663
416.779	78.0312
421.557	40.791
426.333	27.9031
431.106	66.4031
435.877	157.988
440.645	185.496
445.41	370.584
450.173	412.612
454.933	519.555
459.691	670.721
464.446	810.95
469.198	937.745
473.948	1154.79
478.695	1412.96
483.439	1533.71
488.181	1589.22
492.92	1652.52
497.657	1546.6
502.391	1359.48
507.122	1083.16
511.851	1221.66
516.577	1154.96
521.301	1381.12
526.022	1496.12
530.74	1506.81
535.456	1342.98
540.169	982.898
544.879	650.811
549.587	420.983
554.292	305.376
558.995	153.973
563.695	168.866
568.392	62.6719
573.087	30.8096
577.779	7.66064
582.469	91.0015
587.156	14.9863
591.84	141.261
596.522	34.124
601.201	38.1455
605.877	115.922
610.551	206.143
615.222	341.601
619.891	390.313
624.557	625.297
629.22	677.57
633.881	726.148
638.539	767.046
643.195	636.282
647.848	444.87
652.498	345.827
657.145	307.167
661.791	324.905
666.433	245.054
671.073	168.631
675.71	191.666
680.345	211.242
684.977	206.529
689.606	279.696
694.233	211.845
698.857	315.969
703.478	269
708.097	368.822
712.714	472.261
717.327	563.967
721.938	560.519
726.547	623.971
731.153	681.147
735.756	696.499
740.356	751.275
744.954	795.586
749.55	996.862
754.142	980.82
758.733	1096.45
763.32	1029.71
767.905	1201.62
772.487	1155.55
777.067	1286.38
781.644	1447.19
786.218	1430.63
790.79	1399.66
795.359	1413.29
799.926	1519.5
804.49	1545.3
809.051	1721.68
813.61	1856.88
818.166	1996.68
822.72	2263.47
827.271	2431.14
831.819	2854.23
836.365	3217.19
840.908	3645.33
845.448	4483.1
849.986	5595.28
854.521	7528.86
859.054	10454.7
863.584	14847.5
868.111	22091.1
872.636	29745.1
877.158	30893
881.677	21565.6
886.194	11402.5
890.709	5832.36
895.22	3477.81
899.729	2191.54
904.236	1518.95
908.74	1063.53
913.241	735.385
917.739	497.194
922.235	380.25
926.729	196.113
931.219	214.042
935.708	149.011
940.193	75.3848
944.676	110.365
949.156	5.70654
953.634	32.8442
958.109	20.1572
962.582	18.25
967.051	71.6802
971.519	67.0679
975.983	40.7739
980.445	57.0996
984.905	9.48438
989.362	4.45752
993.816	32.0859
998.267	0.92334
1002.72	34.5979
1007.16	11.5713
1011.61	1.12622
1016.05	99.405
1020.49	85.2449
1024.92	74.0127
1029.36	59.6907
1033.79	78.2131
1038.21	118.348
1042.64	77.626
1047.06	42.3628
1051.48	149.854
1055.9	142.035
1060.32	131.003
1064.73	154.915
1069.14	195.478
1073.55	179.56
1077.95	259.22
1082.35	202.508
1086.75	253.211
1091.15	216.42
1095.54	199.392
1099.93	185.876
1104.32	188.211
1108.71	252.677
1113.09	140.654
1117.47	217.964
1121.85	161.63
1126.23	78.0955
1130.6	176.236
1134.97	150.588
1139.34	171.593
1143.7	86.5417
1148.07	138.821
1152.43	28.9778
1156.79	62.1179
1161.14	155.475
1165.49	35.8608
1169.84	13.5662
1174.19	60.3984
1178.54	65.3608
1182.88	56.2017
1187.22	76.2331
1191.55	14.9077
1195.89	57.3423
1200.22	52.415
1204.55	17.4763
1208.87	65.5337
1213.2	23.3498
1217.52	65.8301
1221.84	34.3398
1226.15	102.982
1230.47	41.4429
1234.78	68.2261
1239.09	60.8496
1243.39	71.595
1247.69	108.027
1251.99	45.0808
1256.29	80.0693
1260.59	65.824
1264.88	71.5911
1269.17	45.7776
1273.46	33.5996
1277.74	74.3655
1282.02	79.3088
1286.3	81.1042
1290.58	88.7576
1294.86	79.1047
1299.13	82.6099
1303.39	114.711
1307.66	159.365
1311.93	89.8276
1316.19	70.3132
1320.45	46.1567
1324.7	51.3406
1328.96	32.5591
1333.21	76.481
1337.45	18.8901
1341.7	82.5537
1345.94	15.2246
1350.18	65.9312
1354.42	72.948
1358.66	5.85107
1362.89	57.083
1367.12	6.7063
1371.35	57.0994
1375.57	1.19653
1379.8	4.61328
1384.02	60.4473
1388.23	41.7109
1392.45	29.3408
1396.66	44.4541
1400.87	76.0979
1405.08	82.1946
1409.28	127.295
1413.48	80.5481
1417.68	113.528
1421.88	120.419
1426.07	160.838
1430.26	276.094
1434.45	263.806
1438.64	309.604
1442.82	307.085
1447	248.666
1451.18	292.319
1455.35	320.666
1459.53	269.652
1463.7	173.715
1467.87	199.609
1472.03	156.548
1476.19	124.993
1480.35	135.63
1484.51	107.45
1488.67	55.5447
1492.82	77.5005
1496.97	32.4592
1501.12	133.466
1505.26	76.5444
1509.4	105.583
1513.54	5.65649
1517.68	92.7192
1521.81	126.165
1525.94	73.0869
1530.07	49.2082
1534.2	52.1904
1538.32	107.71
1542.44	97.0852
1546.56	103.31
1550.68	79.1775
1554.79	179.792
1558.9	11.7551
1563.01	0
