Measurement: Raman, 514 nm, ccw, Raman Data Processed
Mineral: Columbite-(Fe)
Rruff sample: R050348
Ideal chemistry: Fe^2+^Nb_2_O_6_
Locality: Lord Hill mine, Stoneham, Oxford County, Maine, USA
Source: California Institute of Technology
Description: Black fragment
Measured chemistry: (Fe^2+^_0.69_Mn^2+^_0.30_Ti_0.01_)(Nb_0.89_Ta_0.10_Ti_0.01_)_2_O_6_
Pin_id: L00509
Orientation: Laser parallel to -b* (0 -1 0). Fiducial mark perpendicular to laser is parallel to -c [0 0 -1]
Raman shift (cm-1)	intensity
221.022	0
225.895	126.842
230.765	66.6865
235.633	213.095
240.498	291.8
245.361	525.448
250.222	643.845
255.08	606.412
259.936	727.558
264.789	846.02
269.64	726.388
274.488	745.428
279.334	488.057
284.178	622.714
289.019	453.03
293.857	405.483
298.693	376.301
303.527	313.37
308.358	244.066
313.187	257.984
318.013	272.585
322.837	300.632
327.659	193.703
332.478	271.94
337.294	153.162
342.108	148.278
346.92	90.2007
351.729	215.33
356.535	78.5981
361.34	87.2739
366.141	151.713
370.94	61.6821
375.737	61.7681
380.531	48.9512
385.323	34.1553
390.113	16.8779
394.9	26.6797
399.684	60.3315
404.466	36.8569
409.245	42.9194
414.022	63.2085
418.797	39.73
423.569	111.064
428.338	37.2441
433.105	33.1875
437.87	140.194
442.632	283.239
447.391	154.036
452.149	122.126
456.903	102.253
461.655	107.179
466.405	201.442
471.152	114.965
475.897	156.079
480.639	197.297
485.378	287.97
490.116	175.81
494.85	99.396
499.582	100.521
504.312	72.6543
509.039	166.309
513.764	113.936
518.486	137.417
523.206	164.373
527.923	200.929
532.638	124.419
537.35	46.3735
542.059	33.4131
546.766	145.767
551.471	126.5
556.173	44.4795
560.873	16.999
565.57	76.9351
570.264	24.9311
574.957	29.0659
579.646	59.2105
584.333	127.779
589.018	4.55908
593.7	18.1523
598.379	10.1738
603.056	108.744
607.73	67.2251
612.402	68.0532
617.072	86.6821
621.739	148.685
626.403	128.089
631.065	201.916
635.724	141.247
640.381	178.67
645.035	280.841
649.687	324.855
654.336	438.942
658.983	479.105
663.627	538.167
668.268	482.218
672.907	596.927
677.544	554.945
682.178	613.638
686.809	609.336
691.438	741.065
696.065	754.106
700.688	812.977
705.31	917.05
709.929	1076.4
714.545	1011.48
719.158	1255.34
723.77	1290.52
728.378	1447.25
732.984	1661.17
737.588	1864.38
742.189	2096.86
746.787	2164.61
751.383	2333.64
755.976	2768.31
760.567	2742.63
765.155	2912.59
769.741	3011.18
774.324	3071.39
778.904	3177.39
783.482	3308.66
788.058	3224.71
792.631	3363.36
797.201	3277.36
801.769	3357.96
806.334	3601.23
810.897	3478.53
815.457	3655.68
820.014	3872.04
824.569	4201.11
829.122	4047.98
833.671	4531.07
838.219	4699.81
842.763	5090.96
847.306	5625.77
851.845	6236.08
856.382	6944.53
860.917	7872.64
865.448	8605.4
869.978	8809.71
874.505	7981.2
879.029	5609.83
883.55	3418.6
888.069	2046.5
892.586	1180.47
897.1	729.503
901.611	557.605
906.12	266.783
910.626	254.901
915.129	251.93
919.63	115.047
924.129	135.425
928.625	52.1401
933.118	0.028809
937.609	27.3057
942.097	9.30859
946.582	2.92725
951.065	43.6382
955.546	45.8052
960.023	93.4204
964.499	102.591
968.971	36.7451
973.441	9.84082
977.909	90.1182
982.374	241.092
986.836	147.869
991.295	108.371
995.753	147.591
1000.21	302.526
1004.66	172.356
1009.11	217.149
1013.55	186.384
1018	187.505
1022.44	158.51
1026.88	252.217
1031.32	158.435
1035.75	151.966
1040.18	246.801
1044.61	288.078
1049.04	267.25
1053.46	261.332
1057.88	394.293
1062.3	306.732
1066.71	376.992
1071.13	332.674
1075.54	348.636
1079.94	439.759
1084.35	380.674
1088.75	359.534
1093.15	297.608
1097.55	296.948
1101.94	292.409
1106.34	171.586
1110.73	204.203
1115.11	319.172
1119.5	340.192
1123.88	377.646
1128.26	230.606
1132.63	159.193
1137.01	85.2407
1141.38	121.343
1145.75	147.476
1150.12	114.53
1154.48	129.717
1158.84	84.9136
1163.2	155.73
1167.55	112.032
1171.91	89.0923
1176.26	70.8555
1180.61	0.322266
1184.95	71.2656
1189.29	30.5913
1193.63	74.9531
1197.97	87.0137
1202.31	50.8726
1206.64	10.8262
1210.97	63.9062
1215.29	50.8623
1219.62	44.9834
1223.94	83.9297
1228.26	57.9902
1232.57	81.0791
1236.89	9.66846
1241.2	13.3872
1245.51	69.2471
1249.81	22.7588
1254.12	16.8335
1258.42	131.716
1262.72	7.35059
1267.01	135.485
1271.3	85.3726
1275.59	21.4834
1279.88	61.792
1284.17	113.696
1288.45	61.602
1292.73	43.4365
1297.01	59.1426
1301.28	13.6743
1305.55	96.4424
1309.82	83.4038
1314.09	68.1851
1318.35	161.093
1322.61	127.849
1326.87	189.402
1331.13	84.4932
1335.38	100.541
1339.63	133.311
1343.88	90.5933
1348.12	98.0327
1352.37	122.1
1356.61	55.499
1360.85	87.1016
1365.08	55.5054
1369.31	162.6
1373.54	56.7827
1377.77	104.808
1381.99	102.196
1386.22	100.539
1390.43	95.2031
1394.65	92.1143
1398.87	47.7817
1403.08	191.371
1407.29	86.5918
1411.49	123.114
1415.69	127.653
1419.89	67.3657
1424.09	34.0513
1428.29	89.8774
1432.48	26.8892
1436.67	13.1777
1440.86	97.4438
1445.04	57.0317
1449.23	22.687
1453.4	99.7983
1457.58	18.5845
1461.76	128.369
1465.93	76.9985
1470.1	16.1045
1474.26	106.952
1478.43	87.3608
1482.59	102.62
1486.75	134.4
1490.9	3.75928
1495.06	80.8564
1499.21	95.2505
1503.35	113.09
1507.5	162.163
1511.64	31.5225
1515.78	27.918
1519.92	173.834
1524.05	114.095
1528.18	48.0747
1532.31	40.2144
1536.44	17.3911
1540.56	32.1235
1544.69	113.052
1548.8	110.609
1552.92	132.057
1557.03	36.9497
1561.14	18.999
1565.25	39.1348
1569.36	98.6606
