Measurement: Raman, 514 nm, ccw, Raman Data Processed
Mineral: Columbite-(Fe)
Rruff sample: R060001
Ideal chemistry: Fe^2+^Nb_2_O_6_
Locality: Gypsy mine, Minas Gerais, Brazil
Source: Eric Van Valkenburg
Description: Steel gray fragment with internal red hints
Measured chemistry: (Fe^2+^_0.52_Mn^2+^_0.48_)_Σ=1_(Nb_1.61_Ta_0.39_)_Σ=2_O_6_
Pin_id: L01130
Orientation: Laser parallel to a* (1 0 0). Fiducial mark perpendicular to laser is parallel to -b [0 -1 0]
Raman shift (cm-1)	intensity
120.358	0
125.295	589.741
130.23	1515.16
135.163	1875.65
140.092	1845.12
145.019	644.465
149.944	169.279
154.866	80.9092
159.785	98.4126
164.702	205.672
169.616	391.801
174.528	399.984
179.437	358.576
184.343	204.987
189.247	236.973
194.148	555.26
199.046	889.927
203.942	942.096
208.835	551.069
213.726	253.818
218.614	147.355
223.5	207.847
228.382	150.233
233.263	338.254
238.14	729.321
243.015	912.248
247.888	995.161
252.758	912.016
257.625	1012.06
262.49	1036.82
267.352	869.624
272.211	776.207
277.068	678.359
281.922	576.428
286.773	456.037
291.622	218.962
296.469	144.792
301.312	124.253
306.154	162.201
310.992	235.749
315.828	275.888
320.661	288.067
325.492	223.693
330.32	22.1773
335.145	40.467
339.968	37.522
344.789	126.347
349.606	158.94
354.421	210.287
359.234	208.344
364.043	176.144
368.851	83.7188
373.655	148.985
378.457	148.827
383.256	242.389
388.053	310.711
392.847	551.782
397.639	487.6
402.428	318.189
407.214	180.555
411.998	46.6707
416.779	40.6304
421.557	60.7297
426.333	32.6362
431.106	12.5378
435.877	1.31567
440.645	16.9888
445.41	8.38428
450.173	28.999
454.933	35.0837
459.691	98.8643
464.446	75.3784
469.198	93.666
473.948	208.376
478.695	206.055
483.439	170.681
488.181	138.981
492.92	198.526
497.657	179.039
502.391	210.524
507.122	233.887
511.851	371.097
516.577	573.361
521.301	813.2
526.022	1067.3
530.74	1090.19
535.456	1056.07
540.169	757.944
544.879	581.83
549.587	404.745
554.292	221.89
558.995	280.663
563.695	66.9356
568.392	66.5813
573.087	0.772949
577.779	11.4834
582.469	50.5005
587.156	23.709
591.84	98.2866
596.522	85.2874
601.201	179.824
605.877	128.347
610.551	157.631
615.222	81.2524
619.891	7.25684
624.557	35.6714
629.22	125.469
633.881	44.3623
638.539	11.1357
643.195	11.02
647.848	37.7412
652.498	29.8623
657.145	2.87744
661.791	3.5581
666.433	51.1875
671.073	48.7353
675.71	108.453
680.345	189.991
684.977	172.234
689.606	198.193
694.233	243.892
698.857	404.413
703.478	458.798
708.097	529.068
712.714	540.125
717.327	641.959
721.938	791.831
726.547	880.856
731.153	1055.36
735.756	1127.1
740.356	1256.43
744.954	1496.3
749.55	1665.68
754.142	1956.57
758.733	2002.84
763.32	2158.29
767.905	2223.21
772.487	2487.2
777.067	2526.44
781.644	2683.95
786.218	2737.1
790.79	2879.02
795.359	2965.05
799.926	3106.06
804.49	2932.65
809.051	3045.85
813.61	3165.7
818.166	3330.14
822.72	3530.02
827.271	3692.19
831.819	3948.14
836.365	4016.34
840.908	4301.65
845.448	4640.27
849.986	5279.24
854.521	6226.9
859.054	7626.04
863.584	9837.72
868.111	13099.5
872.636	16535.5
877.158	16174.5
881.677	11554.3
886.194	6160.21
890.709	3186.23
895.22	1714.15
899.729	1114.66
904.236	677.017
908.74	383.419
913.241	224.613
917.739	166.783
922.235	105.41
926.729	78.1311
931.219	38.04
935.708	29.4209
940.193	34.6257
944.676	54.3992
949.156	17.9143
953.634	46.2817
958.109	14.4959
962.582	32.9477
967.051	0.833252
971.519	46.0335
975.983	3.58398
980.445	17.9661
984.905	10.4036
989.362	47.7126
993.816	29.3901
998.267	12.717
1002.72	98.8794
1007.16	70.6011
1011.61	103.002
1016.05	73.8186
1020.49	84.7932
1024.92	142.117
1029.36	44.1892
1033.79	80.8457
1038.21	97.0752
1042.64	91.8911
1047.06	114.502
1051.48	79.8928
1055.9	165.407
1060.32	166.919
1064.73	177.737
1069.14	148.064
1073.55	145.008
1077.95	233.661
1082.35	200.876
1086.75	175.483
1091.15	130.458
1095.54	120.845
1099.93	128.552
1104.32	111.258
1108.71	110.432
1113.09	122.506
1117.47	118.42
1121.85	102.201
1126.23	92.2002
1130.6	139.36
1134.97	111.873
1139.34	127.531
1143.7	49.4758
1148.07	58.8843
1152.43	73.0666
1156.79	23.0535
1161.14	54.1467
1165.49	25.1045
1169.84	87.0854
1174.19	66.7485
1178.54	55.4917
1182.88	37.3852
1187.22	24.4067
1191.55	88.771
1195.89	51.6653
1200.22	70.4888
1204.55	107.443
1208.87	56.0471
1213.2	10.7078
1217.52	53.1538
1221.84	50.1099
1226.15	51.1211
1230.47	50.1526
1234.78	27.7576
1239.09	68.8591
1243.39	53.5554
1247.69	81.8603
1251.99	2.91553
1256.29	6.93433
1260.59	37.7312
1264.88	38.2109
1269.17	39.5288
1273.46	1.70019
1277.74	83.2566
1282.02	70.3159
1286.3	15.6389
1290.58	37.3162
1294.86	67.2983
1299.13	19.217
1303.39	14.0852
1307.66	87.4265
1311.93	41.1084
1316.19	17.6333
1320.45	3.18921
1324.7	59.4094
1328.96	40.1125
1333.21	54.8975
1337.45	17.9624
1341.7	25.7588
1345.94	69.8381
1350.18	29.7827
1354.42	47.5188
1358.66	7.83716
1362.89	65.2881
1367.12	21.885
1371.35	28.5107
1375.57	2.57544
1379.8	72.4285
1384.02	44.4522
1388.23	34.334
1392.45	36.5413
1396.66	70.7993
1400.87	18.0212
1405.08	22.5237
1409.28	35.0261
1413.48	67.9609
1417.68	35.0718
1421.88	99.6269
1426.07	30.8896
1430.26	59.3608
1434.45	24.4722
1438.64	64.5478
1442.82	27.6589
1447	20.1929
1451.18	64.8032
1455.35	0.766357
1459.53	44.981
1463.7	13.2156
1467.87	38.1038
1472.03	42.1235
1476.19	12.8533
1480.35	63.687
1484.51	35.615
1488.67	51.7542
1492.82	51.0254
1496.97	55.5085
1501.12	105.168
1505.26	36.042
1509.4	19.9092
1513.54	113.947
1517.68	65.3726
1521.81	16.8467
1525.94	73.5657
1530.07	58.54
1534.2	40.3396
1538.32	24.1055
1542.44	11.1338
1546.56	66.7275
1550.68	111.306
1554.79	296.264
1558.9	2.3855
1563.01	0
