Measurement: Raman, 514 nm, ccw, Raman Data Processed
Mineral: Columbite-(Fe)
Rruff sample: R060001
Ideal chemistry: Fe^2+^Nb_2_O_6_
Locality: Gypsy mine, Minas Gerais, Brazil
Source: Eric Van Valkenburg
Description: Steel gray fragment with internal red hints
Measured chemistry: (Fe^2+^_0.52_Mn^2+^_0.48_)_Σ=1_(Nb_1.61_Ta_0.39_)_Σ=2_O_6_
Pin_id: L01130
Orientation: Laser parallel to a* (1 0 0). Fiducial mark perpendicular to laser is parallel to -b [0 -1 0]
Raman shift (cm-1)	intensity
114.182	0
119.123	286.496
124.061	1679.76
128.997	3320.51
133.93	4093.68
138.86	3784.31
143.788	1754.28
148.713	589.511
153.636	272.673
158.556	51.2988
163.473	67.231
168.388	34.7119
173.3	8.83057
178.21	40.6328
183.117	43.0503
188.021	310.684
192.923	650.091
197.822	1136.76
202.718	1742.8
207.612	1012.52
212.504	674.469
217.392	284.57
222.279	139.417
227.162	90.2136
232.043	264.81
236.921	361.731
241.797	442.878
246.67	440.465
251.54	378.29
256.408	411.465
261.274	496.923
266.136	617.663
270.996	825.508
275.854	1053.95
280.709	1037.69
285.561	862.305
290.41	573.057
295.257	358.892
300.102	281.899
304.944	133.949
309.783	43.3711
314.619	84.8599
319.453	101.764
324.285	34.2329
329.113	10.1807
333.939	101.196
338.763	83.5107
343.584	17.2107
348.402	29.7793
353.218	167.615
358.031	243.371
362.841	415.045
367.649	630.446
372.454	941.685
377.257	1388.61
382.057	2136.67
386.854	2984.78
391.649	3826.93
396.441	4257.12
401.231	3808.36
406.018	2859.63
410.802	2107.72
415.584	1536.56
420.363	1282.15
425.139	1067.57
429.913	917.86
434.684	859.662
439.453	829.431
444.219	903.213
448.982	745.667
453.743	834.98
458.501	903.733
463.257	1027.66
468.01	1075.71
472.76	1205.03
477.508	1199.17
482.253	1136.07
486.996	1137.78
491.736	1059.55
496.473	1029.59
501.207	917.233
505.94	978.644
510.669	1023.11
515.396	1231.66
520.12	1503.32
524.842	1839.08
529.561	1935.97
534.277	1723.98
538.991	1461.13
543.702	1043.43
548.41	664.89
553.116	418.528
557.819	298.365
562.52	214.418
567.218	101.703
571.913	28.7642
576.606	4.06811
581.296	28.3171
585.984	32.698
590.669	53.2886
595.351	119.221
600.031	83.3726
604.708	17.2407
609.383	0.885498
614.055	11.699
618.724	89.0745
623.391	136.262
628.055	242.068
632.716	279.461
637.375	389.274
642.031	298.488
646.685	304.113
651.335	242.157
655.984	312.631
660.63	297.541
665.273	307.896
669.913	257.707
674.551	301.012
679.186	432.933
683.819	329.629
688.449	378.122
693.076	480.429
697.701	582.503
702.323	587.228
706.943	647.599
711.56	840.517
716.174	975.918
720.786	1007.52
725.395	1128.69
730.001	1172.06
734.605	1375.74
739.206	1525.79
743.805	1765.61
748.401	1838.59
752.995	2086.49
757.585	2254.36
762.173	2598.1
766.759	2615.01
771.342	2704.66
775.922	2817.84
780.5	2911.54
785.075	2989.76
789.648	2977.48
794.217	2971.7
798.785	3107.41
803.349	2950.58
807.911	3129.82
812.471	3238.35
817.027	3492.86
821.582	3754.86
826.133	3966.54
830.682	4434.61
835.228	4793.36
839.772	5355.74
844.313	6073.71
848.852	7420.95
853.387	9096.64
857.921	11696.2
862.451	15639.6
866.979	21368.8
871.505	27896.9
876.028	29748.5
880.548	22788.5
885.065	12760.1
889.58	6006.09
894.093	3303.4
898.602	1989.08
903.109	1222.92
907.614	841.281
912.116	486.568
916.615	274.832
921.112	221.46
925.606	193.531
930.097	110.391
934.586	90.0178
939.072	49.4382
943.556	0.689697
948.037	50.2983
952.515	20.8977
956.991	59.2913
961.464	33.4695
965.934	84.5967
970.402	8.396
974.867	48.8579
979.33	32.4968
983.79	39.3809
988.248	25.6233
992.702	53.1216
997.155	27.9697
1001.6	41.4348
1006.05	56.8582
1010.5	24.4377
1014.94	96.7022
1019.38	48.0173
1023.81	131.343
1028.25	77.2859
1032.68	75.3354
1037.11	142.956
1041.53	125.801
1045.96	147.194
1050.38	135.19
1054.8	149.508
1059.21	159.624
1063.62	201.54
1068.04	208.693
1072.44	215.348
1076.85	242.703
1081.25	245.179
1085.65	255.926
1090.05	177.141
1094.44	172.504
1098.84	89.7664
1103.22	178.375
1107.61	105.864
1112	146.589
1116.38	116.039
1120.76	90.363
1125.13	128.462
1129.51	120.072
1133.88	88.7703
1138.25	68.7317
1142.61	81.7847
1146.98	91.8398
1151.34	59.7937
1155.7	95.5085
1160.05	78.7786
1164.4	31.6711
1168.76	44.0732
1173.1	38.6372
1177.45	59.866
1181.79	70.4082
1186.13	49.0637
1190.47	0.959717
1194.8	28.4868
1199.14	32.2461
1203.46	72.1309
1207.79	51.637
1212.12	8.54712
1216.44	47.5256
1220.76	49.947
1225.08	58.4404
1229.39	64.321
1233.7	84.2488
1238.01	10.6189
1242.32	63.5278
1246.62	59.5791
1250.92	60.4822
1255.22	23.3379
1259.51	66.334
1263.81	10.1533
1268.1	10.3501
1272.38	64.1941
1276.67	33.2466
1280.95	19.2707
1285.23	44.5156
1289.51	40.1824
1293.79	11.1514
1298.06	68.2207
1302.33	14.5185
1306.6	11.2602
1310.86	29.0386
1315.12	19.8215
1319.38	32.9136
1323.64	67.2842
1327.89	21.7564
1332.14	100.189
1336.39	10.3428
1340.64	14.4055
1344.88	47.2366
1349.12	64.6143
1353.36	113.987
1357.6	29.1492
1361.83	37.0293
1366.06	39.7578
1370.29	45.6055
1374.52	21.4275
1378.74	36.9219
1382.96	85.3965
1387.18	16.0547
1391.39	39.312
1395.61	88.2256
1399.82	22.3591
1404.02	37.5767
1408.23	1.75
1412.43	46.4392
1416.63	23.1277
1420.83	26.2664
1425.02	14.9233
1429.21	51.5315
1433.4	8.73511
1437.59	87.6081
1441.77	31.1399
1445.95	173.245
1450.13	53.2837
1454.31	70.1196
1458.48	89.542
1462.65	79.4751
1466.82	15.0134
1470.99	43.4895
1475.15	27.1081
1479.31	24.6111
1483.47	45.2415
1487.63	69.0217
1491.78	57.3848
1495.93	77.1299
1500.08	38.8721
1504.22	90.5918
1508.37	51.0742
1512.51	114.457
1516.64	77.4497
1520.78	52.647
1524.91	81.012
1529.04	85.959
1533.17	0.351563
1537.29	13.1548
1541.41	3.0459
1545.53	62.4575
1549.65	54.4797
1553.77	365.393
1557.88	27.8059
1561.99	0.239502
