Measurement: Raman, 514 nm, ccw, Raman Data Processed
Mineral: Columbite-(Fe)
Rruff sample: R060001
Ideal chemistry: Fe^2+^Nb_2_O_6_
Locality: Gypsy mine, Minas Gerais, Brazil
Source: Eric Van Valkenburg
Description: Steel gray fragment with internal red hints
Measured chemistry: (Fe^2+^_0.52_Mn^2+^_0.48_)_Σ=1_(Nb_1.61_Ta_0.39_)_Σ=2_O_6_
Pin_id: L01167
Orientation: Laser parallel to c* (0 0 1). Fiducial mark perpendicular to laser is parallel to -a [-1 0 0]
Raman shift (cm-1)	intensity
124.061	0
128.997	1018.52
133.93	1489.22
138.86	1983.83
143.788	424.385
148.713	127.921
153.636	290.142
158.556	188.55
163.473	559.357
168.388	251.093
173.3	54.415
178.21	60.9775
183.117	119.918
188.021	405.06
192.923	811.488
197.822	1310.81
202.718	1925.14
207.612	1315.9
212.504	591.616
217.392	182.012
222.279	40.6025
227.162	69.0576
232.043	182.416
236.921	506.756
241.797	678.18
246.67	754.893
251.54	855.374
256.408	959.627
261.274	1033.11
266.136	1171.23
270.996	1142.26
275.854	1120.29
280.709	643.904
285.561	660.565
290.41	754.639
295.257	820.854
300.102	818.593
304.944	690.77
309.783	603.455
314.619	410.672
319.453	539.517
324.285	430.54
329.113	122.298
333.939	74.2549
338.763	9.33887
343.584	69.4424
348.402	9.86133
353.218	18.167
358.031	19.6172
362.841	178.893
367.649	246.661
372.454	472.885
377.257	944.409
382.057	1559.57
386.854	1954.47
391.649	2384.18
396.441	2450.79
401.231	2044.35
406.018	1608.89
410.802	1199.52
415.584	639.089
420.363	586.226
425.139	420.852
429.913	555.047
434.684	523.899
439.453	536.539
444.219	522.121
448.982	426.922
453.743	348.203
458.501	621.543
463.257	574.119
468.01	633.108
472.76	588.223
477.508	830.529
482.253	938.062
486.996	733.1
491.736	713.175
496.473	625.813
501.207	746.535
505.94	721.392
510.669	712.102
515.396	911.447
520.12	1070.25
524.842	1461.36
529.561	1667.77
534.277	1600.05
538.991	1482.95
543.702	1077.47
548.41	960.942
553.116	834.67
557.819	777.324
562.52	622.579
567.218	676.562
571.913	648.963
576.606	376.807
581.296	241.11
585.984	13.8887
590.669	133.136
595.351	46.2822
600.031	130.581
604.708	136.815
609.383	29.75
614.055	24.5117
618.724	89.5664
623.391	270.504
628.055	458.435
632.716	605.485
637.375	527.684
642.031	734.891
646.685	586.994
651.335	384.788
655.984	371.219
660.63	116.289
665.273	92.9981
669.913	4.66992
674.551	72.2383
679.186	14.7998
683.819	205.035
688.449	150.972
693.076	47.627
697.701	62.208
702.323	91.7275
706.943	166.227
711.56	172.725
716.174	459.03
720.786	280.066
725.395	430.84
730.001	598.953
734.605	669.09
739.206	841.856
743.805	974.631
748.401	843.12
752.995	1039.98
757.585	1196.51
762.173	1346.7
766.759	1494.52
771.342	1427.95
775.922	1516.98
780.5	1534.57
785.075	1557.72
789.648	1817.41
794.217	1653.63
798.785	1918.37
803.349	2043.59
807.911	2392.12
812.471	2724.82
817.027	3311.4
821.582	4027.83
826.133	4701.68
830.682	4925.73
835.228	5143.2
839.772	5210.97
844.313	5547.28
848.852	6328.32
853.387	8099.61
857.921	10511.7
862.451	14421.9
866.979	20263.3
871.505	29018.6
876.028	35294
880.548	32182.1
885.065	21194
889.58	11839.3
894.093	6046.93
898.602	3525.55
903.109	2149.88
907.614	1599.28
912.116	1005.74
916.615	629.231
921.112	380.747
925.606	270.283
930.097	348.82
934.586	262.892
939.072	261.833
943.556	297.291
948.037	168.736
952.515	155.016
956.991	2.94238
961.464	99.1357
965.934	57.8926
970.402	77.3594
974.867	0.303711
979.33	57.8242
983.79	75.665
988.248	86.9951
992.702	7.38184
997.155	145.442
1001.6	66.3037
1006.05	157.95
1010.5	24.335
1014.94	68.4014
1019.38	106.561
1023.81	55.206
1028.25	215.205
1032.68	143.176
1037.11	170.391
1041.53	168.102
1045.96	308.782
1050.38	343.735
1054.8	256.101
1059.21	456.346
1063.62	420.581
1068.04	349.067
1072.44	434.666
1076.85	552.835
1081.25	361.857
1085.65	465.981
1090.05	465.896
1094.44	341.106
1098.84	344.581
1103.22	386.476
1107.61	342.821
1112	261.884
1116.38	164.949
1120.76	93.585
1125.13	278.697
1129.51	221.046
1133.88	115.774
1138.25	205.062
1142.61	243.44
1146.98	127.536
1151.34	145.557
1155.7	155.253
1160.05	173.732
1164.4	99.7207
1168.76	26.4688
1173.1	103.415
1177.45	194.439
1181.79	78.1064
1186.13	169.21
1190.47	134.933
1194.8	64.8193
1199.14	113.992
1203.46	167.827
1207.79	144.828
1212.12	175.696
1216.44	59.2793
1220.76	98.2617
1225.08	199.458
1229.39	44.4385
1233.7	124.356
1238.01	106.853
1242.32	61.5039
1246.62	118.186
1250.92	86.2178
1255.22	27.0596
1259.51	25.7773
1263.81	25.4668
1268.1	57.0615
1272.38	23.6865
1276.67	10.7266
1280.95	42.998
1285.23	57.71
1289.51	102.723
1293.79	48.374
1298.06	142.682
1302.33	147.142
1306.6	125.065
1310.86	93.2822
1315.12	10.7315
1319.38	35.7363
1323.64	213.125
1327.89	18.1729
1332.14	251.548
1336.39	144.842
1340.64	123.843
1344.88	47.4336
1349.12	221.596
1353.36	174.798
1357.6	173.794
1361.83	111.086
1366.06	118.263
1370.29	63.1699
1374.52	191.109
1378.74	147.987
1382.96	16.0391
1387.18	13.9258
1391.39	138.361
1395.61	161.143
1399.82	77.8291
1404.02	166.74
1408.23	143.324
1412.43	143.762
1416.63	66.7041
1420.83	98.96
1425.02	43.5938
1429.21	102.105
1433.4	189.956
1437.59	165.684
1441.77	91.6006
1445.95	93.375
1450.13	166.914
1454.31	122.459
1458.48	81.5029
1462.65	47.8213
1466.82	86.9453
1470.99	47.4805
1475.15	63.6572
1479.31	62.7832
1483.47	104.897
1487.63	81.2324
1491.78	102.992
1495.93	67.9863
1500.08	104.593
1504.22	65.376
1508.37	162.75
1512.51	83.2148
1516.64	60.3984
1520.78	87.1191
1524.91	179.467
1529.04	175.422
1533.17	49.1084
1537.29	56.8096
1541.41	43.752
1545.53	33.4395
1549.65	185.211
1553.77	722.859
1557.88	106.591
1561.99	0.486328
