Measurement: Raman, 514 nm, ccw, Raman Data Processed
Mineral: Columbite-(Fe)
Rruff sample: R050348
Ideal chemistry: Fe^2+^Nb_2_O_6_
Locality: Lord Hill mine, Stoneham, Oxford County, Maine, USA
Source: California Institute of Technology
Description: Black fragment
Measured chemistry: (Fe^2+^_0.69_Mn^2+^_0.30_Ti_0.01_)(Nb_0.89_Ta_0.10_Ti_0.01_)_2_O_6_
Pin_id: L00573
Orientation: Laser parallel to -c* (0 0 -1). Fiducial mark perpendicular to laser is parallel to -a [-1 0 0]
Raman shift (cm-1)	intensity
221.022	0
225.895	5.69629
230.765	155.144
235.633	232.351
240.498	296.206
245.361	486.288
250.222	462.527
255.08	514.034
259.936	450.029
264.789	539.824
269.64	623.504
274.488	536.512
279.334	439.894
284.178	298.625
289.019	240.289
293.857	287.927
298.693	457.81
303.527	400.112
308.358	301.831
313.187	205.898
318.013	266.238
322.837	250.013
327.659	238.709
332.478	98.8037
337.294	36.1113
342.108	38.8682
346.92	19.75
351.729	4.62891
356.535	8.19434
361.34	86.7705
366.141	228.311
370.94	256.255
375.737	402.794
380.531	750.864
385.323	991.514
390.113	1264.19
394.9	1185.86
399.684	1101.43
404.466	836.834
409.245	365.106
414.022	179.287
418.797	244.411
423.569	235.224
428.338	267.813
433.105	147.786
437.87	7.60254
442.632	99.835
447.391	152.569
452.149	100.478
456.903	131.443
461.655	121.814
466.405	140.255
471.152	299.321
475.897	183.004
480.639	342.482
485.378	376.163
490.116	277.241
494.85	334.513
499.582	351.154
504.312	455.144
509.039	584.722
513.764	634.368
518.486	604.093
523.206	856.882
527.923	581.738
532.638	644.668
537.35	600.676
542.059	336.766
546.766	190.947
551.471	289.223
556.173	204.6
560.873	168.082
565.57	201.52
570.264	72.2373
574.957	143.067
579.646	28.8945
584.333	20.9902
589.018	79.2119
593.7	31.4756
598.379	90.7598
603.056	247.888
607.73	283.815
612.402	302.761
617.072	525.913
621.739	627.613
626.403	794.235
631.065	986.034
635.724	969.164
640.381	986.59
645.035	760.348
649.687	681.303
654.336	611.473
658.983	483.873
663.627	283.255
668.268	289.785
672.907	204.54
677.544	177.659
682.178	257.035
686.809	185.587
691.438	191.334
696.065	284.443
700.688	124.466
705.31	173.843
709.929	375.372
714.545	348.119
719.158	83.584
723.77	270.188
728.378	91.5019
732.984	54.3574
737.588	174.783
742.189	21.543
746.787	205.011
751.383	136.039
755.976	86.2178
760.567	35.4414
765.155	255.69
769.741	52.0478
774.324	193.517
778.904	228.078
783.482	95.7246
788.058	280.742
792.631	140.087
797.201	333.07
801.769	511.544
806.334	628.866
810.897	790.747
815.457	1017.76
820.014	1565.87
824.569	1536.92
829.122	1674.83
833.671	1662.98
838.219	1956.97
842.763	2175.79
847.306	2747.81
851.845	3496.09
856.382	5054.5
860.917	7138.03
865.448	10599.2
869.978	14343.5
874.505	15029.8
879.029	10490.4
883.55	6003.15
888.069	3384.55
892.586	1847.37
897.1	1313.86
901.611	868.424
906.12	523.861
910.626	449.506
915.129	294.356
919.63	260.91
924.129	191.502
928.625	55.0312
933.118	65.8594
937.609	18.668
942.097	101.068
946.582	78.6191
951.065	114.002
955.546	145.238
960.023	37.6562
964.499	101.769
968.971	51.9395
973.441	105.85
977.909	300.262
982.374	326.332
986.836	295.098
991.295	170.568
995.753	59.6738
1000.21	189.4
1004.66	370.68
1009.11	205.685
1013.55	200.641
1018	206.344
1022.44	121.289
1026.88	191.693
1031.32	421.256
1035.75	283.848
1040.18	147.664
1044.61	296.264
1049.04	344.842
1053.46	192.086
1057.88	238.174
1062.3	313.213
1066.71	240.018
1071.13	352.902
1075.54	465.004
1079.94	429.141
1084.35	584.203
1088.75	349.816
1093.15	174.644
1097.55	207.594
1101.94	232.086
1106.34	144.326
1110.73	240.779
1115.11	166.731
1119.5	520.195
1123.88	614.521
1128.26	324.426
1132.63	220.588
1137.01	213.184
1141.38	217.389
1145.75	185.119
1150.12	43.9746
1154.48	0.857422
1158.84	54.3633
1163.2	33.6621
1167.55	169.965
1171.91	38.0332
1176.26	36.0117
1180.61	156.133
1184.95	157.047
1189.29	125.564
1193.63	198.688
1197.97	75.5059
1202.31	45.2969
1206.64	346.025
1210.97	260.76
1215.29	8.56055
1219.62	141.346
1223.94	142.129
1228.26	98.9629
1232.57	123.783
1236.89	23.4141
1241.2	16.8281
1245.51	312.894
1249.81	187.551
1254.12	21.1309
1258.42	334.711
1262.72	27.373
1267.01	119.92
1271.3	368.371
1275.59	170.438
1279.88	167.215
1284.17	69.9863
1288.45	64.0742
1292.73	257.643
1297.01	261.953
1301.28	366.934
1305.55	105.99
1309.82	127.682
1314.09	476.158
1318.35	226.113
1322.61	215.971
1326.87	379.457
1331.13	217.81
1335.38	466.668
1339.63	412.141
1343.88	428.812
1348.12	275.547
1352.37	197.897
1356.61	485.176
1360.85	184.965
1365.08	459.574
1369.31	542.797
1373.54	188.586
1377.77	275.471
1381.99	269.012
1386.22	292.1
1390.43	247.004
1394.65	449.473
1398.87	240.777
1403.08	412.941
1407.29	395.227
1411.49	314.059
1415.69	323.731
1419.89	361.15
1424.09	149.455
1428.29	271.44
1432.48	371.541
1436.67	118.791
1440.86	59.3086
1445.04	341.148
1449.23	30.084
1453.4	175.006
1457.58	275.258
1461.76	16.3809
1465.93	303.207
1470.1	250.951
1474.26	19.582
1478.43	133.231
1482.59	316.609
1486.75	306.256
1490.9	98.9414
1495.06	63.3262
1499.21	161.193
1503.35	276.318
1507.5	51.3926
1511.64	223.143
1515.78	256.816
1519.92	101.381
1524.05	258.027
1528.18	165.244
1532.31	62.3906
1536.44	113.256
1540.56	193.738
1544.69	183.695
1548.8	187.07
1552.92	438.377
1557.03	98.3223
1561.14	35.3965
1565.25	262.391
1569.36	30.8789
