Measurement: Raman, 514 nm, ccw, Raman Data Processed
Mineral: Columbite-(Fe)
Rruff sample: R050348
Ideal chemistry: Fe^2+^Nb_2_O_6_
Locality: Lord Hill mine, Stoneham, Oxford County, Maine, USA
Source: California Institute of Technology
Description: Black fragment
Measured chemistry: (Fe^2+^_0.69_Mn^2+^_0.30_Ti_0.01_)(Nb_0.89_Ta_0.10_Ti_0.01_)_2_O_6_
Pin_id: L00509
Orientation: Laser parallel to -b* (0 -1 0). Fiducial mark perpendicular to laser is parallel to -c [0 0 -1]
Raman shift (cm-1)	intensity
221.022	0
225.895	1.02978
230.765	100.837
235.633	69.7519
240.498	160.303
245.361	221.087
250.222	318.205
255.08	449.241
259.936	534.162
264.789	560.668
269.64	660.888
274.488	635.665
279.334	509.947
284.178	394.736
289.019	385.146
293.857	351.906
298.693	367.736
303.527	239.98
308.358	248.552
313.187	238.156
318.013	277.191
322.837	178.121
327.659	120.172
332.478	76.106
337.294	32.7793
342.108	10.584
346.92	30.0293
351.729	49.4058
356.535	2.00928
361.34	74.6719
366.141	25.7651
370.94	93.9287
375.737	185.608
380.531	162.988
385.323	205.744
390.113	162.273
394.9	194.045
399.684	146.042
404.466	164.215
409.245	78.4522
414.022	76.646
418.797	137.626
423.569	113.885
428.338	62.0469
433.105	331.091
437.87	187.515
442.632	163.578
447.391	196.684
452.149	125.018
456.903	163.733
461.655	222.795
466.405	162.803
471.152	66.4077
475.897	153.996
480.639	160.035
485.378	128.21
490.116	57.3315
494.85	70.7178
499.582	9.771
504.312	33.0386
509.039	60.9165
513.764	4.07178
518.486	13.7979
523.206	23.2046
527.923	45.1226
532.638	39.9971
537.35	19.3428
542.059	0.819824
546.766	15.792
551.471	15.7271
556.173	19.9258
560.873	22.9785
565.57	76.6113
570.264	23.5454
574.957	81.0596
579.646	34.4209
584.333	20.1343
589.018	68.5054
593.7	18.9946
598.379	9.03613
603.056	66.1992
607.73	111.374
612.402	144.555
617.072	137.731
621.739	171.31
626.403	267.315
631.065	316.353
635.724	365.451
640.381	278.353
645.035	392.384
649.687	346.965
654.336	269.117
658.983	328.976
663.627	257.362
668.268	267.239
672.907	399.998
677.544	313.627
682.178	263.717
686.809	427.166
691.438	517.129
696.065	383.58
700.688	462.861
705.31	572.835
709.929	587.963
714.545	620.768
719.158	736.034
723.77	830.332
728.378	922.564
732.984	1014.24
737.588	1104.27
742.189	1144.96
746.787	1286.23
751.383	1433.06
755.976	1492.47
760.567	1654.44
765.155	1665.94
769.741	1751
774.324	1805.6
778.904	1784.73
783.482	1897.44
788.058	1916.83
792.631	1968.42
797.201	1880.65
801.769	1887.73
806.334	2134.67
810.897	2137.49
815.457	2334.37
820.014	2399.52
824.569	2566.3
829.122	2722.61
833.671	3320.09
838.219	3433.54
842.763	3773.89
847.306	4428.58
851.845	5157.69
856.382	6074.98
860.917	7442.48
865.448	8342.26
869.978	9247.21
874.505	8323.32
879.029	5990.56
883.55	3477.91
888.069	2091.38
892.586	1209.18
897.1	749.836
901.611	519.668
906.12	370.404
910.626	290.188
915.129	89.0181
919.63	117.865
924.129	3.2915
928.625	112.465
933.118	59.8848
937.609	26.5649
942.097	62.5806
946.582	2.22315
951.065	82.2563
955.546	6.77588
960.023	16.814
964.499	51.3179
968.971	12.3447
973.441	49.9746
977.909	55.8545
982.374	151.434
986.836	116.767
991.295	160.632
995.753	128.736
1000.21	104.001
1004.66	189.821
1009.11	162.012
1013.55	137.148
1018	155.102
1022.44	195.591
1026.88	106.115
1031.32	208.126
1035.75	313.215
1040.18	207.259
1044.61	228.148
1049.04	256.436
1053.46	315.037
1057.88	308.677
1062.3	243.939
1066.71	307.456
1071.13	352.496
1075.54	268.693
1079.94	295.801
1084.35	235.56
1088.75	297.474
1093.15	152.133
1097.55	211.492
1101.94	277.325
1106.34	156.4
1110.73	224.719
1115.11	235.445
1119.5	319.178
1123.88	388.695
1128.26	265.357
1132.63	188.638
1137.01	134.92
1141.38	93.0034
1145.75	92.8667
1150.12	82.4263
1154.48	104.906
1158.84	126.461
1163.2	112.644
1167.55	25.3726
1171.91	54.7954
1176.26	44.1777
1180.61	14.0508
1184.95	50.8994
1189.29	20.3638
1193.63	5.35742
1197.97	52.7627
1202.31	10.7192
1206.64	44.3071
1210.97	80.5137
1215.29	124.541
1219.62	24.0083
1223.94	77.5166
1228.26	2.38769
1232.57	29.7734
1236.89	48.9834
1241.2	63.3135
1245.51	181.005
1249.81	35.2744
1254.12	24.4077
1258.42	108.894
1262.72	75.8867
1267.01	48.1323
1271.3	73.4746
1275.59	46.6572
1279.88	33.3023
1284.17	44.48
1288.45	72.813
1292.73	32.3208
1297.01	102.145
1301.28	42.0889
1305.55	97.376
1309.82	55.6094
1314.09	56.6465
1318.35	81.6504
1322.61	70.0737
1326.87	5.74756
1331.13	78.9414
1335.38	64.8701
1339.63	103.725
1343.88	42.2471
1348.12	33.3174
1352.37	146.421
1356.61	123.988
1360.85	21.3901
1365.08	67.0698
1369.31	11.6816
1373.54	27.7451
1377.77	28.5952
1381.99	63.543
1386.22	22.5059
1390.43	54.6533
1394.65	60.7485
1398.87	39.0049
1403.08	37.9355
1407.29	2.03369
1411.49	28.7886
1415.69	43.207
1419.89	65.9785
1424.09	2.61377
1428.29	82.2456
1432.48	57.1118
1436.67	60.3403
1440.86	67.7822
1445.04	43.2056
1449.23	0.328613
1453.4	25.5571
1457.58	12.0664
1461.76	107.048
1465.93	57.7554
1470.1	80.3833
1474.26	28.1343
1478.43	47.4365
1482.59	112.578
1486.75	53.8223
1490.9	47.4453
1495.06	37.3477
1499.21	54.5571
1503.35	15.772
1507.5	83.0854
1511.64	101.546
1515.78	47.6621
1519.92	21.1338
1524.05	104.282
1528.18	31.6104
1532.31	50.3359
1536.44	70.4697
1540.56	6.33398
1544.69	160.128
1548.8	76.6084
1552.92	93.7178
1557.03	74.7036
1561.14	137.92
1565.25	31.3262
1569.36	53.5117
