Measurement: Raman, 514 nm, ccw, Raman Data Processed
Mineral: Columbite-(Fe)
Rruff sample: R050348
Ideal chemistry: Fe^2+^Nb_2_O_6_
Locality: Lord Hill mine, Stoneham, Oxford County, Maine, USA
Source: California Institute of Technology
Description: Black fragment
Measured chemistry: (Fe^2+^_0.69_Mn^2+^_0.30_Ti_0.01_)(Nb_0.89_Ta_0.10_Ti_0.01_)_2_O_6_
Pin_id: L01882
Orientation: Laser parallel to -a* (-1 0 0). Fiducial mark perpendicular to laser is parallel to b [0 1 0]
Raman shift (cm-1)	intensity
221.022	0
225.895	144.198
230.765	343.854
235.633	710.953
240.498	1019.27
245.361	1260.27
250.222	1440.08
255.08	1650.61
259.936	1924.22
264.789	1955.07
269.64	1767.88
274.488	1834.6
279.334	1739.65
284.178	1656.34
289.019	1434.11
293.857	1122.14
298.693	927.477
303.527	841.671
308.358	522.821
313.187	476.868
318.013	402.467
322.837	169.133
327.659	85.6553
332.478	333.448
337.294	161.168
342.108	20.1611
346.92	30.6689
351.729	27.5537
356.535	127.724
361.34	478.94
366.141	48.3994
370.94	250.511
375.737	313.037
380.531	549.507
385.323	740.327
390.113	747.1
394.9	792.929
399.684	693.256
404.466	595.933
409.245	166.499
414.022	377.773
418.797	65.3769
423.569	10.8565
428.338	88.3799
433.105	85.999
437.87	44.8184
442.632	35.6338
447.391	59.8262
452.149	100.182
456.903	212.14
461.655	200.81
466.405	292.909
471.152	284.231
475.897	280.519
480.639	313.231
485.378	165.983
490.116	170.469
494.85	181.141
499.582	66.291
504.312	27.9844
509.039	183.516
513.764	286.722
518.486	464.338
523.206	515.537
527.923	568.395
532.638	587.906
537.35	394.469
542.059	398.025
546.766	225.893
551.471	174.033
556.173	212.343
560.873	89.8076
565.57	150.628
570.264	12.9971
574.957	35.749
579.646	9.84277
584.333	245.744
589.018	146.337
593.7	163.509
598.379	28.4004
603.056	137.047
607.73	117.566
612.402	71.1143
617.072	251.78
621.739	228.745
626.403	203.276
631.065	243.305
635.724	358.745
640.381	249.486
645.035	366.343
649.687	291.397
654.336	441.375
658.983	169.92
663.627	380.655
668.268	154.784
672.907	193.594
677.544	260.198
682.178	277.704
686.809	188.056
691.438	390.415
696.065	505.84
700.688	536.332
705.31	575.881
709.929	747.055
714.545	827.356
719.158	1058.03
723.77	1051.52
728.378	1295.69
732.984	1576.26
737.588	1840.33
742.189	1975.48
746.787	2138.37
751.383	2358.21
755.976	2470.35
760.567	2759.65
765.155	2995.06
769.741	3215.57
774.324	3387.14
778.904	3529.74
783.482	3841.36
788.058	3889.98
792.631	3952.55
797.201	4026.05
801.769	4115.84
806.334	4404.69
810.897	4767.61
815.457	5194.22
820.014	5501.29
824.569	5967.23
829.122	6453.19
833.671	6903.6
838.219	7518.05
842.763	9694.71
847.306	9297.5
851.845	10875.2
856.382	13105.7
860.917	15670.4
865.448	18676.5
869.978	20098.6
874.505	18742.5
879.029	13723.9
883.55	8147.56
888.069	4751.82
892.586	2807.35
897.1	1776.92
901.611	1135.53
906.12	725.644
910.626	548.613
915.129	353.886
919.63	216.845
924.129	100.683
928.625	168.023
933.118	54.9697
937.609	44.3897
942.097	8.68066
946.582	90.1465
951.065	72.625
955.546	89.2939
960.023	152.386
964.499	9.88477
968.971	13.6465
973.441	69.7471
977.909	99.9248
982.374	285.072
986.836	367.109
991.295	429.285
995.753	548.695
1000.21	322.989
1004.66	304.339
1009.11	354.286
1013.55	329.352
1018	281.147
1022.44	343.625
1026.88	320.063
1031.32	327.26
1035.75	477.456
1040.18	383.731
1044.61	446.351
1049.04	504.378
1053.46	570.288
1057.88	622.688
1062.3	646.934
1066.71	556.019
1071.13	685.025
1075.54	708.244
1079.94	618.559
1084.35	582.857
1088.75	486.056
1093.15	376.78
1097.55	400.033
1101.94	432.891
1106.34	331.882
1110.73	381.784
1115.11	248.783
1119.5	274.587
1123.88	294.707
1128.26	179.998
1132.63	246.581
1137.01	219.488
1141.38	103.901
1145.75	101.886
1150.12	66.1577
1154.48	134.134
1158.84	110.616
1163.2	105.765
1167.55	39.915
1171.91	90.3701
1176.26	66.5991
1180.61	132.535
1184.95	114.942
1189.29	31.313
1193.63	21.4658
1197.97	84.0952
1202.31	82.3262
1206.64	11.5435
1210.97	40.2715
1215.29	111.105
1219.62	34.7129
1223.94	9.61963
1228.26	135.935
1232.57	25.5845
1236.89	23.7612
1241.2	40.7417
1245.51	21.8872
1249.81	27.9458
1254.12	74.6421
1258.42	43.7598
1262.72	142.375
1267.01	14.1758
1271.3	79.9477
1275.59	111.894
1279.88	118.688
1284.17	14.9292
1288.45	52.7803
1292.73	145.619
1297.01	162.734
1301.28	50.4902
1305.55	126.866
1309.82	61.2461
1314.09	251.603
1318.35	155.995
1322.61	137.794
1326.87	157.457
1331.13	150.428
1335.38	189.378
1339.63	162.852
1343.88	216.219
1348.12	213.392
1352.37	284.422
1356.61	113.678
1360.85	150.086
1365.08	200.643
1369.31	189.812
1373.54	220.419
1377.77	114.115
1381.99	166.661
1386.22	213.765
1390.43	127.226
1394.65	222.018
1398.87	224.789
1403.08	118.395
1407.29	178.457
1411.49	84.6084
1415.69	205.893
1419.89	41.3711
1424.09	121.724
1428.29	158.271
1432.48	89.7231
1436.67	17.3159
1440.86	67.9062
1445.04	10.1602
1449.23	38.6519
1453.4	19.9863
1457.58	92.2388
1461.76	84.2739
1465.93	102.143
1470.1	34.8242
1474.26	65.4116
1478.43	46.9839
1482.59	23.54
1486.75	48.2856
1490.9	61.4268
1495.06	81.958
1499.21	186.807
1503.35	160.432
1507.5	103.509
1511.64	127.3
1515.78	54.1602
1519.92	86.707
1524.05	22.6689
1528.18	8.39844
1532.31	23.8125
1536.44	117.031
1540.56	135.629
1544.69	172.524
1548.8	89.0713
1552.92	170.803
1557.03	71.374
1561.14	109.89
1565.25	75.7686
1569.36	16.9258
