Measurement: Raman, 514 nm, ccw, Raman Data Processed
Mineral: Columbite-(Fe)
Rruff sample: R060001
Ideal chemistry: Fe^2+^Nb_2_O_6_
Locality: Gypsy mine, Minas Gerais, Brazil
Source: Eric Van Valkenburg
Description: Steel gray fragment with internal red hints
Measured chemistry: (Fe^2+^_0.52_Mn^2+^_0.48_)_Σ=1_(Nb_1.61_Ta_0.39_)_Σ=2_O_6_
Pin_id: L00607
Orientation: Laser parallel to b* (0 1 0). Fiducial mark perpendicular to laser is parallel to c [0 0 1]
Raman shift (cm-1)	intensity
122.827	0
127.763	417.111
132.697	1331.46
137.628	1598.29
142.556	877.731
147.482	373.227
152.405	136.312
157.326	30.2229
162.244	38.3879
167.159	40.9631
172.072	123.872
176.982	102.44
181.89	187.453
186.795	385.573
191.697	633.864
196.597	1136.38
201.494	1674.58
206.389	1417.09
211.281	1364.34
216.17	1104.53
221.057	890.479
225.941	881.129
230.823	1127.61
235.702	1588.92
240.578	2588.28
245.452	3054.28
250.323	2564.1
255.192	1998.33
260.058	1912.42
264.921	2210.21
269.782	2383.68
274.64	1956.39
279.495	1470.02
284.348	1343.51
289.198	1198.36
294.046	909.176
298.891	584.619
303.733	557.389
308.573	831.568
313.41	1412.9
318.245	1875.31
323.077	1458.85
327.906	890.971
332.733	593.003
337.557	329.931
342.379	194.736
347.198	132.372
352.014	110.81
356.828	48.0364
361.639	90.0383
366.447	14.5935
371.253	3.6272
376.056	63.6382
380.857	11.7104
385.655	101.525
390.451	141.069
395.243	97.6528
400.034	137.121
404.821	6.20142
409.606	28.7227
414.389	36.3345
419.168	14.821
423.945	16.6909
428.72	57.9927
433.492	85.917
438.261	117.695
443.028	130.36
447.792	180.121
452.553	183.914
457.312	269.351
462.068	374.096
466.822	548.293
471.573	628.231
476.321	661.322
481.067	799.727
485.81	792.857
490.551	858.886
495.289	771.806
500.024	864.692
504.757	897.296
509.487	1020.9
514.214	1187.44
518.939	1683.41
523.661	2283.44
528.381	2845.07
533.098	2809.18
537.812	2289.72
542.524	1677.32
547.233	1188.13
551.94	785.135
556.644	600.947
561.345	457.762
566.044	342.969
570.74	281.858
575.433	170.212
580.124	74.5974
584.812	90.1602
589.498	7.87329
594.181	52.3477
598.861	56.637
603.539	14.9961
608.214	27.4106
612.887	25.2346
617.557	30.9011
622.224	17.1419
626.889	71.4302
631.551	116.331
636.21	133.846
640.867	165.004
645.521	142.502
650.173	77.3423
654.822	30.6411
659.468	1.34253
664.112	50.425
668.753	143.95
673.392	88.8579
678.028	76.1272
682.661	174.783
687.292	184.912
691.92	182.568
696.545	323.859
701.168	268.87
705.788	256.641
710.406	334.025
715.021	530.976
719.633	541.456
724.243	566.476
728.85	624.849
733.455	731.508
738.056	706.173
742.656	820.893
747.252	883.184
751.846	908.121
756.438	965.05
761.027	1150.65
765.613	1172.63
770.196	1220.39
774.777	1395.39
779.356	1422.8
783.932	1408.6
788.505	1427.81
793.075	1488.39
797.643	1523.79
802.208	1543.69
806.771	1560.39
811.331	1611.45
815.888	1720.85
820.443	1826.97
824.995	1914.51
829.545	2138.68
834.092	2223.12
838.636	2502.78
843.178	2858.73
847.717	3331.87
852.254	4147.88
856.788	5418.25
861.319	7496.93
865.848	11087.1
870.374	16564.3
874.897	21171.2
879.418	17948.3
883.936	10057.8
888.452	5076.88
892.965	2899.65
897.475	1809.97
901.983	1208.53
906.488	817.628
910.99	516.121
915.49	366.46
919.988	229.348
924.482	226.211
928.974	176.155
933.464	108.998
937.951	59.7886
942.435	52.5715
946.917	53.8123
951.396	8.87207
955.872	37.6038
960.346	5.36719
964.817	27.3721
969.285	23.7061
973.751	1.55371
978.215	2.84741
982.675	69.6038
987.134	0.172119
991.589	37.5466
996.042	53.196
1000.49	43.5745
1004.94	48.0408
1009.38	16.6001
1013.83	25.7993
1018.27	12.0708
1022.7	52.4802
1027.14	32.5789
1031.57	22.7217
1036	65.0059
1040.43	76.72
1044.85	117.557
1049.27	114.47
1053.69	119.232
1058.11	114.72
1062.52	99.1743
1066.93	130.071
1071.34	143.256
1075.75	127.353
1080.15	154.978
1084.55	106.911
1088.95	153.413
1093.35	184.217
1097.74	95.365
1102.13	152.806
1106.52	154.1
1110.9	119.941
1115.28	58.4021
1119.66	79.3259
1124.04	77.2375
1128.41	77.4085
1132.79	29.5427
1137.16	39.2766
1141.52	31.0608
1145.89	98.3975
1150.25	16.769
1154.61	66.7297
1158.96	24.8147
1163.32	27.0217
1167.67	50.3337
1172.02	114.029
1176.36	135.074
1180.71	53.917
1185.05	106.584
1189.38	37.4822
1193.72	86.5815
1198.05	33.6562
1202.38	1.61133
1206.71	22.2234
1211.04	73.5198
1215.36	6.02344
1219.68	78.6404
1224	30.1548
1228.31	33.4275
1232.62	91.8374
1236.93	21.3457
1241.24	40.1216
1245.54	24.6694
1249.84	18.4114
1254.14	16.3686
1258.44	90.9377
1262.73	61.5947
1267.03	21.501
1271.31	93.8887
1275.6	4.35449
1279.88	22.0249
1284.16	30.647
1288.44	3.83276
1292.72	64.8354
1296.99	71.4583
1301.26	11.5784
1305.53	34.3213
1309.79	22.6389
1314.06	7.53809
1318.32	60.1804
1322.57	85.6338
1326.83	38.4937
1331.08	66.491
1335.33	8.36523
1339.58	39.9119
1343.82	5.37061
1348.06	43.5913
1352.3	14.9233
1356.54	35.1748
1360.77	30.2981
1365.01	43.3633
1369.23	30.3047
1373.46	97.3555
1377.68	87.4734
1381.9	84.5061
1386.12	0.590088
1390.34	34.3474
1394.55	12.0371
1398.76	68.436
1402.97	31.8994
1407.18	100.48
1411.38	48.3315
1415.58	101.841
1419.78	53.9458
1423.97	66.8774
1428.17	71.4185
1432.36	73.6067
1436.54	114.299
1440.73	91.5283
1444.91	135.644
1449.09	84.7273
1453.27	114.151
1457.44	160.921
1461.61	99.6038
1465.78	149.432
1469.95	146.067
1474.11	73.1824
1478.27	117.335
1482.43	87.1836
1486.59	74.3008
1490.74	50.563
1494.89	114.837
1499.04	31.0376
1503.19	27.3623
1507.33	127.647
1511.47	56.9233
1515.61	88.188
1519.75	100.177
1523.88	106.506
1528.01	101.615
1532.14	92.6001
1536.26	34.2607
1540.38	50.917
1544.51	1.80322
1548.62	123.738
1552.74	199.926
1556.85	19.3552
1560.96	24.2891
