Measurement: Raman, 514 nm, ccw, Raman Data Processed
Mineral: Columbite-(Fe)
Rruff sample: R060001
Ideal chemistry: Fe^2+^Nb_2_O_6_
Locality: Gypsy mine, Minas Gerais, Brazil
Source: Eric Van Valkenburg
Description: Steel gray fragment with internal red hints
Measured chemistry: (Fe^2+^_0.52_Mn^2+^_0.48_)_Σ=1_(Nb_1.61_Ta_0.39_)_Σ=2_O_6_
Pin_id: L01130
Orientation: Laser parallel to a* (1 0 0). Fiducial mark perpendicular to laser is parallel to -b [0 -1 0]
Raman shift (cm-1)	intensity
120.358	0
125.295	9.07129
130.23	887.64
135.163	1337.52
140.092	1450.31
145.019	563.432
149.944	546.846
154.866	382.503
159.785	317.268
164.702	545.396
169.616	298.595
174.528	491.511
179.437	495.269
184.343	699.532
189.247	964.048
194.148	1346.94
199.046	1731.83
203.942	1768.13
208.835	1504.08
213.726	1240.91
218.614	1226.61
223.5	971.656
228.382	1010.79
233.263	1226.8
238.14	1811.04
243.015	2222.61
247.888	2227.73
252.758	2015.23
257.625	2032.97
262.49	1846.8
267.352	1992.32
272.211	1853.2
277.068	1408.46
281.922	1181.96
286.773	1079.14
291.622	764.702
296.469	657.167
301.312	674.307
306.154	715.939
310.992	982.904
315.828	1308.14
320.661	1268.86
325.492	1089.76
330.32	647.797
335.145	463.804
339.968	323.604
344.789	358.151
349.606	320.427
354.421	62.4316
359.234	149.139
364.043	3.94434
368.851	46.4004
373.655	100.087
378.457	31.2793
383.256	97.1631
388.053	49.6777
392.847	103.766
397.639	34.5586
402.428	41.8486
407.214	45.7783
411.998	6.42969
416.779	8.25
421.557	171.293
426.333	82.7031
431.106	162.861
435.877	264.771
440.645	295.426
445.41	240.815
450.173	274.143
454.933	299.178
459.691	502.454
464.446	577.566
469.198	634.332
473.948	685.259
478.695	951.081
483.439	1006.35
488.181	1018.05
492.92	1022.45
497.657	1154.58
502.391	1244.57
507.122	1295.22
511.851	1520.63
516.577	1771.75
521.301	2120.36
526.022	2398.58
530.74	2646.59
535.456	2616.18
540.169	2545.17
544.879	2021.64
549.587	2093.53
554.292	1849.15
558.995	1864.2
563.695	1713.73
568.392	1791.35
573.087	1626.53
577.779	965.279
582.469	267.206
587.156	124.286
591.84	61.4463
596.522	52.2529
601.201	98.7168
605.877	28.377
610.551	22.2383
615.222	82.8193
619.891	81.5059
624.557	47.4219
629.22	9.61816
633.881	79.1269
638.539	101.965
643.195	168.93
647.848	125.995
652.498	21.5615
657.145	190.785
661.791	223.362
666.433	289.751
671.073	350.825
675.71	198.637
680.345	421.258
684.977	481.805
689.606	454.208
694.233	536.423
698.857	691.657
703.478	696.688
708.097	967.409
712.714	892.712
717.327	999.584
721.938	1085.02
726.547	1149.08
731.153	1306.45
735.756	1576.95
740.356	1761.68
744.954	1815.78
749.55	2129.92
754.142	2138.24
758.733	2476.36
763.32	2658.55
767.905	2734.53
772.487	2897.04
777.067	3044.05
781.644	3259.58
786.218	3304.6
790.79	3400.78
795.359	3476.77
799.926	3462.01
804.49	3379.86
809.051	3424.78
813.61	3485.87
818.166	3537.82
822.72	3685.58
827.271	3800
831.819	3994.29
836.365	4113.38
840.908	4366.02
845.448	4622.05
849.986	4992.47
854.521	5881.02
859.054	7058.97
863.584	8688.65
868.111	11193.7
872.636	14525.2
877.158	14680.1
881.677	10611.9
886.194	5961.07
890.709	2970.82
895.22	1637.63
899.729	1320.23
904.236	671.388
908.74	439.572
913.241	372.914
917.739	335
922.235	161.175
926.729	13.2549
931.219	58.1553
935.708	76.918
940.193	82.5352
944.676	51.6006
949.156	59.7256
953.634	25.374
958.109	104.876
962.582	6.95606
967.051	90.4912
971.519	83.3013
975.983	90.3892
980.445	13.2739
984.905	41.3438
989.362	112.547
993.816	53.9624
998.267	174.994
1002.72	133.606
1007.16	74.7158
1011.61	211.465
1016.05	106.88
1020.49	104.165
1024.92	106.996
1029.36	46.6865
1033.79	225.727
1038.21	150.71
1042.64	187.273
1047.06	251.44
1051.48	120.358
1055.9	382.948
1060.32	231.292
1064.73	237.218
1069.14	326.609
1073.55	337.923
1077.95	265.422
1082.35	220.238
1086.75	267.035
1091.15	127.493
1095.54	284.968
1099.93	224.806
1104.32	164.595
1108.71	179.751
1113.09	81.2519
1117.47	195.828
1121.85	192.769
1126.23	193.859
1130.6	147.862
1134.97	124.751
1139.34	187.052
1143.7	209.493
1148.07	111.444
1152.43	144.615
1156.79	64.4482
1161.14	65.2539
1165.49	13.812
1169.84	143.486
1174.19	125.351
1178.54	105.74
1182.88	146.784
1187.22	73.9487
1191.55	12.0469
1195.89	132.901
1200.22	107.444
1204.55	42.9473
1208.87	6.48877
1213.2	48.2529
1217.52	119.825
1221.84	15.2622
1226.15	84.3872
1230.47	15.874
1234.78	8.98828
1239.09	95.0054
1243.39	58.0791
1247.69	4.06006
1251.99	129.337
1256.29	70.144
1260.59	13.0229
1264.88	44.1299
1269.17	79.9526
1273.46	17.1885
1277.74	68.0879
1282.02	71.7056
1286.3	78.6216
1290.58	179.96
1294.86	23.5303
1299.13	30.5176
1303.39	46.7524
1307.66	45.6152
1311.93	146.42
1316.19	7.20166
1320.45	116.135
1324.7	95.7827
1328.96	87.7114
1333.21	177.927
1337.45	132.455
1341.7	69.3906
1345.94	41.7456
1350.18	119.729
1354.42	66.5054
1358.66	138.205
1362.89	96.8428
1367.12	94.9893
1371.35	112.575
1375.57	23.6235
1379.8	5.66357
1384.02	111.23
1388.23	121.486
1392.45	89.9253
1396.66	45.8325
1400.87	42.5571
1405.08	162.837
1409.28	9.19482
1413.48	82.313
1417.68	26.2598
1421.88	138.535
1426.07	79.938
1430.26	104.298
1434.45	72.5791
1438.64	201.714
1442.82	0.300781
1447	73.3394
1451.18	118.809
1455.35	195.3
1459.53	3.63525
1463.7	6.21387
1467.87	157.882
1472.03	13.5884
1476.19	117.431
1480.35	108.194
1484.51	48.0391
1488.67	103.598
1492.82	104.36
1496.97	107.08
1501.12	167.618
1505.26	165.893
1509.4	180.287
1513.54	32.0132
1517.68	75.499
1521.81	64.5732
1525.94	79.666
1530.07	48.2407
1534.2	169.593
1538.32	76.6738
1542.44	157.308
1546.56	59.2559
1550.68	74.5806
1554.79	337.707
1558.9	1.52881
1563.01	0
