Measurement: Raman, 514 nm, ccw, Raman Data Processed
Mineral: Cordierite
Rruff sample: R040084
Ideal chemistry: Mg_2_Al_4_Si_5_O_18_
Locality: Norway
Source: University of Arizona Mineral Museum
Description: Purple coarsely crystalline massive
Measured chemistry: (Mg_1.88_Fe^2+^_0.11_Ca_0.01_)_Σ=2_(Al_3.95_Fe^3+^_0.05_)_Σ=4_(Si_4.96_Al_0.04_)_Σ=5_O_18_·0.90H_2_O·Na_0.04_ ; H_2_O estimated by difference and verified by Raman spectroscopy
Pin_id: L00497
Orientation: Laser parallel to b* (0 1 0). Fiducial mark perpendicular to laser is parallel to c [0 0 1]
Raman shift (cm-1)	intensity
105.212	0
109.387	235.388
113.559	492.31
117.729	844.881
121.897	1297.65
126.063	2456.81
130.228	2547.35
134.39	1340.6
138.55	542.123
142.709	284.57
146.865	268.783
151.019	397.099
155.171	761.756
159.322	1060.7
163.47	512.726
167.617	235.047
171.761	183.6
175.904	1.621
180.044	22.989
184.183	10.996
188.319	92.332
192.454	160.948
196.586	212.599
200.717	235.505
204.846	631.442
208.972	903.344
213.097	439.196
217.22	40.153
221.341	93.368
225.46	114.695
229.577	10.128
233.692	219.475
237.805	1128.71
241.916	1525.78
246.025	997.609
250.132	1200.53
254.237	2774.17
258.34	6954.72
262.442	7280.06
266.541	3025.93
270.639	1003.1
274.734	426.497
278.828	333.742
282.919	179.597
287.009	270.797
291.097	655.827
295.183	1012.45
299.266	1043.72
303.348	1241.76
307.428	1530.46
311.507	885.317
315.583	206.785
319.657	114.105
323.729	273.267
327.8	600.167
331.868	227.104
335.935	35.686
339.999	17.929
344.062	0.354
348.123	113.836
352.182	187.571
356.239	357.554
360.294	698.037
364.347	1250.05
368.398	1712.1
372.448	934.031
376.495	535.672
380.54	314.118
384.584	254.323
388.626	67.701
392.666	85.679
396.704	26.784
400.74	5.331
404.774	22.208
408.806	70.157
412.836	19.832
416.865	70.888
420.891	13.458
424.916	92.261
428.939	104.174
432.959	103.712
436.978	92.738
440.996	36.556
445.011	13.951
449.024	29.206
453.036	163.124
457.045	219.828
461.053	373.351
465.059	728.726
469.063	1099.93
473.065	1261.96
477.065	1139.34
481.063	1250.51
485.06	1935.84
489.054	2946.25
493.047	2537.57
497.038	1269.29
501.027	589.869
505.014	311.406
508.999	213.226
512.982	100.06
516.964	76.946
520.944	99.718
524.921	152.396
528.897	108.004
532.871	247.508
536.844	363.875
540.814	590.112
544.783	1247.26
548.749	2774.73
552.714	5877.98
556.677	7281.78
560.638	5146.98
564.597	3304
568.555	3173.4
572.511	4407.01
576.464	6848.78
580.416	7182.89
584.366	4688.49
588.315	2439.98
592.261	1339.73
596.206	834.436
600.148	526.328
604.089	292.317
608.028	349.135
611.965	297.726
615.901	322.439
619.834	508.36
623.766	640.631
627.696	529.042
631.624	370.102
635.551	184.713
639.475	141.031
643.398	109.717
647.318	187.571
651.237	268.316
655.155	352.211
659.07	472.069
662.984	1039.92
666.895	2298.82
670.805	4032.74
674.713	3453.73
678.62	1895.66
682.524	1006.26
686.427	520.659
690.328	364.711
694.227	419.267
698.124	318.974
702.02	497.398
705.913	611.646
709.805	790.96
713.695	852.283
717.584	757.035
721.47	365.109
725.355	399.027
729.238	349.998
733.119	770.057
736.998	1189.27
740.876	1096.46
744.752	739.58
748.626	420.621
752.498	279.583
756.368	254.494
760.237	127.41
764.104	30.268
767.969	56.633
771.832	34.271
775.693	18.236
779.553	22.582
783.411	26.78
787.267	18.136
791.122	32.801
794.974	25.633
798.825	22.659
802.674	1.837
806.522	3.158
810.367	11.623
814.211	66.549
818.053	87.307
821.893	46.974
825.732	33.596
829.568	4.354
833.403	52.272
837.236	35.575
841.068	13.262
844.898	37.887
848.726	19.438
852.552	27.906
856.376	20.305
860.199	114.619
864.02	114.824
867.839	33.953
871.656	18.025
875.472	165.043
879.286	125.251
883.098	240.925
886.909	358.791
890.717	657.607
894.524	935.373
898.33	1836.09
902.133	2777.76
905.935	1769.39
909.735	1036.97
913.533	742.512
917.33	772.669
921.124	956.781
924.918	715.362
928.709	538.806
932.499	374.411
936.286	374.926
940.073	374.969
943.857	325.432
947.64	439.598
951.421	665.617
955.2	707.661
958.978	1092.26
962.753	1811.69
966.527	3486.59
970.3	6237.64
974.071	8489.83
977.84	4396.12
981.607	1876.44
985.372	1019.56
989.136	609.797
992.898	579.194
996.659	754.614
1000.42	964.774
1004.17	1555.85
1007.93	3467.1
1011.68	6227.69
1015.43	4487.06
1019.18	2038.8
1022.93	1060.57
1026.68	552.591
1030.42	383.646
1034.17	191.779
1037.91	272.994
1041.65	209.26
1045.39	118.629
1049.12	242.093
1052.86	130.617
1056.59	157.19
1060.33	141.822
1064.06	150.515
1067.78	131.388
1071.51	115.26
1075.23	135.599
1078.96	118.648
1082.68	48.719
1086.4	106.775
1090.12	90.777
1093.83	54.568
1097.55	108.522
1101.26	93.542
1104.97	186.916
1108.68	400.263
1112.39	273.632
1116.1	177.355
1119.8	81.409
1123.5	405.152
1127.2	218.786
1130.9	162.432
1134.6	156.815
1138.3	99.076
1141.99	104.591
1145.69	181.424
1149.38	176.802
1153.07	132.178
1156.76	368.171
1160.44	357.273
1164.13	415.433
1167.81	413.118
1171.49	607.528
1175.17	1192
1178.85	2235.99
1182.52	4105.9
1186.2	5252.01
1189.87	3381.38
1193.54	1660.34
1197.21	976.048
1200.88	480.371
1204.55	436.523
1208.21	191.188
1211.88	246.403
1215.54	199.984
1219.2	74.253
1222.86	167.736
1226.51	100.77
1230.17	16.349
1233.82	6.125
1237.47	128.407
1241.12	190.553
1244.77	112.55
1248.42	124.203
1252.06	185.442
1255.71	206.84
1259.35	77.33
1262.99	27.737
1266.63	107.945
1270.26	489.594
1273.9	479.246
1277.53	247.454
1281.16	166.602
1284.8	119.115
1288.42	66.828
1292.05	32.573
1295.68	33.083
1299.3	48.245
1302.92	165.339
1306.55	72.062
1310.16	218.309
1313.78	134.038
1317.4	59.406
1321.01	65.895
1324.62	39.296
1328.24	5.515
1331.85	23.134
1335.45	64.385
1339.06	205.339
1342.66	86.015
1346.27	246.222
1349.87	215.717
1353.47	3.215
1357.07	61.019
1360.66	37.221
1364.26	56.352
1367.85	175.008
1371.44	242.83
1375.04	241.567
1378.62	328.638
1382.21	1732.25
1385.8	2054.79
1389.38	509.153
1392.96	252.787
1396.54	174.745
1400.12	175.797
1403.7	321.364
1407.28	155.754
1410.85	276.609
1414.42	236.239
1417.99	118.14
1421.56	160.787
1425.13	133.746
1428.7	3.758
1432.26	57.622
1435.83	59.617
1439.39	61.931
1442.95	245.643
1446.51	252.656
1450.06	283.21
1453.62	213.083
1457.17	287.86
1460.73	246.137
1464.28	156.978
1467.83	14.965
1471.37	0
