Measurement: Raman, 514 nm, ccw, Raman Data Processed
Mineral: Cordierite
Rruff sample: R040082
Ideal chemistry: Mg_2_Al_4_Si_5_O_18_
Locality: Madagascar
Source: University of Arizona Mineral Museum
Description: Dark gray coarsely crystalline massive
Measured chemistry: (Mg_1.60_Fe^2+^_0.39_Mn_0.01_)_Σ=2_Al_4.00_(Si_4.95_Al_0.05_)_Σ=5_O_18_·1.05H_2_O·Na_0.05_ ; H_2_O estimated by difference and verified by Raman spectroscopy
Pin_id: M00024
Orientation: Laser parallel to -b* (0 -1 0). Fiducial mark perpendicular to laser is parallel to -a [-1 0 0]
Raman shift (cm-1)	intensity
86.404	0
90.587	371.566
94.768	233.688
98.947	355.285
103.124	586.312
107.3	1467.33
111.473	3840.55
115.644	10432.1
119.813	13314.6
123.981	5662.63
128.146	1592.16
132.309	729.554
136.47	398.31
140.63	512.131
144.787	794.129
148.942	1970.01
153.096	4716.36
157.247	6355.65
161.396	3228.83
165.544	984.049
169.689	105.016
173.833	45.199
177.974	180.453
182.114	273.126
186.251	316.379
190.387	180.292
194.52	126.9
198.652	29.939
202.782	33.716
206.909	28.974
211.035	218.802
215.159	148.75
219.281	24.328
223.4	246.088
227.518	895.959
231.634	2712.42
235.748	5197.57
239.86	5727.34
243.97	4289.08
248.079	3984.85
252.185	5972.26
256.289	11040.5
260.391	12104.8
264.492	4861.23
268.59	2101.02
272.687	1630.81
276.781	1894.36
280.874	2812.52
284.964	5408.12
289.053	10307
293.14	14362.1
297.225	11911.4
301.308	7501.11
305.389	4161.06
309.468	2120.07
313.545	1450.93
317.62	1299.75
321.693	1493.67
325.765	1615.05
329.834	955.802
333.902	576.934
337.967	371.967
342.031	436.717
346.093	688.971
350.153	903.88
354.21	691.106
358.267	940.669
362.321	2103.66
366.373	3083.56
370.423	1354.9
374.471	470.668
378.518	24.94
382.563	194.53
386.605	205.813
390.646	225.196
394.685	317.587
398.722	170.842
402.757	181.938
406.79	34.936
410.821	516.902
414.851	1509.04
418.878	4017.82
422.904	9081.16
426.927	12604
430.949	7306.48
434.969	3329.45
438.987	1698.97
443.003	1008.04
447.018	972.673
451.03	1157.88
455.041	1240.68
459.049	713.083
463.056	474.098
467.061	572.74
471.064	776.893
475.065	861.967
479.064	986.597
483.062	993.937
487.057	1104
491.051	892.791
495.043	665.702
499.032	656.31
503.02	521.742
507.007	633.037
510.991	755.771
514.973	861.427
518.954	1032.6
522.933	1403.37
526.91	1645.64
530.885	2197.11
534.858	3553.83
538.829	5710.56
542.799	9336.35
546.766	18793.6
550.732	35292.2
554.696	43118.3
558.658	32205.8
562.618	23589.8
566.576	18759.5
570.533	19109.7
574.488	23914.4
578.44	23219.2
582.391	15238.2
586.341	8983.36
590.288	5799.7
594.233	4118.21
598.177	3113.92
602.119	2511.82
606.059	2231.92
609.997	2220.22
613.933	2532.73
617.868	2815.46
621.801	2849.41
625.731	2082.58
629.66	1627.97
633.588	1310.6
637.513	991.457
641.437	1177.55
645.358	1437.95
649.278	1653.6
653.196	2192.29
657.113	3153.72
661.027	5627.04
664.94	10656.6
668.851	16452.8
672.76	13196.4
676.667	6641.71
680.572	3297.95
684.476	2315.84
688.378	1913.1
692.278	1252.16
696.176	1345.72
700.072	1631.29
703.967	2387.6
707.86	3619.82
711.751	5823.01
715.64	3866.14
719.527	3855.31
723.413	4168.95
727.297	2871.83
731.179	1875.77
735.059	1373.74
738.937	1126.74
742.814	956.767
746.689	867.813
750.562	876.876
754.433	650.947
758.303	557.021
762.17	350.094
766.036	393.159
769.901	297.915
773.763	241.244
777.624	345.252
781.482	350.229
785.339	337.173
789.195	252.076
793.048	218.933
796.9	193.738
800.75	76.484
804.598	24.835
808.445	70.285
812.289	93.128
816.132	139.641
819.973	131.957
823.813	166.006
827.65	216.11
831.486	289.485
835.32	153.18
839.152	103.896
842.983	34.232
846.812	8.957
850.639	113.742
854.464	133.329
858.288	202.733
862.11	157.012
865.93	283.151
869.748	46.139
873.564	231.955
877.379	367.602
881.192	450.071
885.004	467.363
888.813	650.481
892.621	850.425
896.427	1218.2
900.232	1541.8
904.034	1324.23
907.835	1220.5
911.634	977.6
915.432	920.542
919.227	989.326
923.021	1035.95
926.813	1104.42
930.604	1226.74
934.393	1307.94
938.18	1534.08
941.965	2033.11
945.749	3139.99
949.53	5000.75
953.311	5271.35
957.089	4576.21
960.866	5293.95
964.641	8738.61
968.414	16607.8
972.185	21761.5
975.955	11756.1
979.723	5518.48
983.49	2740.8
987.254	1777.56
991.017	1469.46
994.779	1336.56
998.538	1239.34
1002.3	1640.61
1006.05	1479.18
1009.81	2191.95
1013.56	2238.8
1017.31	2009.71
1021.06	1496.47
1024.81	974.519
1028.55	876.64
1032.3	574.838
1036.04	555.122
1039.78	510.539
1043.52	471.119
1047.26	314.939
1050.99	356.055
1054.73	265.308
1058.46	304.708
1062.19	335.323
1065.92	171.121
1069.65	152.067
1073.37	183.211
1077.1	253.474
1080.82	329.221
1084.54	307.153
1088.26	356.643
1091.97	457.338
1095.69	764.781
1099.4	1349.57
1103.12	2335.68
1106.83	3689.74
1110.54	3591.94
1114.24	2383.37
1117.95	1348.61
1121.65	1187.26
1125.35	622.021
1129.06	470.48
1132.75	370.562
1136.45	270.975
1140.15	279.64
1143.84	328.582
1147.53	497.021
1151.22	658.028
1154.91	1002.09
1158.6	1033
1162.28	1079.85
1165.97	1254.39
1169.65	1788.52
1173.33	2870.85
1177.01	4968.54
1180.69	7560.7
1184.36	8088.33
1188.04	5633.06
1191.71	3415.14
1195.38	1833.85
1199.05	1187.38
1202.71	596.772
1206.38	373.125
1210.04	277.165
1213.71	145.313
1217.37	247.088
1221.03	19.174
1224.68	51.617
1228.34	30.217
1231.99	42.988
1235.65	25.893
1239.3	50.73
1242.95	5.772
1246.59	74.07
1250.24	25.185
1253.88	14.603
1257.53	33.051
1261.17	19.88
1264.81	28.091
1268.45	187.798
1272.08	125.398
1275.72	235.126
1279.35	178.525
1282.98	92.312
1286.61	30.848
1290.24	2.976
1293.87	106.242
1297.49	155.415
1301.11	121.275
1304.73	64.304
1308.36	83.055
1311.97	100.535
1315.59	154.739
1319.2	265.654
1322.82	258.267
1326.43	182.559
1330.04	14.513
1333.65	53.983
1337.26	44.858
1340.86	61.796
1344.47	58.057
1348.07	73.019
1351.67	9.645
1355.27	58.048
1358.87	51.972
1362.46	57.788
1366.06	104.438
1369.65	87.069
1373.24	156.618
1376.83	103.566
1380.42	793.881
1384	1742
1387.59	453.749
1391.17	187.358
1394.75	117.171
1398.33	275.285
1401.91	237.004
1405.49	174.561
1409.06	152.655
1412.64	184.454
1416.21	252.201
1419.78	284.142
1423.35	401.625
1426.91	241.359
1430.48	239.987
1434.05	283.102
1437.61	498.305
1441.17	480.555
1444.73	815.1
1448.29	858.322
1451.84	877.603
1455.4	958.469
1458.95	951.737
1462.5	808.588
1466.05	779.476
1469.6	464.916
1473.15	408.655
1476.69	343.396
1480.24	441.81
1483.78	270.263
1487.32	229.698
1490.86	126.569
1494.39	203.662
1497.93	106.294
1501.46	17.208
1505	59.299
1508.53	114.623
1512.06	171.498
1515.59	256.179
