Measurement: Raman, 514 nm, ccw, Raman Data Processed
Mineral: Cordierite
Rruff sample: R040084
Ideal chemistry: Mg_2_Al_4_Si_5_O_18_
Locality: Norway
Source: University of Arizona Mineral Museum
Description: Purple coarsely crystalline massive
Measured chemistry: (Mg_1.88_Fe^2+^_0.11_Ca_0.01_)_Σ=2_(Al_3.95_Fe^3+^_0.05_)_Σ=4_(Si_4.96_Al_0.04_)_Σ=5_O_18_·0.90H_2_O·Na_0.04_ ; H_2_O estimated by difference and verified by Raman spectroscopy
Pin_id: L00443
Orientation: Laser parallel to a* (1 0 0). Fiducial mark perpendicular to laser is parallel to -b [0 -1 0]
Raman shift (cm-1)	intensity
90.65	0
94.838	76.332
99.023	54.657
103.206	374.941
107.387	1154.18
111.566	3421.76
115.744	2587.38
119.919	2211.19
124.092	3456.66
128.263	4361.1
132.432	3112.85
136.599	1631.22
140.764	1424.85
144.927	1172.6
149.088	1313.64
153.247	2217.36
157.404	3003.44
161.559	2081.22
165.711	880.651
169.862	562.87
174.011	409.999
178.158	286.263
182.303	300.75
186.446	558.374
190.587	628.291
194.726	898.23
198.862	1018.24
202.997	1178.35
207.13	1318.6
211.261	848.961
215.39	529.446
219.517	140.028
223.642	7.316
227.765	61.387
231.886	152.12
236.005	722.862
240.122	1273.18
244.237	1313.37
248.35	1155.19
252.461	2448.45
256.57	7176.98
260.677	11692.1
264.782	5767.56
268.885	2273.5
272.986	1130.82
277.085	773.84
281.182	908.271
285.278	1166.88
289.371	2235.89
293.462	3884.86
297.552	4414.3
301.639	4584.1
305.724	5594.19
309.808	4234.5
313.889	1314.97
317.969	515.564
322.046	926.243
326.122	2436.98
330.196	1487.74
334.267	578.502
338.337	349.193
342.405	249.771
346.471	260.226
350.535	440.553
354.597	690.748
358.657	780.811
362.715	680.738
366.771	470.529
370.825	230.181
374.877	179.69
378.928	169.054
382.976	41.733
387.023	77.219
391.067	63.941
395.11	15.391
399.15	57.124
403.189	49.276
407.226	51.973
411.261	65.481
415.294	210.006
419.325	24.261
423.354	71.945
427.381	18.773
431.406	24.161
435.43	166.946
439.451	69.516
443.471	61.723
447.488	93.676
451.504	125.466
455.518	237.091
459.53	228.553
463.54	409.878
467.548	671.047
471.554	922.036
475.558	952.847
479.561	893.494
483.561	953.968
487.559	1564.28
491.556	1694.41
495.551	924.405
499.544	526.129
503.535	224.05
507.524	147.219
511.511	153.445
515.496	203.117
519.48	282.758
523.461	412.4
527.441	591.988
531.418	811.567
535.394	1391.02
539.368	2190.36
543.34	3976.31
547.311	8125.12
551.279	16738
555.245	24818.2
559.21	17974.6
563.173	10494.7
567.133	7997.81
571.092	9107.69
575.049	13262.3
579.005	15235.7
582.958	10817.1
586.909	5581.53
590.859	2977.59
594.807	1983.41
598.753	1383.08
602.697	1102.56
606.639	889.439
610.579	936.147
614.518	1133.34
618.454	1560.47
622.389	1841.11
626.322	1848.13
630.253	1225.09
634.182	872.951
638.109	550.287
642.035	391.044
645.958	576.633
649.88	483.344
653.8	1198.44
657.718	1690.04
661.634	2907.74
665.549	5846.85
669.461	11103.8
673.372	12100.2
677.281	6861.24
681.188	3596.66
685.093	2018.73
688.997	1470.37
692.898	1050.87
696.798	1067.84
700.696	893.678
704.592	1049.47
708.486	1747.59
712.378	2153.41
716.269	1869.29
720.158	1335.34
724.045	1164.88
727.93	891.34
731.813	698.083
735.694	855.097
739.574	952.326
743.452	799.75
747.328	517.156
751.202	524.537
755.075	391.941
758.945	229.409
762.814	256.843
766.681	104.225
770.546	131.553
774.409	41.175
778.271	85.942
782.131	153.002
785.989	20.009
789.845	6.946
793.699	103.791
797.552	20.543
801.402	37.205
805.251	56.188
809.098	30.178
812.944	36.372
816.787	102.338
820.629	7.991
824.469	46.755
828.307	56.113
832.144	57.348
835.978	83.198
839.811	110.604
843.642	64.124
847.472	57.54
851.299	220.884
855.125	144.2
858.949	337.506
862.771	100.76
866.591	239.635
870.41	297.205
874.227	59.58
878.042	183.539
881.855	386.651
885.667	359.756
889.476	452.854
893.284	735.939
897.09	1219.02
900.895	2152.08
904.698	2345.14
908.499	958.203
912.298	751.26
916.095	684.377
919.891	1047.53
923.685	850.691
927.477	600.379
931.267	653.479
935.056	506.684
938.843	629.771
942.628	701.723
946.411	875.02
950.193	976.066
953.973	1338.92
957.751	1387.95
961.527	2367.36
965.302	3865.93
969.075	7728.38
972.846	14869.1
976.615	9418.92
980.383	4042.89
984.149	2502.02
987.913	1905.33
991.675	1939.8
995.436	2308.93
999.195	3262.24
1002.95	5738.57
1006.71	11753.6
1010.46	24328.9
1014.21	20852.1
1017.96	10057.7
1021.71	4933.53
1025.46	2796.09
1029.2	1622.16
1032.95	1238.37
1036.69	814.715
1040.43	971.184
1044.17	797.789
1047.9	754.604
1051.64	743.242
1055.37	688.889
1059.1	676.232
1062.83	408.33
1066.56	358.188
1070.29	456.15
1074.01	424.121
1077.73	412.127
1081.46	260.729
1085.17	159.605
1088.89	148.092
1092.61	278.672
1096.32	207.803
1100.04	227.049
1103.75	486.613
1107.46	628.588
1111.16	697.963
1114.87	387.996
1118.57	307.719
1122.28	337.926
1125.98	47.816
1129.67	278.686
1133.37	133.336
1137.07	261.873
1140.76	5.85
1144.45	113.264
1148.14	98.275
1151.83	226.451
1155.52	242.688
1159.21	190.811
1162.89	403.174
1166.57	416.23
1170.25	278.199
1173.93	430.373
1177.61	795.248
1181.28	1498.28
1184.96	2010.52
1188.63	1413.45
1192.3	772.273
1195.97	263.512
1199.64	318.922
1203.3	150.016
1206.97	90.732
1210.63	211.785
1214.29	162.391
1217.95	254.324
1221.6	74.77
1225.26	12.172
1228.91	15.02
1232.57	184.324
1236.21	113.006
1239.86	281.334
1243.51	309.549
1247.16	268.018
1250.8	3.967
1254.44	114.014
1258.08	41.938
1261.72	119.85
1265.36	87.455
1268.99	435.324
1272.63	301.428
1276.26	396.883
1279.89	263.082
1283.52	78.578
1287.15	126.324
1290.77	15.295
1294.4	13.936
1298.02	119.273
1301.64	153.854
1305.26	156.283
1308.88	17.777
1312.49	258.938
1316.11	109.76
1319.72	0.211
1323.33	50.25
1326.94	111.756
1330.55	129.111
1334.15	57.941
1337.76	178.891
1341.36	156.785
1344.96	304.225
1348.56	121.318
1352.16	128.332
1355.75	150.207
1359.35	13.949
1362.94	163.117
1366.53	288.42
1370.12	36.881
1373.71	306.629
1377.3	560.17
1380.88	771.607
1384.46	1329.5
1388.05	722.268
1391.63	293.43
1395.2	274.748
1398.78	245.416
1402.36	170.914
1405.93	380.916
1409.5	271.43
1413.07	479.326
1416.64	451.656
1420.21	449.996
1423.78	429.732
1427.34	427.842
1430.9	142.477
1434.46	164.85
1438.02	23.805
1441.58	269.166
1445.13	521.797
1448.69	443.77
1452.24	501.285
1455.79	666.982
1459.34	740.807
1462.89	643.295
1466.44	1002.49
1469.98	415.889
1473.53	276.404
1477.07	34.314
1480.61	424.576
1484.14	366.348
1487.68	542.268
1491.22	618.395
1494.75	715.717
1498.28	557.594
1501.81	486.936
1505.34	498.463
1508.87	469.961
1512.4	184.633
1515.92	81.002
