Measurement: Raman, 514 nm, ccw, Raman Data Processed
Mineral: Cordierite
Rruff sample: R040081
Ideal chemistry: Mg_2_Al_4_Si_5_O_18_
Locality: Laramie Range, Wyoming, USA
Source: University of Arizona Mineral Museum
Description: Blue to purple coarsely crystalline
Measured chemistry: (Mg_1.80_Fe^2+^_0.20_)_Σ=2_Al_4.00_(Si_4.96_Al_0.04_)_Σ=5_O_18_·0.86H_2_O·Na_0.04_ ; H_2_O estimated by difference and verified by Raman spectroscopy
Pin_id: M00044
Orientation: Laser parallel to -a* (-1 0 0). Fiducial mark perpendicular to laser is parallel to b [0 1 0]
Raman shift (cm-1)	intensity
79.427	0
83.614	248.54
87.798	599.123
91.981	890.187
96.161	558.657
100.34	308.108
104.516	733.346
108.691	685.376
112.864	1150.33
117.034	8106.27
121.203	3648.96
125.369	5053.02
129.534	5583.94
133.696	1819.26
137.857	667.472
142.016	347.03
146.172	698.49
150.327	1814.31
154.48	4419.88
158.63	5288.44
162.779	2121.82
166.926	453.18
171.07	189.966
175.213	144.084
179.354	223.623
183.493	287.325
187.63	350.865
191.765	717.508
195.898	676.181
200.029	305.864
204.158	296.51
208.285	258.107
212.41	27.644
216.533	72.9
220.654	192.545
224.773	190.309
228.891	14.209
233.006	711.541
237.119	2429.51
241.231	2895.47
245.34	2324.67
249.448	3285.06
253.553	8544.89
257.657	20258.1
261.758	18551.7
265.858	6808.29
269.956	3108.27
274.052	1837.18
278.146	1763.44
282.237	2182.61
286.327	3563.66
290.416	6913.88
294.502	9751.08
298.586	9880.82
302.668	11132.6
306.749	12115.4
310.827	6073.18
314.903	2116.65
318.978	1674.63
323.051	3994.5
327.121	5372.29
331.19	2321.96
335.257	1075.49
339.322	624.858
343.385	602.09
347.446	674.081
351.505	895.863
355.563	1203.43
359.618	1101.79
363.672	842.935
367.723	567.864
371.773	267.58
375.821	64.079
379.866	100.667
383.91	93.138
387.952	20.877
391.992	21.18
396.031	86.498
400.067	75.539
404.101	123.217
408.134	19.906
412.165	99.087
416.193	12.83
420.22	30.086
424.245	14.939
428.268	8.582
432.289	45.782
436.309	33.605
440.326	29.277
444.342	24.996
448.355	28.285
452.367	199.906
456.377	213.788
460.385	251.433
464.391	314.939
468.395	590.242
472.398	1042.35
476.398	1315.23
480.397	984.876
484.394	719.315
488.389	679.529
492.382	399.522
496.373	157.322
500.362	184.979
504.349	291.752
508.335	225.709
512.319	411.774
516.3	574.896
520.28	846.005
524.259	1110.09
528.235	1664.04
532.209	2365.79
536.182	3718.34
540.152	6246.76
544.121	12062.1
548.088	24873.5
552.053	46399.8
556.017	50135.8
559.978	32298.7
563.938	22119.1
567.895	20632.2
571.851	26495.9
575.805	35420
579.758	31458.1
583.708	18056.7
587.657	10101.5
591.603	5986.95
595.548	4242.18
599.491	3193.12
603.432	2729.04
607.372	2464.69
611.309	2929.76
615.245	3467.31
619.179	4736.06
623.111	5265.99
627.041	4412.28
630.97	2992.69
634.896	1860.09
638.821	1558.28
642.744	1563.18
646.665	1622.03
650.584	1965.28
654.502	2864.32
658.418	4410.22
662.331	8111.72
666.244	17034.9
670.154	25697.4
674.062	18719.1
677.969	9218.24
681.874	4809.2
685.777	2930.59
689.678	2134.71
693.577	1790.79
697.475	1761.83
701.371	2003.84
705.265	2908.83
709.157	4335.83
713.047	4642.86
716.936	3126.04
720.823	2609.46
724.708	2201.22
728.591	1549.16
732.472	1019.33
736.352	937.721
740.23	851.408
744.106	751.231
747.98	839.249
751.853	760.428
755.723	485.757
759.592	288.334
763.459	106.067
767.325	3.057
771.188	80.834
775.05	0.298
778.91	57.419
782.768	13.113
786.625	64.783
790.479	118.496
794.332	203.243
798.183	20.014
802.033	60.834
805.88	58.688
809.726	14.471
813.57	114.866
817.413	209.949
821.253	125.759
825.092	79.103
828.929	75.854
832.764	54.904
836.598	3.181
840.429	167.558
844.259	290.38
848.088	150.285
851.914	250.277
855.739	483.359
859.562	541.536
863.383	583.811
867.203	454.183
871.02	446.653
874.836	460.225
878.65	487.894
882.463	507.66
886.274	433.525
890.083	686.485
893.89	944.54
897.695	1348.69
901.499	1380.94
905.301	966.279
909.102	868.729
912.9	955.339
916.697	1274.25
920.492	1547.88
924.285	1315.33
928.077	1039.41
931.867	987.386
935.655	976.734
939.442	1234.25
943.226	1339.01
947.009	1582.08
950.791	1953.13
954.57	2396.38
958.348	3237.97
962.124	4961.62
965.899	9728.8
969.671	22620.6
973.442	29104.2
977.211	14922.3
980.979	7116.58
984.745	4717.63
988.509	4385.91
992.271	4634.9
996.032	6206.09
999.791	9906.5
1003.55	17387.1
1007.3	36469.9
1011.06	55099.9
1014.81	36575.1
1018.56	17789.4
1022.31	9459.98
1026.06	5460.7
1029.8	3487.61
1033.55	2431.28
1037.29	1746.94
1041.03	1340.36
1044.77	1104.95
1048.5	1120.74
1052.24	1086.75
1055.97	1122.95
1059.7	1023.24
1063.43	1086.18
1067.16	1309.46
1070.89	1258.11
1074.61	1051.4
1078.34	880.717
1082.06	623.518
1085.78	550.536
1089.5	388.814
1093.21	301.773
1096.93	399.556
1100.64	528.391
1104.35	833.111
1108.06	1127.43
1111.77	1001.46
1115.48	588.102
1119.18	343.138
1122.89	528.401
1126.59	336.99
1130.29	218.83
1133.99	153.869
1137.68	227.027
1141.38	99.826
1145.07	179.378
1148.76	76.767
1152.45	154.55
1156.14	244.701
1159.83	417.971
1163.51	524.073
1167.19	632.144
1170.88	548.177
1174.56	837.167
1178.23	1403.31
1181.91	2116
1185.59	2160.83
1189.26	1418.87
1192.93	564.731
1196.6	362.642
1200.27	148.435
1203.94	211.71
1207.6	48.31
1211.27	117.055
1214.93	57.201
1218.59	84.58
1222.25	82.069
1225.9	7.169
1229.56	59.271
1233.21	45.026
1236.86	68.946
1240.51	49.589
1244.16	16.01
1247.81	30.794
1251.45	99.235
1255.1	48.115
1258.74	54.74
1262.38	68.127
1266.02	183.418
1269.66	298.44
1273.29	363.285
1276.93	163.948
1280.56	203.387
1284.19	189.059
1287.82	24.848
1291.45	183.347
1295.07	100.477
1298.7	226.372
1302.32	22.071
1305.94	163.565
1309.56	330.871
1313.18	337.984
1316.8	408.902
1320.41	388.625
1324.02	323.154
1327.63	179.506
1331.24	233.703
1334.85	74.772
1338.46	27.718
1342.06	26.535
1345.67	95.244
1349.27	14.923
1352.87	171.563
1356.47	113.502
1360.07	148.449
1363.66	147.993
1367.25	151.017
1370.85	109.67
1374.44	165.529
1378.03	355.85
1381.61	2509.54
1385.2	2449.49
1388.78	481.486
1392.37	264.291
1395.95	329.724
1399.53	184.526
1403.1	171.931
1406.68	2.562
1410.26	85.107
1413.83	64.372
1417.4	83.218
1420.97	196.19
1424.54	142.766
1428.1	201.306
1431.67	166.27
1435.23	337.561
1438.8	421.859
1442.36	680.263
1445.91	678.02
1449.47	746.032
1453.03	747.619
1456.58	873.243
1460.13	989.403
1463.68	765.646
1467.23	548.472
1470.78	472.853
1474.33	512.379
1477.87	370.877
1481.42	409.517
1484.96	397.979
1488.5	367.231
1492.04	217.91
1495.57	200.22
1499.11	0.299
1502.64	17.924
1506.17	0
