Measurement: Raman, 514 nm, ccw, Raman Data Processed
Mineral: Cordierite
Rruff sample: R040082
Ideal chemistry: Mg_2_Al_4_Si_5_O_18_
Locality: Madagascar
Source: University of Arizona Mineral Museum
Description: Dark gray coarsely crystalline massive
Measured chemistry: (Mg_1.60_Fe^2+^_0.39_Mn_0.01_)_Σ=2_Al_4.00_(Si_4.95_Al_0.05_)_Σ=5_O_18_·1.05H_2_O·Na_0.05_ ; H_2_O estimated by difference and verified by Raman spectroscopy
Pin_id: M00022
Orientation: Laser parallel to a* (1 0 0). Fiducial mark perpendicular to laser is parallel to b [0 1 0]
Raman shift (cm-1)	intensity
101.732	0
105.908	32.153
110.082	185.998
114.254	753.223
118.424	1533.99
122.592	2738.05
126.758	4248.31
130.922	2189.84
135.083	813.21
139.243	516.779
143.401	486.929
147.557	903.519
151.711	2146.81
155.863	3905.38
160.013	2285.9
164.161	476.267
168.308	112.06
172.452	7.376
176.594	61.928
180.734	65.881
184.872	179.9
189.008	235.242
193.143	451.233
197.275	538.016
201.405	702.651
205.534	886.146
209.66	560.496
213.784	128.733
217.907	119.882
222.027	4.718
226.146	63.626
230.263	363.666
234.377	993.745
238.49	1828.33
242.601	1715.43
246.709	1884.51
250.816	3675.27
254.921	9049.69
259.024	17181.6
263.125	9368.57
267.224	3853.75
271.321	2132.57
275.416	1702.64
279.51	1592.53
283.601	2167.97
287.69	3484.53
291.778	5614.28
295.863	6823.17
299.947	7201.17
304.029	8251.74
308.108	6803.11
312.186	2241.6
316.262	674.203
320.336	1054.89
324.408	2679.66
328.478	2581.47
332.546	1124.34
336.612	841.463
340.677	596.285
344.739	250.233
348.799	261.353
352.858	272.182
356.915	306.95
360.969	282.72
365.022	46.499
369.073	48.287
373.122	64.975
377.169	23.516
381.215	113.223
385.258	112.322
389.299	41.121
393.339	10.329
397.376	26.739
401.412	23.051
405.446	142.746
409.478	260.763
413.508	334.536
417.536	483.36
421.562	445.286
425.586	634.32
429.609	701.463
433.629	556.726
437.648	539.081
441.665	518.52
445.68	372.031
449.693	392.616
453.704	513.272
457.713	721.001
461.721	978.803
465.726	1164.68
469.73	1348.64
473.731	1454.69
477.731	1373.83
481.729	904.049
485.725	707.356
489.72	495.758
493.712	200.302
497.703	12.916
501.691	5.752
505.678	38.354
509.663	16.399
513.646	115.528
517.627	204.09
521.607	353
525.584	606.194
529.56	1196.74
533.534	1812.56
537.506	3222.64
541.476	5909.04
545.444	11735.6
549.41	24662.2
553.375	38086.6
557.337	29287.8
561.298	16813.3
565.257	12544.2
569.214	14093.2
573.17	20189.5
577.123	23923.9
581.075	16839.4
585.024	8934.16
588.972	5016.05
592.918	2929.1
596.863	2011.31
600.805	1629.67
604.746	1532.19
608.685	1623.87
612.621	2105.69
616.557	2810.67
620.49	2802.8
624.421	2227.08
628.351	1153.5
632.279	773.07
636.205	522.784
640.129	355.638
644.051	373.672
647.972	583.065
651.89	1009.48
655.807	1613.42
659.722	3425.48
663.636	7276.89
667.547	13799.2
671.457	15308.1
675.365	8839.16
679.271	4602.84
683.175	2919.88
687.077	2139.67
690.978	2023.95
694.877	1931.39
698.774	2326.14
702.669	2655.32
706.562	3608.73
710.454	4195.35
714.344	4011
718.232	2921.68
722.118	2393.37
726.002	2135.06
729.885	1599.73
733.766	1442.4
737.645	1337.05
741.522	1143.68
745.397	936.298
749.271	930.893
753.143	873.461
757.013	614.003
760.881	442.515
764.748	250.996
768.613	197.445
772.476	137.859
776.337	179.237
780.196	255.579
784.054	229.883
787.91	335.148
791.764	166.375
795.616	188.559
799.467	126.697
803.316	82.772
807.163	7.36
811.008	2.805
814.851	93.708
818.693	50.262
822.533	95.574
826.371	211.567
830.208	80.294
834.042	104.521
837.875	50.325
841.706	2.477
845.536	70.084
849.363	151.627
853.189	199.125
857.013	143.575
860.836	375.978
864.656	207.327
868.475	294.626
872.292	314.875
876.108	367.077
879.922	535.232
883.733	545.345
887.544	656.412
891.352	799.441
895.159	1017.43
898.964	1537.39
902.767	1764.31
906.568	1381.2
910.368	1165.07
914.166	1240.55
917.962	1494.84
921.757	1597.77
925.55	1337.72
929.341	1313.78
933.13	1186.91
936.918	1382.07
940.703	1484.28
944.488	1529.56
948.27	1758.85
952.051	2165.17
955.83	2594.35
959.607	3589.18
963.383	5853.28
967.156	10879.8
970.928	19600.6
974.699	14547.9
978.468	6726.55
982.234	4149.72
986	3305.72
989.763	3200.48
993.525	4102.56
997.285	5617.92
1001.04	8566.72
1004.8	16599.7
1008.55	34292.7
1012.31	36904.9
1016.06	18187.2
1019.81	8559.59
1023.56	4499.12
1027.31	2777.77
1031.05	1863.55
1034.79	1354.45
1038.53	1139.52
1042.27	1045.72
1046.01	835.044
1049.75	807.469
1053.48	697.052
1057.22	740.131
1060.95	711.466
1064.68	734.268
1068.4	659.204
1072.13	655.056
1075.86	730.984
1079.58	655.141
1083.3	708.938
1087.02	496.594
1090.74	602.735
1094.45	621.313
1098.17	605.59
1101.88	793.542
1105.59	1144.53
1109.3	1296.43
1113.01	945.255
1116.71	681.771
1120.42	463.41
1124.12	946.197
1127.82	279.067
1131.52	320.066
1135.22	162.305
1138.91	80.632
1142.61	77.817
1146.3	136.396
1149.99	101.364
1153.68	34.904
1157.37	146.576
1161.06	276.144
1164.74	376.784
1168.42	342.206
1172.1	373.604
1175.78	606.559
1179.46	1062.12
1183.14	1611.21
1186.81	1323.27
1190.48	684.126
1194.15	472.636
1197.83	157.627
1201.49	190.428
1205.16	9.871
1208.82	50.484
1212.49	48.047
1216.15	42.081
1219.81	22.455
1223.46	102.028
1227.12	31.145
1230.78	37.662
1234.43	57.991
1238.08	59.992
1241.73	17.278
1245.38	55.1
1249.03	12.977
1252.67	35.55
1256.31	84.385
1259.95	46.643
1263.6	15.284
1267.23	43.86
1270.87	69.568
1274.51	6.013
1278.14	48.14
1281.77	1.07
1285.4	29.269
1289.03	14.215
1292.66	27.171
1296.28	133.088
1299.91	64.033
1303.53	146.66
1307.15	128.969
1310.77	109.972
1314.38	92.663
1318	25.049
1321.61	14.125
1325.23	80.885
1328.84	8.668
1332.45	104.421
1336.06	34.227
1339.66	133.984
1343.27	172.247
1346.87	188.199
1350.47	188.44
1354.07	193.152
1357.67	263.389
1361.26	149.077
1364.86	131.196
1368.45	300.89
1372.04	80.693
1375.63	228.555
1379.22	343.724
1382.81	727.7
1386.39	331.802
1389.98	271.363
1393.56	209.445
1397.14	160.056
1400.72	171.99
1404.3	162.31
1407.87	74.576
1411.45	151.451
1415.02	140.01
1418.59	109.96
1422.16	103.342
1425.73	75.459
1429.29	55.25
1432.86	260.03
1436.42	210.393
1439.98	139.569
1443.54	205.925
1447.1	209.617
1450.66	255.959
1454.21	313.281
1457.77	280.355
1461.32	250.513
1464.87	274.016
1468.42	36.019
1471.96	2.252
1475.51	44.959
1479.06	98.481
1482.6	244.242
1486.14	253.383
1489.68	136.052
1493.22	76.301
1496.75	69.33
1500.29	37.43
1503.82	63.921
1507.35	37.884
1510.88	13.361
1514.41	55.876
1517.94	100.256
1521.46	0
