Measurement: Raman, 514 nm, ccw, Raman Data Processed
Mineral: Cordierite
Rruff sample: R040081
Ideal chemistry: Mg_2_Al_4_Si_5_O_18_
Locality: Laramie Range, Wyoming, USA
Source: University of Arizona Mineral Museum
Description: Blue to purple coarsely crystalline
Measured chemistry: (Mg_1.80_Fe^2+^_0.20_)_Σ=2_Al_4.00_(Si_4.96_Al_0.04_)_Σ=5_O_18_·0.86H_2_O·Na_0.04_ ; H_2_O estimated by difference and verified by Raman spectroscopy
Pin_id: M00015
Orientation: Laser parallel to c* (0 0 1). Fiducial mark perpendicular to laser is parallel to a [1 0 0]
Raman shift (cm-1)	intensity
97.554	0
101.732	16.195
105.908	417.294
110.082	947.757
114.254	3107.61
118.424	6894.36
122.592	6720.69
126.758	2703.37
130.922	1142.24
135.083	580.232
139.243	270.077
143.401	398.899
147.557	570.616
151.711	1221.02
155.863	2701.82
160.013	2350.69
164.161	1031.04
168.308	307.763
172.452	133.222
176.594	128.774
180.734	148.123
184.872	288.194
189.008	547.877
193.143	662.495
197.275	173.2
201.405	180.1
205.534	269.374
209.66	117.109
213.784	25.953
217.907	62.518
222.027	75.815
226.146	110.396
230.263	676.104
234.377	2074.86
238.49	3903.6
242.601	2346.83
246.709	1372.55
250.816	1595.94
254.921	2996.57
259.024	5248.4
263.125	2747.91
267.224	1210.97
271.321	774.919
275.416	826.936
279.51	1042.29
283.601	1862.64
287.69	4398.77
291.778	8372.52
295.863	8606.77
299.947	5065.41
304.029	2818.17
308.108	1613.42
312.186	885.843
316.262	721.553
320.336	1012.28
324.408	1563.08
328.478	848.583
332.546	427.826
336.612	286.088
340.677	207.767
344.739	416.409
348.799	848.361
352.858	904.746
356.915	880.743
360.969	1149.72
365.022	1807.68
369.073	1313.48
373.122	327.426
377.169	357.081
381.215	232.793
385.258	61.467
389.299	85.041
393.339	127.992
397.376	43.283
401.412	67.855
405.446	12.789
409.478	151.531
413.508	446.279
417.536	995.693
421.562	2877.06
425.586	6796.4
429.609	5798.81
433.629	2473.27
437.648	998.729
441.665	536.182
445.68	384.615
449.693	433.033
453.704	297.447
457.713	278.836
461.721	35.133
465.726	174.471
469.73	249.637
473.731	22.594
477.731	194.527
481.729	209.465
485.725	66.309
489.72	33.039
493.712	47.662
497.703	74.971
501.691	70.004
505.678	114.883
509.663	73.75
513.646	231.615
517.627	293.48
521.607	283.342
525.584	503.244
529.56	1019.06
533.534	1330.78
537.506	2197.45
541.476	3632.12
545.444	6309.7
549.41	12695.8
553.375	19876.2
557.337	17513.6
561.298	12988.9
565.257	9764.93
569.214	7969.04
573.17	9179.05
577.123	9932.95
581.075	7142.75
585.024	4012.42
588.972	2757.97
592.918	1829.38
596.863	1181.44
600.805	885.266
604.746	851.656
608.685	847.697
612.621	500.432
616.557	879.982
620.49	885.908
624.421	1045.22
628.351	657.379
632.279	593.412
636.205	411.479
640.129	505.979
644.051	474.998
647.972	613.584
651.89	1072.25
655.807	978.523
659.722	1837.28
663.636	3829.11
667.547	6696.8
671.457	7529.95
675.365	4383.14
679.271	2181.94
683.175	1546.15
687.077	1059.08
690.978	969.203
694.877	622.957
698.774	1059.66
702.669	971.961
706.562	1911.69
710.454	2278.68
714.344	2375.62
718.232	2320.41
722.118	2544.05
726.002	2434.23
729.885	1652.39
733.766	833.482
737.645	534.662
741.522	541.648
745.397	449.127
749.271	239.037
753.143	304.971
757.013	484.266
760.881	9.227
764.748	39.184
768.613	208.963
772.476	211.758
776.337	206.158
780.196	153.242
784.054	167.998
787.91	371.443
791.764	215.24
795.616	236.623
799.467	133.67
803.316	331.334
807.163	134.469
811.008	20.328
814.851	119.75
818.693	127.697
822.533	280.932
826.371	194.549
830.208	247.643
834.042	67.105
837.875	15.777
841.706	41.207
845.536	68.057
849.363	236.176
853.189	174.936
857.013	43.727
860.836	146.105
864.656	11.553
868.475	284.668
872.292	89.363
876.108	35.676
879.922	299.662
883.733	311.348
887.544	381.727
891.352	353.814
895.159	252.627
898.964	499.164
902.767	491.326
906.568	687.066
910.368	465.129
914.166	952.582
917.962	1395.67
921.757	1099.19
925.55	980.006
929.341	634.566
933.13	805.662
936.918	1124.33
940.703	1095.24
944.488	1682
948.27	2655.82
952.051	3001.04
955.83	2205.26
959.607	1737.33
963.383	2382.05
967.156	4680.67
970.928	9614.53
974.699	7924.12
978.468	3636.79
982.234	2166.25
986	1153.07
989.763	819.98
993.525	771.434
997.285	776.199
1001.04	295.791
1004.8	777.58
1008.55	1022.97
1012.31	1364.52
1016.06	1399.71
1019.81	1104.1
1023.56	806.117
1027.31	495.67
1031.05	300.74
1034.79	377.393
1038.53	559.846
1042.27	410.766
1046.01	309.246
1049.75	241.35
1053.48	275.264
1057.22	373.635
1060.95	451.365
1064.68	446.086
1068.4	82.852
1072.13	285.35
1075.86	338.434
1079.58	249.285
1083.3	331.852
1087.02	95.598
1090.74	180.223
1094.45	220.258
1098.17	408.73
1101.88	907.801
1105.59	1208.34
1109.3	1933.94
1113.01	1615.36
1116.71	1077.8
1120.42	577.688
1124.12	496.488
1127.82	138.746
1131.52	172.008
1135.22	394.555
1138.91	202.402
1142.61	2.535
1146.3	143.867
1149.99	270.789
1153.68	380.156
1157.37	507.836
1161.06	598.203
1164.74	1065.65
1168.42	821.793
1172.1	1206.04
1175.78	2121.12
1179.46	3301.79
1183.14	5064.02
1186.81	4682.79
1190.48	3161.45
1194.15	1731.82
1197.83	1013.21
1201.49	1088.5
1205.16	558.605
1208.82	433.82
1212.49	551.531
1216.15	328.684
1219.81	292.906
1223.46	280.605
1227.12	138.832
1230.78	444.27
1234.43	269.633
1238.08	210.699
1241.73	411.91
1245.38	370.375
1249.03	579.977
1252.67	194.324
1256.31	141.316
1259.95	11.461
1263.6	511.641
1267.23	580.586
1270.87	790.559
1274.51	459.152
1278.14	390.23
1281.77	199.66
1285.4	77.859
1289.03	142.566
1292.66	59.316
1296.28	245.238
1299.91	24.113
1303.53	175.922
1307.15	333.965
1310.77	156.254
1314.38	18.805
1318	208.711
1321.61	167.148
1325.23	676.945
1328.84	17.934
1332.45	110.621
1336.06	73.68
1339.66	500.941
1343.27	551.285
1346.87	707.625
1350.47	669.684
1354.07	671.203
1357.67	776.078
1361.26	482.504
1364.86	531.816
1368.45	830.5
1372.04	650.172
1375.63	478.832
1379.22	1406.64
1382.81	3183.02
1386.39	1570.77
1389.98	694.238
1393.56	655.227
1397.14	451.07
1400.72	464.836
1404.3	305.402
1407.87	323.152
1411.45	565.223
1415.02	353.293
1418.59	570.711
1422.16	174.516
1425.73	313.758
1429.29	269.605
1432.86	358.387
1436.42	277.137
1439.98	292.195
1443.54	309.832
