Measurement: Raman, 514 nm, ccw, Raman Data Processed
Mineral: Cordierite
Rruff sample: R040082
Ideal chemistry: Mg_2_Al_4_Si_5_O_18_
Locality: Madagascar
Source: University of Arizona Mineral Museum
Description: Dark gray coarsely crystalline massive
Measured chemistry: (Mg_1.60_Fe^2+^_0.39_Mn_0.01_)_Σ=2_Al_4.00_(Si_4.95_Al_0.05_)_Σ=5_O_18_·1.05H_2_O·Na_0.05_ ; H_2_O estimated by difference and verified by Raman spectroscopy
Pin_id: M00040
Orientation: Laser parallel to -c* (0 0 -1). Fiducial mark perpendicular to laser is parallel to a [1 0 0]
Raman shift (cm-1)	intensity
90.587	0
94.768	21.192
98.947	581.326
103.124	411.049
107.3	1607.21
111.473	4478.83
115.644	11858.3
119.813	20282.9
123.981	16565.7
128.146	11483.2
132.309	4273.52
136.47	1515.02
140.63	958.726
144.787	1137.82
148.942	2425.02
153.096	5539.04
157.247	7406.44
161.396	4065.53
165.544	1223.21
169.689	226.438
173.833	77.45
177.974	9.44
182.114	19.924
186.251	98.025
190.387	5.197
194.52	1.057
198.652	31.663
202.782	18.863
206.909	33.411
211.035	125.062
215.159	64.518
219.281	16.868
223.4	434.077
227.518	1369.71
231.634	3852.96
235.748	7639.83
239.86	8716.32
243.97	7110.71
248.079	7267.45
252.185	13441
256.289	27454.8
260.391	30499.8
264.492	11519.8
268.59	3895.06
272.687	1835.02
276.781	1168.34
280.874	914.488
284.964	1190.64
289.053	1915.53
293.14	2688.09
297.225	2647.73
301.308	2775.18
305.389	3022.48
309.468	2051.17
313.545	1123.61
317.62	1031.75
321.693	1912.41
325.765	2855.71
329.834	1489.72
333.902	1119.33
337.967	1101
342.031	1383.72
346.093	2228.24
350.153	3038.78
354.21	3550.32
358.267	5151.92
362.321	9655.32
366.373	12873.1
370.423	7100.35
374.471	3256.05
378.518	1499.53
382.563	741.875
386.605	725.816
390.646	248.281
394.685	90.614
398.722	250.175
402.757	180.671
406.79	223.309
410.821	160.121
414.851	152.777
418.878	666.895
422.904	1559.72
426.927	2324.23
430.949	1321.41
434.969	523.271
438.987	133.794
443.003	116.935
447.018	275.547
451.03	641.153
455.041	955.346
459.049	479.285
463.056	367.991
467.061	575.48
471.064	1267.77
475.065	2221.89
479.064	2013.85
483.062	1405.68
487.057	852.381
491.051	600.968
495.043	266.447
499.032	231.853
503.02	60.275
507.007	259.866
510.991	271.733
514.973	318.023
518.954	521.853
522.933	811.275
526.91	1100.33
530.885	1679.77
534.858	2694.62
538.829	4227.03
542.799	6472.79
546.766	11982.4
550.732	22330.2
554.696	29008.4
558.658	26119.2
562.618	24290.1
566.576	23471.2
570.533	30430.1
574.488	42764.8
578.44	43939.9
582.391	28897
586.341	16382.3
590.288	9731.69
594.233	6437.19
598.177	4430.87
602.119	3444.04
606.059	2758.12
609.997	2458.12
613.933	2530.25
617.868	2778.51
621.801	2725.9
625.731	2164.42
629.66	1818.08
633.588	1417.87
637.513	1146.79
641.437	1088.84
645.358	1118.02
649.278	1267.62
653.196	1734.66
657.113	2624.46
661.027	4852.99
664.94	9460.45
668.851	14773
672.76	12164
676.667	6380.79
680.572	3460.02
684.476	2540.73
688.378	2147.47
692.278	1439.96
696.176	1190.57
700.072	1283.7
703.967	1449.11
707.86	2183.04
711.751	2986.03
715.64	2327.48
719.527	1660.62
723.413	1447.49
727.297	866.043
731.179	683.833
735.059	570.561
738.937	600.192
742.814	487.724
746.689	286.15
750.562	349.467
754.433	290.686
758.303	203.833
762.17	286.891
766.036	224.831
769.901	233.643
773.763	316.405
777.624	314.868
781.482	302.273
785.339	353.536
789.195	367.654
793.048	196.623
796.9	279.438
800.75	141.1
804.598	48.597
808.445	17.918
812.289	9.976
816.132	112.221
819.973	126.181
823.813	142.974
827.65	177.781
831.486	189.667
835.32	260.308
839.152	36.934
842.983	105.617
846.812	54.062
850.639	10.354
854.464	8.635
858.288	71.063
862.11	117.601
865.93	163.985
869.748	231.817
873.564	237.287
877.379	319.191
881.192	416.921
885.004	429.477
888.813	522.862
892.621	556.081
896.427	852.139
900.232	945.042
904.034	1195.8
907.835	1539.41
911.634	2331.88
915.432	3982.22
919.227	6026.43
923.021	5221.52
926.813	3318.49
930.604	2491.36
934.393	2179.12
938.18	2353.78
941.965	2832.35
945.749	4209.83
949.53	6678.23
953.311	7341.57
957.089	6592.29
960.866	7946.69
964.641	13892.8
968.414	30348.7
972.185	41409.1
975.955	21426.5
979.723	9138.31
983.49	4425.84
987.254	2716.41
991.017	2223.31
994.779	1542.71
998.538	1361.31
1002.3	1669.74
1006.05	2462.57
1009.81	3889.52
1013.56	3655.99
1017.31	2833.68
1021.06	1815.56
1024.81	1104.62
1028.55	778.859
1032.3	579.398
1036.04	464.21
1039.78	538.359
1043.52	343.782
1047.26	222.492
1050.99	292.49
1054.73	193.821
1058.46	273.476
1062.19	273.448
1065.92	186.7
1069.65	281.418
1073.37	190.152
1077.1	192.377
1080.82	292.842
1084.54	172.546
1088.26	209.485
1091.97	328.66
1095.69	565.075
1099.4	1399.24
1103.12	2199.8
1106.83	3617.97
1110.54	3606.81
1114.24	3074.4
1117.95	1638.5
1121.65	1502.16
1125.35	1084.41
1129.06	891.375
1132.75	976.039
1136.45	952.551
1140.15	1129.97
1143.84	1341.67
1147.53	1769.3
1151.22	2065.55
1154.91	2589.29
1158.6	3277.17
1162.28	3987.26
1165.97	5305.55
1169.65	7657.45
1173.33	12236.7
1177.01	21525.7
1180.69	36135.7
1184.36	40008.2
1188.04	25293.6
1191.71	13885
1195.38	7675.39
1199.05	4862.5
1202.71	2836.17
1206.38	2057.65
1210.04	1345.88
1213.71	907.939
1217.37	736.281
1221.03	514.599
1224.68	399.802
1228.34	275.793
1231.99	252.242
1235.65	29.734
1239.3	81.354
1242.95	25.927
1246.59	85.882
1250.24	13.771
1253.88	30.758
1257.53	37.835
1261.17	116.799
1264.81	162.637
1268.45	513.73
1272.08	508.516
1275.72	182.131
1279.35	3.671
1282.98	93.121
1286.61	96.165
1290.24	33.977
1293.87	16.03
1297.49	15.472
1301.11	5.646
1304.73	25.696
1308.36	8.133
1311.97	17.204
1315.59	110.318
1319.2	73.182
1322.82	32.749
1326.43	11.076
1330.04	47.364
1333.65	20.89
1337.26	0.743
1340.86	2.942
1344.47	21.234
1348.07	2.981
1351.67	37.394
1355.27	32.132
1358.87	56.75
1362.46	9.61
1366.06	111.208
1369.65	115.375
1373.24	146.784
1376.83	300.847
1380.42	1653.48
1384	4402.65
1387.59	994.847
1391.17	373.277
1394.75	275.988
1398.33	320.441
1401.91	350.397
1405.49	351.614
1409.06	228.549
1412.64	226.043
1416.21	270.323
1419.78	175.216
1423.35	180.892
1426.91	227.943
1430.48	102.262
1434.05	210.014
1437.61	172.394
1441.17	161.05
1444.73	226.143
1448.29	256.681
1451.84	226.57
1455.4	178.806
1458.95	165.022
1462.5	176.934
1466.05	235.925
1469.6	146.009
1473.15	174.061
1476.69	17.914
1480.24	182.215
1483.78	94.515
1487.32	195.635
1490.86	118.03
1494.39	41.667
1497.93	97.289
1501.46	1.746
1505	59.847
1508.53	140.193
1512.06	10.483
1515.59	0.224
