Measurement: Raman, 514 nm, ccw, Raman Data Processed
Mineral: Cordierite
Rruff sample: R040084
Ideal chemistry: Mg_2_Al_4_Si_5_O_18_
Locality: Norway
Source: University of Arizona Mineral Museum
Description: Purple coarsely crystalline massive
Measured chemistry: (Mg_1.88_Fe^2+^_0.11_Ca_0.01_)_Σ=2_(Al_3.95_Fe^3+^_0.05_)_Σ=4_(Si_4.96_Al_0.04_)_Σ=5_O_18_·0.90H_2_O·Na_0.04_ ; H_2_O estimated by difference and verified by Raman spectroscopy
Pin_id: L00443
Orientation: Laser parallel to a* (1 0 0). Fiducial mark perpendicular to laser is parallel to -b [0 -1 0]
Raman shift (cm-1)	intensity
89.254	0
93.442	202.609
97.628	34.452
101.812	217.372
105.994	607.528
110.174	4118.35
114.351	3996.61
118.527	3536.3
122.701	5345.03
126.873	4572.62
131.042	3374.43
135.21	1614.32
139.376	1075.2
143.539	849.331
147.701	907.733
151.861	1413.67
156.018	2442.49
160.174	2385.33
164.327	1082.77
168.479	521.22
172.628	265.652
176.776	76.357
180.922	126.259
185.065	186.738
189.207	324.055
193.346	496.256
197.484	285.353
201.619	275.366
205.753	551.895
209.884	613.907
214.014	144.846
218.141	53.305
222.267	99.543
226.391	44.866
230.512	276.682
234.632	1523.07
238.749	3376.45
242.865	2855.84
246.979	1949.69
251.09	2294.09
255.2	5445.47
259.308	10507.9
263.414	7392.56
267.517	2274.29
271.619	730.392
275.719	386.463
279.817	377.231
283.913	322.033
288.007	539.223
292.099	900.118
296.189	1271.16
300.277	1075.3
304.363	1047.48
308.447	848.68
312.529	162.852
316.609	70.247
320.687	46.266
324.764	249.053
328.838	459.277
332.91	286.388
336.981	102.321
341.049	79.044
345.116	204.57
349.18	512.263
353.243	747.102
357.304	847.46
361.362	1563.42
365.419	3264
369.474	2982.19
373.527	1247.05
377.578	609.738
381.627	213.34
385.674	39.827
389.719	57.756
393.762	84.779
397.804	36.852
401.843	71.085
405.881	92.858
409.916	84.221
413.95	43.54
417.981	43.15
422.011	329.689
426.039	967.151
430.065	1214.5
434.089	512.715
438.111	208.776
442.131	109.672
446.149	144.361
450.166	156.843
454.18	372.136
458.193	429.243
462.203	411.164
466.212	628.907
470.219	1006.52
474.224	950.939
478.227	1018.63
482.228	1138.53
486.227	1726.42
490.224	2047.2
494.22	1287.81
498.213	605.295
502.205	266.696
506.194	151.936
510.182	120.275
514.168	132.441
518.152	165.549
522.134	266.592
526.114	255.601
530.093	508.544
534.069	556.479
538.044	1088.33
542.017	1633.16
545.987	2919.8
549.956	6167.44
553.923	10959
557.889	11037
561.852	8164.1
565.813	6834.21
569.773	6754.06
573.731	9463.81
577.686	13154.5
581.64	10821.4
585.593	6218.09
589.543	3384.75
593.491	2051.33
597.438	1257.83
601.382	909.013
605.325	696.031
609.266	533.145
613.205	443.618
617.142	571.156
621.078	767.836
625.011	926.102
628.943	752.488
632.872	382.707
636.8	303.32
640.726	173.372
644.651	212.816
648.573	241.226
652.494	373.967
656.412	711.72
660.329	1029.98
664.244	2317.32
668.157	4631.56
672.069	6044.86
675.978	4261.37
679.886	2146.43
683.792	1282.1
687.696	876.248
691.598	738.045
695.498	542.641
699.397	552.812
703.293	590.855
707.188	735.812
711.081	1200.84
714.972	1226.02
718.862	780.927
722.749	816.036
726.635	701.276
730.519	656.758
734.401	762.286
738.281	1067.7
742.16	1022.99
746.036	518.144
749.911	473.169
753.784	468.062
757.655	352.824
761.525	257.475
765.392	181.998
769.258	166.382
773.122	140.623
776.984	1.717
780.844	18.598
784.703	142.258
788.56	45.777
792.415	89.149
796.268	212.344
800.119	115.309
803.969	18.043
807.816	0.565
811.662	57.169
815.506	44.696
819.349	53.734
823.189	62.491
827.028	71.632
830.865	11.195
834.7	18.89
838.534	108.558
842.365	12.108
846.195	36.809
850.023	64.584
853.85	43.636
857.674	61.69
861.497	49.566
865.318	7.316
869.137	104.939
872.955	142.45
876.77	159.846
880.584	157.126
884.396	324.29
888.207	291.339
892.015	598.273
895.822	1095.1
899.627	2091.82
903.43	2118.43
907.232	1104.95
911.032	781.368
914.83	887.693
918.626	1233.59
922.42	1089.47
926.213	685.117
930.004	529.595
933.793	600.611
937.581	586.438
941.366	651.632
945.15	956.687
948.932	1669.3
952.713	2200.25
956.491	1844.72
960.268	2255.59
964.044	3362.29
967.817	6079.35
971.589	12448.7
975.359	11114.1
979.127	4780.24
982.893	2077.8
986.658	1194.24
990.421	789.264
994.183	592.948
997.942	563.66
1001.7	724.931
1005.46	1259.69
1009.21	2462.15
1012.96	3217.67
1016.71	1813.27
1020.46	1039.57
1024.21	585.956
1027.96	362.431
1031.7	229.089
1035.44	195.852
1039.18	152.712
1042.92	159.686
1046.66	216.793
1050.39	214.052
1054.13	191.409
1057.86	192.596
1061.59	136.358
1065.32	34.022
1069.05	121.757
1072.77	89.556
1076.49	67.422
1080.22	75.358
1083.94	143.409
1087.65	141.539
1091.37	10.18
1095.09	68.463
1098.8	188.25
1102.51	357.341
1106.22	856.236
1109.93	1275.41
1113.63	1054.19
1117.34	573.123
1121.04	302.176
1124.74	351.391
1128.44	60.776
1132.14	110.543
1135.84	100.45
1139.53	191.225
1143.22	299.775
1146.91	282.855
1150.61	312.708
1154.29	262.083
1157.98	569.673
1161.66	718.178
1165.35	933.478
1169.03	1139.3
1172.71	1762.87
1176.38	3095.24
1180.06	5511.1
1183.73	9132.62
1187.41	8759.08
1191.08	4762.36
1194.75	2540.56
1198.41	1418.4
1202.08	810.767
1205.74	631.474
1209.41	209.528
1213.07	320.637
1216.73	250.821
1220.38	250.963
1224.04	241.082
1227.69	119.684
1231.35	200.685
1235	219.838
1238.65	94.641
1242.3	2.342
1245.94	56.556
1249.59	195.393
1253.23	154.182
1256.87	232.915
1260.51	201.584
1264.15	259.939
1267.78	278.162
1271.42	656.294
1275.05	293.576
1278.68	161.158
1282.31	128.871
1285.94	155.811
1289.56	37.581
1293.19	46.864
1296.81	38.248
1300.43	57.09
1304.05	72.755
1307.67	32.796
1311.29	33.525
1314.9	19.838
1318.52	92.91
1322.13	55.678
1325.74	88.1
1329.34	9.783
1332.95	11.956
1336.56	72.536
1340.16	61.716
1343.76	88.703
1347.36	138.81
1350.96	128.713
1354.56	198.213
1358.15	167.266
1361.74	146.532
1365.34	114.764
1368.93	232.693
1372.52	90.281
1376.1	177.637
1379.69	747.426
1383.27	2947.42
1386.85	1525.63
1390.43	1159.52
1394.01	1014.12
1397.59	278.461
1401.17	432.336
1404.74	308.119
1408.31	129.452
1411.88	71.909
1415.45	164.412
1419.02	154.869
1422.59	183.618
1426.15	210.054
1429.71	321.166
1433.28	293.838
1436.84	131.021
1440.39	103.999
1443.95	95.979
1447.5	2.119
1451.06	241.109
1454.61	263.354
1458.16	304.178
1461.71	273.285
1465.26	401.357
1468.8	519.82
1472.34	436.781
1475.89	455.926
1479.43	155.381
1482.97	195.713
1486.5	299.111
1490.04	7.857
1493.57	136.387
1497.11	204.957
1500.64	105.16
1504.17	91.861
1507.69	166.596
1511.22	224.678
1514.74	153.133
1518.27	161.75
