Measurement: Raman, 514 nm, ccw, Raman Data Processed
Mineral: Cordierite
Rruff sample: R040081
Ideal chemistry: Mg_2_Al_4_Si_5_O_18_
Locality: Laramie Range, Wyoming, USA
Source: University of Arizona Mineral Museum
Description: Blue to purple coarsely crystalline
Measured chemistry: (Mg_1.80_Fe^2+^_0.20_)_Σ=2_Al_4.00_(Si_4.96_Al_0.04_)_Σ=5_O_18_·0.86H_2_O·Na_0.04_ ; H_2_O estimated by difference and verified by Raman spectroscopy
Pin_id: M00044
Orientation: Laser parallel to -a* (-1 0 0). Fiducial mark perpendicular to laser is parallel to b [0 1 0]
Raman shift (cm-1)	intensity
78.031	0
82.218	172.802
86.404	787.576
90.587	1381.68
94.768	1204.54
98.947	1239.58
103.124	1526.27
107.3	2954.13
111.473	6495.52
115.644	14829.3
119.813	21981.3
123.981	11478
128.146	4869.15
132.309	2266.23
136.47	1359.56
140.63	1373.95
144.787	1421.92
148.942	2166.99
153.096	4565.33
157.247	6506.48
161.396	3907.81
165.544	1251.32
169.689	265.934
173.833	210.691
177.974	317.187
182.114	384.75
186.251	388.57
190.387	334.754
194.52	165.36
198.652	83.001
202.782	56.812
206.909	20.631
211.035	263.187
215.159	230.657
219.281	114.797
223.4	197.385
227.518	864.029
231.634	2438.07
235.748	4846.92
239.86	5544.2
243.97	4085.88
248.079	3447.14
252.185	4651.03
256.289	8810.58
260.391	10389.9
264.492	4277.84
268.59	1818.7
272.687	1423.96
276.781	1768.24
280.874	3157.21
284.964	6551.62
289.053	12979.3
293.14	18355.1
297.225	15411.8
301.308	9109.51
305.389	5051.03
309.468	2914.27
313.545	2106.56
317.62	2123.34
321.693	2706.81
325.765	3124.72
329.834	1366.93
333.902	928.467
337.967	572.359
342.031	799.617
346.093	1297.25
350.153	1598.27
354.21	1372.68
358.267	1475.49
362.321	2246.72
366.373	2949.37
370.423	1471.45
374.471	491.139
378.518	24.062
382.563	233.629
386.605	247.642
390.646	344.896
394.685	401.585
398.722	391.444
402.757	255.885
406.79	28.954
410.821	522.58
414.851	1742.95
418.878	4790.06
422.904	10602.9
426.927	14900.3
430.949	8821.34
434.969	4103.99
438.987	2019.22
443.003	1228.03
447.018	1237.4
451.03	1563.34
455.041	1756.85
459.049	982.923
463.056	666.57
467.061	750.795
471.064	1001.6
475.065	1405
479.064	1504.01
483.062	1417.64
487.057	1266.88
491.051	1074.77
495.043	935.303
499.032	844.498
503.02	804.733
507.007	892.009
510.991	902.562
514.973	1030.27
518.954	1270.18
522.933	1675.38
526.91	2027.97
530.885	2681.55
534.858	4153.97
538.829	6380.66
542.799	10114.2
546.766	19102.7
550.732	35576.8
554.696	45168.6
558.658	36327.3
562.618	27757.4
566.576	20634.8
570.533	19297.8
574.488	22429.2
578.44	21926.7
582.391	14938.3
586.341	9274.15
590.288	6117.15
594.233	4366.31
598.177	3243.66
602.119	2600.2
606.059	2320.92
609.997	2185.84
613.933	2408.96
617.868	2617.28
621.801	2500.81
625.731	1819.55
629.66	1395.51
633.588	1134.69
637.513	916.098
641.437	1143.73
645.358	1135.6
649.278	1435.7
653.196	1951.06
657.113	3020.91
661.027	5390.64
664.94	10201.3
668.851	15700
672.76	12745.1
676.667	6419.67
680.572	3289.96
684.476	2433.47
688.378	2044.04
692.278	1378.43
696.176	1292.76
700.072	1606.23
703.967	2378.02
707.86	3564.28
711.751	4804.42
715.64	4308.1
719.527	4537.11
723.413	5062.12
727.297	4263.47
731.179	2504.85
735.059	1492.25
738.937	1686.66
742.814	815.081
746.689	544.504
750.562	668.922
754.433	423.33
758.303	342.721
762.17	462.09
766.036	517.43
769.901	539.734
773.763	475.997
777.624	558.213
781.482	492.375
785.339	518.478
789.195	501.515
793.048	371.479
796.9	280.368
800.75	212.174
804.598	47.89
808.445	81.514
812.289	3.972
816.132	10.055
819.973	120.553
823.813	188.236
827.65	248.997
831.486	225.894
835.32	251.146
839.152	239.737
842.983	98.559
846.812	83.339
850.639	10.066
854.464	19.483
858.288	5.42
862.11	25.145
865.93	151.961
869.748	160.856
873.564	267.53
877.379	415.967
881.192	407.159
885.004	494.108
888.813	448.817
892.621	605.395
896.427	667.521
900.232	887.522
904.034	1094.29
907.835	1277.83
911.634	1557.15
915.432	2240.24
919.227	2927.11
923.021	2807.76
926.813	1973.19
930.604	1853.42
934.393	1995.44
938.18	2099.25
941.965	2833.88
945.749	4376.38
949.53	7154.73
953.311	7656.94
957.089	5983
960.866	6389.96
964.641	9111.93
968.414	17113.2
972.185	22276
975.955	12422.5
979.723	6073.26
983.49	3271.86
987.254	2142.98
991.017	1806.39
994.779	1499.08
998.538	1286.3
1002.3	1433.51
1006.05	1813.24
1009.81	2575.01
1013.56	2860.21
1017.31	2823.85
1021.06	2062.69
1024.81	1305.62
1028.55	1140.66
1032.3	932.808
1036.04	763.123
1039.78	812.641
1043.52	679.348
1047.26	514.222
1050.99	563.25
1054.73	458.484
1058.46	409.867
1062.19	523.427
1065.92	400.157
1069.65	374.068
1073.37	424.171
1077.1	327.484
1080.82	393.977
1084.54	425.654
1088.26	603.828
1091.97	719.958
1095.69	1093.26
1099.4	1871.61
1103.12	3273.94
1106.83	5127.96
1110.54	4961.78
1114.24	3948.34
1117.95	1946.58
1121.65	1406.74
1125.35	1015.41
1129.06	871.716
1132.75	667.961
1136.45	703.701
1140.15	695.279
1143.84	864.01
1147.53	980.321
1151.22	1131.3
1154.91	1403.48
1158.6	1728.56
1162.28	1917.68
1165.97	1984.22
1169.65	2717.08
1173.33	4233.71
1177.01	6945.55
1180.69	11638.4
1184.36	12984.4
1188.04	9520.03
1191.71	5840.87
1195.38	3442.46
1199.05	2065.56
1202.71	1296.64
1206.38	822.859
1210.04	653.123
1213.71	523.616
1217.37	417.241
1221.03	253.979
1224.68	230.186
1228.34	121.52
1231.99	58.559
1235.65	43.605
1239.3	96.089
1242.95	3.578
1246.59	124.556
1250.24	27.06
1253.88	35.642
1257.53	27.628
1261.17	6.77
1264.81	308.324
1268.45	628.669
1272.08	242.247
1275.72	27.887
1279.35	44.414
1282.98	22.742
1286.61	36.116
1290.24	79.005
1293.87	56.657
1297.49	1.137
1301.11	35.896
1304.73	11.884
1308.36	33.787
1311.97	84.131
1315.59	103.137
1319.2	57.779
1322.82	100.037
1326.43	17.867
1330.04	50.78
1333.65	37.02
1337.26	49.627
1340.86	30.248
1344.47	110.698
1348.07	108.724
1351.67	21.35
1355.27	13.149
1358.87	24.947
1362.46	4.42
1366.06	4.751
1369.65	4.591
1373.24	13.54
1376.83	123.494
1380.42	780.582
1384	1201.67
1387.59	491.814
1391.17	133.495
1394.75	162.492
1398.33	237.471
1401.91	298.247
1405.49	299.297
1409.06	212.683
1412.64	149.369
1416.21	278.989
1419.78	231.917
1423.35	157.729
1426.91	287.625
1430.48	223.031
1434.05	226.288
1437.61	189.974
1441.17	228.714
1444.73	151.708
1448.29	245.115
1451.84	217.932
1455.4	170.223
1458.95	228.839
1462.5	253.535
1466.05	214.634
1469.6	195.111
1473.15	258.141
1476.69	180.893
1480.24	233.458
1483.78	122.797
1487.32	202.122
1490.86	151.94
1494.39	62.742
1497.93	221.421
1501.46	101.604
1505	89.299
1508.53	91.693
1512.06	333.395
1515.59	212.328
1519.11	29.591
