Measurement: Raman, 514 nm, ccw, Raman Data Processed
Mineral: Cordierite
Rruff sample: R040084
Ideal chemistry: Mg_2_Al_4_Si_5_O_18_
Locality: Norway
Source: University of Arizona Mineral Museum
Description: Purple coarsely crystalline massive
Measured chemistry: (Mg_1.88_Fe^2+^_0.11_Ca_0.01_)_Σ=2_(Al_3.95_Fe^3+^_0.05_)_Σ=4_(Si_4.96_Al_0.04_)_Σ=5_O_18_·0.90H_2_O·Na_0.04_ ; H_2_O estimated by difference and verified by Raman spectroscopy
Pin_id: L00196
Orientation: Laser parallel to -c* (0 0 -1). Fiducial mark perpendicular to laser is parallel to a [1 0 0]
Raman shift (cm-1)	intensity
100.885	0
105.077	6.367
109.266	434.682
113.453	1009.73
117.638	1929.25
121.82	4314.48
126.001	3568.74
130.179	1699.95
134.355	1120.59
138.529	1033.08
142.701	958.653
146.87	891.113
151.038	1175.94
155.203	2233.12
159.366	3399.27
163.527	2164.66
167.686	996.67
171.842	458.438
175.996	98.768
180.149	230.133
184.299	300.401
188.446	319.067
192.592	346.741
196.736	563.663
200.877	69.942
205.016	5.701
209.153	41.064
213.288	85.923
217.421	79.768
221.551	134.82
225.68	42.243
229.806	120.075
233.93	571.818
238.052	2642.96
242.172	4350.44
246.29	2107.86
250.405	1054.85
254.519	1445.78
258.63	3101.23
262.739	4902.07
266.846	1934.11
270.951	909.856
275.054	737.85
279.154	736.765
283.253	1426.15
287.349	3375.74
291.444	8115.42
295.536	13665
299.626	11134.7
303.714	5844.99
307.799	3126.42
311.883	1697.55
315.965	1306.24
320.044	1324.91
324.121	1553.58
328.196	1690.62
332.27	647.282
336.341	313.5
340.409	280.31
344.476	26.857
348.541	172.087
352.604	726.509
356.664	510.977
360.722	624.284
364.779	897.092
368.833	1359.36
372.885	890.89
376.935	50.032
380.983	33.649
385.029	70.468
389.073	35.05
393.114	182.221
397.154	163.714
401.191	75.955
405.227	39.048
409.26	6.621
413.291	121.03
417.321	924.227
421.348	2096.81
425.373	5569.19
429.396	10571.4
433.417	7123.41
437.436	2945.17
441.452	1256.66
445.467	607.878
449.48	518.815
453.49	599.467
457.499	589.84
461.505	209.932
465.51	229.725
469.512	169.193
473.512	338.313
477.511	217.135
481.507	165.721
485.501	484.049
489.493	522.143
493.483	299.987
497.471	184.296
501.457	144.182
505.441	316.161
509.423	281.646
513.403	48.803
517.381	475.926
521.357	433.071
525.33	660.253
529.302	807.512
533.272	1064.73
537.239	1849.15
541.205	2984.41
545.169	5066.57
549.13	10493.4
553.09	20508.8
557.047	27618.6
561.003	19424.8
564.956	12130.3
568.908	8626.07
572.857	8061.05
576.805	10098
580.75	10064.8
584.694	6331.6
588.635	3418.3
592.575	2224.92
596.512	1531.48
600.447	1157.92
604.381	924.767
608.312	741.041
612.242	877.785
616.169	784.627
620.094	800.402
624.018	725.406
627.939	988.908
631.859	843.72
635.776	622.527
639.692	428.481
643.605	387.353
647.516	493.274
651.426	1409.71
655.333	1084.48
659.239	1355.8
663.142	2522.05
667.044	5577.06
670.944	9723.06
674.841	8453.51
678.737	4095.62
682.63	2011.31
686.522	1428.55
690.412	1193.65
694.3	915.129
698.185	835.311
702.069	921.777
705.951	1782.92
709.831	2934.6
713.709	3235.48
717.585	2685.31
721.459	2841.99
725.331	3466.67
729.201	2802.75
733.069	1477.88
736.935	1152.43
740.799	627.73
744.661	442.559
748.522	656.312
752.38	579.811
756.236	473.057
760.091	296.041
763.943	328.762
767.794	301.219
771.643	313.396
775.489	255.295
779.334	206.93
783.177	78.314
787.018	249.439
790.857	400.266
794.694	540.736
798.529	290.85
802.362	20.639
806.193	19.883
810.022	99.176
813.85	207.768
817.675	195.738
821.499	26.865
825.32	170.08
829.14	254.037
832.958	171.148
836.774	14.4
840.588	40.73
844.4	7.658
848.21	25.102
852.018	43.01
855.824	81.428
859.629	189.471
863.431	69.812
867.232	20.318
871.03	149.117
874.827	8.227
878.622	506.936
882.415	535.205
886.206	253.191
889.995	10.908
893.782	138.332
897.568	395.49
901.351	432.389
905.133	489.014
908.912	735.428
912.69	839.441
916.466	1137.08
920.24	912.199
924.012	1126.97
927.782	761.678
931.551	866.521
935.317	560.324
939.082	534.67
942.844	1095.23
946.605	1718.15
950.364	2618.11
954.121	2150.05
957.877	1640.11
961.63	1807.4
965.381	2941.73
969.131	6622.82
972.879	10431.9
976.625	5453.63
980.369	2466.46
984.111	1189.36
987.851	589.346
991.589	498.021
995.326	512.127
999.061	596.959
1002.79	722.838
1006.52	621.316
1010.25	754.441
1013.98	810.336
1017.71	1066.19
1021.43	897.783
1025.15	679.633
1028.87	375.494
1032.59	478.615
1036.31	152.598
1040.02	296.111
1043.73	570.234
1047.44	334.57
1051.15	239.225
1054.86	363.873
1058.56	299.471
1062.27	324.992
1065.97	211.076
1069.67	316.049
1073.37	492.393
1077.06	337.908
1080.76	243.875
1084.45	19.238
1088.14	156.605
1091.83	193.674
1095.52	190.41
1099.2	847.213
1102.88	1581.52
1106.57	2298.38
1110.24	2285.28
1113.92	1221.71
1117.6	387.949
1121.27	195.203
1124.94	371.436
1128.62	888.861
1132.28	486.846
1135.95	225.445
1139.62	211.578
1143.28	72.881
1146.94	356.377
1150.6	588.23
1154.26	768.178
1157.91	720.855
1161.57	637.715
1165.22	535.652
1168.87	595.34
1172.52	624.939
1176.17	1195.04
1179.81	2446.12
1183.45	3311.41
1187.1	2607.46
1190.74	1729.47
1194.38	906.941
1198.01	543.482
1201.65	188.57
1205.28	322.695
1208.91	205.6
1212.54	419.961
1216.17	671.465
1219.79	691.748
1223.41	783.885
1227.04	575.09
1230.66	391.209
1234.28	187.768
1237.89	284.861
1241.51	301.49
1245.12	447.715
1248.73	723.525
1252.34	400.523
1255.95	816.133
1259.56	400.742
1263.16	155.855
1266.76	271.357
1270.36	194.281
1273.96	244.691
1277.56	375.109
1281.15	684.311
1284.75	452.953
1288.34	150.121
1291.93	106.957
1295.52	73.51
1299.11	291.816
1302.69	107.566
1306.28	315.176
1309.86	246.891
1313.44	406.572
1317.01	885.484
1320.59	523.555
1324.16	230.615
1327.74	176.576
1331.31	48.324
1334.88	25.896
1338.44	159.311
1342.01	451.918
1345.58	842.859
1349.14	843.951
1352.7	833.01
1356.26	732.248
1359.81	642.568
1363.37	410.266
1366.92	137.887
1370.47	184.223
1374.03	66.408
1377.57	1648.74
1381.12	2743.94
1384.67	1584.26
1388.21	1244.52
1391.75	1212.03
1395.29	738.061
1398.83	693.805
1402.37	347.467
1405.9	85.648
1409.43	433.477
1412.96	763.67
1416.49	506.922
1420.02	744.248
1423.55	1207.25
1427.07	996.846
1430.6	1039.13
1434.12	996.268
1437.63	298.967
1441.15	101.629
1444.67	188.516
1448.18	41.328
1451.7	373.676
1455.21	443.93
1458.72	1107.64
1462.22	1407.28
1465.73	1592.33
1469.23	1495.8
1472.73	1318.28
1476.24	1132.96
1479.73	701.164
1483.23	391.887
1486.73	116.742
1490.22	407.793
1493.71	341.227
1497.2	618.449
1500.69	750.41
1504.18	1446.92
1507.67	1136.21
1511.15	1570.47
1514.63	1566.62
1518.11	1054.06
