Measurement: Raman, 514 nm, ccw, Raman Data Processed
Mineral: Cordierite
Rruff sample: R040082
Ideal chemistry: Mg_2_Al_4_Si_5_O_18_
Locality: Madagascar
Source: University of Arizona Mineral Museum
Description: Dark gray coarsely crystalline massive
Measured chemistry: (Mg_1.60_Fe^2+^_0.39_Mn_0.01_)_Σ=2_Al_4.00_(Si_4.95_Al_0.05_)_Σ=5_O_18_·1.05H_2_O·Na_0.05_ ; H_2_O estimated by difference and verified by Raman spectroscopy
Pin_id: M00022
Orientation: Laser parallel to a* (1 0 0). Fiducial mark perpendicular to laser is parallel to b [0 1 0]
Raman shift (cm-1)	intensity
71.048	0
75.239	130.883
79.427	348.433
83.614	1894.99
87.798	2767.92
91.981	3241.07
96.161	2837.26
100.34	2524.3
104.516	2824.18
108.691	4197.36
112.864	8205.12
117.034	17252.5
121.203	20938.5
125.369	12211.4
129.534	7903.16
133.696	3367.05
137.857	2323.63
142.016	1550.38
146.172	1787.04
150.327	3366.55
154.48	7116.62
158.63	7957.95
162.779	3581.65
166.926	827.598
171.07	234.389
175.213	9.663
179.354	287.619
183.493	178.326
187.63	81.5
191.765	317.143
195.898	532.021
200.029	667.85
204.158	765.359
208.285	865.302
212.41	410.455
216.533	294.306
220.654	220.461
224.773	609.859
228.891	1762.3
233.006	4854.47
237.119	8859.64
241.231	8960.8
245.34	6906.61
249.448	7125.82
253.553	13400.4
257.657	27572.3
261.758	23291.8
265.858	8453.41
269.956	3745.68
274.052	1935.34
278.146	1484.14
282.237	1717.89
286.327	2294.43
290.416	3919.62
294.502	4684.36
298.586	3795.58
302.668	2905.1
306.749	1834.86
310.827	446.828
314.903	287.229
318.978	438.27
323.051	52.379
327.121	435.197
331.19	780.761
335.257	672.317
339.322	465.705
343.385	486.243
347.446	972.323
351.505	1219.44
355.563	1312.64
359.618	2866.43
363.672	6969.84
367.723	8478.27
371.773	3616.76
375.821	1308.32
379.866	262.933
383.91	111.41
387.952	294.127
391.992	299.647
396.031	245.253
400.067	178.291
404.101	92.36
408.134	228.987
412.165	560.528
416.193	1408.42
420.22	2803.27
424.245	5558.4
428.268	6145.35
432.289	3860.99
436.309	2035.41
440.326	1301.91
444.342	1006.46
448.355	1220.06
452.367	2081.7
456.377	2229.37
460.385	1876.07
464.391	1740.8
468.395	1963.56
472.398	2379.33
476.398	2426.39
480.397	2414.09
484.394	1926.01
488.389	1728.96
492.382	986.996
496.373	423.153
500.362	175.492
504.349	7.922
508.335	37.992
512.319	71.544
516.3	226.488
520.28	450.551
524.259	608.746
528.235	1135.93
532.209	1945.9
536.182	3494.45
540.152	5825.52
544.121	9986.77
548.088	19456.8
552.053	35559.6
556.017	40158.6
559.978	30926.5
563.938	26831.1
567.895	24511.7
571.851	30483.6
575.805	41866.8
579.758	38398.2
583.708	23060.9
587.657	13045.7
591.603	7792.79
595.548	5318.06
599.491	3638.11
603.432	2849.19
607.372	2429.04
611.309	2284.08
615.245	2520.31
619.179	2601.71
623.111	2465.28
627.041	2112.03
630.97	1577.93
634.896	940.075
638.821	897.062
642.744	823.941
646.665	1017.08
650.584	1394.97
654.502	2156.12
658.418	3648.56
662.331	6790.73
666.244	13473.2
670.154	18883.8
674.062	13439.2
677.969	6927.35
681.874	4352.48
685.777	3688.34
689.678	3355.73
693.577	3117.72
697.475	3176.93
701.371	3621.45
705.265	4589.54
709.157	5776.3
713.047	5822.97
716.936	4509.4
720.823	3940.8
724.708	3312.14
728.591	2784.25
732.472	2349.13
736.352	2360.75
740.23	2292.12
744.106	2094.22
747.98	1786.05
751.853	1529.6
755.723	1281.87
759.592	1000.83
763.459	843.496
767.325	567.851
771.188	591.888
775.05	631.603
778.91	706.984
782.768	615.03
786.625	617.731
790.479	551.082
794.332	470.37
798.183	334.681
802.033	152.901
805.88	207.689
809.726	35.967
813.57	7.734
817.413	109.579
821.253	201.984
825.092	185.939
828.929	189.591
832.764	158.945
836.598	185.999
840.429	69.706
844.259	95.906
848.088	107.515
851.914	14.694
855.739	102.136
859.562	63.025
863.383	170.368
867.203	102.243
871.02	316.649
874.836	382.217
878.65	466.16
882.463	591.283
886.274	696.991
890.083	940.293
893.89	1421.19
897.695	2147.7
901.499	2775.82
905.301	2435.55
909.102	2121.91
912.9	2108.89
916.697	2587.52
920.492	3269.78
924.285	2782.69
928.077	2259.26
931.867	2001.48
935.655	2258.38
939.442	2634.96
943.226	3464.97
947.009	5175.23
950.791	8045.97
954.57	7948.01
958.348	7106.87
962.124	9856.45
965.899	16343.2
969.671	32535.3
973.442	36087
977.211	17951
980.979	7614.18
984.745	4285.69
988.509	2862.57
992.271	2121.83
996.032	1808.74
999.791	1776.12
1003.55	1913.77
1007.3	2759.08
1011.06	4013.48
1014.81	3625.49
1018.56	2900.02
1022.31	1988.17
1026.06	1371.85
1029.8	1166.82
1033.55	1005.01
1037.29	792.421
1041.03	707.043
1044.77	595.875
1048.5	665.841
1052.24	631.961
1055.97	698.231
1059.7	658.65
1063.43	658.205
1067.16	672.893
1070.89	785.718
1074.61	651.694
1078.34	745.834
1082.06	694.126
1085.78	804.814
1089.5	789.944
1093.21	891.643
1096.93	1397.7
1100.64	2019.58
1104.35	3582.34
1108.06	4845.2
1111.77	4495.47
1115.48	3093.54
1119.18	1815.8
1122.89	2174.88
1126.59	1185.72
1130.29	927.54
1133.99	740.937
1137.68	891.451
1141.38	985.608
1145.07	1033.91
1148.76	1375.71
1152.45	1616.29
1156.14	1970.09
1159.83	2538.13
1163.51	3012.89
1167.19	3818.92
1170.88	5529.04
1174.56	9369.41
1178.23	16650.5
1181.91	26972.6
1185.59	26735.8
1189.26	16664.5
1192.93	9016.47
1196.6	5215.24
1200.27	3033.12
1203.94	2005.04
1207.6	1084.24
1211.27	882.199
1214.93	601.109
1218.59	413.277
1222.25	193.945
1225.9	237.926
1229.56	90.896
1233.21	76.837
1236.86	42.639
1240.51	15.681
1244.16	31.04
1247.81	44.56
1251.45	15.911
1255.1	93.585
1258.74	43.521
1262.38	16.922
1266.02	165.562
1269.66	389.634
1273.29	237.64
1276.93	96.189
1280.56	17.183
1284.19	36.195
1287.82	51.078
1291.45	110.384
1295.07	6.573
1298.7	63.347
1302.32	70.747
1305.94	37.225
1309.56	74.574
1313.18	78.354
1316.8	43.617
1320.41	32.435
1324.02	45.214
1327.63	44.407
1331.24	23.882
1334.85	65.647
1338.46	84.976
1342.06	61.921
1345.67	103.492
1349.27	110.201
1352.87	234.157
1356.47	328.786
1360.07	346.085
1363.66	402.317
1367.25	308.188
1370.85	407.86
1374.44	419.288
1378.03	921.108
1381.61	2165.27
1385.2	2954.74
1388.78	729.301
1392.37	507.287
1395.95	452.097
1399.53	290.697
1403.1	333.688
1406.68	196.286
1410.26	86.342
1413.83	248.284
1417.4	109.828
1420.97	194.488
1424.54	267.571
1428.1	258.233
1431.67	240.349
1435.23	190.224
1438.8	129.798
1442.36	111.417
1445.91	174.673
1449.47	93.255
1453.03	112.165
1456.58	201.586
1460.13	186.502
1463.68	231.279
1467.23	84.094
1470.78	91.031
1474.33	59.177
1477.87	161.223
1481.42	80.981
1484.96	162.523
1488.5	202.423
1492.04	149.775
1495.57	199.883
1499.11	0.386
