Measurement: Raman, 514 nm, ccw, Raman Data Processed
Mineral: Cordierite
Rruff sample: R040084
Ideal chemistry: Mg_2_Al_4_Si_5_O_18_
Locality: Norway
Source: University of Arizona Mineral Museum
Description: Purple coarsely crystalline massive
Measured chemistry: (Mg_1.88_Fe^2+^_0.11_Ca_0.01_)_Σ=2_(Al_3.95_Fe^3+^_0.05_)_Σ=4_(Si_4.96_Al_0.04_)_Σ=5_O_18_·0.90H_2_O·Na_0.04_ ; H_2_O estimated by difference and verified by Raman spectroscopy
Pin_id: L00497
Orientation: Laser parallel to b* (0 1 0). Fiducial mark perpendicular to laser is parallel to c [0 0 1]
Raman shift (cm-1)	intensity
119.119	0
123.286	764.621
127.452	3473.25
131.615	3836.36
135.777	1191.86
139.937	267.338
144.094	109.109
148.25	268.68
152.403	1020.64
156.555	2442.2
160.705	2565.39
164.853	864.695
168.998	193.674
173.142	37.843
177.284	18.615
181.424	48.312
185.562	59.803
189.698	183.055
193.831	610.457
197.963	395.461
202.093	239.665
206.221	233.32
210.347	271.351
214.472	185.059
218.594	83.198
222.714	19.308
226.832	12.238
230.948	269.842
235.063	1701.57
239.175	4599.07
243.286	4112.71
247.394	2330.3
251.501	2294.83
255.605	5645.15
259.708	14593.5
263.808	12403
267.907	4079.45
272.004	1430.65
276.099	582.166
280.192	349.967
284.283	272.688
288.372	195.179
292.459	296.059
296.544	342.833
300.627	552.803
304.709	851.81
308.788	932.529
312.865	295.679
316.941	106.102
321.015	235.517
325.086	839.956
329.156	693.395
333.224	288.709
337.29	163.606
341.354	100.764
345.416	295.654
349.476	569.517
353.534	1087.53
357.591	1633.09
361.645	2952.57
365.698	6221.42
369.748	6118.06
373.797	2630.62
377.844	1261.28
381.889	665.246
385.932	312.26
389.973	142.308
394.012	107.626
398.049	19.846
402.084	51.997
406.118	52.076
410.15	35.917
414.179	18.023
418.207	40.771
422.233	137.481
426.257	458.102
430.279	644.597
434.299	328.966
438.318	45.279
442.334	48.467
446.349	23.407
450.361	58.731
454.372	18.532
458.381	28.019
462.388	34.118
466.394	266.556
470.397	452.87
474.398	690.062
478.398	1147.39
482.396	976.52
486.391	528.486
490.385	457.403
494.377	321.252
498.368	149.378
502.356	50.431
506.342	2.576
510.327	88.307
514.31	13.253
518.291	41.703
522.27	125.601
526.247	154.632
530.222	316.809
534.196	414.057
538.167	826.362
542.137	1130.62
546.105	2217.86
550.071	5132.09
554.035	9675.18
557.998	10187.3
561.958	6889.27
565.917	6141.24
569.874	7530.18
573.829	12620.1
577.782	18951.2
581.733	16643.2
585.683	9505.83
589.63	5128.38
593.576	3018.86
597.52	1973.93
601.462	1473.01
605.402	1124.58
609.341	887.401
613.277	863.673
617.212	973.274
621.145	1129.79
625.076	1391.17
629.006	1222.57
632.933	832.521
636.859	663.886
640.783	472.025
644.705	512.235
648.625	490.279
652.543	585.415
656.46	729.168
660.375	1185.53
664.288	2458.48
668.199	5030.01
672.108	6922.2
676.016	4912.73
679.921	2548.46
683.825	1612.12
687.727	1083.79
691.628	810.278
695.526	759.839
699.423	905.749
703.318	1025.86
707.211	1165.57
711.102	1400.4
714.992	1272.67
718.879	924.896
722.765	601.159
726.649	542.235
730.532	444.258
734.412	409.217
738.291	451.097
742.168	515.876
746.043	376.553
749.916	203.128
753.788	188.603
757.658	181
761.526	84.375
765.392	53.668
769.257	102.151
773.119	82.499
776.98	40.803
780.839	30.989
784.697	194.057
788.552	138.023
792.406	95.895
796.258	48.661
800.108	31.317
803.957	25.843
807.804	11.74
811.649	91.524
815.492	98.713
819.333	99.145
823.173	74.721
827.011	95.434
830.847	1.041
834.681	17.864
838.514	130.197
842.345	23.041
846.174	72.203
850.001	94.316
853.827	34.74
857.651	36.059
861.473	7.296
865.293	33.45
869.112	145.533
872.928	178.543
876.744	95.474
880.557	75.343
884.369	221.155
888.178	148.474
891.987	331.343
895.793	562.996
899.598	728.601
903.401	1047.16
907.202	731.687
911.001	722.175
914.799	1296.45
918.595	2234.36
922.389	2418.43
926.182	1254.46
929.972	756.193
933.761	636.81
937.549	505.888
941.334	589.132
945.118	670.819
948.9	837.406
952.681	990.074
956.459	1187.9
960.236	1865.96
964.012	3220
967.785	6714.07
971.557	16310.8
975.327	16108.5
979.095	6486.89
982.862	2596.85
986.627	1375.23
990.39	869.021
994.152	557.552
997.912	463.485
1001.67	496.86
1005.43	626.264
1009.18	1208.69
1012.93	1623.33
1016.68	820.256
1020.43	463.472
1024.18	251.988
1027.93	206.255
1031.67	222.713
1035.42	111.304
1039.16	125.979
1042.9	142.747
1046.63	135.621
1050.37	172.72
1054.11	91.067
1057.84	151.61
1061.57	173.289
1065.3	136.149
1069.03	88.94
1072.75	116.896
1076.47	81.939
1080.2	20.068
1083.92	99.323
1087.64	226.61
1091.36	114.178
1095.07	65.88
1098.79	135.496
1102.5	95.309
1106.21	439.373
1109.92	727.568
1113.62	555.413
1117.33	353.33
1121.04	199.351
1124.74	499.564
1128.44	7.937
1132.14	15.445
1135.83	202.198
1139.53	304.814
1143.22	368.402
1146.92	479.838
1150.61	584.192
1154.3	542.98
1157.98	733.25
1161.67	880.054
1165.35	1361.16
1169.04	1923.31
1172.72	3063.99
1176.4	5144.59
1180.07	9199.11
1183.75	15679.8
1187.42	15812.1
1191.1	8253.19
1194.77	4297.73
1198.44	2401.12
1202.1	1574.7
1205.77	1031.72
1209.43	595.776
1213.1	415.854
1216.76	315.753
1220.42	316.268
1224.07	176.068
1227.73	356.11
1231.38	235.036
1235.04	124.678
1238.69	13.262
1242.34	112.921
1245.99	31.682
1249.63	141.353
1253.28	170.899
1256.92	330.188
1260.56	369.296
1264.2	568.28
1267.84	767.203
1271.48	1306.32
1275.11	725.611
1278.74	284.071
1282.38	161.672
1286.01	229.915
1289.63	147.573
1293.26	144.646
1296.89	252.291
1300.51	78.802
1304.13	64.916
1307.75	31.08
1311.37	6.859
1314.99	52.379
1318.6	147.643
1322.22	202.538
1325.83	136.795
1329.44	140.705
1333.05	144.33
1336.66	87.643
1340.26	159.397
1343.87	166.861
1347.47	64.29
1351.07	2.336
1354.67	249.424
1358.27	205.548
1361.86	314.096
1365.46	282.504
1369.05	170.644
1372.64	298.484
1376.23	221.273
1379.82	1028.66
1383.41	7986.47
1386.99	2954.15
1390.57	981.719
1394.16	702.523
1397.74	570.108
1401.32	702.55
1404.89	505.831
1408.47	426.227
1412.04	132.505
1415.61	100.669
1419.18	144.134
1422.75	166.568
1426.32	245.034
1429.89	243.617
1433.45	310.536
1437.01	357.559
1440.58	404.446
1444.13	259.811
1447.69	233.674
1451.25	127.584
1454.81	150.758
1458.36	119.439
1461.91	193.378
1465.46	251.099
1469.01	307.313
1472.56	385.956
1476.1	422.646
1479.64	327.182
1483.19	254.528
1486.73	255.94
1490.27	61.024
1493.81	0.624
1497.34	0
