Measurement: Raman, 514 nm, ccw, Raman Data Processed
Mineral: Cordierite
Rruff sample: R040084
Ideal chemistry: Mg_2_Al_4_Si_5_O_18_
Locality: Norway
Source: University of Arizona Mineral Museum
Description: Purple coarsely crystalline massive
Measured chemistry: (Mg_1.88_Fe^2+^_0.11_Ca_0.01_)_Σ=2_(Al_3.95_Fe^3+^_0.05_)_Σ=4_(Si_4.96_Al_0.04_)_Σ=5_O_18_·0.90H_2_O·Na_0.04_ ; H_2_O estimated by difference and verified by Raman spectroscopy
Pin_id: L00196
Orientation: Laser parallel to -c* (0 0 -1). Fiducial mark perpendicular to laser is parallel to a [1 0 0]
Raman shift (cm-1)	intensity
98.09	0
102.283	14.248
106.473	391.571
110.662	823.85
114.848	2219.48
119.032	5221.15
123.214	10907
127.394	8047.95
131.571	6871.56
135.747	2596.4
139.92	1391.24
144.091	966.677
148.26	905.115
152.426	1337.94
156.591	3052.02
160.753	4096.3
164.913	1909.59
169.071	521.343
173.227	383.995
177.381	120.004
181.532	38.461
185.681	76.423
189.828	164.254
193.973	262.581
198.116	1.223
202.257	39.999
206.395	8.888
210.532	56.115
214.666	127.784
218.798	40.531
222.928	89.253
227.055	101.209
231.181	558.348
235.304	2217.55
239.426	6486.08
243.545	5703.99
247.662	3121.2
251.777	2892.1
255.889	5609.69
260	14612.8
264.108	13314.7
268.215	3616.12
272.319	1141.39
276.421	348.577
280.521	397.062
284.619	526.35
288.714	556.938
292.808	1106.66
296.899	1686.29
300.989	1365.97
305.076	1165.49
309.161	1044.92
313.244	354.232
317.325	133.171
321.403	71.285
325.48	908.758
329.554	1185.91
333.627	453.309
337.697	262.666
341.765	287.313
345.831	547.604
349.895	1251.38
353.957	1630.83
358.017	2229.35
362.075	3215.44
366.13	6355.94
370.184	7058.46
374.235	3085.16
378.285	1338.51
382.332	607.69
386.377	210.33
390.42	13.478
394.461	101.074
398.5	75.314
402.537	50.799
406.571	97.329
410.604	74.32
414.635	17.944
418.663	0.567
422.69	210.369
426.714	1171.13
430.736	1801.83
434.757	892.417
438.775	272.856
442.791	23.128
446.805	213.087
450.817	192.694
454.827	382.095
458.835	291.311
462.84	350.335
466.844	209.16
470.846	367.78
474.845	686.196
478.843	1213.76
482.839	1211.55
486.832	599.447
490.823	117.178
494.813	204.733
498.8	17.901
502.785	109.219
506.769	163.931
510.75	52.29
514.729	48.33
518.706	151.414
522.681	270.18
526.655	276.149
530.626	502.144
534.595	864.346
538.562	1314.84
542.527	2261.42
546.489	3607.89
550.45	7010.25
554.409	13301.7
558.366	14873.8
562.321	12422.4
566.274	12092.5
570.225	11754.4
574.173	15451.7
578.12	21587.5
582.065	19572.7
586.008	11187.9
589.949	6272.94
593.887	3817.9
597.824	2462.74
601.759	1815.38
605.692	1512.66
609.622	1366.29
613.551	1011.61
617.478	1006.66
621.402	1321.53
625.325	1695.54
629.246	1439.59
633.165	963.475
637.082	569.771
640.996	523.785
644.909	518.404
648.82	602.998
652.729	557.244
656.636	685.576
660.54	1531.62
664.443	2850.04
668.344	5628.44
672.243	8184.52
676.14	5529.74
680.035	2769.45
683.928	1800.89
687.819	1244.7
691.708	1074.08
695.595	743.887
699.48	736.227
703.363	967.814
707.244	1201.16
711.124	1372.13
715.001	1646.31
718.876	1261.69
722.749	1151.31
726.621	1000.91
730.49	710.896
734.358	579.709
738.223	428.59
742.087	566.604
745.948	484.322
749.808	431.744
753.666	178.871
757.521	115.703
761.375	242.316
765.227	328.666
769.077	204.701
772.925	140.406
776.771	185.779
780.615	190.85
784.457	355.662
788.298	340.195
792.136	44.371
795.972	28.213
799.807	51.721
803.639	224.893
807.47	157.74
811.298	119.709
815.125	137.775
818.95	33.732
822.773	154.926
826.594	45.781
830.413	55.619
834.23	114.541
838.045	314.215
841.858	287.461
845.67	150.275
849.479	36.049
853.287	98.932
857.093	67.572
860.896	92.854
864.698	92.164
868.498	67.742
872.296	336.199
876.092	259.902
879.886	33.365
883.679	156.582
887.469	169.584
891.258	292.383
895.044	384.982
898.829	417.381
902.612	479.512
906.393	461
910.172	832.219
913.949	1303.36
917.724	2464.45
921.498	2864.17
925.269	1613.99
929.039	1014.02
932.806	734.57
936.572	1020.72
940.336	1421.09
944.098	1728.52
947.859	2867.8
951.617	4076.82
955.373	2915.69
959.128	2654.06
962.881	4123.21
966.631	7943.58
970.38	19431.9
974.128	19298.5
977.873	7892.18
981.616	3322.02
985.358	1729.32
989.097	1298.28
992.835	975.045
996.571	685.047
1000.3	566.32
1004.04	554.836
1007.77	1443.57
1011.5	2050.95
1015.22	1794.12
1018.95	1292.32
1022.67	703.176
1026.39	304.559
1030.11	315.352
1033.83	267.355
1037.54	140.316
1041.26	283.188
1044.97	286.707
1048.68	400.361
1052.39	54.154
1056.09	198.191
1059.8	102.438
1063.5	276.846
1067.2	531.354
1070.9	346.654
1074.6	52.668
1078.29	97.654
1081.99	195.826
1085.68	99.574
1089.37	197.373
1093.06	284.479
1096.74	770.068
1100.43	697.279
1104.11	912.406
1107.79	1639.46
1111.47	1676.1
1115.15	1152.52
1118.82	838.199
1122.5	633.984
1126.17	759.93
1129.84	366.049
1133.51	22.312
1137.17	250.344
1140.84	510.432
1144.5	783.912
1148.16	1161.75
1151.82	1385.41
1155.48	1604.05
1159.13	2005.42
1162.79	1724.35
1166.44	2564.42
1170.09	4164.01
1173.74	6976.99
1177.38	12131.2
1181.03	18613.5
1184.67	17331.4
1188.31	9620.07
1191.95	5131.67
1195.59	2799.39
1199.22	1979.27
1202.86	1616.97
1206.49	1261.03
1210.12	1047.52
1213.75	924.906
1217.38	847.344
1221	441.604
1224.62	95.785
1228.24	461.961
1231.86	264.859
1235.48	675.541
1239.1	795.109
1242.71	925.344
1246.33	815.205
1249.94	204.736
1253.55	254.324
1257.15	373.34
1260.76	642.928
1264.36	1413.93
1267.96	2412.2
1271.56	1798.96
1275.16	714.766
1278.76	331.043
1282.35	165.885
1285.95	280.795
1289.54	27.973
1293.13	115.889
1296.72	395.354
1300.3	595.434
1303.89	744.342
1307.47	823.207
1311.05	439.365
1314.63	74.123
1318.21	151.455
1321.78	438.373
1325.36	206.32
1328.93	464.447
1332.5	594.363
1336.07	1183.83
1339.63	1102.35
1343.2	1040.26
1346.76	616.715
1350.33	212.391
1353.88	47.418
1357.44	47.328
1361	397.422
1364.55	390.963
1368.11	722.598
1371.66	1025.42
1375.21	2527.52
1378.76	10840.9
1382.3	4895.18
1385.85	1401.88
1389.39	696.758
1392.93	623.305
1396.47	710.047
1400.01	906.141
1403.54	1265.52
1407.08	1657.28
1410.61	1814.79
1414.14	1775.89
1417.67	1448.33
1421.2	1041.46
1424.72	445.582
1428.25	254.227
1431.77	147.547
1435.29	177.781
1438.81	642.152
1442.33	1137.9
1445.84	1276.16
1449.35	1855.98
1452.87	1954.06
1456.38	1809.84
1459.88	1231.36
1463.39	1127.82
1466.9	565.914
1470.4	450.328
1473.9	216.285
1477.4	241.008
1480.9	540.211
1484.4	1195.47
1487.89	1760.84
1491.39	1795.9
1494.88	1944.24
1498.37	1865.5
1501.86	1582.9
1505.34	716.871
1508.83	497.613
1512.31	285.535
1515.79	90.602
1519.27	4.141
