Measurement: Raman, 514 nm, ccw, Raman Data Processed
Mineral: Cordierite
Rruff sample: R040084
Ideal chemistry: Mg_2_Al_4_Si_5_O_18_
Locality: Norway
Source: University of Arizona Mineral Museum
Description: Purple coarsely crystalline massive
Measured chemistry: (Mg_1.88_Fe^2+^_0.11_Ca_0.01_)_Σ=2_(Al_3.95_Fe^3+^_0.05_)_Σ=4_(Si_4.96_Al_0.04_)_Σ=5_O_18_·0.90H_2_O·Na_0.04_ ; H_2_O estimated by difference and verified by Raman spectroscopy
Pin_id: L00443
Orientation: Laser parallel to a* (1 0 0). Fiducial mark perpendicular to laser is parallel to -b [0 -1 0]
Raman shift (cm-1)	intensity
89.254	0
93.442	52.541
97.628	5.715
101.812	155.529
105.994	680.091
110.174	3786.92
114.351	4854.84
118.527	2425.83
122.701	3096.48
126.873	4205.53
131.042	3360.47
135.21	1742.79
139.376	1145.26
143.539	929.946
147.701	1020.14
151.861	1495.34
156.018	2519.38
160.174	2034.85
164.327	806.566
168.479	571.141
172.628	304.229
176.776	308.642
180.922	289.964
185.065	308.95
189.207	566.939
193.346	763.883
197.484	653.713
201.619	992.462
205.753	1487.15
209.884	1350.77
214.014	468.324
218.141	118.789
222.267	38.148
226.391	47.613
230.512	48.509
234.632	527.445
238.749	1408.79
242.865	1264.39
246.979	1198.9
251.09	2023.71
255.2	6087.61
259.308	11195.9
263.414	6939.57
267.517	2389.21
271.619	1061.82
275.719	730.323
279.817	772.463
283.913	837.572
288.007	1552.03
292.099	2874.23
296.189	3606.68
300.277	3719.32
304.363	4372.1
308.447	3934.95
312.529	1417.83
316.609	494.718
320.687	593.576
324.764	1686.28
328.838	1618.87
332.91	629.366
336.981	324.699
341.049	153.825
345.116	214.743
349.18	306.454
353.243	506.959
357.304	665.262
361.362	720.337
365.419	736.212
369.474	482.877
373.527	284.334
377.578	236.578
381.627	21.613
385.674	55.661
389.719	9.113
393.762	42.546
397.804	93.683
401.843	121.425
405.881	79.967
409.916	45.567
413.95	97.48
417.981	20.489
422.011	104.905
426.039	45.158
430.065	207.905
434.089	68.488
438.111	43.316
442.131	54.98
446.149	30.818
450.166	135.366
454.18	318.668
458.193	491.756
462.203	492.648
466.212	843.42
470.219	1214.03
474.224	1134.4
478.227	1194.56
482.228	1434.48
486.227	2344.18
490.224	2653.68
494.22	1462.98
498.213	1182.09
502.205	391.075
506.194	299.963
510.182	178.738
514.168	257.392
518.152	215.969
522.134	234.496
526.114	403.098
530.093	641.616
534.069	979.949
538.044	1688.18
542.017	2685.9
545.987	5288.48
549.956	12053
553.923	20425.1
557.889	17586.2
561.852	10099.8
565.813	7147.44
569.773	7214.44
573.731	10405.1
577.686	13575.5
581.64	10588.8
585.593	6125.07
589.543	3139.89
593.491	1905.74
597.438	1109.59
601.382	892.599
605.325	816.056
609.266	790.212
613.205	766.271
617.142	1032.19
621.078	1583.44
625.011	1647.06
628.943	1282.77
632.872	628.475
636.8	454.045
640.726	359.543
644.651	396.558
648.573	443.003
652.494	561.769
656.412	1150.3
660.329	1959.02
664.244	4167.29
668.157	8291.07
672.069	10475
675.978	7041.35
679.886	3646.66
683.792	2167.79
687.696	1302.48
691.598	1019.99
695.498	782.388
699.397	850.9
703.293	945.326
707.188	1269.7
711.081	1894.15
714.972	1988.69
718.862	1113.42
722.749	1228.47
726.635	1063.83
730.519	879.452
734.401	1075.26
738.281	1301.14
742.16	1017.16
746.036	713.162
749.911	589.092
753.784	522.534
757.655	310.838
761.525	276.664
765.392	252.461
769.258	88.196
773.122	163.861
776.984	70.636
780.844	74.58
784.703	169.687
788.56	64.729
792.415	169.711
796.268	154.634
800.119	119.481
803.969	54.216
807.816	108.819
811.662	86.697
815.506	87.441
819.349	78.626
823.189	64.99
827.028	31.624
830.865	48.588
834.7	121.182
838.534	46.016
842.365	32.112
846.195	110.351
850.023	58.943
853.85	132.187
857.674	23.291
861.497	142.496
865.318	105.444
869.137	246.499
872.955	327.538
876.77	268.562
880.584	209.567
884.396	420.552
888.207	591.515
892.015	992.457
895.822	1423.38
899.627	2644.28
903.43	2395.17
907.232	1336.05
911.032	856.922
914.83	907.784
918.626	1038.67
922.42	659.498
926.213	640.401
930.004	540.53
933.793	679.079
937.581	620.2
941.366	781.264
945.15	682.434
948.932	1023.63
952.713	1263.28
956.491	1463.44
960.268	2171.37
964.044	3583.16
967.817	6167.42
971.589	12380
975.359	10508.6
979.127	4828.57
982.893	2448.52
986.658	1875.7
990.421	1639.95
994.183	1859.64
997.942	2444.85
1001.7	3923.84
1005.46	7856.43
1009.21	17589.3
1012.96	20512.5
1016.71	10005.9
1020.46	4519.48
1024.21	2493.19
1027.96	1667.02
1031.7	1210.96
1035.44	905.033
1039.18	689.24
1042.92	613.607
1046.66	598.225
1050.39	493.076
1054.13	548.084
1057.86	453.227
1061.59	418.489
1065.32	433.852
1069.05	262.961
1072.77	308.925
1076.49	254.589
1080.22	342.629
1083.94	320.344
1087.65	356.896
1091.37	163.777
1095.09	100.24
1098.8	97.723
1102.51	135.064
1106.22	714.021
1109.93	793.992
1113.63	651.658
1117.34	459.481
1121.04	216.679
1124.74	314.024
1128.44	48.457
1132.14	70.653
1135.84	19.932
1139.53	143.911
1143.22	233.953
1146.91	204.644
1150.61	114.78
1154.29	49.92
1157.98	172.356
1161.66	301.691
1165.35	406.472
1169.03	488.01
1172.71	586.857
1176.38	826.518
1180.06	1455.92
1183.73	2486
1187.41	2346.55
1191.08	1311.75
1194.75	741.535
1198.41	459.116
1202.08	419.441
1205.74	219.262
1209.41	137.279
1213.07	45.176
1216.73	172.979
1220.38	150.463
1224.04	357.641
1227.69	259.434
1231.35	152.881
1235	69.33
1238.65	144.805
1242.3	20.184
1245.94	75.398
1249.59	241.068
1253.23	256.139
1256.87	191.242
1260.51	305.91
1264.15	289.936
1267.78	224.008
1271.42	237.705
1275.05	80.602
1278.68	94.49
1282.31	136.68
1285.94	268.449
1289.56	170.223
1293.19	119.668
1296.81	229.523
1300.43	160.707
1304.05	101.584
1307.67	136.92
1311.29	95.041
1314.9	312.783
1318.52	260.133
1322.13	277.096
1325.74	153.662
1329.34	39.809
1332.95	15.51
1336.56	116.404
1340.16	81.695
1343.76	102.549
1347.36	96.441
1350.96	140.342
1354.56	523.57
1358.15	103.807
1361.74	205.875
1365.34	147.461
1368.93	9.105
1372.52	50.906
1376.1	128.488
1379.69	513.025
1383.27	1429.96
1386.85	967.676
1390.43	542.156
1394.01	669.688
1397.59	427.678
1401.17	330.037
1404.74	315.037
1408.31	205.572
1411.88	153.605
1415.45	83.967
1419.02	141.393
1422.59	449.543
1426.15	534.107
1429.71	374.361
1433.28	382.592
1436.84	344.938
1440.39	268.959
1443.95	252.748
1447.5	193.125
1451.06	305.904
1454.61	258.92
1458.16	368.697
1461.71	437.148
1465.26	466.053
1468.8	663.105
1472.34	537.729
1475.89	523.627
1479.43	203.297
1482.97	313.51
1486.5	234.896
1490.04	46.068
1493.57	127.764
1497.11	170.84
1500.64	253.867
1504.17	305.254
1507.69	380.883
1511.22	357.521
1514.74	231.531
1518.27	0
