Measurement: Raman, 514 nm, ccw, Raman Data Processed
Mineral: Cordierite
Rruff sample: R040082
Ideal chemistry: Mg_2_Al_4_Si_5_O_18_
Locality: Madagascar
Source: University of Arizona Mineral Museum
Description: Dark gray coarsely crystalline massive
Measured chemistry: (Mg_1.60_Fe^2+^_0.39_Mn_0.01_)_Σ=2_Al_4.00_(Si_4.95_Al_0.05_)_Σ=5_O_18_·1.05H_2_O·Na_0.05_ ; H_2_O estimated by difference and verified by Raman spectroscopy
Pin_id: M00040
Orientation: Laser parallel to -c* (0 0 -1). Fiducial mark perpendicular to laser is parallel to a [1 0 0]
Raman shift (cm-1)	intensity
93.375	0
97.554	24.895
101.732	250.966
105.908	1582.74
110.082	3705.81
114.254	10557.9
118.424	19803.8
122.592	14287.3
126.758	5901.48
130.922	2289.99
135.083	1166.45
139.243	1012.37
143.401	772.351
147.557	1267.93
151.711	3147.36
155.863	6020.07
160.013	4838.68
164.161	1785.64
168.308	306.27
172.452	110.435
176.594	96.198
180.734	311.434
184.872	406.428
189.008	253.552
193.143	248.976
197.275	83.773
201.405	83.982
205.534	210.639
209.66	66.672
213.784	214.981
217.907	122.632
222.027	155.388
226.146	670.411
230.263	1719.7
234.377	3906.15
238.49	5584.08
242.601	4222.98
246.709	3379.7
250.816	3954.22
254.921	7320.79
259.024	11190
263.125	5997.14
267.224	2605.39
271.321	1605.49
275.416	1750.78
279.51	2745.84
283.601	5243.45
287.69	10782.5
291.778	17512.6
295.863	17803.7
299.947	11255.9
304.029	6363.06
308.108	3605.34
312.186	2278.64
316.262	2139.89
320.336	2691.26
324.408	3260.76
328.478	1976.62
332.546	957.829
336.612	742.196
340.677	799.336
344.739	1221.77
348.799	1668.31
352.858	1522.99
356.915	1481.83
360.969	2067.47
365.022	3080.93
369.073	2153.42
373.122	721.133
377.169	275.034
381.215	103.929
385.258	256.032
389.299	208.21
393.339	380.688
397.376	350.093
401.412	249.395
405.446	121.001
409.478	318.944
413.508	1307.17
417.536	3380.44
421.562	8089.43
425.586	14464
429.609	11239
433.629	5250.47
437.648	2529.41
441.665	1405.82
445.68	1238.7
449.693	1453.06
453.704	1742.91
457.713	1334.28
461.721	821.171
465.726	841.609
469.73	1010.61
473.731	1243.18
477.731	1472.36
481.729	1532.16
485.725	1310.62
489.72	1093.77
493.712	995.604
497.703	779.803
501.691	768.618
505.678	721.205
509.663	828.191
513.646	960.323
517.627	1500.74
521.607	1505.47
525.584	1818.71
529.56	2299.47
533.534	3506.44
537.506	5560.77
541.476	8636.31
545.444	15249.2
549.41	29979.5
553.375	44778.7
557.337	39941.5
561.298	30483.8
565.257	22971.1
569.214	19061
573.17	21278.7
577.123	22819.6
581.075	17134.8
585.024	10486.2
588.972	6953.79
592.918	4705.65
596.863	3453.75
600.805	2736.11
604.746	2480.72
608.685	2187.49
612.621	2240.75
616.557	2510.17
620.49	2442.88
624.421	2097.87
628.351	1466.15
632.279	1280.73
636.205	1033.6
640.129	1034.77
644.051	1199.26
647.972	1300.04
651.89	1812.21
655.807	2505.93
659.722	4365.11
663.636	8229.52
667.547	14170
671.457	14432.3
675.365	8194.77
679.271	4127.08
683.175	2702.29
687.077	2102.73
690.978	1724.94
694.877	1326.72
698.774	1510.15
702.669	1915.19
706.562	3244.2
710.454	4477.42
714.344	4451.7
718.232	4501.09
722.118	5006.41
726.002	4772.16
729.885	3784.02
733.766	2068.94
737.645	1521.91
741.522	831.921
745.397	706.968
749.271	453.042
753.143	454.139
757.013	475.249
760.881	431.367
764.748	396.483
768.613	454.593
772.476	551.686
776.337	567.757
780.196	584.798
784.054	624.801
787.91	585.758
791.764	365.664
795.616	352.511
799.467	227.291
803.316	196.001
807.163	35.628
811.008	6.163
814.851	30.554
818.693	42.253
822.533	157.621
826.371	124.982
830.208	200.434
834.042	230.127
837.875	190.248
841.706	184.594
845.536	216.002
849.363	113.4
853.189	128.579
857.013	75.468
860.836	111.04
864.656	94.206
868.475	175.128
872.292	322.842
876.108	293.332
879.922	555.592
883.733	470.622
887.544	557.422
891.352	613.778
895.159	672.342
898.964	825.464
902.767	996.736
906.568	1166.04
910.368	1419.5
914.166	1986.74
917.962	2876.77
921.757	2890.59
925.55	2192.19
929.341	1756.6
933.13	1842.79
936.918	2110.78
940.703	2606.58
944.488	3555.24
948.27	6216.75
952.051	8079.15
955.83	6397.38
959.607	5949.33
963.383	7894.87
967.156	13812.6
970.928	22405.3
974.699	15846.4
978.468	7536.95
982.234	4178.86
986	2549.03
989.763	1894.97
993.525	1498.8
997.285	1466.84
1001.04	1280.03
1004.8	1531.73
1008.55	2238.11
1012.31	2777.45
1016.06	2875.82
1019.81	2236.78
1023.56	1604.82
1027.31	1105.97
1031.05	1011.22
1034.79	783.61
1038.53	795.192
1042.27	703.99
1046.01	570.942
1049.75	534.055
1053.48	437.358
1057.22	544.819
1060.95	487.454
1064.68	428.781
1068.4	340.227
1072.13	394.379
1075.86	357.745
1079.58	301.29
1083.3	437.017
1087.02	436.9
1090.74	681.242
1094.45	949.694
1098.17	1538.42
1101.88	2750.48
1105.59	4410.05
1109.3	5245.52
1113.01	4144.88
1116.71	2434.72
1120.42	1374
1124.12	1189.55
1127.82	832.688
1131.52	767.115
1135.22	872.695
1138.91	628.439
1142.61	801.153
1146.3	969.391
1149.99	1068.19
1153.68	1267.19
1157.37	1583.53
1161.06	1788.77
1164.74	1958.54
1168.42	2469.28
1172.1	3516.89
1175.78	6003.72
1179.46	10082.1
1183.14	13554.9
1186.81	10851.3
1190.48	7026.62
1194.15	3932.59
1197.83	2429.94
1201.49	1622.55
1205.16	1103.61
1208.82	702.628
1212.49	484.987
1216.15	368.982
1219.81	264.312
1223.46	219.935
1227.12	81.293
1230.78	140.359
1234.43	19.272
1238.08	135.732
1241.73	41.368
1245.38	5.857
1249.03	38.784
1252.67	84.448
1256.31	120.225
1259.95	73.759
1263.6	14.653
1267.23	570.193
1270.87	337.788
1274.51	85.259
1278.14	41.841
1281.77	5.044
1285.4	9.701
1289.03	74.008
1292.66	50.725
1296.28	38.312
1299.91	22.212
1303.53	93.568
1307.15	129.347
1310.77	14.764
1314.38	144.841
1318	2.426
1321.61	17.917
1325.23	5.143
1328.84	35.325
1332.45	8.272
1336.06	60.727
1339.66	137.718
1343.27	33.714
1346.87	108.402
1350.47	31.131
1354.07	67.152
1357.67	64.728
1361.26	39.474
1364.86	32.896
1368.45	132.775
1372.04	53.788
1375.63	163.456
1379.22	426.741
1382.81	1241.67
1386.39	780.875
1389.98	288.998
1393.56	212.665
1397.14	194.704
1400.72	282.967
1404.3	255.52
1407.87	177.981
1411.45	266.61
1415.02	236.06
1418.59	287.406
1422.16	228.777
1425.73	228.119
1429.29	278.667
1432.86	217.81
1436.42	240.879
1439.98	246.497
1443.54	333.158
1447.1	199.856
1450.66	382.182
1454.21	276.738
1457.77	335.623
1461.32	254.836
1464.87	225.176
1468.42	182.521
1471.96	204.547
1475.51	147.613
1479.06	169.913
1482.6	236.993
1486.14	121.918
1489.68	139.925
1493.22	223.701
1496.75	84.015
1500.29	60.721
1503.82	200.014
1507.35	115.821
1510.88	227.416
1514.41	4.433
1517.94	79.912
