Measurement: Raman, 514 nm, ccw, Raman Data Processed
Mineral: Cordierite
Rruff sample: R040081
Ideal chemistry: Mg_2_Al_4_Si_5_O_18_
Locality: Laramie Range, Wyoming, USA
Source: University of Arizona Mineral Museum
Description: Blue to purple coarsely crystalline
Measured chemistry: (Mg_1.80_Fe^2+^_0.20_)_Σ=2_Al_4.00_(Si_4.96_Al_0.04_)_Σ=5_O_18_·0.86H_2_O·Na_0.04_ ; H_2_O estimated by difference and verified by Raman spectroscopy
Pin_id: M00015
Orientation: Laser parallel to c* (0 0 1). Fiducial mark perpendicular to laser is parallel to a [1 0 0]
Raman shift (cm-1)	intensity
98.947	0
103.124	42.287
107.3	98.058
111.473	695.642
115.644	2063.06
119.813	3528.81
123.981	2510.18
128.146	796.588
132.309	411.943
136.47	233.818
140.63	348.266
144.787	456.774
148.942	1014.77
153.096	2515.53
157.247	3945.16
161.396	2100.24
165.544	783.235
169.689	88.914
173.833	160.015
177.974	179.517
182.114	253.412
186.251	557.644
190.387	1036.52
194.52	738.384
198.652	486.426
202.782	112.792
206.909	152.157
211.035	19.476
215.159	79.514
219.281	83.961
223.4	79.953
227.518	233.207
231.634	1226.56
235.748	3411.01
239.86	4459.1
243.97	2409.42
248.079	1821.4
252.185	1982.46
256.289	3954.38
260.391	5156.28
264.492	2258.29
268.59	1038.54
272.687	1050.9
276.781	1275.46
280.874	2107.59
284.964	4570.91
289.053	10011.2
293.14	16737.2
297.225	12978.8
301.308	7050.02
305.389	3859.08
309.468	2079.21
313.545	1940.94
317.62	1542.71
321.693	2119.15
325.765	2448.97
329.834	758.875
333.902	486.459
337.967	343.174
342.031	285.633
346.093	341.715
350.153	561.012
354.21	772.129
358.267	783.256
362.321	1151.38
366.373	1328.5
370.423	647.615
374.471	484.705
378.518	85.816
382.563	26.125
386.605	8.898
390.646	137.588
394.685	118.441
398.722	128.654
402.757	164.814
406.79	22.961
410.821	421.477
414.851	975.406
418.878	2789.17
422.904	7366.9
426.927	13361.6
430.949	8102.4
434.969	3322.27
438.987	1537.17
443.003	761.068
447.018	570.961
451.03	317.824
455.041	372.648
459.049	85.438
463.056	31.217
467.061	19.926
471.064	190.607
475.065	73.25
479.064	53.834
483.062	122.695
487.057	94.412
491.051	44.561
495.043	65.219
499.032	48.725
503.02	5.371
507.007	12.465
510.991	313.213
514.973	157.896
518.954	228.594
522.933	715.367
526.91	865.23
530.885	1427.63
534.858	2106.97
538.829	3431.11
542.799	5700
546.766	11938.9
550.732	24605.9
554.696	31917.9
558.658	22414
562.618	14192.4
566.576	9971.75
570.533	10184
574.488	11713.1
578.44	11618
582.391	7603.89
586.341	4343.63
590.288	2884.24
594.233	1849.7
598.177	1404.03
602.119	1041.58
606.059	980.811
609.997	836.852
613.933	1037.58
617.868	1401.55
621.801	1664.38
625.731	1015.7
629.66	722.377
633.588	832.043
637.513	409.934
641.437	769.908
645.358	807.713
649.278	821.16
653.196	1362.16
657.113	2085.8
661.027	3370.73
664.94	6670.95
668.851	12049.8
672.76	10608.9
676.667	5397.17
680.572	2717.59
684.476	1765.34
688.378	1655.83
692.278	770.521
696.176	1464.94
700.072	1655.25
703.967	2247.11
707.86	2802.28
711.751	4221.45
715.64	3267.59
719.527	3782.54
723.413	4437.43
727.297	3221.41
731.179	2040.02
735.059	1221.36
738.937	1102.03
742.814	764.662
746.689	526.996
750.562	571.688
754.433	393.068
758.303	105.131
762.17	291.848
766.036	352.23
769.901	293.268
773.763	59.094
777.624	274.049
781.482	184.857
785.339	323.49
789.195	116.984
793.048	116.18
796.9	229.082
800.75	87.406
804.598	273.592
808.445	46.404
812.289	172.93
816.132	14
819.973	51.389
823.813	44.652
827.65	106.225
831.486	198.318
835.32	76.229
839.152	22.33
842.983	100.52
846.812	77.086
850.639	253.107
854.464	4.705
858.288	155.898
862.11	28.711
865.93	231.109
869.748	36.049
873.564	271.617
877.379	504.838
881.192	375.715
885.004	324.277
888.813	173.51
892.621	530.395
896.427	290.977
900.232	591.242
904.034	399.209
907.835	660.877
911.634	823.973
915.432	869.641
919.227	1310.42
923.021	1104.84
926.813	925.785
930.604	830.211
934.393	1032.2
938.18	839.047
941.965	1157.05
945.749	1813.61
949.53	2577.31
953.311	2041.04
957.089	1843.08
960.866	1933.89
964.641	3168.73
968.414	6907.94
972.185	11728.2
975.955	6964.79
979.723	3337.93
983.49	1301.13
987.254	814.551
991.017	924.184
994.779	951.84
998.538	414.102
1002.3	784.836
1006.05	991.582
1009.81	1256.59
1013.56	1543.03
1017.31	1199.53
1021.06	1067.86
1024.81	675
1028.55	925.207
1032.3	444.484
1036.04	480.492
1039.78	936.965
1043.52	730.031
1047.26	572.441
1050.99	825.277
1054.73	496.961
1058.46	633.289
1062.19	567.297
1065.92	341.672
1069.65	376.164
1073.37	449.195
1077.1	214.637
1080.82	473.777
1084.54	293.895
1088.26	301.223
1091.97	301.996
1095.69	209.137
1099.4	959.949
1103.12	904.336
1106.83	2329.94
1110.54	2342.21
1114.24	1831.26
1117.95	1058.75
1121.65	851.629
1125.35	306.633
1129.06	252.777
1132.75	66.195
1136.45	213.367
1140.15	43.219
1143.84	112.645
1147.53	181.996
1151.22	203.66
1154.91	461.383
1158.6	490.297
1162.28	402.898
1165.97	713.82
1169.65	895.129
1173.33	700.766
1177.01	1333.36
1180.69	2433.59
1184.36	3418.26
1188.04	2874.92
1191.71	1855.15
1195.38	1030.68
1199.05	870.539
1202.71	780.758
1206.38	556.594
1210.04	397.871
1213.71	334.949
1217.37	326.078
1221.03	284.414
1224.68	672.652
1228.34	376.844
1231.99	204.645
1235.65	76.934
1239.3	389.609
1242.95	192.938
1246.59	477.434
1250.24	300.527
1253.88	94.219
1257.53	53.949
1261.17	167.039
1264.81	347.359
1268.45	441.348
1272.08	264.703
1275.72	317.109
1279.35	50.355
1282.98	92.418
1286.61	7.699
1290.24	290.047
1293.87	121.043
1297.49	101.031
1301.11	27.574
1304.73	222.148
1308.36	88.074
1311.97	164.602
1315.59	207.965
1319.2	322.16
1322.82	401.484
1326.43	132.434
1330.04	521.988
1333.65	431.848
1337.26	470.176
1340.86	546.094
1344.47	425.555
1348.07	391.828
1351.67	562.223
1355.27	423.016
1358.87	533.379
1362.46	852.992
1366.06	733.309
1369.65	729.621
1373.24	556.871
1376.83	690.488
1380.42	2240.27
1384	3764.78
1387.59	1205.81
1391.17	580.203
1394.75	550.961
1398.33	471.668
1401.91	441.512
1405.49	739.613
1409.06	788.93
1412.64	352.312
1416.21	489.184
1419.78	175.824
1423.35	535.02
1426.91	445.09
1430.48	57.273
1434.05	1.859
