Measurement: Raman, 514 nm, ccw, Raman Data Processed
Mineral: Cordierite
Rruff sample: R040082
Ideal chemistry: Mg_2_Al_4_Si_5_O_18_
Locality: Madagascar
Source: University of Arizona Mineral Museum
Description: Dark gray coarsely crystalline massive
Measured chemistry: (Mg_1.60_Fe^2+^_0.39_Mn_0.01_)_Σ=2_Al_4.00_(Si_4.95_Al_0.05_)_Σ=5_O_18_·1.05H_2_O·Na_0.05_ ; H_2_O estimated by difference and verified by Raman spectroscopy
Pin_id: M00024
Orientation: Laser parallel to -b* (0 -1 0). Fiducial mark perpendicular to laser is parallel to -a [-1 0 0]
Raman shift (cm-1)	intensity
90.587	0
94.768	120.524
98.947	95.396
103.124	17.162
107.3	5.883
111.473	350.796
115.644	1380.46
119.813	1913.1
123.981	3179.67
128.146	2786.23
132.309	876.334
136.47	111.161
140.63	137.292
144.787	379.54
148.942	1280.86
153.096	3285.59
157.247	4025.01
161.396	1613.55
165.544	366.182
169.689	7.741
173.833	96.387
177.974	56.579
182.114	0.166
186.251	142.599
190.387	151.426
194.52	11.969
198.652	165.878
202.782	204.932
206.909	115.153
211.035	7.489
215.159	5.814
219.281	21.958
223.4	58.81
227.518	171.336
231.634	583.602
235.748	1464.98
239.86	1795.43
243.97	1841.61
248.079	2666.04
252.185	6133.75
256.289	14105.5
260.391	15153
264.492	6624.2
268.59	2970.89
272.687	1838.78
276.781	1616.07
280.874	1903.09
284.964	2654.31
289.053	4810.14
293.14	7149.94
297.225	7863.29
301.308	8460.17
305.389	9278.99
309.468	5534.17
313.545	2264.06
317.62	1408.05
321.693	2365.71
325.765	3828.5
329.834	2329.91
333.902	1198.24
337.967	859.319
342.031	779.067
346.093	729.344
350.153	759.839
354.21	668.628
358.267	648.791
362.321	480.791
366.373	336.239
370.423	285.297
374.471	248.031
378.518	61.675
382.563	246.919
386.605	239.74
390.646	137.152
394.685	102.409
398.722	121.838
402.757	65.785
406.79	75.767
410.821	58.08
414.851	40.743
418.878	143.31
422.904	100.036
426.927	24.136
430.949	2.357
434.969	33.435
438.987	25.22
443.003	20.35
447.018	25.396
451.03	57.951
455.041	100.193
459.049	170.245
463.056	223.146
467.061	434.851
471.064	738.348
475.065	951.64
479.064	688.653
483.062	473.38
487.057	475.833
491.051	305.062
495.043	153.139
499.032	171.065
503.02	189.869
507.007	228.65
510.991	310.41
514.973	536.774
518.954	635.084
522.933	961.225
526.91	1274.79
530.885	1705.22
534.858	2717.13
538.829	4466.05
542.799	8152.81
546.766	17385.8
550.732	33633.5
554.696	38427.1
558.658	24853.4
562.618	15634.1
566.576	13906.2
570.533	18163.9
574.488	25284.2
578.44	24255.9
582.391	15043.5
586.341	8211.75
590.288	4963.53
594.233	3360.43
598.177	2685.4
602.119	2360.53
606.059	2347.17
609.997	2545.51
613.933	3474.7
617.868	4060.71
621.801	4325.88
625.731	3478.44
629.66	2221.38
633.588	1590.26
637.513	1109.15
641.437	1422.04
645.358	1689.16
649.278	1781.5
653.196	2257.6
657.113	3021.01
661.027	5067.69
664.94	10333.3
668.851	16763
672.76	13462.3
676.667	6809.23
680.572	3341.19
684.476	1967.17
688.378	1340.19
692.278	897.279
696.176	1037.44
700.072	1167.69
703.967	1647.02
707.86	2464.44
711.751	3363.94
715.64	2343.54
719.527	1902.32
723.413	1516.32
727.297	1170.69
731.179	722.959
735.059	567.688
738.937	519.842
742.814	467.341
746.689	414.026
750.562	312.907
754.433	200.039
758.303	14.099
762.17	20.166
766.036	37.662
769.901	55.371
773.763	151.433
777.624	49.753
781.482	49.186
785.339	29.298
789.195	30.73
793.048	53.309
796.9	123.03
800.75	77.882
804.598	84.229
808.445	90.348
812.289	80.468
816.132	54.643
819.973	19.858
823.813	7.012
827.65	85.971
831.486	285.127
835.32	241.458
839.152	231.986
842.983	524.77
846.812	672.938
850.639	814.338
854.464	1028.1
858.288	1278.14
862.11	1260.38
865.93	1007.81
869.748	782.446
873.564	778.276
877.379	838.302
881.192	705.525
885.004	792.944
888.813	964.561
892.621	1126.9
896.427	1372.37
900.232	1496.56
904.034	1383.94
907.835	1229.51
911.634	1183.05
915.432	1232.74
919.227	1375.34
923.021	1350.31
926.813	1095.69
930.604	1161.02
934.393	1171.28
938.18	1170.37
941.965	1236.49
945.749	1600.03
949.53	1729.81
953.311	1931.6
957.089	2645.99
960.866	3936.79
964.641	7024.94
968.414	15071.4
972.185	20921.7
975.955	11348.9
979.723	5498.62
983.49	3480.6
987.254	3203.83
991.017	3645.49
994.779	4796.73
998.538	6986.73
1002.3	13178.9
1006.05	24004
1009.81	41504.4
1013.56	30505.2
1017.31	14115.2
1021.06	7151.44
1024.81	4089.88
1028.55	2670.52
1032.3	1701.36
1036.04	1136.38
1039.78	1047.59
1043.52	865.979
1047.26	619.562
1050.99	602.324
1054.73	460.274
1058.46	467.41
1062.19	504.163
1065.92	372.16
1069.65	359.004
1073.37	500.591
1077.1	596.824
1080.82	700.639
1084.54	648.534
1088.26	479.337
1091.97	415.981
1095.69	198.736
1099.4	381.594
1103.12	556.562
1106.83	1120.7
1110.54	992.984
1114.24	531.09
1117.95	334.707
1121.65	368.478
1125.35	247.335
1129.06	118.232
1132.75	7.167
1136.45	42.82
1140.15	25.007
1143.84	53.447
1147.53	54.966
1151.22	91.597
1154.91	93.757
1158.6	151.143
1162.28	238.363
1165.97	327.142
1169.65	452.75
1173.33	519.08
1177.01	876.169
1180.69	1614.8
1184.36	1733.33
1188.04	928.844
1191.71	606.402
1195.38	198.556
1199.05	248.91
1202.71	57.677
1206.38	83.87
1210.04	5.861
1213.71	41.55
1217.37	90.856
1221.03	4.779
1224.68	37.376
1228.34	109.609
1231.99	62.721
1235.65	193.758
1239.3	329.671
1242.95	217.39
1246.59	385.802
1250.24	236.602
1253.88	320.075
1257.53	381.419
1261.17	191.137
1264.81	369.459
1268.45	554.499
1272.08	656.036
1275.72	614.086
1279.35	555.256
1282.98	375.447
1286.61	336.535
1290.24	381.777
1293.87	458.13
1297.49	480.389
1301.11	418.562
1304.73	285.678
1308.36	461.717
1311.97	725.643
1315.59	679.543
1319.2	756.43
1322.82	732.327
1326.43	602.915
1330.04	396.542
1333.65	87.313
1337.26	158.754
1340.86	128.719
1344.47	95.502
1348.07	50.025
1351.67	147.188
1355.27	39.89
1358.87	14.038
1362.46	9.009
1366.06	167.792
1369.65	136.2
1373.24	224.562
1376.83	263.735
1380.42	451.803
1384	967.721
1387.59	445.099
1391.17	145.104
1394.75	34.56
1398.33	139.379
1401.91	85.963
1405.49	222.195
1409.06	157.894
1412.64	144.929
1416.21	90.457
1419.78	0
