Measurement: Raman, 514 nm, ccw, Raman Data Processed
Mineral: Cordierite
Rruff sample: R040084
Ideal chemistry: Mg_2_Al_4_Si_5_O_18_
Locality: Norway
Source: University of Arizona Mineral Museum
Description: Purple coarsely crystalline massive
Measured chemistry: (Mg_1.88_Fe^2+^_0.11_Ca_0.01_)_Σ=2_(Al_3.95_Fe^3+^_0.05_)_Σ=4_(Si_4.96_Al_0.04_)_Σ=5_O_18_·0.90H_2_O·Na_0.04_ ; H_2_O estimated by difference and verified by Raman spectroscopy
Pin_id: L00196
Orientation: Laser parallel to -c* (0 0 -1). Fiducial mark perpendicular to laser is parallel to a [1 0 0]
Raman shift (cm-1)	intensity
100.885	0
105.077	78.399
109.266	494.342
113.453	1215.13
117.638	2901.87
121.82	7153.75
126.001	5409.36
130.179	2399.39
134.355	1216.96
138.529	795.946
142.701	457.734
146.87	579.474
151.038	851.273
155.203	1464.19
159.366	2347.96
163.527	1612.46
167.686	633.129
171.842	16.29
175.996	106.861
180.149	64.362
184.299	45.626
188.446	125.779
192.592	575.425
196.736	1064.82
200.877	374.036
205.016	323.11
209.153	342.033
213.288	340.762
217.421	319.309
221.551	9.366
225.68	67.146
229.806	20.922
233.93	479.097
238.052	2046.92
242.172	3126.88
246.29	1499.08
250.405	922.154
254.519	1381.67
258.63	3843.35
262.739	6614.02
266.846	3443.48
270.951	1553.83
275.054	867.61
279.154	342.909
283.253	739.046
287.349	1915.99
291.444	4663.06
295.536	7659.89
299.626	5826.7
303.714	3094.08
307.799	1611.13
311.883	617.728
315.965	363.864
320.044	383.58
324.121	725.82
328.196	881.408
332.27	287.485
336.341	173.603
340.409	66.268
344.476	4.124
348.541	135.254
352.604	820.112
356.664	673.943
360.722	671.754
364.779	1234.09
368.833	1685.75
372.885	787.129
376.935	296.993
380.983	69.034
385.029	149.146
389.073	78.256
393.114	103.693
397.154	85.3
401.191	112.634
405.227	9.991
409.26	63.575
413.291	91.782
417.321	686.282
421.348	1470.17
425.373	3493.81
429.396	6167.26
433.417	4180.55
437.436	1703.61
441.452	746.428
445.467	378.977
449.48	421.244
453.49	543.218
457.499	584.906
461.505	266.316
465.51	187.435
469.512	228.246
473.512	358.755
477.511	248.97
481.507	249.023
485.501	428.865
489.493	488.519
493.483	167.872
497.471	93.905
501.457	53.501
505.441	131.823
509.423	159.143
513.403	113.357
517.381	36.333
521.357	250.49
525.33	427.121
529.302	583.685
533.272	680.205
537.239	1376.67
541.205	2390.83
545.169	3655.46
549.13	7043.18
553.09	14010.4
557.047	18331.7
561.003	14188.9
564.956	10470.5
568.908	7399.53
572.857	6772.93
576.805	8418.57
580.75	8414.13
584.694	5239.55
588.635	2834.8
592.575	1859.88
596.512	1364.77
600.447	839.707
604.381	654.43
608.312	348.394
612.242	623.233
616.169	678.317
620.094	502.996
624.018	495.967
627.939	769.354
631.859	672.876
635.776	565.556
639.692	410.76
643.605	421.617
647.516	558.529
651.426	1410.7
655.333	992.035
659.239	1111.7
663.142	2022.69
667.044	4118.63
670.944	7135.57
674.841	6265.69
678.737	3362.54
682.63	1855.15
686.522	1619.34
690.412	1693.49
694.3	1526.21
698.185	1538.5
702.069	1681.19
705.951	2501.13
709.831	3093.89
713.709	3026.91
717.585	2164.85
721.459	2205.84
725.331	2328.31
729.201	1879.46
733.069	1340.82
736.935	1090.77
740.799	693.514
744.661	452.693
748.522	621.27
752.38	689.17
756.236	527.029
760.091	324.326
763.943	211.326
767.794	268.02
771.643	434.391
775.489	370.439
779.334	196.182
783.177	161.615
787.018	216.746
790.857	501.488
794.694	485.729
798.529	379.426
802.362	112.699
806.193	75.66
810.022	328.305
813.85	270.68
817.675	362.854
821.499	154.67
825.32	113.826
829.14	212.891
832.958	27.344
836.774	227.154
840.588	46.309
844.4	34.67
848.21	137.477
852.018	150.201
855.824	76.484
859.629	242.783
863.431	148.453
867.232	86.471
871.03	81.945
874.827	72.107
878.622	565.711
882.415	448.859
886.206	141.727
889.995	55.668
893.782	186.611
897.568	158.668
901.351	540.51
905.133	622.15
908.912	353.371
912.69	464.439
916.466	785.105
920.24	1045.26
924.012	1125.11
927.782	784.684
931.551	874.154
935.317	573.434
939.082	492.98
942.844	1253.08
946.605	2160.4
950.364	3287.51
954.121	2805.09
957.877	1782.18
961.63	1581
965.381	2849.22
969.131	6377.65
972.879	9654.36
976.625	5378.01
980.369	2596
984.111	1052.31
987.851	462.561
991.589	509.498
995.326	624.834
999.061	812.514
1002.79	709.488
1006.52	536.863
1010.25	867.633
1013.98	1054.91
1017.71	1356.44
1021.43	1029.9
1025.15	895.586
1028.87	395.252
1032.59	505.402
1036.31	54.752
1040.02	312.445
1043.73	624.334
1047.44	595.795
1051.15	538.094
1054.86	420.484
1058.56	224.154
1062.27	398.129
1065.97	381.521
1069.67	694.912
1073.37	779.162
1077.06	653.182
1080.76	387.211
1084.45	280.094
1088.14	93.881
1091.83	279.09
1095.52	493.984
1099.2	1068.57
1102.88	1774.32
1106.57	2009.97
1110.24	1975.55
1113.92	1080.03
1117.6	344.24
1121.27	469.465
1124.94	403.254
1128.62	588.477
1132.28	514.65
1135.95	462.697
1139.62	224.691
1143.28	70.324
1146.94	327.193
1150.6	740.793
1154.26	1068.16
1157.91	1162.4
1161.57	1115.99
1165.22	786.459
1168.87	779.02
1172.52	1123.4
1176.17	1911.81
1179.81	4172.43
1183.45	5389.61
1187.1	4406.14
1190.74	2618.48
1194.38	1283.83
1198.01	752.006
1201.65	137.918
1205.28	411.443
1208.91	512.785
1212.54	815.814
1216.17	1127.47
1219.79	826.086
1223.41	645.389
1227.04	633.713
1230.66	504.172
1234.28	200.896
1237.89	456.678
1241.51	782.076
1245.12	867.148
1248.73	952.025
1252.34	597.451
1255.95	731.428
1259.56	335.547
1263.16	169.338
1266.76	492.531
1270.36	643.74
1273.96	472.893
1277.56	581.314
1281.15	766.225
1284.75	691.125
1288.34	63.736
1291.93	49.473
1295.52	97.043
1299.11	314.258
1302.69	297.07
1306.28	657.455
1309.86	686.402
1313.44	613.932
1317.01	870.801
1320.59	606.414
1324.16	190.916
1327.74	115.541
1331.31	42.955
1334.88	228.734
1338.44	319.67
1342.01	909.807
1345.58	1207.77
1349.14	976.016
1352.7	992.727
1356.26	759.553
1359.81	540.908
1363.37	385.605
1366.92	370.189
1370.47	65.658
1374.03	519.568
1377.57	2650.55
1381.12	3727.97
1384.67	1896.41
1388.21	1439.35
1391.75	1056.31
1395.29	702.182
1398.83	495.715
1402.37	407.83
1405.9	276.594
1409.43	698.137
1412.96	1022.64
1416.49	900.047
1420.02	1285.35
1423.55	1335.47
1427.07	1139.79
1430.6	1009.34
1434.12	570.98
1437.63	91.98
1441.15	149.613
1444.67	96.836
1448.18	99.996
1451.7	897.586
1455.21	871.758
1458.72	1520.1
1462.22	1693.37
1465.73	1837.11
1469.23	1475.84
1472.73	1246.04
1476.24	958.43
1479.73	571.258
1483.23	172.156
1486.73	326.738
1490.22	833.109
1493.71	653.629
1497.2	1037.52
1500.69	1335.14
1504.18	1878.71
1507.67	1490.23
1511.15	1471.8
1514.63	1037.32
1518.11	801.699
