Measurement: Raman, 514 nm, ccw, Raman Data Processed
Mineral: Cordierite
Rruff sample: R040082
Ideal chemistry: Mg_2_Al_4_Si_5_O_18_
Locality: Madagascar
Source: University of Arizona Mineral Museum
Description: Dark gray coarsely crystalline massive
Measured chemistry: (Mg_1.60_Fe^2+^_0.39_Mn_0.01_)_Σ=2_Al_4.00_(Si_4.95_Al_0.05_)_Σ=5_O_18_·1.05H_2_O·Na_0.05_ ; H_2_O estimated by difference and verified by Raman spectroscopy
Pin_id: M00040
Orientation: Laser parallel to -c* (0 0 -1). Fiducial mark perpendicular to laser is parallel to a [1 0 0]
Raman shift (cm-1)	intensity
91.981	0
96.161	39.122
100.34	23.626
104.516	468.177
108.691	1161.78
112.864	3154.9
117.034	7868.29
121.203	12038.8
125.369	13753
129.534	9101.18
133.696	2910.6
137.857	1330.78
142.016	892.868
146.172	1313.11
150.327	3176.83
154.48	6650.21
158.63	6161.67
162.779	2310.08
166.926	678.452
171.07	219.638
175.213	191.052
179.354	73.734
183.493	181.17
187.63	32.82
191.765	13.277
195.898	12.404
200.029	36.553
204.158	23.095
208.285	104.156
212.41	93.307
216.533	56.25
220.654	169.374
224.773	573.522
228.891	1903.93
233.006	4995.75
237.119	8948.51
241.231	8782.26
245.34	7068.47
249.448	8848.06
253.553	19105.3
257.657	36867.4
261.758	26574.3
265.858	8955.4
269.956	3364.29
274.052	1568.11
278.146	1048.92
282.237	951.04
286.327	1015.44
290.416	1192.36
294.502	1606.44
298.586	1903.32
302.668	2721.58
306.749	2999.24
310.827	1620.17
314.903	941.629
318.978	1173.93
323.051	2629.36
327.121	2233.65
331.19	1082.8
335.257	796.285
339.322	1045.11
343.385	1477.79
347.446	2214.87
351.505	2934.38
355.563	4222.75
359.618	6960.01
363.672	13171.4
367.723	13211.1
371.773	6246.94
375.821	2958.39
379.866	1643.64
383.91	811.838
387.952	361.303
391.992	143.626
396.031	50.804
400.067	96.24
404.101	72.728
408.134	192.674
412.165	176.584
416.193	58.349
420.22	425.828
424.245	1067.14
428.268	1137.3
432.289	620.313
436.309	142.157
440.326	67.204
444.342	57.867
448.355	14.436
452.367	243.856
456.377	142.981
460.385	129.961
464.391	241.805
468.395	651.522
472.398	1763.12
476.398	2283.62
480.397	1827.02
484.394	931.337
488.389	488.579
492.382	224.747
496.373	47.854
500.362	35.887
504.349	89.967
508.335	4.812
512.319	123.577
516.3	347.271
520.28	498.345
524.259	742.807
528.235	1011.65
532.209	1587.03
536.182	2452.98
540.152	3935.7
544.121	6883.62
548.088	13826.5
552.053	24268
556.017	26085.7
559.978	20509.7
563.938	19597.8
567.895	23903.9
571.851	35749.7
575.805	49258.9
579.758	43130.2
583.708	25187
587.657	14167.8
591.603	8511.62
595.548	5942.21
599.491	4331.67
603.432	3280.5
607.372	2819.88
611.309	2768.23
615.245	2807.02
619.179	2950.7
623.111	2667.78
627.041	2386.91
630.97	1959.07
634.896	1552.28
638.821	1274.52
642.744	1220.81
646.665	1370.13
650.584	1551.17
654.502	2149.41
658.418	3495.75
662.331	6455.16
666.244	12259.3
670.154	15645.1
674.062	10657.6
677.969	5502.94
681.874	3193.98
685.777	2217.17
689.678	1740
693.577	1364.24
697.475	1176.08
701.371	1249.55
705.265	1889.55
709.157	2642.4
713.047	2821.17
716.936	1899.02
720.823	1256.11
724.708	904.48
728.591	711.123
732.472	536.855
736.352	516.497
740.23	505.025
744.106	349.348
747.98	323.734
751.853	217.914
755.723	244.031
759.592	245.224
763.459	238.445
767.325	126.604
771.188	182.641
775.05	238.556
778.91	215.344
782.768	232.003
786.625	242.532
790.479	250.929
794.332	201.194
798.183	278.324
802.033	92.321
805.88	79.173
809.726	51.867
813.57	88.612
817.413	53.616
821.253	68.179
825.092	111.392
828.929	76.472
832.764	150.36
836.598	123.196
840.429	5.138
844.259	40.978
848.088	18.633
851.914	4.368
855.739	127.071
859.562	66.628
863.383	146.078
867.203	169.425
871.02	156.673
874.836	196.822
878.65	350.871
882.463	392.819
886.274	393.666
890.083	366.418
893.89	553.082
897.695	712.662
901.499	887.164
905.301	1181.59
909.102	1585.95
912.9	2688.25
916.697	4833.48
920.492	6443.66
924.285	4572.78
928.077	2789.86
931.867	2058.89
935.655	1752.89
939.442	2002.86
943.226	2290.79
947.009	3240.7
950.791	4616.6
954.57	5019.45
958.348	5770.6
962.124	8830.78
965.899	18522.9
969.671	39476.4
973.442	38058.1
977.211	16453
980.979	7038.27
984.745	3649.9
988.509	2366.3
992.271	1669.98
996.032	2240.18
999.791	1564.41
1003.55	1647.26
1007.3	2773.06
1011.06	3964.56
1014.81	2777.35
1018.56	1784.35
1022.31	1032.55
1026.06	666.938
1029.8	487.535
1033.55	340.476
1037.29	308.43
1041.03	284.863
1044.77	219.622
1048.5	260.708
1052.24	247.035
1055.97	167.65
1059.7	153.536
1063.43	208.69
1067.16	220.104
1070.89	183.788
1074.61	165.788
1078.34	119.037
1082.06	113.501
1085.78	74.181
1089.5	132.077
1093.21	444.19
1096.93	542.529
1100.64	999.078
1104.35	1875.01
1108.06	2593.01
1111.77	2278.45
1115.48	1468.97
1119.18	927.948
1122.89	1273.37
1126.59	885.303
1130.29	801.825
1133.99	786.904
1137.68	1091.82
1141.38	1268.31
1145.07	1534.98
1148.76	1815.72
1152.45	2226.68
1156.14	2699.94
1159.83	3471.89
1163.51	4405.81
1167.19	6182.17
1170.88	9349.22
1174.56	15978.8
1178.23	28154.1
1181.91	42882.6
1185.59	38162.2
1189.26	21412.6
1192.93	11466.5
1196.6	6702.51
1200.27	4123.02
1203.94	2632.6
1207.6	1713.84
1211.27	1203
1214.93	920.012
1218.59	710.762
1222.25	441.889
1225.9	350.288
1229.56	240.649
1233.21	223.022
1236.86	104.405
1240.51	1.367
1244.16	25.246
1247.81	37.227
1251.45	49.352
1255.1	69.005
1258.74	74.721
1262.38	191.496
1266.02	279.305
1269.66	681.225
1273.29	418.593
1276.93	105.825
1280.56	35.012
1284.19	67.106
1287.82	46.917
1291.45	10.648
1295.07	45.74
1298.7	33.244
1302.32	45.098
1305.94	50.494
1309.56	8.882
1313.18	47.082
1316.8	32.067
1320.41	4.064
1324.02	33.519
1327.63	43.158
1331.24	53.195
1334.85	99.357
1338.46	97.444
1342.06	55.017
1345.67	35.021
1349.27	28.029
1352.87	24.306
1356.47	36.289
1360.07	21.28
1363.66	4.768
1367.25	119.611
1370.85	137.354
1374.44	233.741
1378.03	472.854
1381.61	3090.81
1385.2	3029.99
1388.78	647.143
1392.37	283.188
1395.95	300.697
1399.53	303.985
1403.1	283.055
1406.68	187.675
1410.26	132.285
1413.83	253.934
1417.4	249.575
1420.97	271.157
1424.54	177.781
1428.1	215.311
1431.67	218.749
1435.23	221.225
1438.8	184.689
1442.36	151.409
1445.91	197.687
1449.47	174.321
1453.03	166.839
1456.58	125.725
1460.13	174.376
1463.68	178.79
1467.23	176.654
1470.78	284.538
1474.33	185.064
1477.87	135.208
1481.42	89.904
1484.96	159.266
1488.5	53.928
1492.04	156.403
1495.57	118.499
1499.11	106.982
1502.64	34.406
1506.17	98.44
1509.71	81.485
1513.23	29.008
1516.76	86.393
1520.29	117.988
1523.81	0.524
