Measurement: Raman, 514 nm, ccw, Raman Data Processed
Mineral: Cordierite
Rruff sample: R040082
Ideal chemistry: Mg_2_Al_4_Si_5_O_18_
Locality: Madagascar
Source: University of Arizona Mineral Museum
Description: Dark gray coarsely crystalline massive
Measured chemistry: (Mg_1.60_Fe^2+^_0.39_Mn_0.01_)_Σ=2_Al_4.00_(Si_4.95_Al_0.05_)_Σ=5_O_18_·1.05H_2_O·Na_0.05_ ; H_2_O estimated by difference and verified by Raman spectroscopy
Pin_id: M00022
Orientation: Laser parallel to a* (1 0 0). Fiducial mark perpendicular to laser is parallel to b [0 1 0]
Raman shift (cm-1)	intensity
75.239	0
79.427	616.464
83.614	4054.14
87.798	6883.1
91.981	5791.58
96.161	3635.88
100.34	2339.91
104.516	2390.09
108.691	3195.69
112.864	5056.58
117.034	9886.95
121.203	12363.2
125.369	9389.03
129.534	5706.94
133.696	1993.81
137.857	1093
142.016	557.276
146.172	978.624
150.327	2098.25
154.48	4259.54
158.63	4355.71
162.779	1554.34
166.926	412.333
171.07	116.865
175.213	271.657
179.354	81.767
183.493	252.929
187.63	355.416
191.765	594.676
195.898	1152.68
200.029	1885.87
204.158	3303.71
208.285	2388.97
212.41	316.479
216.533	55.774
220.654	245.16
224.773	27.159
228.891	813.603
233.006	2439.9
237.119	4634.94
241.231	5301.76
245.34	5542.98
249.448	8822.73
253.553	17370.4
257.657	26315.8
261.758	19041.2
265.858	7180.82
269.956	3478.73
274.052	2088.5
278.146	1871.78
282.237	2507.25
286.327	2705.71
290.416	4379.73
294.502	5658.75
298.586	5571.34
302.668	6166.43
306.749	6249.93
310.827	2488.75
314.903	300.379
318.978	172.021
323.051	1426.64
327.121	3195.19
331.19	2297.66
335.257	729.601
339.322	237.774
343.385	18.477
347.446	164.958
351.505	269.745
355.563	270.693
359.618	842.014
363.672	2207.44
367.723	2424.72
371.773	927.86
375.821	309.798
379.866	49.777
383.91	245.275
387.952	334.267
391.992	210.048
396.031	194.968
400.067	234.698
404.101	98.959
408.134	0.854
412.165	305.953
416.193	604.602
420.22	1117.05
424.245	1899.48
428.268	2051.83
432.289	1621.08
436.309	962.185
440.326	750.133
444.342	827.903
448.355	1161.48
452.367	1985.85
456.377	2417.01
460.385	2725.97
464.391	3712.7
468.395	4983.2
472.398	4762.47
476.398	4504.51
480.397	4924.08
484.394	7514.66
488.389	9092.02
492.382	5716.21
496.373	2454.36
500.362	1185.63
504.349	525.126
508.335	245.098
512.319	159.487
516.3	180.775
520.28	326.965
524.259	365.307
528.235	795.876
532.209	1480.5
536.182	2679.13
540.152	4696.47
544.121	8981.46
548.088	18892.5
552.053	34299.6
556.017	35316.9
559.978	22530.7
563.938	16537.4
567.895	16094.8
571.851	20979.8
575.805	29196.7
579.758	25753.7
583.708	14383.6
587.657	7757.44
591.603	4362.3
595.548	2896.12
599.491	2162.91
603.432	1482.67
607.372	1494.4
611.309	1737.09
615.245	2308.75
619.179	2601.37
623.111	2198.97
627.041	1523.8
630.97	804.704
634.896	466.547
638.821	257.13
642.744	219.707
646.665	487.265
650.584	722.207
654.502	1466.16
658.418	2733.08
662.331	5776.69
666.244	12183
670.154	16910.7
674.062	11742.6
677.969	5962.36
681.874	3694.08
685.777	2572.92
689.678	2157.03
693.577	2018.86
697.475	2234.24
701.371	2651.94
705.265	3557.5
709.157	4606.18
713.047	4579.53
716.936	3425.58
720.823	2952.2
724.708	2761.18
728.591	2891.17
732.472	3753.94
736.352	4813.48
740.23	3944.8
744.106	3164.88
747.98	2632.73
751.853	2145.35
755.723	1461.74
759.592	1096.89
763.459	676.802
767.325	925.475
771.188	409.907
775.05	348.098
778.91	437.045
782.768	358.75
786.625	271.211
790.479	302.427
794.332	387.399
798.183	98.127
802.033	47.412
805.88	41.55
809.726	28.523
813.57	187.504
817.413	278.198
821.253	185.543
825.092	75.385
828.929	103.439
832.764	207.661
836.598	101.129
840.429	37.397
844.259	57.561
848.088	3.507
851.914	16.303
855.739	86.138
859.562	303.069
863.383	443.125
867.203	409.971
871.02	548.601
874.836	754.012
878.65	941.198
882.463	1130.16
886.274	1445.91
890.083	2404.45
893.89	4017.78
897.695	6565.92
901.499	8613.86
905.301	6259.63
909.102	3682.21
912.9	3053.62
916.697	2719.87
920.492	3154.96
924.285	2579.89
928.077	2190.69
931.867	2029.36
935.655	1970.91
939.442	2339.42
943.226	2678.88
947.009	3494.34
950.791	4841.18
954.57	5439.55
958.348	6460.97
962.124	10024
965.899	16013.5
969.671	26855.5
973.442	27990.5
977.211	13600.5
980.979	7474.55
984.745	4557.93
988.509	3798.14
992.271	3890.73
996.032	4769.68
999.791	6624.06
1003.55	10786.5
1007.3	22001.5
1011.06	32936.2
1014.81	20734.2
1018.56	9473.44
1022.31	4933.9
1026.06	3142.58
1029.8	2059.47
1033.55	1724.56
1037.29	1228.87
1041.03	1158.39
1044.77	806.19
1048.5	916.21
1052.24	706.433
1055.97	745.859
1059.7	683.467
1063.43	775.244
1067.16	835.184
1070.89	634.287
1074.61	591.524
1078.34	519.397
1082.06	571.012
1085.78	489.381
1089.5	549.762
1093.21	556.171
1096.93	831.486
1100.64	969.424
1104.35	1935.91
1108.06	2344.28
1111.77	2189.89
1115.48	1506.78
1119.18	834.536
1122.89	1667.39
1126.59	717.418
1130.29	469.823
1133.99	348.602
1137.68	468.516
1141.38	302.586
1145.07	519.221
1148.76	417.998
1152.45	636.32
1156.14	635.775
1159.83	1083.87
1163.51	1359.95
1167.19	1839.53
1170.88	2351.03
1174.56	4119.89
1178.23	7301.09
1181.91	11902.3
1185.59	11584.4
1189.26	7006.34
1192.93	3644.29
1196.6	2050.41
1200.27	1123.31
1203.94	657.002
1207.6	572.846
1211.27	341.039
1214.93	284.234
1218.59	267.76
1222.25	13.508
1225.9	21.945
1229.56	126.869
1233.21	80.506
1236.86	60.678
1240.51	62.508
1244.16	27.178
1247.81	120.49
1251.45	44.502
1255.1	43.008
1258.74	30.225
1262.38	33.08
1266.02	105.574
1269.66	81.066
1273.29	243.584
1276.93	10.879
1280.56	57.297
1284.19	154.844
1287.82	55.42
1291.45	51.152
1295.07	92.439
1298.7	44.443
1302.32	31.135
1305.94	61.66
1309.56	54.859
1313.18	13.484
1316.8	63.537
1320.41	182.273
1324.02	17.885
1327.63	3.797
1331.24	210.934
1334.85	13.902
1338.46	48.701
1342.06	77.771
1345.67	141.299
1349.27	90.342
1352.87	230.914
1356.47	441.256
1360.07	368.352
1363.66	452.703
1367.25	323.006
1370.85	423.316
1374.44	448.758
1378.03	400.828
1381.61	1322.71
1385.2	1789.77
1388.78	594.377
1392.37	387.047
1395.95	320.35
1399.53	212.477
1403.1	404.75
1406.68	257.73
1410.26	330.229
1413.83	291.447
1417.4	134.477
1420.97	364.336
1424.54	301.275
1428.1	265.957
1431.67	125.424
1435.23	352.195
1438.8	313.787
1442.36	284.713
1445.91	368.773
1449.47	231.637
1453.03	360.125
1456.58	416.016
1460.13	411.631
1463.68	468.43
1467.23	325.746
1470.78	300.211
1474.33	346.629
1477.87	205.799
1481.42	64.182
1484.96	155.643
1488.5	138.297
1492.04	223.404
1495.57	551.467
1499.11	3.822
1502.64	49.08
1506.17	207.289
1509.71	10.566
1513.23	181.92
1516.76	70.471
1520.29	0.314
