Measurement: Raman, 514 nm, ccw, Raman Data Processed
Mineral: Cordierite
Rruff sample: R040081
Ideal chemistry: Mg_2_Al_4_Si_5_O_18_
Locality: Laramie Range, Wyoming, USA
Source: University of Arizona Mineral Museum
Description: Blue to purple coarsely crystalline
Measured chemistry: (Mg_1.80_Fe^2+^_0.20_)_Σ=2_Al_4.00_(Si_4.96_Al_0.04_)_Σ=5_O_18_·0.86H_2_O·Na_0.04_ ; H_2_O estimated by difference and verified by Raman spectroscopy
Pin_id: M00018
Orientation: Laser parallel to b* (0 1 0). Fiducial mark perpendicular to laser is parallel to c [0 0 1]
Raman shift (cm-1)	intensity
71.048	0
75.239	23.287
79.427	725.839
83.614	3512.82
87.798	6562.6
91.981	6792.63
96.161	4453.31
100.34	3123.53
104.516	3429.38
108.691	4292.47
112.864	5264.93
117.034	8818.86
121.203	12079.1
125.369	8549.18
129.534	5562.3
133.696	2319.24
137.857	1401.03
142.016	1125.9
146.172	1780.35
150.327	3169.41
154.48	5338.53
158.63	5749.24
162.779	3210.18
166.926	1257.95
171.07	615.503
175.213	394.19
179.354	445.184
183.493	568.568
187.63	967.371
191.765	1338.59
195.898	1010.17
200.029	657.489
204.158	1151.17
208.285	1368.51
212.41	322.058
216.533	156.2
220.654	286.377
224.773	196.509
228.891	258.059
233.006	2024.92
237.119	5346.17
241.231	5899.58
245.34	4468.24
249.448	6143.29
253.553	14133.8
257.657	23792.6
261.758	17143.2
265.858	6332.08
269.956	2745.67
274.052	1935.68
278.146	2823.78
282.237	3595.74
286.327	4077.38
290.416	7497.57
294.502	10521.2
298.586	9094.17
302.668	7221.41
306.749	6087.85
310.827	3180.13
314.903	1355.89
318.978	1175.64
323.051	2740.27
327.121	5356.71
331.19	4017.93
335.257	1136.94
339.322	363.744
343.385	265.322
347.446	549.684
351.505	732.397
355.563	687.381
359.618	974.017
363.672	1965.4
367.723	2280.54
371.773	948.419
375.821	411.043
379.866	202.568
383.91	75.322
387.952	171.219
391.992	295.617
396.031	262.842
400.067	334.079
404.101	279.327
408.134	250.551
412.165	10.463
416.193	330.796
420.22	1387.99
424.245	4168.03
428.268	6089.9
432.289	3518.55
436.309	1404.97
440.326	731.149
444.342	613.062
448.355	927.702
452.367	2095.06
456.377	2150.13
460.385	1272.91
464.391	1318.4
468.395	1853.58
472.398	1859.46
476.398	1789.04
480.397	2152.34
484.394	3610.34
488.389	4829.06
492.382	3256.63
496.373	1409.08
500.362	609.386
504.349	376.719
508.335	214.154
512.319	273.188
516.3	339.191
520.28	547.833
524.259	825.64
528.235	1156.55
532.209	1833.56
536.182	2952.55
540.152	5054.36
544.121	9198.29
548.088	18826.5
552.053	35888.1
556.017	40775.4
559.978	28585.8
563.938	20825.2
567.895	17472.5
571.851	20112.7
575.805	26495.3
579.758	24008.5
583.708	14134.7
587.657	8014.86
591.603	4614.06
595.548	3188.28
599.491	2201.51
603.432	1538.76
607.372	1616.03
611.309	1457.32
615.245	1802.63
619.179	2381.97
623.111	2585.34
627.041	2292.73
630.97	1511.16
634.896	683.622
638.821	526.12
642.744	522.656
646.665	678.494
650.584	1014.29
654.502	1746.05
658.418	3126.33
662.331	5955.11
666.244	12466.1
670.154	19099.1
674.062	14233.3
677.969	7170.89
681.874	3846.24
685.777	2386.01
689.678	1915.02
693.577	1531.64
697.475	1433.57
701.371	1695.99
705.265	2467.86
709.157	3751.49
713.047	4254.03
716.936	3350.51
720.823	3222.99
724.708	3264.45
728.591	2666.53
732.472	2333.68
736.352	2757.74
740.23	2751.71
744.106	2592.58
747.98	3074.35
751.853	3369.01
755.723	2394.57
759.592	1412.02
763.459	810.364
767.325	420.599
771.188	211.718
775.05	249.725
778.91	159.617
782.768	157.391
786.625	138.047
790.479	93.662
794.332	133.01
798.183	32.315
802.033	66.561
805.88	71.107
809.726	7.376
813.57	107.805
817.413	134.808
821.253	171.705
825.092	111.483
828.929	121.039
832.764	132.473
836.598	96.866
840.429	79.086
844.259	22.09
848.088	45.463
851.914	27.152
855.739	143.009
859.562	169.069
863.383	204.021
867.203	254.86
871.02	347.572
874.836	447.146
878.65	997.573
882.463	745.842
886.274	964.953
890.083	1706.91
893.89	3056.72
897.695	5241.38
901.499	5705.89
905.301	3351.27
909.102	1943.51
912.9	1499.62
916.697	1437.6
920.492	1545.46
924.285	1336.2
928.077	1223.83
931.867	1229.41
935.655	1469.95
939.442	1632.51
943.226	2147.12
947.009	3286.68
950.791	4930.02
954.57	4557.45
958.348	4403.21
962.124	6697.11
965.899	11258
969.671	24289
973.442	28595.4
977.211	16010.8
980.979	7836.39
984.745	4596.6
988.509	3295.01
992.271	3357.95
996.032	4010.31
999.791	5296.99
1003.55	8308.54
1007.3	16839.3
1011.06	26426.3
1014.81	18053.5
1018.56	9457.75
1022.31	5102.12
1026.06	2997.62
1029.8	2010.23
1033.55	1472.95
1037.29	1102.86
1041.03	870.949
1044.77	799.245
1048.5	889.677
1052.24	749.231
1055.97	665.273
1059.7	666.757
1063.43	720.735
1067.16	822.882
1070.89	766.183
1074.61	600.27
1078.34	463.212
1082.06	316.164
1085.78	387.392
1089.5	420.778
1093.21	482.193
1096.93	653.963
1100.64	1010.71
1104.35	1824.21
1108.06	2717.18
1111.77	2884.62
1115.48	1911.95
1119.18	945.733
1122.89	738.816
1126.59	452.329
1130.29	413.244
1133.99	282.606
1137.68	350.218
1141.38	355.988
1145.07	433.534
1148.76	560.238
1152.45	666.772
1156.14	789.552
1159.83	1035.22
1163.51	1141.62
1167.19	1368.64
1170.88	1535.32
1174.56	2573.72
1178.23	4199.71
1181.91	6613.51
1185.59	7298.22
1189.26	4883.7
1192.93	2798.5
1196.6	1626.62
1200.27	867.482
1203.94	610.642
1207.6	153.03
1211.27	77.925
1214.93	153.562
1218.59	58.981
1222.25	2.05
1225.9	19.721
1229.56	95.099
1233.21	65.942
1236.86	55.482
1240.51	27.639
1244.16	81.357
1247.81	75.94
1251.45	69.18
1255.1	9.521
1258.74	112.72
1262.38	59.622
1266.02	299.301
1269.66	530.787
1273.29	453.953
1276.93	218.653
1280.56	93.089
1284.19	30.176
1287.82	57.769
1291.45	13.802
1295.07	66.376
1298.7	38.505
1302.32	17.27
1305.94	45.681
1309.56	118.209
1313.18	81.556
1316.8	58.029
1320.41	83.201
1324.02	52.092
1327.63	3.715
1331.24	102.023
1334.85	16.033
1338.46	44.796
1342.06	95.402
1345.67	110.92
1349.27	11.427
1352.87	57.045
1356.47	111.144
1360.07	99.155
1363.66	153.754
1367.25	201.662
1370.85	260.252
1374.44	385.072
1378.03	847.246
1381.61	5122.89
1385.2	5015.63
1388.78	889.2
1392.37	384.022
1395.95	439.965
1399.53	316.987
1403.1	576
1406.68	118.668
1410.26	73.569
1413.83	107.357
1417.4	21.371
1420.97	46.506
1424.54	74.626
1428.1	130.452
1431.67	87.136
1435.23	47.369
1438.8	61.075
1442.36	112.488
1445.91	123.55
1449.47	75.634
1453.03	106.332
1456.58	224.193
1460.13	170.766
1463.68	246.231
1467.23	178.514
1470.78	161.032
1474.33	82.365
1477.87	47.414
1481.42	0.738
1484.96	40.732
1488.5	24.94
1492.04	177.815
1495.57	158.563
1499.11	0
