Measurement: Raman, 514 nm, ccw, Raman Data Processed
Mineral: Cordierite
Rruff sample: R040081
Ideal chemistry: Mg_2_Al_4_Si_5_O_18_
Locality: Laramie Range, Wyoming, USA
Source: University of Arizona Mineral Museum
Description: Blue to purple coarsely crystalline
Measured chemistry: (Mg_1.80_Fe^2+^_0.20_)_Σ=2_Al_4.00_(Si_4.96_Al_0.04_)_Σ=5_O_18_·0.86H_2_O·Na_0.04_ ; H_2_O estimated by difference and verified by Raman spectroscopy
Pin_id: M00015
Orientation: Laser parallel to c* (0 0 1). Fiducial mark perpendicular to laser is parallel to a [1 0 0]
Raman shift (cm-1)	intensity
97.554	0
101.732	130.112
105.908	497.142
110.082	978.161
114.254	3233.84
118.424	7284.17
122.592	8301.7
126.758	6570.77
130.922	3330.04
135.083	1255.46
139.243	392.037
143.401	334.695
147.557	615.461
151.711	1496.44
155.863	3166.7
160.013	2618.82
164.161	1179.37
168.308	267.701
172.452	69.554
176.594	66.731
180.734	16.718
184.872	81.871
189.008	202.018
193.143	316.709
197.275	148.84
201.405	88.499
205.534	106.688
209.66	0.208
213.784	73.81
217.907	12.675
222.027	86.547
226.146	196.308
230.263	994.596
234.377	3305.05
238.49	6375.66
242.601	3977.26
246.709	2630.87
250.816	3513.74
254.921	8148.47
259.024	15273.7
263.125	7642.98
267.224	2506.66
271.321	1047.44
275.416	404.002
279.51	329.213
283.601	399.064
287.69	864.479
291.778	1429.73
295.863	1590.55
299.947	1358.68
304.029	1150.3
308.108	922.191
312.186	300.398
316.262	182.842
320.336	515.486
324.408	1020.12
328.478	667.91
332.546	214.705
336.612	336.682
340.677	463.475
344.739	648.592
348.799	1319.45
352.858	1826.12
356.915	2192.31
360.969	3803.97
365.022	6760.69
369.073	4987.86
373.122	2058.65
377.169	1203.24
381.215	662.814
385.258	316.92
389.299	96.816
393.339	95.699
397.376	94.465
401.412	105.77
405.446	143.266
409.478	91.924
413.508	196.797
417.536	286.117
421.562	832.385
425.586	1461.18
429.609	1255.34
433.629	489.586
437.648	201.891
441.665	5.258
445.68	18.625
449.693	152.994
453.704	206.721
457.713	194.021
461.721	272.566
465.726	263.027
469.73	373.447
473.731	601.852
477.731	1036.21
481.729	652.496
485.725	345.719
489.72	111.883
493.712	47.158
497.703	7.439
501.691	39.328
505.678	64.684
509.663	4.867
513.646	184.846
517.627	269.725
521.607	174.531
525.584	412.271
529.56	716.924
533.534	1098.47
537.506	1697.94
541.476	2452.05
545.444	4261.63
549.41	8248.86
553.375	13087
557.337	12963.5
561.298	11798.2
565.257	11040.1
569.214	11819.3
573.17	16768.2
577.123	20105.5
581.075	14939.6
585.024	8159.47
588.972	5195.22
592.918	2997.42
596.863	2087.69
600.805	1549.2
604.746	1417.93
608.685	1307.88
612.621	910.908
616.557	1225.43
620.49	1217.83
624.421	1569.86
628.351	1171.84
632.279	905.59
636.205	834.285
640.129	768.377
644.051	576.355
647.972	579.344
651.89	1162.24
655.807	960.438
659.722	1730.59
663.636	3681.44
667.547	6269.57
671.457	7157.28
675.365	4397.24
679.271	2211.49
683.175	1730.95
687.077	1173.19
690.978	1023.08
694.877	617.598
698.774	864.811
702.669	472.035
706.562	1233.32
710.454	1266.96
714.344	1656.67
718.232	1417.43
722.118	870.078
726.002	925.977
729.885	828.896
733.766	433.26
737.645	489.77
741.522	449.125
745.397	373.303
749.271	317.82
753.143	196.967
757.013	319.662
760.881	159.852
764.748	175.375
768.613	49.295
772.476	293.262
776.337	133.455
780.196	270.299
784.054	181.834
787.91	240.998
791.764	198.816
795.616	159.354
799.467	103.572
803.316	312.336
807.163	98.195
811.008	147.504
814.851	96.51
818.693	158.127
822.533	19.793
826.371	177.754
830.208	190.912
834.042	57.625
837.875	57.082
841.706	55.244
845.536	21.002
849.363	314.363
853.189	145.369
857.013	39.961
860.836	158.279
864.656	118.141
868.475	156.672
872.292	74.883
876.108	28.234
879.922	334.287
883.733	184.611
887.544	430.77
891.352	530.404
895.159	343.762
898.964	419.146
902.767	715.611
906.568	875.828
910.368	881.645
914.166	1790.86
917.962	2984.33
921.757	2487.91
925.55	1589.12
929.341	1193.42
933.13	1015.05
936.918	1331.14
940.703	1396.17
944.488	1608.53
948.27	2764.05
952.051	3386.95
955.83	2749.15
959.607	2594.81
963.383	4193.87
967.156	8886.12
970.928	19343.2
974.699	15298.2
978.468	6745.08
982.234	3636.66
986	1794.6
989.763	1059.9
993.525	982.629
997.285	981.824
1001.04	578.172
1004.8	966.73
1008.55	1905.65
1012.31	1991.08
1016.06	1635.53
1019.81	1303.89
1023.56	821.422
1027.31	481.574
1031.05	229.605
1034.79	390.211
1038.53	424.145
1042.27	392.906
1046.01	386.32
1049.75	201.387
1053.48	203.578
1057.22	327.57
1060.95	534.992
1064.68	265.957
1068.4	103.387
1072.13	144.438
1075.86	144.098
1079.58	18.688
1083.3	207.059
1087.02	146.262
1090.74	145.781
1094.45	235.18
1098.17	162.887
1101.88	715.457
1105.59	793.449
1109.3	1726.26
1113.01	1321.7
1116.71	739.324
1120.42	636.719
1124.12	555.285
1127.82	79.516
1131.52	219.117
1135.22	582.668
1138.91	72.555
1142.61	319.379
1146.3	552.871
1149.99	515.52
1153.68	709.883
1157.37	1283.6
1161.06	1439.23
1164.74	1990.18
1168.42	2596.3
1172.1	3915.14
1175.78	6815.19
1179.46	11279.4
1183.14	16828.5
1186.81	14263.3
1190.48	8234.95
1194.15	4415.29
1197.83	2538.38
1201.49	2076.39
1205.16	1096.53
1208.82	747.785
1212.49	645.102
1216.15	302.91
1219.81	321.027
1223.46	495.973
1227.12	145.312
1230.78	120.512
1234.43	343.633
1238.08	253.906
1241.73	129.621
1245.38	548.363
1249.03	433.078
1252.67	398.168
1256.31	56.098
1259.95	217.164
1263.6	541.957
1267.23	1212.67
1270.87	1822.54
1274.51	1027.94
1278.14	538.926
1281.77	86.984
1285.4	43.426
1289.03	260.82
1292.66	180.172
1296.28	334.176
1299.91	160.789
1303.53	189.703
1307.15	262.473
1310.77	226.723
1314.38	527.539
1318	61.301
1321.61	262.887
1325.23	560.992
1328.84	116.402
1332.45	137.473
1336.06	244.219
1339.66	669.387
1343.27	300.98
1346.87	760.762
1350.47	878.41
1354.07	880.406
1357.67	1036.59
1361.26	583.207
1364.86	756.23
1368.45	973.035
1372.04	742.371
1375.63	1198.23
1379.22	2583
1382.81	12016.5
1386.39	3964.66
1389.98	1171.57
1393.56	587.98
1397.14	675.449
1400.72	678.113
1404.3	378.293
1407.87	914.336
1411.45	601.527
1415.02	502.238
1418.59	600.945
1422.16	50.051
1425.73	466.828
1429.29	196.121
1432.86	410.215
1436.42	0
