Measurement: Raman, 514 nm, ccw, Raman Data Processed
Mineral: Cordierite
Rruff sample: R040084
Ideal chemistry: Mg_2_Al_4_Si_5_O_18_
Locality: Norway
Source: University of Arizona Mineral Museum
Description: Purple coarsely crystalline massive
Measured chemistry: (Mg_1.88_Fe^2+^_0.11_Ca_0.01_)_Σ=2_(Al_3.95_Fe^3+^_0.05_)_Σ=4_(Si_4.96_Al_0.04_)_Σ=5_O_18_·0.90H_2_O·Na_0.04_ ; H_2_O estimated by difference and verified by Raman spectroscopy
Pin_id: L00497
Orientation: Laser parallel to b* (0 1 0). Fiducial mark perpendicular to laser is parallel to c [0 0 1]
Raman shift (cm-1)	intensity
121.897	0
126.063	931.037
130.228	1644.1
134.39	811.498
138.55	188.073
142.709	7.166
146.865	107.06
151.019	421.455
155.171	1190.71
159.322	1732.04
163.47	843.364
167.617	120.036
171.761	50.73
175.904	86.467
180.044	26.88
184.183	59.63
188.319	116.061
192.454	207.298
196.586	229.659
200.717	138.269
204.846	114.044
208.972	126.181
213.097	18.255
217.22	50.247
221.341	126.839
225.46	5.023
229.577	69.312
233.692	84.169
237.805	782.403
241.916	1056.53
246.025	614.484
250.132	774.384
254.237	1658.47
258.34	5934.57
262.442	7697.08
266.541	3419.89
270.639	1284.38
274.734	707.459
278.828	577.054
282.919	516.652
287.009	991.938
291.097	2105.14
295.183	3349.4
299.266	3403.02
303.348	3676.77
307.428	4380.62
311.507	2534.52
315.583	908.242
319.657	411.688
323.729	1105.03
327.8	1728.28
331.868	891.411
335.935	344.317
339.999	315.428
344.062	174.123
348.123	335.859
352.182	339.367
356.239	560.836
360.294	722.36
364.347	503.628
368.398	384.759
372.448	245.753
376.495	116.604
380.54	127.314
384.584	70.937
388.626	72.708
392.666	91.686
396.704	48.968
400.74	61.088
404.774	28.609
408.806	8.102
412.836	2.568
416.865	23.434
420.891	5.369
424.916	76.189
428.939	31.727
432.959	99.28
436.978	117.463
440.996	102.904
445.011	10.639
449.024	64.367
453.036	31.53
457.045	147.256
461.053	192.906
465.059	388.494
469.063	573.979
473.065	379.368
477.065	544.618
481.063	409.732
485.06	424.71
489.054	449.602
493.047	394.357
497.038	219.058
501.027	123.677
505.014	128.285
508.999	122.864
512.982	157.449
516.964	81.937
520.944	266.362
524.921	390.789
528.897	535.209
532.871	739.54
536.844	1153.76
540.814	1817.97
544.783	3371.7
548.749	7315.6
552.714	15367.4
556.677	18569.4
560.638	12206.9
564.597	7403.53
568.555	6315.04
572.511	7585.9
576.464	11020.6
580.416	11320
584.366	7147.73
588.315	3848.76
592.261	2175.69
596.206	1378.91
600.148	1061.93
604.089	773.329
608.028	716.947
611.965	725.05
615.901	851.336
619.834	1212.42
623.766	1596.73
627.696	1554.64
631.624	917.506
635.551	550.677
639.475	408.751
643.398	380.005
647.318	552.794
651.237	561.404
655.155	774.215
659.07	1340.5
662.984	2439.8
666.895	5395.02
670.805	9249.94
674.713	8056.09
678.62	4425.42
682.524	2248.65
686.427	1302.95
690.328	932.684
694.227	784.665
698.124	747.519
702.02	880.985
705.913	1122.78
709.805	1614.54
713.695	1907.17
717.584	1588.86
721.47	1070.6
725.355	772.336
729.238	684.038
733.119	425.675
736.998	597.638
740.876	519.606
744.752	321.723
748.626	273.911
752.498	216.045
756.368	123.208
760.237	150.162
764.104	27.791
767.969	25.722
771.832	53.771
775.693	17.949
779.553	39.527
783.411	240.942
787.267	122.267
791.122	103.532
794.974	14.747
798.825	95.878
802.674	86.915
806.522	57.854
810.367	51.358
814.211	100.718
818.053	159.706
821.893	10.118
825.732	89.816
829.568	59.624
833.403	80.749
837.236	8.597
841.068	47.797
844.898	96.892
848.726	4.158
852.552	25.123
856.376	113.854
860.199	82.853
864.02	291.84
867.839	230.804
871.656	176.062
875.472	228.703
879.286	307.652
883.098	146.604
886.909	245.555
890.717	324.508
894.524	293.461
898.33	552.414
902.133	821.369
905.935	740.363
909.735	649.389
913.533	506.836
917.33	443.42
921.124	860.064
924.918	523.203
928.709	448.641
932.499	485.709
936.286	419.965
940.073	529.148
943.857	538.012
947.64	657.062
951.421	683.783
955.2	832.996
958.978	1086.37
962.753	1601.75
966.527	3094.33
970.3	7233.84
974.071	10509.3
977.84	5565.55
981.607	2611.25
985.372	1539.18
989.136	1195.93
992.898	1384.31
996.659	1908.32
1000.42	2768.34
1004.17	5046.72
1007.93	11510.8
1011.68	20481.8
1015.43	13972.8
1019.18	6483.28
1022.93	3194.57
1026.68	1836.52
1030.42	1198.07
1034.17	709.742
1037.91	611.504
1041.65	533.334
1045.39	425.234
1049.12	607.242
1052.86	449.357
1056.59	466.199
1060.33	409.18
1064.06	331.803
1067.78	314.588
1071.51	407.234
1075.23	460.156
1078.96	332.908
1082.68	375.896
1086.4	140.467
1090.12	224.936
1093.83	318.271
1097.55	251.912
1101.26	266.09
1104.97	399.246
1108.68	542.707
1112.39	565.971
1116.1	379.736
1119.8	224.883
1123.5	458.73
1127.2	382.725
1130.9	66.939
1134.6	118.52
1138.3	15.773
1141.99	50.334
1145.69	236.557
1149.38	139.275
1153.07	171.756
1156.76	106.244
1160.44	333.217
1164.13	29.023
1167.81	188.172
1171.49	1.062
1175.17	265.324
1178.85	382.201
1182.52	899.762
1186.2	1163.76
1189.87	677.945
1193.54	392.721
1197.21	270.703
1200.88	65.16
1204.55	107.191
1208.21	189.113
1211.88	271.385
1215.54	293.926
1219.2	196.35
1222.86	278.594
1226.51	305.795
1230.17	1.373
1233.82	110.721
1237.47	381.107
1241.12	410.668
1244.77	339.664
1248.42	267.018
1252.06	184.98
1255.71	233.148
1259.35	131.074
1262.99	7.885
1266.63	165.416
1270.26	352.312
1273.9	388.277
1277.53	94.605
1281.16	139.566
1284.8	130.541
1288.42	135.859
1292.05	13.193
1295.68	5.492
1299.3	107.066
1302.92	204.426
1306.55	243.779
1310.16	362.492
1313.78	240.496
1317.4	226.775
1321.01	7.545
1324.62	28.232
1328.24	60.754
1331.85	179.387
1335.45	352.135
1339.06	499.027
1342.66	385.785
1346.27	422.387
1349.87	346.199
1353.47	150.711
1357.07	214.34
1360.66	119.26
1364.26	341.24
1367.85	165.561
1371.44	377.236
1375.04	475.777
1378.62	358.559
1382.21	1102.07
1385.8	1187.51
1389.38	411.717
1392.96	391.09
1396.54	211.629
1400.12	391.385
1403.7	324.604
1407.28	228.506
1410.85	412.99
1414.42	714.283
1417.99	435.541
1421.56	302.922
1425.13	371.08
1428.7	87.943
1432.26	90.662
1435.83	206.123
1439.39	325.113
1442.95	452.229
1446.51	374.771
1450.06	539.596
1453.62	577.676
1457.17	446.988
1460.73	274.104
