Measurement: Raman, 514 nm, ccw, Raman Data Processed
Mineral: Cordierite
Rruff sample: R040081
Ideal chemistry: Mg_2_Al_4_Si_5_O_18_
Locality: Laramie Range, Wyoming, USA
Source: University of Arizona Mineral Museum
Description: Blue to purple coarsely crystalline
Measured chemistry: (Mg_1.80_Fe^2+^_0.20_)_Σ=2_Al_4.00_(Si_4.96_Al_0.04_)_Σ=5_O_18_·0.86H_2_O·Na_0.04_ ; H_2_O estimated by difference and verified by Raman spectroscopy
Pin_id: M00018
Orientation: Laser parallel to b* (0 1 0). Fiducial mark perpendicular to laser is parallel to c [0 0 1]
Raman shift (cm-1)	intensity
97.554	0
101.732	4.295
105.908	83.812
110.082	152.229
114.254	546.588
118.424	1084.87
122.592	2521.41
126.758	4675.22
130.922	3155.39
135.083	1018.46
139.243	276.488
143.401	312.708
147.557	668.909
151.711	2135.92
155.863	4117.5
160.013	3097.81
164.161	1005.34
168.308	214.91
172.452	90.008
176.594	169.011
180.734	190.101
184.872	334.067
189.008	472.981
193.143	528.574
197.275	338.395
201.405	236.973
205.534	407.268
209.66	294.271
213.784	48.988
217.907	10.41
222.027	24.454
226.146	68.597
230.263	150.983
234.377	1039.29
238.49	2420.32
242.601	2090.89
246.709	1974.38
250.816	3526.7
254.921	10016.4
259.024	18292.3
263.125	11245.2
267.224	4104.37
271.321	2005.32
275.416	1564.19
279.51	1589.52
283.601	2029.81
287.69	3670.21
291.778	6789.67
295.863	8327.77
299.947	8500.96
304.029	9950.75
308.108	8457.46
312.186	3325.08
316.262	1291.59
320.336	1821.99
324.408	4038.16
328.478	3420.9
332.546	1385.5
336.612	803.979
340.677	543.32
344.739	508.495
348.799	641.492
352.858	865.318
356.915	1015.04
360.969	927.438
365.022	647.729
369.073	406.848
373.122	289.795
377.169	298.576
381.215	80.792
385.258	21.323
389.299	85.858
393.339	71.895
397.376	0.693
401.412	26.733
405.446	156.449
409.478	5.714
413.508	10.544
417.536	10.835
421.562	13.509
425.586	29.979
429.609	22.561
433.629	9
437.648	8.772
441.665	13.868
445.68	62.375
449.693	39.593
453.704	58.292
457.713	42.855
461.721	124.258
465.726	314.496
469.73	572.611
473.731	750.607
477.731	1018.48
481.729	639.234
485.725	508.869
489.72	423.392
493.712	247.823
497.703	101.196
501.691	124.609
505.678	113.145
509.663	155.845
513.646	270.627
517.627	476.495
521.607	746.436
525.584	1083.63
529.56	1521.47
533.534	2305.49
537.506	3502.46
541.476	6244.13
545.444	12472.6
549.41	26329
553.375	41734
557.337	35741.6
561.298	22339.9
565.257	16519.3
569.214	17508.8
573.17	24024.3
577.123	28625
581.075	21173.1
585.024	11717.1
588.972	6908.52
592.918	4165.82
596.863	2993.41
600.805	2297.67
604.746	2088.56
608.685	2003.4
612.621	2286.56
616.557	3024.04
620.49	3779.62
624.421	3859.34
628.351	2606.59
632.279	1777.4
636.205	1334.25
640.129	1041.14
644.051	917.084
647.972	1131.08
651.89	1659.74
655.807	2354.11
659.722	4341.68
663.636	8753.26
667.547	17089.3
671.457	20171.2
675.365	12190.5
679.271	5959.73
683.175	3388.28
687.077	2106.16
690.978	1612.42
694.877	1449.22
698.774	1505.55
702.669	1719.9
706.562	2728.29
710.454	3685.8
714.344	3656.4
718.232	2639.11
722.118	2154.01
726.002	1826.2
729.885	1183.55
733.766	946.02
737.645	822.626
741.522	702.289
745.397	627.017
749.271	613.788
753.143	622.646
757.013	437.652
760.881	239.841
764.748	44.238
768.613	2.691
772.476	71.167
776.337	113.697
780.196	137.265
784.054	58.854
787.91	119.472
791.764	178.125
795.616	176.815
799.467	71.544
803.316	42.87
807.163	2.944
811.008	53.288
814.851	148.921
818.693	105.03
822.533	80.553
826.371	45.388
830.208	81.499
834.042	108.884
837.875	86.501
841.706	53.233
845.536	6.047
849.363	32.161
853.189	67.432
857.013	78.769
860.836	165.172
864.656	112.644
868.475	221.184
872.292	246.793
876.108	228.471
879.922	254.217
883.733	263.03
887.544	402.911
891.352	616.859
895.159	843.876
898.964	1240.96
902.767	1219.12
906.568	829.35
910.368	721.652
914.166	954.098
917.962	1362.67
921.757	1201.27
925.55	957.066
929.341	772.886
933.13	860.18
936.918	1076.02
940.703	1075.47
944.488	1231.04
948.27	1373.73
952.051	1680.56
955.83	2139.55
959.607	3032.55
963.383	5193.79
967.156	10572.9
970.928	22641.9
974.699	19709.4
978.468	9019.74
982.234	4910.64
986	3609.19
989.763	3541.75
993.525	4143.72
997.285	5834.11
1001.04	9035.02
1004.8	17977.1
1008.55	38011.4
1012.31	43228.8
1016.06	23290.4
1019.81	11389.1
1023.56	6155.94
1027.31	3640.95
1031.05	2375.11
1034.79	1709.4
1038.53	1352.84
1042.27	1112.43
1046.01	966.183
1049.75	830.1
1053.48	749.162
1057.22	776.355
1060.95	851.216
1064.68	930.075
1068.4	884.583
1072.13	955.711
1075.86	675.108
1079.58	537.952
1083.3	475.092
1087.02	254.927
1090.74	303.389
1094.45	307.617
1098.17	378.891
1101.88	597.505
1105.59	841.481
1109.3	944.623
1113.01	860.259
1116.71	498.138
1120.42	317.13
1124.12	519.939
1127.82	119.773
1131.52	116.174
1135.22	153.822
1138.91	84.836
1142.61	79.617
1146.3	105.213
1149.99	196.418
1153.68	122.707
1157.37	168.712
1161.06	319.508
1164.74	447.18
1168.42	492.028
1172.1	507.767
1175.78	819.597
1179.46	1193.5
1183.14	1875.23
1186.81	1595.45
1190.48	931.621
1194.15	474.55
1197.83	193.285
1201.49	337.742
1205.16	80.893
1208.82	47.069
1212.49	38.176
1216.15	88.207
1219.81	48.721
1223.46	35.976
1227.12	14.009
1230.78	32.277
1234.43	35.124
1238.08	14.652
1241.73	23.391
1245.38	60.156
1249.03	69.639
1252.67	79.125
1256.31	63.087
1259.95	37.293
1263.6	63.26
1267.23	46.72
1270.87	281.162
1274.51	40.142
1278.14	53.95
1281.77	98.531
1285.4	48.924
1289.03	9.959
1292.66	62.842
1296.28	66.411
1299.91	67.61
1303.53	94.9
1307.15	142.849
1310.77	117.613
1314.38	150.186
1318	109.57
1321.61	76.771
1325.23	149.791
1328.84	107.623
1332.45	52.271
1336.06	2.243
1339.66	166.015
1343.27	149.091
1346.87	138.008
1350.47	143.775
1354.07	113.3
1357.67	205.945
1361.26	149.938
1364.86	114.736
1368.45	188.515
1372.04	136.01
1375.63	194.863
1379.22	520.706
1382.81	1878.35
1386.39	1143.64
1389.98	358.795
1393.56	239.356
1397.14	152.621
1400.72	202.415
1404.3	238.365
1407.87	134.817
1411.45	118.328
1415.02	175.243
1418.59	143.703
1422.16	131.894
1425.73	139.011
1429.29	133.996
1432.86	147.519
1436.42	222.884
1439.98	233.628
1443.54	248.178
1447.1	234.413
1450.66	279.991
1454.21	343.581
1457.77	298.604
1461.32	252.698
1464.87	188.751
1468.42	148.996
1471.96	88.257
1475.51	22.469
1479.06	107.198
1482.6	154.31
1486.14	200.815
1489.68	196.256
1493.22	133.836
1496.75	61.521
1500.29	16.75
1503.82	106.875
1507.35	42.905
1510.88	28.153
1514.41	0.283
1517.94	58.296
1521.46	0
