Measurement: Raman, 514 nm, ccw, Raman Data Processed
Mineral: Cordierite
Rruff sample: R040081
Ideal chemistry: Mg_2_Al_4_Si_5_O_18_
Locality: Laramie Range, Wyoming, USA
Source: University of Arizona Mineral Museum
Description: Blue to purple coarsely crystalline
Measured chemistry: (Mg_1.80_Fe^2+^_0.20_)_Σ=2_Al_4.00_(Si_4.96_Al_0.04_)_Σ=5_O_18_·0.86H_2_O·Na_0.04_ ; H_2_O estimated by difference and verified by Raman spectroscopy
Pin_id: M00018
Orientation: Laser parallel to b* (0 1 0). Fiducial mark perpendicular to laser is parallel to c [0 0 1]
Raman shift (cm-1)	intensity
79.427	0
83.614	262.719
87.798	759.709
91.981	1434.4
96.161	1161.5
100.34	949.098
104.516	1253
108.691	1958.85
112.864	3512.06
117.034	9884.38
121.203	18765
125.369	8846.81
129.534	3279.35
133.696	1092.2
137.857	561.162
142.016	518.033
146.172	813.069
150.327	2164
154.48	5802.27
158.63	8333.07
162.779	4680.47
166.926	1541.27
171.07	392.181
175.213	46.774
179.354	95.286
183.493	161.798
187.63	464.312
191.765	1194.81
195.898	627.276
200.029	76.578
204.158	85.624
208.285	51.585
212.41	164.072
216.533	225.839
220.654	233.88
224.773	38.78
228.891	678.852
233.006	3170.33
237.119	10053.2
241.231	10866.9
245.34	6111.81
249.448	4394.26
253.553	6317.13
257.657	15599.9
261.758	15604
265.858	5554.69
269.956	2441.43
274.052	1592.87
278.146	1670.77
282.237	2406.82
286.327	4867.83
290.416	11171.8
294.502	17491.6
298.586	13234.3
302.668	7648.82
306.749	4312.18
310.827	2199.97
314.903	1481
318.978	1336.14
323.051	1531.22
327.121	1480.13
331.19	1355.78
335.257	934.171
339.322	582.322
343.385	569.646
347.446	1193.31
351.505	1767.74
355.563	1321.93
359.618	1609.89
363.672	4050.63
367.723	5648.99
371.773	2455.95
375.821	929.974
379.866	379.562
383.91	66.082
387.952	218.311
391.992	174.025
396.031	184.671
400.067	273.081
404.101	137.752
408.134	32.395
412.165	317.084
416.193	1132.74
420.22	3322.32
424.245	9653.8
428.268	15760.2
432.289	8897.38
436.309	3531.44
440.326	1607.35
444.342	925.098
448.355	640.692
452.367	1043.13
456.377	1045.43
460.385	487.578
464.391	211.586
468.395	189.459
472.398	205.945
476.398	382.84
480.397	469.391
484.394	690.862
488.389	694.255
492.382	403.577
496.373	138.866
500.362	133.185
504.349	193.565
508.335	226.113
512.319	324.922
516.3	616.03
520.28	824.441
524.259	1221.25
528.235	1713.4
532.209	2571.92
536.182	4204.94
540.152	6692.51
544.121	11047.9
548.088	21542
552.053	43386.1
556.017	52694.8
559.978	38918
563.938	30080.8
567.895	23649.1
571.851	24059.7
575.805	32014.9
579.758	30160.2
583.708	18014.7
587.657	10394.4
591.603	6661.2
595.548	4658.18
599.491	3431.33
603.432	2638.64
607.372	2085.12
611.309	1995.77
615.245	2236.58
619.179	2688.57
623.111	2940.73
627.041	2641.05
630.97	1866.55
634.896	1244.22
638.821	1112.05
642.744	1156.68
646.665	1310.23
650.584	1667.81
654.502	2325.35
658.418	3800.29
662.331	6652.29
666.244	13498.7
670.154	22624.1
674.062	17068.7
677.969	8671.63
681.874	4771.61
685.777	3365.54
689.678	2760.81
693.577	2255.71
697.475	1993.96
701.371	2354.22
705.265	3324.4
709.157	4995.44
713.047	5888.25
716.936	4915.42
720.823	4915.53
724.708	5069.09
728.591	3674.74
732.472	2173.35
736.352	1691.92
740.23	1491.44
744.106	1333.91
747.98	1106.32
751.853	952.663
755.723	821.941
759.592	555.147
763.459	387.276
767.325	233.325
771.188	168.287
775.05	208.158
778.91	207.935
782.768	178.612
786.625	198.186
790.479	184.654
794.332	135.013
798.183	101.26
802.033	43.391
805.88	123.381
809.726	31.835
813.57	19.611
817.413	92.308
821.253	116.894
825.092	132.249
828.929	90.448
832.764	162.456
836.598	134.482
840.429	73.326
844.259	26.036
848.088	49.451
851.914	6.73
855.739	32.364
859.562	40.852
863.383	66.039
867.203	102.99
871.02	72.778
874.836	107.39
878.65	367.823
882.463	362.073
886.274	358.145
890.083	480.041
893.89	800.762
897.695	1327.31
901.499	1528.69
905.301	1101.9
909.102	868.949
912.9	740.835
916.697	744.561
920.492	853.131
924.285	796.547
928.077	953.811
931.867	1029.93
935.655	1332.92
939.442	1708.81
943.226	2451.7
947.009	4387.55
950.791	7437.39
954.57	6307.11
958.348	4698.93
962.124	5459.55
965.899	9449.04
969.671	21658.8
973.442	29881
977.211	15304.8
980.979	6981.07
984.745	3847.97
988.509	2302.17
992.271	1685.69
996.032	1456.19
999.791	1446.9
1003.55	1373.62
1007.3	1745.43
1011.06	2662.49
1014.81	2711.59
1018.56	2689.57
1022.31	1823.66
1026.06	1193.93
1029.8	914.293
1033.55	755.838
1037.29	546.509
1041.03	524.3
1044.77	539.213
1048.5	637.224
1052.24	593.33
1055.97	581.536
1059.7	540.857
1063.43	514.305
1067.16	523.873
1070.89	501.559
1074.61	439.36
1078.34	427.268
1082.06	315.369
1085.78	451.125
1089.5	445.105
1093.21	622.582
1096.93	956.23
1100.64	1582.19
1104.35	2826.17
1108.06	4486.97
1111.77	4745.96
1115.48	3358.16
1119.18	1700.52
1122.89	1171.27
1126.59	742.432
1130.29	742.033
1133.99	569.223
1137.68	632.777
1141.38	638.853
1145.07	733.599
1148.76	884.608
1152.45	1088.79
1156.14	1353.52
1159.83	1668.03
1163.51	1765.56
1167.19	2031.11
1170.88	2630.92
1174.56	4135.83
1178.23	6707.09
1181.91	10867.9
1185.59	12227.3
1189.26	8401.45
1192.93	4958.4
1196.6	2755.86
1200.27	1526.88
1203.94	1025.82
1207.6	557.796
1211.27	360.709
1214.93	177.611
1218.59	115.171
1222.25	51.721
1225.9	115.208
1229.56	63.479
1233.21	19.345
1236.86	66.334
1240.51	80.283
1244.16	46.31
1247.81	21.073
1251.45	48.883
1255.1	16.254
1258.74	95.374
1262.38	112.356
1266.02	446.937
1269.66	1053.44
1273.29	867.524
1276.93	407.798
1280.56	147.583
1284.19	40.981
1287.82	29.113
1291.45	34.104
1295.07	42.325
1298.7	19.649
1302.32	8.05
1305.94	66.499
1309.56	134.742
1313.18	84.778
1316.8	85.607
1320.41	51.205
1324.02	58.475
1327.63	10.529
1331.24	29.32
1334.85	115.838
1338.46	40.136
1342.06	371.792
1345.67	109.778
1349.27	12.599
1352.87	172.121
1356.47	113.483
1360.07	95.697
1363.66	149.883
1367.25	116.702
1370.85	228.88
1374.44	364.18
1378.03	823.096
1381.61	6490.67
1385.2	7510.72
1388.78	1373.97
1392.37	556.451
1395.95	499.688
1399.53	460.798
1403.1	481.485
1406.68	190.533
1410.26	146.269
1413.83	101.755
1417.4	213.539
1420.97	184.941
1424.54	174.951
1428.1	236.992
1431.67	129.163
1435.23	173.404
1438.8	141.052
1442.36	200.127
1445.91	163.978
1449.47	131.55
1453.03	205.939
1456.58	203.548
1460.13	253.219
1463.68	214.599
1467.23	157.125
1470.78	129.585
1474.33	181.84
1477.87	186.824
1481.42	11.128
1484.96	34.692
1488.5	84.751
1492.04	127.098
1495.57	115.217
1499.11	46.069
1502.64	31.097
1506.17	76.811
1509.71	37.15
1513.23	143.308
1516.76	83.255
1520.29	4.101
