Measurement: Raman, 514 nm, ccw, Raman Data Processed
Mineral: Cordierite
Rruff sample: R040081
Ideal chemistry: Mg_2_Al_4_Si_5_O_18_
Locality: Laramie Range, Wyoming, USA
Source: University of Arizona Mineral Museum
Description: Blue to purple coarsely crystalline
Measured chemistry: (Mg_1.80_Fe^2+^_0.20_)_Σ=2_Al_4.00_(Si_4.96_Al_0.04_)_Σ=5_O_18_·0.86H_2_O·Na_0.04_ ; H_2_O estimated by difference and verified by Raman spectroscopy
Pin_id: M00044
Orientation: Laser parallel to -a* (-1 0 0). Fiducial mark perpendicular to laser is parallel to b [0 1 0]
Raman shift (cm-1)	intensity
72.445	0
76.635	411.03
80.823	1478.91
85.009	3105.87
89.193	3528.07
93.375	3103.31
97.554	2389.91
101.732	1816.71
105.908	2019.04
110.082	2013.84
114.254	3026.69
118.424	5754.55
122.592	4072.69
126.758	3604.78
130.922	2409.93
135.083	1455.44
139.243	1226.93
143.401	1727.99
147.557	2802.12
151.711	4813.75
155.863	6353.16
160.013	4617.2
164.161	1847.59
168.308	850.799
172.452	778.23
176.594	718.07
180.734	937.363
184.872	1258.09
189.008	1857.22
193.143	1891.67
197.275	789.278
201.405	92.946
205.534	115.645
209.66	40.799
213.784	253.461
217.907	205.708
222.027	307.172
226.146	182.019
230.263	496.154
234.377	2139.11
238.49	4737.07
242.601	3686.55
246.709	3997.17
250.816	7449.67
254.921	17047.8
259.024	19631
263.125	9783.37
267.224	3991.35
271.321	2437.53
275.416	2965.59
279.51	5045.12
283.601	5594.94
287.69	8039.95
291.778	14040.1
295.863	15059.2
299.947	10562.4
304.029	8180.43
308.108	5974.19
312.186	2922.67
316.262	1894.8
320.336	2894.66
324.408	6195.22
328.478	8563.45
332.546	3676.35
336.612	1160.26
340.677	495.414
344.739	286.072
348.799	325.325
352.858	406.952
356.915	631.011
360.969	908.343
365.022	1119.28
369.073	572.753
373.122	149.877
377.169	35.991
381.215	69.689
385.258	193.295
389.299	247.067
393.339	36.46
397.376	201.806
401.412	120.224
405.446	23.237
409.478	63.62
413.508	455.495
417.536	1340.05
421.562	3718.26
425.586	8454.09
429.609	7816.53
433.629	3351.53
437.648	1683.1
441.665	874.218
445.68	972.876
449.693	1589.07
453.704	2695.8
457.713	1946.06
461.721	878.839
465.726	527.15
469.73	533.992
473.731	464.385
477.731	644.342
481.729	673.887
485.725	569.014
489.72	490.765
493.712	321.173
497.703	74.25
501.691	115.984
505.678	108.421
509.663	103.573
513.646	281.463
517.627	387.234
521.607	649.971
525.584	970.686
529.56	1530.07
533.534	2398.98
537.506	3711.29
541.476	6591.38
545.444	12911.4
549.41	27165.5
553.375	42787
557.337	36855.9
561.298	22507.8
565.257	15736.4
569.214	15356.5
573.17	20074.5
577.123	22952.9
581.075	16935.2
585.024	9339.33
588.972	5597.3
592.918	3400.12
596.863	2441.81
600.805	1953.35
604.746	1696.75
608.685	1543.03
612.621	1651.17
616.557	2320.2
620.49	3124.11
624.421	3133.91
628.351	2067.6
632.279	1314.4
636.205	919.202
640.129	891.603
644.051	940.02
647.972	1290.84
651.89	1745
655.807	2439.64
659.722	4341.45
663.636	8433.17
667.547	16000.7
671.457	18968.2
675.365	11122.6
679.271	5309.45
683.175	2951.53
687.077	1820.09
690.978	1543.65
694.877	1372.35
698.774	1610.78
702.669	2251.34
706.562	3319.26
710.454	4562.47
714.344	4388.06
718.232	4316.18
722.118	4290.69
726.002	3891.41
729.885	2528.11
733.766	1725.68
737.645	1775.11
741.522	1918.41
745.397	2846.58
749.271	4545.61
753.143	4672.52
757.013	3030.29
760.881	1569.94
764.748	791.462
768.613	526.859
772.476	424.636
776.337	238.293
780.196	204.333
784.054	218.244
787.91	169.029
791.764	100.683
795.616	146.186
799.467	26.533
803.316	38.657
807.163	3.496
811.008	130.044
814.851	164.311
818.693	153.75
822.533	118.294
826.371	122.889
830.208	137.255
834.042	68.518
837.875	296.584
841.706	92.468
845.536	87.123
849.363	151.604
853.189	129.998
857.013	240.308
860.836	462.525
864.656	440.646
868.475	408.665
872.292	370.575
876.108	567.372
879.922	592.055
883.733	796.622
887.544	1136.08
891.352	1629.42
895.159	2629.66
898.964	3094.84
902.767	2520.84
906.568	1795.8
910.368	1387.67
914.166	1596.57
917.962	1880.54
921.757	1641.45
925.55	1258.45
929.341	1237.56
933.13	1092.76
936.918	1264.06
940.703	1233.26
944.488	1264.22
948.27	1588.76
952.051	1887.59
955.83	2301.49
959.607	3079.15
963.383	5075.77
967.156	10581.6
970.928	22754.1
974.699	21740.3
978.468	11235.3
982.234	5854.05
986	3774.71
989.763	3136.89
993.525	3560.83
997.285	4981.65
1001.04	6732.22
1004.8	11260.3
1008.55	22540.6
1012.31	25584
1016.06	14170.5
1019.81	7287
1023.56	4167.61
1027.31	2528.31
1031.05	1659.08
1034.79	1182.94
1038.53	1097.9
1042.27	877.968
1046.01	836.136
1049.75	881.406
1053.48	633.784
1057.22	668.512
1060.95	747.739
1064.68	724.469
1068.4	715.891
1072.13	713.298
1075.86	512.27
1079.58	511.009
1083.3	679.568
1087.02	434.839
1090.74	396.205
1094.45	485.625
1098.17	606.599
1101.88	1073.26
1105.59	1613.01
1109.3	2227.3
1113.01	1813.51
1116.71	937.637
1120.42	678.688
1124.12	932.619
1127.82	225.864
1131.52	200.439
1135.22	312.397
1138.91	99.396
1142.61	48.751
1146.3	121.65
1149.99	158.782
1153.68	124.122
1157.37	271.631
1161.06	249.859
1164.74	609.928
1168.42	588.662
1172.1	761.305
1175.78	1223.85
1179.46	1832.73
1183.14	2823.41
1186.81	2371.99
1190.48	1243.58
1194.15	536.565
1197.83	168.861
1201.49	232.774
1205.16	7.334
1208.82	141.403
1212.49	28.039
1216.15	41.275
1219.81	78.67
1223.46	46.075
1227.12	46.374
1230.78	104.595
1234.43	118.396
1238.08	9.373
1241.73	45.175
1245.38	106.782
1249.03	77.517
1252.67	31.055
1256.31	66.664
1259.95	77.777
1263.6	157.753
1267.23	319.04
1270.87	389.109
1274.51	347.952
1278.14	232.524
1281.77	110.763
1285.4	33.639
1289.03	39.326
1292.66	13.341
1296.28	37.841
1299.91	229.984
1303.53	110.832
1307.15	318.397
1310.77	203.692
1314.38	476.711
1318	290.451
1321.61	171.907
1325.23	254.074
1328.84	18.948
1332.45	71.513
1336.06	62.475
1339.66	79.898
1343.27	113.743
1346.87	105.377
1350.47	162.235
1354.07	137.515
1357.67	146.516
1361.26	17.511
1364.86	5.142
1368.45	99.692
1372.04	182.23
1375.63	337.163
1379.22	852.177
1382.81	4712.1
1386.39	1605.41
1389.98	455.083
1393.56	367.412
1397.14	162.904
1400.72	227.521
1404.3	183.101
1407.87	175.504
1411.45	228.715
1415.02	232.781
1418.59	326.683
1422.16	67.857
1425.73	178.374
1429.29	4.696
1432.86	307.605
1436.42	431.961
1439.98	634.98
1443.54	885.579
1447.1	807.229
1450.66	1164.63
1454.21	1277.55
1457.77	1239.03
1461.32	1026.17
1464.87	781.631
1468.42	632.059
1471.96	629.756
1475.51	453.219
1479.06	321.18
1482.6	439.751
1486.14	417.953
1489.68	340.567
1493.22	206.57
1496.75	157.485
1500.29	172.714
1503.82	23.468
1507.35	48.808
