Measurement: Raman, 514 nm, ccw, Raman Data Processed
Mineral: Cordierite
Rruff sample: R040082
Ideal chemistry: Mg_2_Al_4_Si_5_O_18_
Locality: Madagascar
Source: University of Arizona Mineral Museum
Description: Dark gray coarsely crystalline massive
Measured chemistry: (Mg_1.60_Fe^2+^_0.39_Mn_0.01_)_Σ=2_Al_4.00_(Si_4.95_Al_0.05_)_Σ=5_O_18_·1.05H_2_O·Na_0.05_ ; H_2_O estimated by difference and verified by Raman spectroscopy
Pin_id: M00024
Orientation: Laser parallel to -b* (0 -1 0). Fiducial mark perpendicular to laser is parallel to -a [-1 0 0]
Raman shift (cm-1)	intensity
100.34	0
104.516	150.488
108.691	1111.74
112.864	3570.96
117.034	9151.86
121.203	6765
125.369	3965.96
129.534	1555.73
133.696	96.809
137.857	119.604
142.016	368.257
146.172	1183.22
150.327	2650.88
154.48	4482.84
158.63	4304.98
162.779	1771.57
166.926	660.851
171.07	453.21
175.213	502.654
179.354	730.51
183.493	1057.52
187.63	985.152
191.765	996.717
195.898	464.664
200.029	416.425
204.158	905.066
208.285	523.006
212.41	23.747
216.533	216.552
220.654	96.152
224.773	100.497
228.891	575.112
233.006	1875.24
237.119	3625.28
241.231	4018.27
245.34	4874.88
249.448	8750.98
253.553	16328.6
257.657	20889.7
261.758	13416.9
265.858	5511.43
269.956	2822.25
274.052	2407.38
278.146	3561.37
282.237	4839.34
286.327	5812.11
290.416	8744.92
294.502	10021.5
298.586	9062.97
302.668	8277.22
306.749	6766.51
310.827	3409
314.903	1766.38
318.978	1879.71
323.051	4006.37
327.121	6046.74
331.19	4371.38
335.257	1734.81
339.322	785.443
343.385	795.186
347.446	713.329
351.505	762.343
355.563	709.27
359.618	688.803
363.672	1160.75
367.723	1052.95
371.773	390.081
375.821	223.4
379.866	46.925
383.91	138.521
387.952	4.481
391.992	84.33
396.031	7.779
400.067	270.559
404.101	229.211
408.134	178.333
412.165	93.285
416.193	642.721
420.22	1930.16
424.245	3986.86
428.268	3891.05
432.289	2037.24
436.309	920.349
440.326	521.406
444.342	716.386
448.355	1177.38
452.367	2290.47
456.377	2091.68
460.385	1240.09
464.391	1368.9
468.395	1823.02
472.398	1942.44
476.398	1667.17
480.397	2013.31
484.394	2820.79
488.389	3302.74
492.382	2126.27
496.373	963.651
500.362	524.902
504.349	380.099
508.335	271.094
512.319	241.533
516.3	481.217
520.28	749.355
524.259	853.412
528.235	1218.05
532.209	1956.54
536.182	3137.62
540.152	5642.46
544.121	10933.5
548.088	22858.3
552.053	39445.5
556.017	37248.4
559.978	23533
563.938	16836
567.895	15681.5
571.851	20041
575.805	25559.1
579.758	21203.8
583.708	12069.8
587.657	7041.75
591.603	4178.68
595.548	3029.58
599.491	2424.2
603.432	2095.85
607.372	1856.67
611.309	2282.61
615.245	2947.59
619.179	3340.32
623.111	3321.11
627.041	2693.49
630.97	1557.7
634.896	713.546
638.821	888.007
642.744	1018.61
646.665	1354.41
650.584	1619.01
654.502	2330.43
658.418	3675.85
662.331	6661.08
666.244	13261.4
670.154	16946.8
674.062	11044
677.969	5348.4
681.874	2764.17
685.777	1595.79
689.678	1068.47
693.577	903.322
697.475	770.411
701.371	1382.94
705.265	2230.05
709.157	3346.61
713.047	3414.66
716.936	2599.34
720.823	2652.83
724.708	2476.15
728.591	2127.93
732.472	1834.85
736.352	2131.8
740.23	2041.77
744.106	2528.75
747.98	3181.74
751.853	3007.91
755.723	2057.68
759.592	1035.82
763.459	542.897
767.325	120.984
771.188	31.922
775.05	77.11
778.91	6.099
782.768	41.051
786.625	48.032
790.479	150.753
794.332	142.438
798.183	80.888
802.033	143.364
805.88	43.248
809.726	242.763
813.57	103.358
817.413	220.875
821.253	41.195
825.092	176.981
828.929	92.511
832.764	21.611
836.598	58.868
840.429	249.229
844.259	421.666
848.088	445.194
851.914	673.475
855.739	988.292
859.562	1197.83
863.383	1268.36
867.203	986.873
871.02	960.293
874.836	997.823
878.65	1149.25
882.463	1321.63
886.274	1430.96
890.083	2291.25
893.89	3423.5
897.695	5355.72
901.499	5178.89
905.301	3570.03
909.102	2564.14
912.9	2138.26
916.697	2021.56
920.492	2024.92
924.285	1901.91
928.077	1751.35
931.867	1700.28
935.655	1732.31
939.442	1895.57
943.226	2191.03
947.009	2870.07
950.791	3632.29
954.57	4296.74
958.348	4936.8
962.124	7326.9
965.899	12734.1
969.671	23396.4
973.442	23678.7
977.211	12492.3
980.979	6466.35
984.745	4280.36
988.509	3888.53
992.271	3940.92
996.032	5293.66
999.791	8130.34
1003.55	12739.9
1007.3	23865.7
1011.06	32169.6
1014.81	19040.7
1018.56	9236.93
1022.31	5194.34
1026.06	3247.93
1029.8	2139.69
1033.55	1594.62
1037.29	1193.71
1041.03	726.964
1044.77	578.379
1048.5	647.999
1052.24	605.881
1055.97	516.984
1059.7	446.759
1063.43	372.121
1067.16	398.894
1070.89	450.17
1074.61	472.062
1078.34	799.672
1082.06	732.551
1085.78	647.686
1089.5	419.833
1093.21	512.11
1096.93	576.556
1100.64	903.164
1104.35	1825.99
1108.06	2362.18
1111.77	1902.86
1115.48	1135.19
1119.18	487.092
1122.89	1115.38
1126.59	407.067
1130.29	321.191
1133.99	21.62
1137.68	126.305
1141.38	2.976
1145.07	89.942
1148.76	28.794
1152.45	152.812
1156.14	374.003
1159.83	542.369
1163.51	692.908
1167.19	852.618
1170.88	1125.49
1174.56	1874.39
1178.23	3059.06
1181.91	4669.39
1185.59	4195.22
1189.26	2539.06
1192.93	1292.63
1196.6	760.91
1200.27	346.792
1203.94	223.678
1207.6	7.56
1211.27	35.688
1214.93	133.939
1218.59	93.859
1222.25	100.232
1225.9	148.38
1229.56	10.873
1233.21	54.027
1236.86	188.192
1240.51	219.139
1244.16	110.643
1247.81	267.08
1251.45	240.509
1255.1	194.945
1258.74	225.008
1262.38	324.576
1266.02	423.6
1269.66	507.166
1273.29	573.492
1276.93	604.208
1280.56	404.771
1284.19	282.562
1287.82	259.876
1291.45	228.927
1295.07	472.006
1298.7	593.184
1302.32	423.357
1305.94	437.578
1309.56	751.893
1313.18	678.078
1316.8	810.948
1320.41	879.281
1324.02	656.472
1327.63	352.166
1331.24	327.153
1334.85	284.237
1338.46	2.927
1342.06	83.247
1345.67	28.344
1349.27	23.071
1352.87	176.585
1356.47	18.576
1360.07	118.433
1363.66	112.857
1367.25	220.045
1370.85	324.747
1374.44	420.571
1378.03	378.38
1381.61	258.875
1385.2	248.47
1388.78	326.573
1392.37	252.921
1395.95	348.735
1399.53	110.113
1403.1	198.825
1406.68	140.531
1410.26	91.326
1413.83	88.528
1417.4	76.095
1420.97	110.637
1424.54	0
