Measurement: Raman, 514 nm, ccw, Raman Data Processed
Mineral: Corundum
Rruff sample: R040096
Ideal chemistry: Al_2_O_3_
Locality: Sri Lanka
Source: University of Arizona Mineral Museum
Description: Pale purple hexagonal prism
Measured chemistry: Al_2.00_O_3_
Pin_id: L01813
Orientation: Laser parallel to -c* (0 0 -1). Fiducial mark perpendicular to laser is parallel to a [1 0 0]
Raman shift (cm-1)	intensity
113.208	0
116.903	88.1416
120.596	36.126
124.288	10.6182
127.979	87.6162
131.668	162.382
135.356	236.18
139.043	371.39
142.728	165.54
146.412	100.049
150.094	362.509
153.775	317.581
157.455	34.5498
161.134	364.116
164.811	183.377
168.486	398.132
172.161	284.598
175.834	306.405
179.505	260.154
183.176	319.637
186.845	359.899
190.512	349.906
194.178	515.742
197.843	562.856
201.507	530.714
205.169	225.314
208.829	130.085
212.489	192.7
216.147	118.206
219.803	284.634
223.459	260.171
227.112	154.658
230.765	121.188
234.416	180.03
238.066	150.574
241.714	204.319
245.361	118.653
249.007	160.843
252.651	120.679
256.294	99.6929
259.936	138.924
263.576	69.4261
267.215	163.8
270.852	148.522
274.488	158.979
278.123	63.8858
281.756	94.6278
285.388	-37.2549
289.019	102.199
292.648	92.8799
296.276	139.823
299.902	77.7383
303.527	109.63
307.151	242.458
310.773	8.77832
314.394	111.34
318.013	85.1631
321.631	138.655
325.248	57.7188
328.864	108.886
332.478	96.5312
336.09	124.078
339.701	143.041
343.311	153.728
346.92	97.5996
350.527	145.977
354.132	41.4746
357.737	115.533
361.34	93.0098
364.941	70.5352
368.541	268.08
372.14	519.424
375.737	600.617
379.333	534.529
382.928	355.111
386.521	258.172
390.113	76.5059
393.703	233.966
397.292	406.445
400.88	335.319
404.466	1099.75
408.051	4958.05
411.634	6023.53
415.216	6135.62
418.797	4491.71
422.376	1482.2
425.954	772.794
429.53	714.184
433.105	462.281
436.679	207.225
440.251	472.161
443.822	607.306
447.391	494.789
450.96	449.538
454.526	117.893
458.091	37.4482
461.655	39.542
465.218	93.8799
468.779	104.644
472.338	11.8721
475.897	72.6846
479.454	88.5654
483.009	51.1572
486.563	148.977
490.116	42.7422
493.667	88.1357
497.217	174.963
500.765	166.827
504.312	123.623
507.858	153.548
511.402	36.7373
514.945	75.7695
518.486	127.74
522.026	164.699
525.565	107.504
529.102	162.762
532.638	113.859
536.172	369.379
539.705	219.676
543.236	245.15
546.766	280.572
550.295	165.795
553.822	109.516
557.348	205.94
560.873	81.707
564.396	354.906
567.917	901.924
571.438	1471.89
574.957	1508.75
578.474	808.496
581.99	323.502
585.504	6.98047
589.018	250.139
592.529	45.9707
596.04	184.291
599.549	171.807
603.056	15.584
606.562	9.59375
610.067	152.174
613.57	84.1445
617.072	198.908
620.572	272.228
624.071	83.5039
627.569	166.211
631.065	93.3652
634.56	194.713
638.053	51.6113
641.545	126.744
645.035	46.1133
648.524	76.5898
652.012	225.166
655.498	145.281
658.983	111.658
662.466	176.428
665.948	71.8926
669.428	281.498
672.907	267.231
676.385	169.076
679.861	255.988
683.336	100.084
686.809	50.9199
690.281	84.5449
693.752	111.258
697.221	111.988
700.688	123.617
704.155	301.353
707.619	149.309
711.083	301.56
714.545	174.07
718.005	191.438
721.464	347.703
724.922	400.705
728.378	646.016
731.833	983.697
735.286	1652.05
738.738	2338.55
742.189	3685.97
745.638	4321.28
749.085	4090.38
752.531	3163.37
755.976	2147.36
759.419	1515.2
762.861	965.344
766.302	632.684
769.741	448.049
773.178	377.248
776.614	611.356
780.049	501.912
783.482	446.717
786.914	338.553
790.345	137.406
793.773	371.859
797.201	224
800.627	368.861
804.052	198.898
807.475	189.633
810.897	146.057
814.317	138.102
817.736	54.125
821.153	465.781
824.569	135.027
827.984	330.477
831.397	279.815
834.808	105.926
838.219	118.031
841.627	222.223
845.035	434.231
848.441	274.879
851.845	174.891
855.248	363.463
858.65	91.5547
862.05	4.43555
865.448	216.555
868.846	79.7812
872.241	365.594
875.636	58.0566
879.029	134.74
882.42	65.9492
885.81	55.6035
889.199	95.9961
892.586	204.94
895.971	165.254
899.356	124.678
902.738	247.633
906.12	4.35742
909.5	101.576
912.878	152.133
916.255	81.2305
919.63	231.574
923.004	449.068
926.377	20.1309
929.748	28.1055
933.118	157.988
936.486	70.5488
939.853	338.023
943.218	316.053
946.582	27.2754
949.945	287.738
953.306	283.065
956.665	60.7246
960.023	122.092
963.38	320.287
966.735	174.236
970.089	185.473
973.441	201.867
976.792	264.422
980.141	83.832
983.489	244.938
986.836	307.787
990.181	83.5195
993.524	458.488
996.866	200.203
1000.21	46.7266
1003.55	366.008
1006.88	382.998
1010.22	333.379
1013.55	384.893
1016.89	346.947
1020.22	252.393
1023.55	165.482
1026.88	163.41
1030.21	296.207
1033.53	102.754
1036.86	239.166
1040.18	363.434
1043.5	307.609
1046.82	264.67
1050.14	392.461
1053.46	52.2227
1056.78	338.748
1060.09	402.547
1063.4	114.031
1066.71	319.369
1070.02	129.012
1073.33	249.824
1076.64	256.477
1079.94	179.914
1083.25	227.574
1086.55	251.184
1089.85	59.6836
1093.15	83.7305
1096.45	105.84
1099.75	14.918
1103.04	169.824
1106.34	38.2344
1109.63	79.6055
1112.92	288.496
1116.21	145.242
1119.5	333.246
1122.78	153.305
1126.07	159.43
1129.35	79.6914
1132.63	54.8672
1135.92	116.113
1139.19	185.051
1142.47	184.773
1145.75	120.957
1149.02	23.3945
1152.3	56.207
1155.57	206.156
1158.84	397.922
1162.11	372.434
1165.38	140.223
1168.64	198.531
1171.91	85.0234
1175.17	45.4062
1178.43	110.238
1181.69	137.254
1184.95	9.47266
1188.21	91.707
1191.46	5.21094
1194.72	107.231
1197.97	3.87109
1201.22	163.164
1204.47	165.348
1207.72	200.32
1210.97	320.023
1214.21	239.441
1217.46	211.465
1220.7	140.394
1223.94	192.805
1227.18	384.832
1230.42	10.3203
1233.65	299.594
1236.89	130.172
1240.12	165.777
1243.35	360.414
1246.59	273.078
1249.81	248.676
1253.04	77.2734
1256.27	395.555
1259.49	42.9648
1262.72	118.684
1265.94	294.215
1269.16	122.152
1272.38	330.285
1275.59	49.707
1278.81	227.438
1282.03	180.816
1285.24	241.094
1288.45	349.519
1291.66	390.988
1294.87	155.996
1298.08	55.7852
