Measurement: Raman, 514 nm, ccw, Raman Data Processed
Mineral: Corundum
Rruff sample: R040096
Ideal chemistry: Al_2_O_3_
Locality: Sri Lanka
Source: University of Arizona Mineral Museum
Description: Pale purple hexagonal prism
Measured chemistry: Al_2.00_O_3_
Pin_id: L01813
Orientation: Laser parallel to -c* (0 0 -1). Fiducial mark perpendicular to laser is parallel to a [1 0 0]
Raman shift (cm-1)	intensity
113.208	0
116.903	4.83301
120.596	84.8877
124.288	34.8926
127.979	157.996
131.668	180.736
135.356	112.703
139.043	321.215
142.728	271.644
146.412	302.486
150.094	260.906
153.775	256.298
157.455	304.389
161.134	201.539
164.811	202.269
168.486	243.19
172.161	409.295
175.834	313.703
179.505	316.313
183.176	367.09
186.845	359.002
190.512	417.861
194.178	590.698
197.843	556.482
201.507	503.159
205.169	321.018
208.829	174.144
212.489	305.559
216.147	139.066
219.803	201.329
223.459	335.565
227.112	352.099
230.765	167.98
234.416	158.065
238.066	206.046
241.714	165.186
245.361	96.4258
249.007	262.706
252.651	168.994
256.294	365.279
259.936	330.024
263.576	47.4658
267.215	109.038
270.852	35.9414
274.488	68.376
278.123	342.932
281.756	54.7744
285.388	20.4951
289.019	63.4258
292.648	76.4434
296.276	191.529
299.902	26.6357
303.527	48.7207
307.151	17.832
310.773	52.9658
314.394	45.1435
318.013	81.8701
321.631	23.3555
325.248	83.8818
328.864	116.548
332.478	59.708
336.09	60.3252
339.701	72.5508
343.311	98.8301
346.92	122.931
350.527	111.861
354.132	57.4795
357.737	181.784
361.34	140.512
364.941	227.914
368.541	323.571
372.14	575.019
375.737	766.941
379.333	543.67
382.928	282.957
386.521	159.959
390.113	105.701
393.703	305.666
397.292	197.941
400.88	318.498
404.466	1038.91
408.051	4491.07
411.634	5551.93
415.216	5719.83
418.797	3819.36
422.376	1394.93
425.954	765.768
429.53	598.742
433.105	342.875
436.679	343.879
440.251	547.568
443.822	621.352
447.391	487.402
450.96	160.012
454.526	133.35
458.091	62.0352
461.655	18.0762
465.218	72.168
468.779	97.7441
472.338	159.387
475.897	47.2773
479.454	12.7383
483.009	19.4258
486.563	75.5098
490.116	24.8945
493.667	209.883
497.217	66.9336
500.765	219.793
504.312	93.5215
507.858	63.6816
511.402	239.174
514.945	60.0605
518.486	85.0938
522.026	292.932
525.565	121.311
529.102	28.541
532.638	18.5879
536.172	250.522
539.705	172.887
543.236	150.377
546.766	159.08
550.295	179.139
553.822	297.435
557.348	298.383
560.873	283.088
564.396	423.535
567.917	1027.46
571.438	1128.46
574.957	1361.01
578.474	789.236
581.99	300.082
585.504	206.912
589.018	114.356
592.529	115.541
596.04	149.422
599.549	367.723
603.056	16.3398
606.562	270.074
610.067	161.963
613.57	128.369
617.072	94.1934
620.572	125.867
624.071	22.8203
627.569	118.59
631.065	173.51
634.56	141.57
638.053	114.432
641.545	133.018
645.035	94.3672
648.524	155.066
652.012	211.144
655.498	181.119
658.983	78.6934
662.466	142.443
665.948	8.42578
669.428	111.707
672.907	136.998
676.385	52.7402
679.861	96.75
683.336	155.606
686.809	89.7305
690.281	74.1934
693.752	66.209
697.221	16.043
700.688	197.898
704.155	54.3965
707.619	114.068
711.083	237.041
714.545	226.602
718.005	238.648
721.464	198.43
724.922	501.539
728.378	701.705
731.833	936.57
735.286	1183.34
738.738	2032.85
742.189	3194.11
745.638	3953.34
749.085	3634.32
752.531	2942.72
755.976	1985.89
759.419	1167.31
762.861	955.572
766.302	558.793
769.741	562.365
773.178	380.664
776.614	296.414
780.049	445.285
783.482	226.514
786.914	319.293
790.345	94.1934
793.773	336.685
797.201	376.629
800.627	174.66
804.052	384.312
807.475	244.869
810.897	384.512
814.317	222.24
817.736	207.115
821.153	530.918
824.569	219.326
827.984	137.252
831.397	95.0254
834.808	368.518
838.219	310.51
841.627	180.553
845.035	216.66
848.441	168.539
851.845	219.574
855.248	168.4
858.65	488.785
862.05	37.1211
865.448	141.631
868.846	192.582
872.241	263.781
875.636	181.279
879.029	41.9746
882.42	121.711
885.81	130.697
889.199	397.256
892.586	134
895.971	95.4258
899.356	136.283
902.738	58.3027
906.12	185.293
909.5	34.8477
912.878	43.9688
916.255	101.014
919.63	193.908
923.004	10.5
926.377	27.2324
929.748	28.6562
933.118	34.7832
936.486	5.80273
939.853	284.957
943.218	138.639
946.582	94.8574
949.945	293.488
953.306	64.5469
956.665	471.832
960.023	164.348
963.38	107.969
966.735	22.1445
970.089	89.3398
973.441	333.879
976.792	329.394
980.141	217.676
983.489	265.293
986.836	430.559
990.181	303.508
993.524	297.477
996.866	244.281
1000.21	226.309
1003.55	213.379
1006.88	61.6562
1010.22	157.637
1013.55	272.668
1016.89	185.375
1020.22	175.019
1023.55	483.621
1026.88	194.977
1030.21	403.184
1033.53	111.539
1036.86	207.988
1040.18	379.137
1043.5	410.137
1046.82	89.832
1050.14	223.578
1053.46	300.453
1056.78	141.352
1060.09	68.7852
1063.4	179.047
1066.71	342.316
1070.02	261.137
1073.33	271.379
1076.64	216.109
1079.94	79.7773
1083.25	113.055
1086.55	26.3398
1089.85	184.137
1093.15	268.59
1096.45	227.715
1099.75	298.383
1103.04	314.691
1106.34	300.742
1109.63	41.6523
1112.92	262.703
1116.21	290.348
1119.5	356.394
1122.78	552.481
1126.07	343.363
1129.35	210.125
1132.63	253.773
1135.92	150.523
1139.19	33.2305
1142.47	52.418
1145.75	184.086
1149.02	258.644
1152.3	240.684
1155.57	102.898
1158.84	77.7148
1162.11	351.277
1165.38	452.793
1168.64	274.578
1171.91	119.637
1175.17	100.254
1178.43	30.0195
1181.69	341.262
1184.95	162.273
1188.21	114.898
1191.46	300.102
1194.72	193.609
1197.97	315.223
1201.22	342.328
1204.47	396.426
1207.72	345.035
1210.97	518.953
1214.21	417.734
1217.46	199.262
1220.7	72.0039
1223.94	3.21094
1227.18	373.699
1230.42	161.547
1233.65	116.297
1236.89	369.957
1240.12	97.5078
1243.35	274.512
1246.59	7.35938
1249.81	143.961
1253.04	90.3086
1256.27	35.0469
1259.49	265.883
1262.72	319.113
1265.94	199.426
1269.16	56.1602
1272.38	126.785
1275.59	297.988
1278.81	54.3359
1282.03	274.219
1285.24	355.707
1288.45	501.356
1291.66	92.8555
1294.87	283.945
1298.08	194.711
