Measurement: Raman, 514 nm, ccw, Raman Data Processed
Mineral: Corundum
Rruff sample: R060020
Ideal chemistry: Al_2_O_3_
Locality: Yogo Gulch, Montana, USA
Source: American Museum of Natural History
Description: Water rounded light blue fragment
Measured chemistry: (Al_1.99_Fe^3+^_0.01_)_Î£=2_O_3_ ; Fe^3+^ by charge balance
Pin_id: L01955
Orientation: Laser parallel to c* (0 0 1). Fiducial mark perpendicular to laser is parallel to b [0 1 0]
Raman shift (cm-1)	intensity
179.505	203.924
184.399	105.966
189.29	334.67
194.178	1126.28
199.064	449.924
203.948	457.766
208.829	11.2461
213.708	118.264
218.585	29.959
223.459	48.0625
228.33	28.3262
233.199	21.0996
238.066	34.0156
242.93	104.533
247.792	81.2256
252.651	39.5205
257.508	122.384
262.363	290.418
267.215	228.333
272.064	261.425
276.912	694.291
281.756	1025.6
286.598	338.149
291.438	219.736
296.276	104.23
301.111	93.4912
305.943	21.5234
310.773	0.976563
315.601	154.642
320.426	176.484
325.248	23.5068
330.068	61.3076
334.886	18.4072
339.701	28.2959
344.514	32.416
349.324	115.52
354.132	161.399
358.938	307.805
363.741	374.652
368.541	281.115
373.339	860.521
378.135	1485.61
382.928	1272.34
387.718	1423.7
392.506	1984.34
397.292	1918.97
402.075	1371.03
406.856	1296.42
411.634	2330.52
416.41	4738.46
421.183	2173.4
425.954	799.604
430.722	770.245
435.488	406.636
440.251	378.489
445.012	363.015
449.77	547.044
454.526	307.217
459.28	291.551
464.03	152.379
468.779	141.393
473.525	352.834
478.268	152.157
483.009	244.921
487.747	253.208
492.483	98.3535
497.217	128.116
501.948	578.756
506.676	739.414
511.402	1202.68
516.125	1306.55
520.846	1258.02
525.565	833.086
530.281	662.757
534.994	347.029
539.705	349.908
544.413	187.117
549.119	79.2441
553.822	200.555
558.523	205.648
563.222	128.275
567.917	166.885
572.611	597.023
577.302	710.082
581.99	294.176
586.676	67.8203
591.359	116.988
596.04	75.9688
600.718	74.457
605.394	245.637
610.067	275.703
614.737	446.66
619.406	728.482
624.071	1114.46
628.734	1634.84
633.395	2614.5
638.053	2985.53
642.708	2762.35
647.361	1890.78
652.012	1361.56
656.66	769.691
661.305	570.611
665.948	399.949
670.588	507.906
675.226	499.467
679.861	251.693
684.494	169.725
689.124	78.4551
693.752	67.5801
698.377	39.0254
702.999	27.3496
707.619	228.996
712.237	523.764
716.852	512.031
721.464	221.428
726.074	237.445
730.681	236.949
735.286	287.447
739.888	695.279
744.488	1402.69
749.085	1685.73
753.68	1483.38
758.272	1054.78
762.861	525.359
767.448	318.51
772.033	408.935
776.614	297.022
781.194	338.609
785.77	560.209
790.345	420.092
794.916	385.361
799.485	827.252
804.052	468.277
808.616	615.633
813.177	524.176
817.736	407.42
822.292	615.912
826.846	302.654
831.397	461.504
835.945	370.719
840.491	223.039
845.035	199.644
849.576	276.875
854.114	286.449
858.65	219.227
863.183	103.125
867.713	224.707
872.241	264.232
876.767	4.22852
881.29	107.586
885.81	72.7324
890.328	124.848
894.843	140.846
899.356	151.785
903.866	114.898
908.373	140.277
912.878	49.0469
917.38	184.506
921.88	80.2383
926.377	161.988
930.872	63.5391
935.364	47.9238
939.853	35.2559
944.34	99.8535
948.824	152.242
953.306	255.598
957.785	384.232
962.261	98.9414
966.735	100.453
971.207	184.744
975.675	62.7539
980.141	187.672
984.605	294.715
989.066	658.936
993.524	177.492
997.98	255.197
1002.43	189.08
1006.88	125.703
1011.33	53.2285
1015.78	98.8144
1020.22	124.936
1024.66	221.018
1029.1	42.5117
1033.53	170.982
1037.97	148.01
1042.4	164.309
1046.82	47.9629
1051.25	31.25
1055.67	142.31
1060.09	194.147
1064.51	289.49
1068.92	502.119
1073.33	242.865
1077.74	242.496
1082.15	280.049
1086.55	515.4
1090.95	531.197
1095.35	601.328
1099.75	322.84
1104.14	237.586
1108.53	329.031
1112.92	109.762
1117.31	275.316
1121.69	252.93
1126.07	409.695
1130.45	238.742
1134.82	313.676
1139.19	188.898
1143.57	265.508
1147.93	218.09
1152.3	308.711
1156.66	217.199
1161.02	238.199
1165.38	315.496
1169.73	226.141
1174.08	6.79297
1178.43	34.3281
1182.78	87.9141
1187.12	245.027
1191.46	378.367
1195.8	92.6562
1200.14	201.215
1204.47	276.258
1208.8	266.277
1213.13	48.8516
1217.46	268.644
1221.78	245.055
1226.1	364.836
1230.42	369.266
1234.73	235.316
1239.04	318.231
1243.35	353.606
1247.66	227.438
1251.97	87.5547
1256.27	122.262
1260.57	142.891
1264.86	233.75
1269.16	96.457
1273.45	75.2383
1277.74	221.34
1282.03	23.7891
1286.31	426.793
1290.59	119.965
1294.87	479.191
1299.14	370.609
1303.42	306.32
1307.69	248.699
1311.95	304.68
1316.22	304.867
1320.48	496.781
1324.74	376.273
1329	399.555
1333.26	391.312
1337.51	432.074
1341.76	487.769
1346	399.305
1350.25	320.66
1354.49	432.465
1358.73	286.836
1362.96	426.508
1367.2	462.188
1371.43	458.688
1375.66	196.074
1379.88	167.176
1384.11	368.211
1388.33	313.641
1392.54	262.539
1396.76	60.4062
1400.97	272.742
1405.18	117.609
1409.39	151.973
1413.59	154.094
1417.8	150.371
1421.99	123.469
1426.19	467.773
1430.38	475.773
1434.58	992.293
1438.77	636.051
1442.95	980.582
1447.13	665.981
1451.32	358.531
1455.49	593.242
1459.67	553.469
1463.84	209.852
1468.01	607.086
1472.18	517.285
1476.35	416.84
1480.51	141.133
1484.67	136.129
1488.83	232.637
1492.98	373.18
1497.13	98.8086
1501.28	344.695
1505.43	123.777
1509.57	177.035
1513.71	465.426
1517.85	382.215
1521.99	185.613
1526.12	345.309
1530.25	238.809
1534.38	262.164
1538.5	85.8281
1542.62	390.68
1546.74	140.766
1550.86	261.996
1554.98	467.031
1559.09	410.199
1563.2	404.82
1567.31	244.703
1571.41	544.285
