Measurement: Raman, 514 nm, ccw, Raman Data Processed
Mineral: Corundum
Rruff sample: R040096
Ideal chemistry: Al_2_O_3_
Locality: Sri Lanka
Source: University of Arizona Mineral Museum
Description: Pale purple hexagonal prism
Measured chemistry: Al_2.00_O_3_
Pin_id: L01198
Orientation: Laser parallel to a* (1 0 0). Fiducial mark perpendicular to laser is parallel to c [0 0 1]
Raman shift (cm-1)	intensity
113.208	0
116.903	63.6509
120.596	11.833
124.288	91.938
127.979	112.942
131.668	64.0225
135.356	111.16
139.043	218.253
142.728	142.202
146.412	177.162
150.094	157.855
153.775	63.9228
157.455	45.4292
161.134	91.3164
164.811	159.838
168.486	63.2954
172.161	92.6826
175.834	155.029
179.505	206.379
183.176	167.779
186.845	177.677
190.512	131.644
194.178	43.7915
197.843	118.579
201.507	131.774
205.169	132.396
208.829	106.568
212.489	113.706
216.147	118.527
219.803	70.4219
223.459	132.964
227.112	133.506
230.765	75.4058
234.416	55.8496
238.066	72.356
241.714	109.495
245.361	21.6431
249.007	26.6099
252.651	116.44
256.294	106.041
259.936	234.398
263.576	92.4473
267.215	35.0195
270.852	142.787
274.488	28.6816
278.123	20.6426
281.756	43.727
285.388	2.57715
289.019	49.5112
292.648	89.5483
296.276	10.5713
299.902	93.6309
303.527	33.3726
307.151	9.04785
310.773	65.5967
314.394	151.544
318.013	5.18652
321.631	43.669
325.248	20.584
328.864	169.993
332.478	45.8149
336.09	249.704
339.701	332.776
343.311	170.962
346.92	296.72
350.527	187.443
354.132	140.334
357.737	66.4648
361.34	104.713
364.941	178.209
368.541	198.559
372.14	299.19
375.737	615.635
379.333	644.404
382.928	371.26
386.521	307.945
390.113	318.853
393.703	417.69
397.292	461.434
400.88	647.727
404.466	1571.28
408.051	5401.35
411.634	11293
415.216	26531.5
418.797	13746.8
422.376	2752.32
425.954	769.593
429.53	482.059
433.105	333.974
436.679	104.858
440.251	228.627
443.822	150.317
447.391	178.253
450.96	129.408
454.526	93.2744
458.091	78.1963
461.655	96.8769
465.218	52.6836
468.779	22.6514
472.338	153.723
475.897	146.544
479.454	68.415
483.009	119.689
486.563	51.6738
490.116	75.8125
493.667	11.2559
497.217	87.7412
500.765	16.6963
504.312	65.8418
507.858	2.6543
511.402	46.3867
514.945	61.9316
518.486	153.137
522.026	163.891
525.565	72.1523
529.102	111.984
532.638	153.185
536.172	128.391
539.705	71.0537
543.236	169.818
546.766	82.8389
550.295	96.6816
553.822	132.566
557.348	1.55762
560.873	174.168
564.396	74.5547
567.917	93.04
571.438	141.904
574.957	67.6025
578.474	128.144
581.99	58.0049
585.504	148.322
589.018	0.027344
592.529	44.2832
596.04	295.143
599.549	136.769
603.056	235.664
606.562	177.683
610.067	214.765
613.57	113.268
617.072	317.082
620.572	393.44
624.071	501.41
627.569	793.368
631.065	1195.03
634.56	2699.09
638.053	5590.13
641.545	9391.52
645.035	8908.21
648.524	4614.54
652.012	2162.4
655.498	1424.76
658.983	963.637
662.466	755.162
665.948	534.734
669.428	402.112
672.907	441.923
676.385	378.81
679.861	195.179
683.336	318.28
686.809	278.697
690.281	160.139
693.752	122.676
697.221	98.0332
700.688	159.303
704.155	57.8838
707.619	91.5391
711.083	66.5469
714.545	83.3486
718.005	63.3447
721.464	138.017
724.922	79.5381
728.378	4.01269
731.833	44.7666
735.286	84.5039
738.738	79.958
742.189	154.575
745.638	134.61
749.085	27.7871
752.531	156.814
755.976	227.178
759.419	98.9941
762.861	65.9414
766.302	148.834
769.741	128.795
773.178	112.902
776.614	73.9902
780.049	62.9531
783.482	29.2793
786.914	125.141
790.345	71.8789
793.773	92.9023
797.201	94.3281
800.627	162.738
804.052	30.2637
807.475	110.24
810.897	385.088
814.317	162.967
817.736	170.898
821.153	226.471
824.569	176.535
827.984	204.957
831.397	205.051
834.808	112.867
838.219	161.051
841.627	212.68
845.035	126.022
848.441	279.1
851.845	261.848
855.248	177.1
858.65	223.734
862.05	206.955
865.448	205.295
868.846	197.654
872.241	114.611
875.636	160.422
879.029	109.658
882.42	325.818
885.81	119.475
889.199	7.39453
892.586	94.6152
895.971	92.8906
899.356	174.863
902.738	69.6894
906.12	136
909.5	1.11328
912.878	337.266
916.255	37.9258
919.63	182.609
923.004	98.4473
926.377	34.4297
929.748	108.818
933.118	252.404
936.486	382.582
939.853	15.002
943.218	124.998
946.582	32.4707
949.945	164.297
953.306	160.477
956.665	92.3457
960.023	4.91992
963.38	40.748
966.735	23.7617
970.089	114.394
973.441	209.57
976.792	321.426
980.141	255.125
983.489	205.25
986.836	209.033
990.181	193.938
993.524	277.707
996.866	244.978
1000.21	328.533
1003.55	184.238
1006.88	169.525
1010.22	251.99
1013.55	320.543
1016.89	152.316
1020.22	264.914
1023.55	319.168
1026.88	317.092
1030.21	117.506
1033.53	263.231
1036.86	437.322
1040.18	275.496
1043.5	312.574
1046.82	28.6582
1050.14	289.197
1053.46	46.3105
1056.78	281.047
1060.09	430.211
1063.4	278.906
1066.71	234.647
1070.02	257.272
1073.33	46.0703
1076.64	33.2676
1079.94	244.723
1083.25	211.283
1086.55	194.658
1089.85	112.463
1093.15	48.4766
1096.45	166.287
1099.75	257.326
1103.04	218.176
1106.34	112
1109.63	20.0898
1112.92	194.535
1116.21	118.549
1119.5	198.082
1122.78	419.055
1126.07	225.367
1129.35	177.426
1132.63	10.3164
1135.92	218.268
1139.19	16.3848
1142.47	262.227
1145.75	114.363
1149.02	185.773
1152.3	111.266
1155.57	255.781
1158.84	317.773
1162.11	15.7305
1165.38	405.477
1168.64	343.797
1171.91	414.82
1175.17	168.481
1178.43	309.801
1181.69	370.594
1184.95	12.7227
1188.21	144.867
1191.46	125.981
1194.72	242.156
1197.97	227.086
1201.22	115.957
1204.47	188.144
1207.72	212.922
1210.97	173.176
1214.21	245.328
1217.46	389.277
1220.7	286.492
1223.94	295.164
1227.18	301.922
1230.42	286.516
1233.65	277.551
1236.89	257.004
1240.12	375.961
1243.35	240
1246.59	382.297
1249.81	327.434
1253.04	338.066
1256.27	282.039
1259.49	331.559
1262.72	275.195
1265.94	411.461
1269.16	20.8359
1272.38	177.352
1275.59	447.066
1278.81	57.0156
1282.03	252.731
1285.24	272.973
1288.45	181.891
1291.66	135.016
1294.87	103.246
1298.08	41.7227
