Measurement: Raman, 514 nm, ccw, Raman Data Processed
Mineral: Corundum
Rruff sample: R040096
Ideal chemistry: Al_2_O_3_
Locality: Sri Lanka
Source: University of Arizona Mineral Museum
Description: Pale purple hexagonal prism
Measured chemistry: Al_2.00_O_3_
Pin_id: L01813
Orientation: Laser parallel to -c* (0 0 -1). Fiducial mark perpendicular to laser is parallel to a [1 0 0]
Raman shift (cm-1)	intensity
113.208	0
116.903	87.6113
120.596	146.156
124.288	233.801
127.979	281.51
131.668	332.677
135.356	321.568
139.043	394.824
142.728	348.716
146.412	348.544
150.094	377.863
153.775	224.344
157.455	183.708
161.134	138.64
164.811	394.313
168.486	521.244
172.161	271.447
175.834	401.951
179.505	385.735
183.176	471.785
186.845	446.09
190.512	559.398
194.178	457.65
197.843	586.993
201.507	529.471
205.169	323.015
208.829	177.533
212.489	241.324
216.147	276.772
219.803	260.21
223.459	260.279
227.112	230.95
230.765	316.821
234.416	404.919
238.066	428.126
241.714	254.393
245.361	252.737
249.007	250.29
252.651	108.061
256.294	357.889
259.936	318.272
263.576	190.283
267.215	164.998
270.852	121.886
274.488	246.253
278.123	46.9785
281.756	265.997
285.388	165.251
289.019	94.7012
292.648	76.3086
296.276	162.03
299.902	86.1562
303.527	45.3281
307.151	80.5117
310.773	91.4033
314.394	23.0537
318.013	81.8262
321.631	148.966
325.248	162.238
328.864	68.2773
332.478	249.196
336.09	107.38
339.701	152.985
343.311	121.824
346.92	118.894
350.527	51.8623
354.132	225.064
357.737	32.5801
361.34	251.625
364.941	373.643
368.541	1024.97
372.14	1559.27
375.737	1784.45
379.333	1593.87
382.928	885.393
386.521	400.221
390.113	278.283
393.703	352.65
397.292	316.809
400.88	339.307
404.466	1265.49
408.051	4415.06
411.634	7098.03
415.216	7830.9
418.797	6033.68
422.376	2168.93
425.954	1367.41
429.53	1236.82
433.105	786.139
436.679	436.174
440.251	414.152
443.822	356.363
447.391	424.809
450.96	305.547
454.526	68.6934
458.091	42.4004
461.655	136.279
465.218	118.426
468.779	151.768
472.338	17.5703
475.897	66.1836
479.454	18.5879
483.009	42.0371
486.563	79.5117
490.116	104.582
493.667	184.121
497.217	14.3281
500.765	227.815
504.312	222.59
507.858	172.897
511.402	62.5391
514.945	107.67
518.486	92.1973
522.026	300.586
525.565	378.342
529.102	177.188
532.638	177.227
536.172	306.17
539.705	78.459
543.236	378.603
546.766	262.408
550.295	286.357
553.822	23.7949
557.348	434.113
560.873	149.682
564.396	528.213
567.917	595.217
571.438	838.703
574.957	1182.84
578.474	607.019
581.99	214.279
585.504	355.565
589.018	290.709
592.529	259.498
596.04	33.125
599.549	294.316
603.056	299.912
606.562	37.3965
610.067	101.266
613.57	349.016
617.072	56.0664
620.572	159.035
624.071	234.578
627.569	32.2793
631.065	105.305
634.56	222.91
638.053	256.006
641.545	209.018
645.035	292.81
648.524	270.117
652.012	12.627
655.498	252.24
658.983	289.26
662.466	248.455
665.948	181.131
669.428	58.2148
672.907	257.406
676.385	233.182
679.861	396.416
683.336	315.842
686.809	14.9336
690.281	298.332
693.752	178.652
697.221	49.0918
700.688	128.246
704.155	102.697
707.619	142.297
711.083	129.305
714.545	272.701
718.005	399.975
721.464	189.268
724.922	393.791
728.378	486.455
731.833	359.615
735.286	810.453
738.738	1440.04
742.189	1928.41
745.638	2588.22
749.085	2359.22
752.531	1941.89
755.976	1253.95
759.419	991.699
762.861	502.861
766.302	712.994
769.741	296.147
773.178	294.709
776.614	315.551
780.049	275.375
783.482	241.639
786.914	287.375
790.345	284.279
793.773	211.455
797.201	317.932
800.627	322.389
804.052	182.945
807.475	93.5176
810.897	190.777
814.317	133.848
817.736	379.072
821.153	12.6855
824.569	189.641
827.984	296.695
831.397	143.637
834.808	131.877
838.219	65.332
841.627	174.969
845.035	362.299
848.441	27.2598
851.845	38.7715
855.248	291.621
858.65	152.213
862.05	199.875
865.448	360.957
868.846	217.775
872.241	150.285
875.636	14.4883
879.029	310.045
882.42	251.207
885.81	223.943
889.199	178.648
892.586	48.7617
895.971	75.4316
899.356	63.5801
902.738	16.2383
906.12	96.2227
909.5	60.5
912.878	123.842
916.255	76.6523
919.63	176.135
923.004	179.756
926.377	114.953
929.748	215.734
933.118	45.4258
936.486	5.31641
939.853	57.0996
943.218	198.967
946.582	258.742
949.945	133.172
953.306	15.9102
956.665	197.519
960.023	237.289
963.38	153.418
966.735	201.418
970.089	229.848
973.441	205.676
976.792	107.359
980.141	148.656
983.489	349.621
986.836	280.695
990.181	292.523
993.524	219.074
996.866	159.199
1000.21	381.684
1003.55	491.559
1006.88	325.281
1010.22	325.777
1013.55	244.934
1016.89	398.762
1020.22	165.652
1023.55	281.973
1026.88	136.34
1030.21	571.644
1033.53	283.258
1036.86	176.359
1040.18	369.699
1043.5	402.898
1046.82	227.648
1050.14	403.926
1053.46	365.445
1056.78	356.664
1060.09	355.356
1063.4	328.09
1066.71	217.918
1070.02	451.481
1073.33	358.406
1076.64	376.441
1079.94	200.379
1083.25	144.547
1086.55	92.2109
1089.85	210.144
1093.15	46.7969
1096.45	95.7695
1099.75	203.051
1103.04	157.633
1106.34	85.0352
1109.63	208.496
1112.92	169.188
1116.21	220.875
1119.5	286.883
1122.78	376.859
1126.07	141.672
1129.35	12.4336
1132.63	102.465
1135.92	286.059
1139.19	57.8672
1142.47	15.25
1145.75	111.289
1149.02	114.812
1152.3	234.148
1155.57	273.688
1158.84	143.305
1162.11	221.363
1165.38	103.211
1168.64	91.9844
1171.91	113.027
1175.17	325.879
1178.43	194.309
1181.69	150.031
1184.95	393.356
1188.21	163.637
1191.46	172.344
1194.72	335.879
1197.97	385.953
1201.22	404.875
1204.47	380.34
1207.72	302.254
1210.97	474.383
1214.21	354.301
1217.46	345.406
1220.7	257.184
1223.94	155.125
1227.18	237.57
1230.42	315.863
1233.65	79.7344
1236.89	355.812
1240.12	166.856
1243.35	246.305
1246.59	266.867
1249.81	379.449
1253.04	74.5312
1256.27	21.8086
1259.49	43.5781
1262.72	103.164
1265.94	130.606
1269.16	56.7617
1272.38	307.762
1275.59	328.707
1278.81	88.1641
1282.03	54.4492
1285.24	304.356
1288.45	101.523
1291.66	202.711
1294.87	4.17969
1298.08	45.2539
