Measurement: Raman, 514 nm, ccw, Raman Data Processed
Mineral: Corundum
Rruff sample: R060020
Ideal chemistry: Al_2_O_3_
Locality: Yogo Gulch, Montana, USA
Source: American Museum of Natural History
Description: Water rounded light blue fragment
Measured chemistry: (Al_1.99_Fe^3+^_0.01_)_Î£=2_O_3_ ; Fe^3+^ by charge balance
Pin_id: L01955
Orientation: Laser parallel to c* (0 0 1). Fiducial mark perpendicular to laser is parallel to b [0 1 0]
Raman shift (cm-1)	intensity
179.505	148.477
184.399	281.591
189.29	232.535
194.178	938.57
199.064	480.225
203.948	467.134
208.829	37.5518
213.708	77.8359
218.585	82.7812
223.459	44.6309
228.33	4.26269
233.199	24.5352
238.066	164.794
242.93	37.7637
247.792	111.542
252.651	7.31543
257.508	53.3984
262.363	164.087
267.215	53.6191
272.064	198.483
276.912	217.08
281.756	335.883
286.598	245.574
291.438	224.989
296.276	63.0615
301.111	25.7617
305.943	154.118
310.773	6.77344
315.601	155.531
320.426	200.386
325.248	248.628
330.068	223.522
334.886	32.0557
339.701	2.78418
344.514	115.706
349.324	193.726
354.132	38.4395
358.938	248.427
363.741	235.931
368.541	467.759
373.339	953.867
378.135	1377.83
382.928	1474.18
387.718	1804.57
392.506	2359.54
397.292	2292.88
402.075	1629.14
406.856	1542.21
411.634	2164.59
416.41	3637.62
421.183	1672.36
425.954	715.362
430.722	663.886
435.488	401.769
440.251	389.724
445.012	361.24
449.77	380.377
454.526	326.511
459.28	51.0957
464.03	191.076
468.779	33.9492
473.525	17.7012
478.268	218.184
483.009	262.422
487.747	302.91
492.483	306.072
497.217	295.473
501.948	563.287
506.676	1040.59
511.402	1567.76
516.125	1716.76
520.846	1340.51
525.565	1055.98
530.281	599.166
534.994	447.193
539.705	413.176
544.413	262.074
549.119	284.541
553.822	87.0742
558.523	42.1016
563.222	16.8301
567.917	365.797
572.611	264.74
577.302	456.957
581.99	199.623
586.676	66.2363
591.359	253.805
596.04	24.8555
600.718	68.0644
605.394	248.838
610.067	450.44
614.737	614.289
619.406	1092.37
624.071	1802.9
628.734	2241.01
633.395	3524.66
638.053	3915.13
642.708	3328.84
647.361	2260.28
652.012	1257.88
656.66	884.84
661.305	675.816
665.948	494.205
670.588	361.303
675.226	440.75
679.861	182.621
684.494	141.012
689.124	57.3574
693.752	47.0898
698.377	7.25781
702.999	169.277
707.619	9.56641
712.237	329.242
716.852	197.305
721.464	89.2519
726.074	21.9648
730.681	206.359
735.286	260.041
739.888	437.551
744.488	1066.69
749.085	1469.92
753.68	1119.28
758.272	701.984
762.861	250.42
767.448	335.775
772.033	278.926
776.614	354.178
781.194	510.283
785.77	444.471
790.345	280.935
794.916	455.477
799.485	421.24
804.052	631.15
808.616	246.867
813.177	345.533
817.736	445.656
822.292	250.498
826.846	302.648
831.397	164.453
835.945	689.512
840.491	236.906
845.035	358.256
849.576	234.596
854.114	457.035
858.65	332.772
863.183	130.512
867.713	310.647
872.241	74.9531
876.767	193.752
881.29	31.9102
885.81	18.8203
890.328	6.4043
894.843	321.062
899.356	46.6777
903.866	15.2402
908.373	33.9062
912.878	11.1641
917.38	236.381
921.88	151.412
926.377	421.148
930.872	129.453
935.364	222.693
939.853	157.574
944.34	72.4883
948.824	49.5469
953.306	221.269
957.785	86.7773
962.261	162.1
966.735	207.6
971.207	230.486
975.675	403.158
980.141	407.959
984.605	181.195
989.066	505.66
993.524	260.66
997.98	437.494
1002.43	460.344
1006.88	123.07
1011.33	272.787
1015.78	30.9805
1020.22	256.613
1024.66	87.125
1029.1	208.127
1033.53	322.07
1037.97	256.334
1042.4	403.891
1046.82	176.758
1051.25	345.635
1055.67	227.131
1060.09	220.828
1064.51	106.24
1068.92	214.602
1073.33	368.578
1077.74	626.258
1082.15	155.805
1086.55	291.066
1090.95	232.371
1095.35	632.316
1099.75	279.367
1104.14	409.469
1108.53	7.42969
1112.92	205.383
1117.31	229.875
1121.69	32.0938
1126.07	499
1130.45	266.57
1134.82	466.504
1139.19	546.969
1143.57	429.539
1147.93	237.023
1152.3	371.516
1156.66	266.961
1161.02	66.7305
1165.38	178.09
1169.73	322.879
1174.08	45.6055
1178.43	157.184
1182.78	138.961
1187.12	466.594
1191.46	161.113
1195.8	223.496
1200.14	188.254
1204.47	265.391
1208.8	120.059
1213.13	272.969
1217.46	446.047
1221.78	296.211
1226.1	257.894
1230.42	621.781
1234.73	335.598
1239.04	165.359
1243.35	670.602
1247.66	368.488
1251.97	300.527
1256.27	254.785
1260.57	22.7852
1264.86	147.035
1269.16	54.9219
1273.45	209.438
1277.74	64.1758
1282.03	112.324
1286.31	89.2773
1290.59	233.078
1294.87	689.438
1299.14	644.023
1303.42	571.859
1307.69	453.938
1311.95	359.117
1316.22	350.269
1320.48	434.281
1324.74	424.273
1329	542.938
1333.26	379.852
1337.51	517.438
1341.76	688.215
1346	300.621
1350.25	430.324
1354.49	658.391
1358.73	361.406
1362.96	248.238
1367.2	407.039
1371.43	327.379
1375.66	376.301
1379.88	388.352
1384.11	82.0078
1388.33	490.254
1392.54	34.4648
1396.76	476.059
1400.97	114.176
1405.18	151.273
1409.39	370.535
1413.59	55.5234
1417.8	260.879
1421.99	270.215
1426.19	169.894
1430.38	37.4922
1434.58	762.859
1438.77	659.984
1442.95	514.262
1447.13	435.926
1451.32	652.684
1455.49	723.723
1459.67	481.242
1463.84	611.027
1468.01	491.555
1472.18	233.039
1476.35	353.945
1480.51	222.012
1484.67	333.797
1488.83	292.266
1492.98	19.3398
1497.13	347.992
1501.28	324.672
1505.43	272.492
1509.57	237.883
1513.71	271.84
1517.85	457.289
1521.99	269.691
1526.12	365.176
1530.25	838.543
1534.38	276.609
1538.5	247.223
1542.62	420.414
1546.74	474.582
1550.86	18.6406
1554.98	451.938
1559.09	369.234
1563.2	110.031
1567.31	426.523
1571.41	215.609
