Measurement: Raman, 514 nm, ccw, Raman Data Processed
Mineral: Corundum
Rruff sample: R040096
Ideal chemistry: Al_2_O_3_
Locality: Sri Lanka
Source: University of Arizona Mineral Museum
Description: Pale purple hexagonal prism
Measured chemistry: Al_2.00_O_3_
Pin_id: L01198
Orientation: Laser parallel to a* (1 0 0). Fiducial mark perpendicular to laser is parallel to c [0 0 1]
Raman shift (cm-1)	intensity
113.208	0
116.903	75.1094
120.596	28.4736
124.288	61.0483
127.979	116.88
131.668	35.9634
135.356	27.7852
139.043	64.019
142.728	45.7446
146.412	164.742
150.094	111.144
153.775	179.963
157.455	111.124
161.134	85.5376
164.811	53.4893
168.486	170.758
172.161	130.811
175.834	136.975
179.505	12.4009
183.176	53.8081
186.845	119.734
190.512	85.4814
194.178	141.184
197.843	172.704
201.507	213.743
205.169	86.3731
208.829	131.242
212.489	134.524
216.147	108.605
219.803	142.961
223.459	166.49
227.112	153.503
230.765	259.149
234.416	118.826
238.066	34.2661
241.714	261.563
245.361	164.411
249.007	163.139
252.651	158.778
256.294	120.372
259.936	133.74
263.576	98.9551
267.215	106.565
270.852	97.3345
274.488	75.1318
278.123	6.95898
281.756	81.77
285.388	122.196
289.019	10.8296
292.648	81.6245
296.276	28.7129
299.902	68.9307
303.527	6.96289
307.151	112.1
310.773	1.20019
314.394	12.7422
318.013	34.0928
321.631	25.0957
325.248	84.2275
328.864	20.126
332.478	3.10156
336.09	60.0527
339.701	51.8291
343.311	234.093
346.92	0.47168
350.527	162.954
354.132	65.8154
357.737	165.099
361.34	174.056
364.941	161.88
368.541	214.089
372.14	315.816
375.737	623.184
379.333	652.43
382.928	352.047
386.521	247.455
390.113	266.346
393.703	226.361
397.292	342.106
400.88	485.515
404.466	767.112
408.051	2378.51
411.634	5254.4
415.216	12406.6
418.797	7736.03
422.376	2051.78
425.954	1025.05
429.53	917.009
433.105	621.688
436.679	279.297
440.251	372.958
443.822	505.179
447.391	683.358
450.96	523.101
454.526	107.965
458.091	109.319
461.655	115.445
465.218	222.185
468.779	155.264
472.338	110.781
475.897	197.391
479.454	29.0234
483.009	69.2676
486.563	193.012
490.116	77.9639
493.667	137.191
497.217	168.839
500.765	67.376
504.312	38.7656
507.858	14.9121
511.402	41.8789
514.945	136.924
518.486	47.2197
522.026	183.477
525.565	194.696
529.102	197.558
532.638	148.565
536.172	54.3203
539.705	217.731
543.236	299.661
546.766	212.391
550.295	104.351
553.822	242.044
557.348	206.982
560.873	207.73
564.396	252.969
567.917	472.638
571.438	993.157
574.957	1718.87
578.474	938.403
581.99	483.299
585.504	229.918
589.018	259.11
592.529	208.95
596.04	144.547
599.549	132.161
603.056	155.381
606.562	327.247
610.067	195.398
613.57	165.841
617.072	243.856
620.572	404.518
624.071	346.47
627.569	327.127
631.065	302.846
634.56	215.917
638.053	247.178
641.545	361.13
645.035	228.268
648.524	235.471
652.012	326.803
655.498	246.511
658.983	214.548
662.466	43.7256
665.948	40.2178
669.428	54.1103
672.907	62.7617
676.385	37.7578
679.861	29.5508
683.336	109.309
686.809	94.6387
690.281	158.821
693.752	14.5166
697.221	9.84863
700.688	69.4199
704.155	44.5742
707.619	62.4707
711.083	85.1562
714.545	241.028
718.005	249.545
721.464	272.103
724.922	224.043
728.378	404.335
731.833	681.093
735.286	926.161
738.738	1525.99
742.189	2172.69
745.638	3238.32
749.085	3778.99
752.531	2905.9
755.976	2046.24
759.419	1250.62
762.861	634.582
766.302	773
769.741	429.41
773.178	584.016
776.614	331.178
780.049	257.539
783.482	480.721
786.914	256.81
790.345	168.961
793.773	294.432
797.201	313.293
800.627	397.484
804.052	309.203
807.475	261.447
810.897	179.738
814.317	442.008
817.736	370.543
821.153	280.404
824.569	370.182
827.984	368.244
831.397	140.99
834.808	296.299
838.219	127.147
841.627	320.955
845.035	232.541
848.441	230.211
851.845	212.078
855.248	424.414
858.65	300.934
862.05	321.365
865.448	19.5352
868.846	202.488
872.241	179.428
875.636	213.633
879.029	176.822
882.42	209.609
885.81	47.5312
889.199	188.248
892.586	179.236
895.971	9.09375
899.356	166.938
902.738	36.9668
906.12	178.508
909.5	0.371094
912.878	68.6523
916.255	50.5293
919.63	80.5254
923.004	52.3262
926.377	1.73242
929.748	119.467
933.118	20.2871
936.486	164.219
939.853	79.6113
943.218	160.693
946.582	31.7031
949.945	103.603
953.306	55.2012
956.665	124.223
960.023	19.166
963.38	101.225
966.735	173.268
970.089	26.6113
973.441	251.41
976.792	75.3887
980.141	184.334
983.489	334.772
986.836	313.445
990.181	114.475
993.524	51.709
996.866	218.977
1000.21	359.652
1003.55	313.883
1006.88	420.228
1010.22	374.779
1013.55	202.82
1016.89	99.7148
1020.22	403.775
1023.55	63.2422
1026.88	226.529
1030.21	166.154
1033.53	261.156
1036.86	95.8184
1040.18	193.506
1043.5	200.512
1046.82	256.783
1050.14	204.227
1053.46	178.133
1056.78	304.57
1060.09	442.656
1063.4	343.201
1066.71	20.9414
1070.02	357.312
1073.33	4.13477
1076.64	335.791
1079.94	246.359
1083.25	276.443
1086.55	342.533
1089.85	150.879
1093.15	214.59
1096.45	276.65
1099.75	218.471
1103.04	245.055
1106.34	138.435
1109.63	66.3633
1112.92	97.8691
1116.21	215.307
1119.5	232.381
1122.78	50.5312
1126.07	226.527
1129.35	176.99
1132.63	337.555
1135.92	73.084
1139.19	37.5742
1142.47	272.275
1145.75	32.3555
1149.02	20.4531
1152.3	411.256
1155.57	279.363
1158.84	48.0332
1162.11	154.367
1165.38	111.473
1168.64	111.215
1171.91	261.195
1175.17	120.516
1178.43	65.8477
1181.69	383.637
1184.95	82.4883
1188.21	240.496
1191.46	99.2031
1194.72	15.4688
1197.97	102.148
1201.22	15.8828
1204.47	126.062
1207.72	184.848
1210.97	157.066
1214.21	148.254
1217.46	196.703
1220.7	52.25
1223.94	162.684
1227.18	246.336
1230.42	244.238
1233.65	378.535
1236.89	78.1641
1240.12	356.301
1243.35	457.606
1246.59	113.207
1249.81	39.6836
1253.04	112.891
1256.27	245.719
1259.49	386.207
1262.72	352.012
1265.94	464.816
1269.16	211.242
1272.38	185.035
1275.59	344.074
1278.81	333.273
1282.03	76.3828
1285.24	289.703
1288.45	185.578
1291.66	33.2969
1294.87	88.6094
1298.08	41.5
