Measurement: Raman, 514 nm, ccw, Raman Data Processed
Mineral: Corundum
Rruff sample: R060020
Ideal chemistry: Al_2_O_3_
Locality: Yogo Gulch, Montana, USA
Source: American Museum of Natural History
Description: Water rounded light blue fragment
Measured chemistry: (Al_1.99_Fe^3+^_0.01_)_Î£=2_O_3_ ; Fe^3+^ by charge balance
Pin_id: L01262
Orientation: Laser parallel to -a* (-1 0 0). Fiducial mark perpendicular to laser is parallel to c [0 0 1]
Raman shift (cm-1)	intensity
114.44	0
119.365	113.906
124.288	5.04004
129.209	114.937
134.127	37.0757
139.043	71.7959
143.956	138.488
148.867	67.6768
153.775	161.39
158.681	54.9731
163.585	129.015
168.486	118.262
173.385	46.523
178.282	129.744
183.176	27.998
188.067	60.5898
192.956	249.662
197.843	200.865
202.727	210.802
207.609	192.153
212.489	191.344
217.366	136.867
222.24	219.767
227.112	112.016
231.982	208.38
236.849	198.748
241.714	104.601
246.577	91.9477
251.437	260.83
256.294	207.577
261.149	181.658
266.002	223.236
270.852	112.316
275.7	168.738
280.545	12.9932
285.388	77.9609
290.229	68.6514
295.067	10.7764
299.902	23.793
304.735	1.39453
309.566	3.62988
314.394	62.7246
319.22	10.6445
324.043	45.0918
328.864	31.9941
333.682	35.7441
338.498	55.7148
343.311	49.499
348.122	94.6572
352.931	12.0215
357.737	79.1709
362.54	67.2471
367.341	269.253
372.14	926.459
376.936	3036.73
381.73	1578.2
386.521	501.224
391.31	347.521
396.096	206.713
400.88	394.831
405.661	492.16
410.44	2217.15
415.216	5573.44
419.99	3553.46
424.761	1079
429.53	967.292
434.297	509.485
439.061	268.951
443.822	87.9746
448.581	259.737
453.337	47.665
458.091	119.739
462.843	56.5576
467.592	10.5098
472.338	40.1348
477.082	207.663
481.824	202.113
486.563	302.737
491.3	185.679
496.034	44.2197
500.765	30.2451
505.494	55.9932
510.221	75.2402
514.945	40.8076
519.666	147.38
524.385	122.733
529.102	315.937
533.816	158.941
538.527	94.4678
543.236	175.873
547.943	213.642
552.647	189.549
557.348	98.0391
562.047	138.866
566.744	224.374
571.438	260.389
576.129	485.405
580.818	401.376
585.504	260.571
590.188	338.143
594.87	350.019
599.549	226.372
604.225	176.736
608.899	384.394
613.57	272.44
618.239	296.969
622.905	401.943
627.569	664.968
632.23	727.712
636.889	1073.8
641.545	2168.43
646.198	1827.91
650.849	1146.98
655.498	638.082
660.144	383.978
664.787	309.62
669.428	179.715
674.067	243.33
678.703	201.677
683.336	69.0391
687.967	66.5684
692.595	10.9922
697.221	133.723
701.844	64.8897
706.465	18.3262
711.083	34.7598
715.698	151.045
720.311	30.5654
724.922	6.31152
729.53	186.668
734.135	289.18
738.738	496.551
743.338	691.264
747.936	1088.94
752.531	1153.39
757.124	808.111
761.714	597.209
766.302	471.715
770.887	525.078
775.469	309.199
780.049	510.6
784.626	464.33
789.201	633.783
793.773	456.644
798.343	504.746
802.91	646.654
807.475	809.971
812.037	567.131
816.596	751.57
821.153	476.225
825.707	509.934
830.259	642.189
834.808	383.225
839.355	306.289
843.899	272.42
848.441	256.553
852.98	240.324
857.516	102.117
862.05	257.406
866.581	345.619
871.11	310.529
875.636	259.195
880.159	236.217
884.68	203.297
889.199	188.99
893.714	58.6348
898.228	257.43
902.738	20.3828
907.246	175.371
911.752	10.2617
916.255	246.522
920.755	15.0957
925.253	167.955
929.748	136.893
934.241	227.232
938.731	199.438
943.218	12.1562
947.703	156.228
952.186	435.322
956.665	265.438
961.142	233.717
965.617	13.1094
970.089	103.553
974.558	190.148
979.025	353.131
983.489	75.2598
987.951	33.207
992.41	392.914
996.866	69.2656
1001.32	232.775
1005.77	43.3672
1010.22	253.264
1014.67	39.0352
1019.11	133.703
1023.55	372.576
1027.99	326.637
1032.42	89.1504
1036.86	178.035
1041.29	120.76
1045.72	36.9238
1050.14	16.8711
1054.56	213.268
1058.98	279.084
1063.4	137.772
1067.82	409.07
1072.23	249.748
1076.64	190.588
1081.05	285.652
1085.45	171.199
1089.85	306.191
1094.25	183.305
1098.65	69.5215
1103.04	307.275
1107.43	83.0762
1111.82	145.67
1116.21	292.316
1120.59	369.156
1124.97	565.156
1129.35	246.496
1133.73	301.277
1138.1	359.703
1142.47	29.4531
1146.84	261.836
1151.21	195.453
1155.57	62.1719
1159.93	174.231
1164.29	175.938
1168.64	237.406
1172.99	339.594
1177.34	259.973
1181.69	97.3203
1186.04	195.449
1190.38	246.258
1194.72	80.1055
1199.05	212.391
1203.39	244.32
1207.72	396.391
1212.05	311.734
1216.37	341.102
1220.7	230.992
1225.02	278.609
1229.34	110.887
1233.65	148.91
1237.97	243.391
1242.28	58.7305
1246.59	349.773
1250.89	333.816
1255.19	281.793
1259.49	103.519
1263.79	388.144
1268.09	310.84
1272.38	357.566
1276.67	45.3086
1280.95	372.398
1285.24	198.086
1289.52	118.887
1293.8	262.68
1298.08	28.7188
1302.35	173.914
1306.62	316.496
1310.89	315.422
1315.15	388.898
1319.42	118.949
1323.68	114.352
1327.94	445.301
1332.19	267.996
1336.44	615.836
1340.69	359.602
1344.94	265.242
1349.19	362.469
1353.43	426.656
1357.67	238.512
1361.9	240.269
1366.14	121.348
1370.37	228.156
1374.6	78.5312
1378.83	408.215
1383.05	40.8906
1387.27	195.367
1391.49	314.023
1395.7	402.5
1399.92	141.363
1404.13	192.188
1408.34	214.887
1412.54	106.207
1416.74	59.2656
1420.94	48.6016
1425.14	33.3242
1429.34	107.606
1433.53	5.52734
1437.72	321.309
1441.9	375.727
1446.09	372.352
1450.27	469
1454.45	109.984
1458.63	697.269
1462.8	375.695
1466.97	364.969
1471.14	162.559
1475.31	289.055
1479.47	621.598
1483.63	335.848
1487.79	589.598
1491.94	276.305
1496.09	138.727
1500.24	158.844
1504.39	368.039
1508.54	398.606
1512.68	174.965
1516.82	324.902
1520.95	376.574
1525.09	95.2148
1529.22	274.762
1533.35	354.82
1537.47	267.266
1541.6	162.188
1545.72	277.805
1549.83	340.223
1553.95	316.152
1558.06	38.1445
1562.17	190.219
1566.28	306.527
1570.38	83.0586
