Measurement: Raman, 514 nm, ccw, Raman Data Processed
Mineral: Corundum
Rruff sample: R060020
Ideal chemistry: Al_2_O_3_
Locality: Yogo Gulch, Montana, USA
Source: American Museum of Natural History
Description: Water rounded light blue fragment
Measured chemistry: (Al_1.99_Fe^3+^_0.01_)_Î£=2_O_3_ ; Fe^3+^ by charge balance
Pin_id: L01262
Orientation: Laser parallel to -a* (-1 0 0). Fiducial mark perpendicular to laser is parallel to c [0 0 1]
Raman shift (cm-1)	intensity
114.44	0
119.365	164.552
124.288	49.3164
129.209	15.3394
134.127	53.9409
139.043	16.9741
143.956	116.981
148.867	72.4473
153.775	162.035
158.681	13.0361
163.585	4.64404
168.486	78.9238
173.385	212.976
178.282	204.674
183.176	242.986
188.067	408.119
192.956	357.453
197.843	549.267
202.727	645.702
207.609	362.996
212.489	366.833
217.366	470.022
222.24	358.187
227.112	429.576
231.982	373.673
236.849	288.669
241.714	425.424
246.577	454.848
251.437	354.008
256.294	392.915
261.149	393.957
266.002	285.64
270.852	316.795
275.7	258.544
280.545	294.365
285.388	244.183
290.229	87.8994
295.067	186.819
299.902	69.5205
304.735	58.9004
309.566	101.079
314.394	70.9688
319.22	46.7002
324.043	49.6562
328.864	57.6758
333.682	96.5283
338.498	2.54981
343.311	15.3965
348.122	54.0303
352.931	200.591
357.737	171.512
362.54	254.609
367.341	401.772
372.14	616.017
376.936	763.499
381.73	585.071
386.521	645.612
391.31	441.039
396.096	436.351
400.88	716.889
405.661	869.278
410.44	3000.86
415.216	8448.49
419.99	5674.9
424.761	1431.19
429.53	729.01
434.297	465.449
439.061	183.627
443.822	425.765
448.581	620.13
453.337	236.099
458.091	314.43
462.843	213.092
467.592	92.0234
472.338	121.574
477.082	189.492
481.824	54.0117
486.563	220.249
491.3	198.357
496.034	162.982
500.765	51.8721
505.494	19.8574
510.221	109.523
514.945	113.82
519.666	223.661
524.385	101.665
529.102	181.434
533.816	130.751
538.527	153.556
543.236	57.8691
547.943	120.594
552.647	250.476
557.348	370.987
562.047	253.706
566.744	343.024
571.438	606.98
576.129	1113.6
580.818	761.361
585.504	532.174
590.188	371.089
594.87	253.487
599.549	274.434
604.225	473.567
608.899	448.664
613.57	372.003
618.239	512.926
622.905	546.443
627.569	978.71
632.23	747.381
636.889	584.035
641.545	671.185
646.198	572.102
650.849	646.374
655.498	738.229
660.144	504.112
664.787	325.531
669.428	264.393
674.067	339.815
678.703	316.836
683.336	388.548
687.967	29.874
692.595	72.6894
697.221	16.2393
701.844	46.5742
706.465	34.4199
711.083	114.565
715.698	108.403
720.311	147.003
724.922	302.652
729.53	587.438
734.135	686.856
738.738	1282.79
743.338	1911.47
747.936	3161.46
752.531	2935.66
757.124	2221.7
761.714	1370.76
766.302	1096.26
770.887	1275.47
775.469	1053.61
780.049	1018.17
784.626	1161.81
789.201	1045.96
793.773	1062.82
798.343	1085.19
802.91	1327.91
807.475	1210.97
812.037	1151.95
816.596	1392.48
821.153	1111.61
825.707	933.867
830.259	1079.57
834.808	734.396
839.355	986.408
843.899	689.867
848.441	666.553
852.98	709.859
857.516	703.182
862.05	801.609
866.581	710.879
871.11	653.379
875.636	466.65
880.159	358.15
884.68	370.56
889.199	242.684
893.714	369.102
898.228	319.891
902.738	119.342
907.246	83.4219
911.752	85.5234
916.255	99.2344
920.755	65.5332
925.253	178.647
929.748	168.272
934.241	45.5977
938.731	48.8301
943.218	251.397
947.703	156.375
952.186	6.20703
956.665	82.8711
961.142	164.143
965.617	41.6543
970.089	38.0039
974.558	1.04492
979.025	142.443
983.489	214.418
987.951	260.154
992.41	277.631
996.866	151.422
1001.32	495.869
1005.77	406.348
1010.22	296.012
1014.67	285.357
1019.11	207.1
1023.55	221.375
1027.99	116.641
1032.42	293.816
1036.86	178.861
1041.29	331.565
1045.72	81.5957
1050.14	783.137
1054.56	440.594
1058.98	328.342
1063.4	358.342
1067.82	374.131
1072.23	235.623
1076.64	258.746
1081.05	441.381
1085.45	360.065
1089.85	271.33
1094.25	306.102
1098.65	97.6641
1103.04	60.459
1107.43	129.924
1111.82	486.731
1116.21	228.315
1120.59	179.566
1124.97	331.482
1129.35	274.344
1133.73	120.973
1138.1	94.3223
1142.47	190.965
1146.84	36.3105
1151.21	255.455
1155.57	110.141
1159.93	40.1914
1164.29	223.916
1168.64	208.707
1172.99	277.574
1177.34	148.434
1181.69	48.1953
1186.04	6.59961
1190.38	137.582
1194.72	263.893
1199.05	8.5
1203.39	109.379
1207.72	263.062
1212.05	27.0625
1216.37	189.789
1220.7	5.41406
1225.02	352.621
1229.34	96.9648
1233.65	182.672
1237.97	374.965
1242.28	515.965
1246.59	335.141
1250.89	524.086
1255.19	482.648
1259.49	273.012
1263.79	193.863
1268.09	179.199
1272.38	475.125
1276.67	300.348
1280.95	662.027
1285.24	547.691
1289.52	459.894
1293.8	410.066
1298.08	173.25
1302.35	43.2852
1306.62	85.3164
1310.89	384.223
1315.15	654.008
1319.42	736.375
1323.68	601.445
1327.94	640.453
1332.19	642.285
1336.44	551.352
1340.69	565.727
1344.94	566.82
1349.19	236.519
1353.43	522.238
1357.67	387.621
1361.9	353.473
1366.14	227.809
1370.37	638.644
1374.6	226.859
1378.83	186.031
1383.05	233.402
1387.27	354.231
1391.49	7.30859
1395.7	197.227
1399.92	30.6953
1404.13	63.4844
1408.34	93.207
1412.54	159.152
1416.74	67.1523
1420.94	90.6953
1425.14	52.5312
1429.34	12.8398
1433.53	103.387
1437.72	302.438
1441.9	337.41
1446.09	442.754
1450.27	251.348
1454.45	752.184
1458.63	798.379
1462.8	325.207
1466.97	396.117
1471.14	603.066
1475.31	425.492
1479.47	724.633
1483.63	277.019
1487.79	561.234
1491.94	802.566
1496.09	488.445
1500.24	506.992
1504.39	402.809
1508.54	255.848
1512.68	588.988
1516.82	433.184
1520.95	553.969
1525.09	543.238
1529.22	407.961
1533.35	521.699
1537.47	59.4492
1541.6	60.8438
1545.72	353.43
1549.83	237.527
1553.95	475.934
1558.06	335.598
1562.17	458.777
1566.28	156.824
1570.38	147.41
