Measurement: Raman, 514 nm, ccw, Raman Data Processed
Mineral: Corundum
Rruff sample: R060020
Ideal chemistry: Al_2_O_3_
Locality: Yogo Gulch, Montana, USA
Source: American Museum of Natural History
Description: Water rounded light blue fragment
Measured chemistry: (Al_1.99_Fe^3+^_0.01_)_Î£=2_O_3_ ; Fe^3+^ by charge balance
Pin_id: L01955
Orientation: Laser parallel to c* (0 0 1). Fiducial mark perpendicular to laser is parallel to b [0 1 0]
Raman shift (cm-1)	intensity
179.505	136.861
184.399	45.4062
189.29	150.5
194.178	828.371
199.064	446.193
203.948	439.413
208.829	125.358
213.708	33.7754
218.585	38.915
223.459	33.0684
228.33	127.773
233.199	9.68262
238.066	3.19531
242.93	83.5635
247.792	32.3828
252.651	66.9434
257.508	226.679
262.363	191.767
267.215	70.8818
272.064	243.148
276.912	260.065
281.756	530.347
286.598	210.734
291.438	183.009
296.276	161.077
301.111	30.2129
305.943	40.9805
310.773	52.5889
315.601	49.4248
320.426	73.6728
325.248	134.603
330.068	138.29
334.886	86.1084
339.701	94.7842
344.514	25.8975
349.324	31.8721
354.132	173.398
358.938	263.273
363.741	364.879
368.541	378.231
373.339	568.812
378.135	999.551
382.928	1108.21
387.718	1248.52
392.506	1608.09
397.292	1749.73
402.075	1395.09
406.856	1277.09
411.634	2110.77
416.41	3961.41
421.183	1812.3
425.954	767.43
430.722	609.646
435.488	324.017
440.251	224.889
445.012	339.768
449.77	231.793
454.526	134.709
459.28	206.115
464.03	104.608
468.779	107.541
473.525	50.3975
478.268	132.025
483.009	227.401
487.747	200.366
492.483	181.815
497.217	152.539
501.948	186.287
506.676	665.019
511.402	1231.41
516.125	1356.46
520.846	1137.61
525.565	717.626
530.281	546.844
534.994	447.614
539.705	225.054
544.413	311.2
549.119	112.686
553.822	163.355
558.523	50.9414
563.222	207.527
567.917	166.559
572.611	505.619
577.302	442.316
581.99	253.176
586.676	195.754
591.359	57.7207
596.04	95.4941
600.718	131.769
605.394	131.088
610.067	269.684
614.737	317.193
619.406	777.963
624.071	923.519
628.734	1709.13
633.395	2485.62
638.053	2932.42
642.708	2432.2
647.361	1840.84
652.012	1250.65
656.66	666.189
661.305	475.486
665.948	332.455
670.588	319.986
675.226	401.449
679.861	346.223
684.494	238.568
689.124	26.2188
693.752	77.3144
698.377	77.4082
702.999	39.1992
707.619	155.975
712.237	237.389
716.852	277.934
721.464	153.059
726.074	0.064453
730.681	315.574
735.286	431.635
739.888	742.359
744.488	1402.97
749.085	1875.28
753.68	1462.86
758.272	886.689
762.861	441.58
767.448	418.299
772.033	237.85
776.614	574.209
781.194	247.975
785.77	432.342
790.345	501.1
794.916	495.869
799.485	622.143
804.052	614.438
808.616	586.227
813.177	586.391
817.736	596.658
822.292	428.231
826.846	336.803
831.397	260.397
835.945	322.068
840.491	350.432
845.035	284.756
849.576	118.537
854.114	349.912
858.65	335.592
863.183	432.342
867.713	264.144
872.241	140.566
876.767	123.516
881.29	62.0508
885.81	290.102
890.328	23.4453
894.843	4.04492
899.356	47.0547
903.866	86.5644
908.373	27.6738
912.878	135.4
917.38	133.746
921.88	107.764
926.377	8.29492
930.872	159.35
935.364	142.787
939.853	42.252
944.34	45.8613
948.824	46.0137
953.306	389.512
957.785	201.279
962.261	70.2812
966.735	11.3457
971.207	262.787
975.675	324.627
980.141	109.031
984.605	226.147
989.066	285.816
993.524	266.826
997.98	174.701
1002.43	530.439
1006.88	35.1504
1011.33	163.912
1015.78	132.598
1020.22	242.002
1024.66	294.758
1029.1	82.2832
1033.53	180.584
1037.97	257.986
1042.4	153.688
1046.82	115.398
1051.25	230.856
1055.67	314.82
1060.09	121.344
1064.51	203.34
1068.92	236.639
1073.33	168.717
1077.74	324.832
1082.15	113.777
1086.55	159.031
1090.95	119.922
1095.35	275.586
1099.75	105.5
1104.14	63.6387
1108.53	155.523
1112.92	190.783
1117.31	344.744
1121.69	233
1126.07	223.633
1130.45	377.383
1134.82	185.391
1139.19	88.7578
1143.57	380.098
1147.93	44.0898
1152.3	174.258
1156.66	155.941
1161.02	154.969
1165.38	299.394
1169.73	237.574
1174.08	107.945
1178.43	227.59
1182.78	198.644
1187.12	392.117
1191.46	282.394
1195.8	183.981
1200.14	2.34766
1204.47	65.6562
1208.8	241.188
1213.13	190.894
1217.46	294.445
1221.78	426.676
1226.1	336.422
1230.42	180.617
1234.73	330.941
1239.04	420.168
1243.35	308.93
1247.66	345.203
1251.97	348.59
1256.27	90.5547
1260.57	165.965
1264.86	216.152
1269.16	368.363
1273.45	11.8008
1277.74	296.426
1282.03	10.4648
1286.31	19.2852
1290.59	329.914
1294.87	304.891
1299.14	876.207
1303.42	539.238
1307.69	497.953
1311.95	449.371
1316.22	266.863
1320.48	398.188
1324.74	239.551
1329	318.832
1333.26	285.269
1337.51	332.891
1341.76	468.992
1346	443.609
1350.25	413.703
1354.49	339.496
1358.73	436.762
1362.96	449.43
1367.2	196.129
1371.43	554.644
1375.66	350.547
1379.88	177.871
1384.11	263.289
1388.33	119.793
1392.54	120.406
1396.76	215.758
1400.97	204.309
1405.18	34.3242
1409.39	205.449
1413.59	196.824
1417.8	314.238
1421.99	146.394
1426.19	199.066
1430.38	182.844
1434.58	470.102
1438.77	721.68
1442.95	836.453
1447.13	621.438
1451.32	381.562
1455.49	639.984
1459.67	567.812
1463.84	547.809
1468.01	90.6719
1472.18	252.523
1476.35	357.176
1480.51	277.188
1484.67	573.691
1488.83	17.5625
1492.98	289.586
1497.13	61.168
1501.28	233.328
1505.43	52.9336
1509.57	272.422
1513.71	503.109
1517.85	235.133
1521.99	278.262
1526.12	334.547
1530.25	406.953
1534.38	388.391
1538.5	229.703
1542.62	189.785
1546.74	296.793
1550.86	158.598
1554.98	106.785
1559.09	353.832
1563.2	261.391
1567.31	0.511719
1571.41	0.429688
