Measurement: Raman, 514 nm, ccw, Raman Data Processed
Mineral: Corundum
Rruff sample: R040096
Ideal chemistry: Al_2_O_3_
Locality: Sri Lanka
Source: University of Arizona Mineral Museum
Description: Pale purple hexagonal prism
Measured chemistry: Al_2.00_O_3_
Pin_id: L01198
Orientation: Laser parallel to a* (1 0 0). Fiducial mark perpendicular to laser is parallel to c [0 0 1]
Raman shift (cm-1)	intensity
113.208	0
116.903	22.8389
120.596	76.791
124.288	113.265
127.979	73.0122
131.668	62.2588
135.356	63.4741
139.043	77.0527
142.728	110.759
146.412	96.8892
150.094	148.457
153.775	92.9365
157.455	63.0005
161.134	124.96
164.811	164.47
168.486	172.837
172.161	139.151
175.834	76.5776
179.505	132.637
183.176	67.1221
186.845	106.486
190.512	156.046
194.178	183.207
197.843	179.443
201.507	291.341
205.169	98.8413
208.829	45.977
212.489	154.195
216.147	15.6182
219.803	170.072
223.459	232.415
227.112	47.208
230.765	160.1
234.416	81.5894
238.066	99.9722
241.714	135.065
245.361	102.046
249.007	127.914
252.651	14.7983
256.294	98.5991
259.936	221.219
263.576	88.0029
267.215	71.0571
270.852	0.082031
274.488	161.02
278.123	42.854
281.756	18.5586
285.388	56.9492
289.019	59.1958
292.648	4.28076
296.276	28.1899
299.902	75.9414
303.527	67.5523
307.151	54.7651
310.773	138.654
314.394	40.9751
318.013	86.6968
321.631	49.6763
325.248	35.3618
328.864	123.718
332.478	169.574
336.09	30.9844
339.701	83.0503
343.311	112.707
346.92	52.5991
350.527	83.7954
354.132	217.041
357.737	11.8271
361.34	134.386
364.941	268.739
368.541	487.858
372.14	1174.56
375.737	3615.14
379.333	2992.77
382.928	921.162
386.521	304.318
390.113	338.461
393.703	302.642
397.292	316.466
400.88	535.401
404.466	1128.67
408.051	3828.53
411.634	7323.16
415.216	17539.3
418.797	9517.73
422.376	2382.23
425.954	1369.79
429.53	1557.63
433.105	795.122
436.679	436.29
440.251	284.886
443.822	281.816
447.391	285.625
450.96	235.191
454.526	155.724
458.091	162.918
461.655	188.379
465.218	106.211
468.779	134.178
472.338	84.8232
475.897	131.897
479.454	162.747
483.009	37.7744
486.563	56.6152
490.116	153.082
493.667	64.2959
497.217	146.045
500.765	5.77246
504.312	60.4717
507.858	64.1025
511.402	168.325
514.945	94.1631
518.486	20.6221
522.026	52.6836
525.565	48.4853
529.102	76.7949
532.638	117.488
536.172	117.211
539.705	36.1787
543.236	15.0977
546.766	100.164
550.295	77.2754
553.822	137.695
557.348	144.876
560.873	167.709
564.396	90.4346
567.917	197.824
571.438	284.666
574.957	499.771
578.474	266.257
581.99	220.471
585.504	109.566
589.018	100.578
592.529	127.939
596.04	145.41
599.549	69.1934
603.056	273.368
606.562	265.108
610.067	132.922
613.57	255.023
617.072	196.381
620.572	354.478
624.071	452.457
627.569	473.706
631.065	693.723
634.56	1692.47
638.053	3268.53
641.545	5686.29
645.035	5395.4
648.524	2814.02
652.012	1487.91
655.498	798.916
658.983	567.489
662.466	348.777
665.948	384.726
669.428	106.914
672.907	210.846
676.385	228.059
679.861	169.91
683.336	161.429
686.809	116.212
690.281	100.756
693.752	95.0977
697.221	12.1514
700.688	24.9385
704.155	22.4727
707.619	98.5215
711.083	17.4893
714.545	96.8691
718.005	27.6328
721.464	211.67
724.922	103.702
728.378	68.5898
731.833	40.0869
735.286	157.541
738.738	334.17
742.189	379.775
745.638	736.145
749.085	762.037
752.531	541.195
755.976	487.923
759.419	311.193
762.861	283.369
766.302	54.6387
769.741	149.72
773.178	225.173
776.614	49.1963
780.049	180.397
783.482	162.417
786.914	197.571
790.345	380.95
793.773	264.899
797.201	22.2041
800.627	51.1397
804.052	169.227
807.475	173.789
810.897	148.812
814.317	389.49
817.736	237.723
821.153	158.066
824.569	294.576
827.984	265.268
831.397	241.273
834.808	230.19
838.219	113.031
841.627	89.5938
845.035	179.824
848.441	144.295
851.845	220.008
855.248	141.547
858.65	9.44727
862.05	105.553
865.448	126.938
868.846	60.0879
872.241	147.744
875.636	243.258
879.029	93.418
882.42	98.2773
885.81	115.939
889.199	87.0078
892.586	47.8789
895.971	51.373
899.356	37.9219
902.738	22.4961
906.12	49.3887
909.5	24.9668
912.878	22.0547
916.255	294.738
919.63	72.1621
923.004	182.988
926.377	190.301
929.748	147.121
933.118	33.8477
936.486	47.707
939.853	107.512
943.218	99.7852
946.582	186.426
949.945	28.6016
953.306	117.404
956.665	146.715
960.023	131.096
963.38	17.9434
966.735	168.176
970.089	35.9688
973.441	224.092
976.792	216.715
980.141	278.531
983.489	274.82
986.836	182.486
990.181	271.647
993.524	180.152
996.866	246.672
1000.21	116.564
1003.55	296.43
1006.88	230.723
1010.22	326.791
1013.55	245.352
1016.89	249.951
1020.22	327.205
1023.55	222.705
1026.88	65.0918
1030.21	165.369
1033.53	356.6
1036.86	193.49
1040.18	184.738
1043.5	270.305
1046.82	57.627
1050.14	63.1543
1053.46	31.4844
1056.78	207.775
1060.09	125.084
1063.4	413.018
1066.71	268.652
1070.02	314.363
1073.33	218.326
1076.64	368.342
1079.94	120.445
1083.25	160.914
1086.55	202.734
1089.85	10.5098
1093.15	324.525
1096.45	119.908
1099.75	370.893
1103.04	226.986
1106.34	170.932
1109.63	206.475
1112.92	123.496
1116.21	204.898
1119.5	165.455
1122.78	111.131
1126.07	319.211
1129.35	148.986
1132.63	156.223
1135.92	158.484
1139.19	205.15
1142.47	92.1328
1145.75	105.561
1149.02	128.719
1152.3	326.721
1155.57	148.766
1158.84	204.121
1162.11	90.9414
1165.38	108.186
1168.64	175.816
1171.91	129.203
1175.17	254.365
1178.43	306.908
1181.69	180.926
1184.95	495.555
1188.21	228.934
1191.46	325.389
1194.72	246.031
1197.97	168.207
1201.22	106.156
1204.47	187.996
1207.72	118.707
1210.97	257.828
1214.21	312.07
1217.46	233.91
1220.7	310.836
1223.94	300.144
1227.18	61.6172
1230.42	239.008
1233.65	347.047
1236.89	289.285
1240.12	393.332
1243.35	333.617
1246.59	322.957
1249.81	138.371
1253.04	321.906
1256.27	189.012
1259.49	221.188
1262.72	251.883
1265.94	191.113
1269.16	311.461
1272.38	241.898
1275.59	80.5195
1278.81	274.508
1282.03	137.492
1285.24	101.473
1288.45	336.492
1291.66	305.191
1294.87	17.2773
1298.08	55.375
