Measurement: Raman, 514 nm, ccw, Raman Data Processed
Mineral: Covellite
Rruff sample: R060129
Ideal chemistry: CuS
Locality: Butte, Montana, USA
Source: University of Arizona Mineral Museum
Description: Iridescent blue metallic hexagonal plates
Measured chemistry: Cu_1.00_S_1.00_
Pin_id: L00818
Orientation: Laser parallel to c* (0 0 1). Fiducial mark perpendicular to laser is parallel to a [1 0 0]
Raman shift (cm-1)	intensity
172.161	0
175.834	77.4629
179.505	93.3027
183.176	159.92
186.845	851.316
190.512	865.439
194.178	985.736
197.843	1229.99
201.507	1559.34
205.169	561.611
208.829	157.394
212.489	428.266
216.147	307.359
219.803	50.4883
223.459	60.377
227.112	135.734
230.765	124.477
234.416	18.0137
238.066	171.043
241.714	125.363
245.361	278.967
249.007	598.578
252.651	1113.13
256.294	2068.3
259.936	2968.93
263.576	2499.26
267.215	2245.63
270.852	1905.47
274.488	1527.67
278.123	1394.27
281.756	968.047
285.388	579.125
289.019	504.965
292.648	316.885
296.276	365.574
299.902	53.207
303.527	354.158
307.151	343.488
310.773	553.168
314.394	635.211
318.013	1118.62
321.631	1772.69
325.248	3123.55
328.864	4974.51
332.478	5792.36
336.09	4439.72
339.701	2550.9
343.311	1476.24
346.92	791.019
350.527	340.644
354.132	276.586
357.737	684.768
361.34	893.135
364.941	1155.48
368.541	1409.62
372.14	1598.26
375.737	1462.39
379.333	1524.52
382.928	1445.88
386.521	1027.02
390.113	668.928
393.703	160.252
397.292	438.772
400.88	224.484
404.466	54.584
408.051	60.6758
411.634	100.311
415.216	53.834
418.797	142.693
422.376	147.176
425.954	50.5645
429.53	112.533
433.105	24.7617
436.679	388.164
440.251	920.717
443.822	1262.81
447.391	2206.53
450.96	3129.01
454.526	5246.15
458.091	7556.48
461.655	12830
465.218	25768.5
468.779	44504.1
472.338	40953.8
475.897	21820.6
479.454	10963.6
483.009	5944.63
486.563	3430.82
490.116	2315.19
493.667	1674.95
497.217	1237.7
500.765	1003.7
504.312	783.955
507.858	713.496
511.402	527.375
514.945	773.57
518.486	698.096
522.026	658.021
525.565	539.143
529.102	684.434
532.638	746.231
536.172	810.309
539.705	533.051
543.236	404.531
546.766	531.731
550.295	472.478
553.822	574.646
557.348	535.148
560.873	514.08
564.396	321.934
567.917	325.008
571.438	371.701
574.957	271.607
578.474	206.324
581.99	160.557
585.504	31.1543
589.018	151.033
592.529	161.25
596.04	318.307
599.549	492.379
603.056	280.162
606.562	110.369
610.067	389.547
613.57	251.912
617.072	170.135
620.572	192.334
624.071	125.498
627.569	101.856
631.065	118.811
634.56	211.914
638.053	374.029
641.545	267.475
645.035	291.023
648.524	237.9
652.012	302.254
655.498	345.273
658.983	189.262
662.466	235.662
665.948	358.191
669.428	195.717
672.907	17.3633
676.385	114.586
679.861	37.5449
683.336	61.0273
686.809	129.662
690.281	67.2227
693.752	187.533
697.221	8.73047
700.688	17.9961
704.155	228.072
707.619	188.461
711.083	166.609
714.545	247.106
718.005	129.705
721.464	167.228
724.922	30.1582
728.378	140.481
731.833	453.91
735.286	364.629
738.738	58.5234
742.189	198.359
745.638	455.775
749.085	284.307
752.531	280.031
755.976	470.336
759.419	504.088
762.861	344.31
766.302	170.647
769.741	263.25
773.178	411.166
776.614	260.982
780.049	111.41
783.482	262.443
786.914	250.42
790.345	107.598
793.773	151.664
797.201	257.305
800.627	218.611
804.052	84.6016
807.475	84.0234
810.897	202.756
814.317	247.742
817.736	14.3496
821.153	270.926
824.569	445.152
827.984	124.414
831.397	48.6895
834.808	94.8613
838.219	349.685
841.627	379.918
845.035	238.35
848.441	134.869
851.845	536.106
855.248	195.088
858.65	126.576
862.05	319.56
865.448	195.332
868.846	20.957
872.241	89.5957
875.636	112.082
879.029	220.654
882.42	59.0723
885.81	74.541
889.199	150.728
892.586	138.334
895.971	246.088
899.356	294.133
902.738	445.949
906.12	664.654
909.5	633.269
912.878	812.644
916.255	1093.32
919.63	1299.61
923.004	1326.08
926.377	1149.33
929.748	1087.74
933.118	994.453
936.486	693.049
939.853	450.871
943.218	515.496
946.582	574.094
949.945	232.34
953.306	111.191
956.665	237.824
960.023	124.469
963.38	93.1191
966.735	114.658
970.089	146.963
973.441	374.631
976.792	274.121
980.141	89.6582
983.489	240.709
986.836	324.682
990.181	145.062
993.524	228.201
996.866	568.832
1000.21	879.521
1003.55	690.514
1006.88	90.3106
1010.22	419.203
1013.55	362.723
1016.89	139.668
1020.22	105.857
1023.55	340.283
1026.88	543.973
1030.21	31.0762
1033.53	113.156
1036.86	179.203
1040.18	319.523
1043.5	543.305
1046.82	331.795
1050.14	416.91
1053.46	480.844
1056.78	209.986
1060.09	179.639
1063.4	524.049
1066.71	505.832
1070.02	531.09
1073.33	1297.38
1076.64	1286.09
1079.94	632.285
1083.25	385.266
1086.55	583.736
1089.85	261.496
1093.15	550.781
1096.45	326.869
1099.75	237.299
1103.04	441.209
1106.34	405.769
1109.63	371.408
1112.92	204.691
1116.21	438.674
1119.5	537.516
1122.78	234.059
1126.07	157.019
1129.35	492.959
1132.63	261.551
1135.92	143.033
1139.19	12.5371
1142.47	17.9668
1145.75	274.967
1149.02	270.746
1152.3	21.7227
1155.57	77.7617
1158.84	519.357
1162.11	213.644
1165.38	54.8809
1168.64	172.305
1171.91	226.697
1175.17	162.228
1178.43	24.1406
1181.69	51.0234
1184.95	173.65
1188.21	57.3047
1191.46	168.736
1194.72	160.492
1197.97	28.3262
1201.22	354.086
1204.47	18.3477
1207.72	451.699
1210.97	460.553
1214.21	639.43
1217.46	290.16
1220.7	259.885
1223.94	64.8223
1227.18	516.119
1230.42	342.934
1233.65	402.832
1236.89	269.01
1240.12	362.853
1243.35	573.709
1246.59	449.881
1249.81	744.387
1253.04	646.975
1256.27	715.611
1259.49	266.965
1262.72	491.994
1265.94	545.537
1269.16	374.947
1272.38	72.0684
1275.59	130.088
1278.81	301.272
1282.03	377.637
1285.24	345.502
1288.45	318.789
1291.66	518.125
1294.87	457.268
1298.08	398.916
1301.28	318.299
1304.48	353.824
1307.69	468.801
1310.89	359.217
1314.09	326.838
1317.29	115.117
1320.48	0.990234
