Measurement: Raman, 514 nm, ccw, Raman Data Processed
Mineral: Covellite
Rruff sample: R060143
Ideal chemistry: CuS
Locality: Butte, Montana, USA
Source: Marcus Origlieri
Description: Irridescent blue to purple hexagonal plates
Measured chemistry: Cu_1.00_S_1.00_
Pin_id: L00760
Orientation: Laser parallel to -a* (-1 0 0). Fiducial mark perpendicular to laser is parallel to -c [0 0 -1]
Raman shift (cm-1)	intensity
164.811	0
169.711	77.9156
174.61	1.70117
179.505	79.5685
184.399	221.536
189.29	209.932
194.178	462.133
199.064	522.82
203.948	469.428
208.829	82.7652
213.708	82.6378
218.585	39.1211
223.459	31.0549
228.33	12.8412
233.199	53.1587
238.066	162.211
242.93	267.578
247.792	431.32
252.651	873.065
257.508	1895.54
262.363	1980.21
267.215	1728.11
272.064	880.105
276.912	505.888
281.756	196.467
286.598	142.218
291.438	48.1613
296.276	17.5798
301.111	15.2064
305.943	30.9393
310.773	23.0067
315.601	9.00992
320.426	20.3662
325.248	55.6117
330.068	31.734
334.886	36.6144
339.701	31.7751
344.514	52.4884
349.324	85.2138
354.132	85.8993
358.938	63.9746
363.741	72.0568
368.541	99.7734
373.339	77.2245
378.135	110.947
382.928	145.457
387.718	69.7252
392.506	71.1775
397.292	84.9569
402.075	78.2833
406.856	92.1168
411.634	160.527
416.41	128.24
421.183	87.7131
425.954	105.369
430.722	208.205
435.488	276.744
440.251	517.465
445.012	1001.48
449.77	1871.17
454.526	3422.24
459.28	6281.95
464.03	11771.8
468.779	30868.4
473.525	53197.1
478.268	20053.6
483.009	7375.9
487.747	3601.84
492.483	2051.16
497.217	1307.04
501.948	884.771
506.676	697.192
511.402	532.168
516.125	487.487
520.846	451.31
525.565	366.031
530.281	392.375
534.994	344.837
539.705	410.551
544.413	315.405
549.119	301.384
553.822	341.22
558.523	221.55
563.222	264.659
567.917	223.512
572.611	182.697
577.302	115.91
581.99	231.02
586.676	203.701
591.359	286.535
596.04	396.541
600.718	359.658
605.394	242.857
610.067	200.08
614.737	112.296
619.406	123.463
624.071	74.5823
628.734	11.7699
633.395	30.7646
638.053	11.1168
642.708	24.8406
647.361	20.2739
652.012	27.0658
656.66	6.11004
661.305	11.5697
665.948	6.34044
670.588	1.59208
675.226	51.3075
679.861	10.7504
684.494	22.0866
689.124	3.02595
693.752	19.1074
698.377	10.4343
702.999	12.6325
707.619	0.466274
712.237	12.0776
716.852	7.07196
721.464	114.742
726.074	78.5125
730.681	164.488
735.286	162.718
739.888	176.781
744.488	193.763
749.085	151.152
753.68	146.735
758.272	200.968
762.861	79.0861
767.448	133.679
772.033	84.4692
776.614	72.3446
781.194	102.198
785.77	29.5946
790.345	4.50907
794.916	36.1254
799.485	92.0812
804.052	140.429
808.616	63.9693
813.177	135.524
817.736	18.2513
822.292	74.0031
826.846	50.9231
831.397	80.3439
835.945	99.4021
840.491	87.9566
845.035	39.8826
849.576	57.2022
854.114	4.67415
858.65	29.6997
863.183	36.6038
867.713	1.46196
872.241	10.6461
876.767	98.8183
881.29	50.3569
885.81	14.6506
890.328	12.2006
894.843	73.6075
899.356	154.771
903.866	226.055
908.373	357.073
912.878	435.627
917.38	654.026
921.88	856.264
926.377	1101.38
930.872	900.798
935.364	662.045
939.853	512.478
944.34	393.433
948.824	315.04
953.306	243.259
957.785	212.71
962.261	114.345
966.735	144.212
971.207	192.284
975.675	98.5894
980.141	108.076
984.605	105.782
989.066	125.947
993.524	220.868
997.98	208.922
1002.43	166.612
1006.88	92.375
1011.33	45.7934
1015.78	9.5863
1020.22	123.546
1024.66	114.731
1029.1	74.2642
1033.53	60.6844
1037.97	10.2827
1042.4	93.6117
1046.82	84.3741
1051.25	159.007
1055.67	201.878
1060.09	113.1
1064.51	125.463
1068.92	158.945
1073.33	107.54
1077.74	148.619
1082.15	74.3402
1086.55	152.299
1090.95	124.589
1095.35	97.3809
1099.75	121.707
1104.14	68.0324
1108.53	17.6811
1112.92	202.177
1117.31	210.733
1121.69	276.573
1126.07	173.299
1130.45	79.8099
1134.82	41.4577
1139.19	16.4848
1143.57	13.5027
1147.93	23.5899
1152.3	26.5011
1156.66	44.2386
1161.02	28.9407
1165.38	15.2439
1169.73	28.3724
1174.08	64.305
1178.43	3.16177
1182.78	4.65429
1187.12	39.6261
1191.46	34.9415
1195.8	52.8625
1200.14	6.46178
1204.47	40.0534
1208.8	40.5711
1213.13	40.8544
1217.46	9.60422
1221.78	15.6205
1226.1	74.8113
1230.42	60.9649
1234.73	4.12677
1239.04	7.73275
1243.35	69.7504
1247.66	0.724112
1251.97	31.646
1256.27	47.5196
1260.57	0.070677
1264.86	58.9353
1269.16	45.4262
1273.45	11.7778
1277.74	9.62224
1282.03	0.96051
1286.31	46.2791
1290.59	77.578
1294.87	57.5492
1299.14	29.9325
1303.42	92.7064
1307.69	96.6971
1311.95	47.8157
1316.22	62.9756
1320.48	31.7897
1324.74	13.5762
1329	89.3244
1333.26	101.002
1337.51	7.98096
1341.76	65.8232
1346	49.3806
1350.25	62.7156
1354.49	53.0217
1358.73	52.2159
1362.96	11.0441
1367.2	28.367
1371.43	67.4763
1375.66	55.7231
1379.88	42.7797
1384.11	46.866
1388.33	23.5226
1392.54	42.76
1396.76	11.2827
1400.97	95.7268
1405.18	59.7952
1409.39	29.5447
1413.59	15.0093
1417.8	16.4296
1421.99	133.345
1426.19	45.6393
1430.38	77.9355
1434.58	166.266
1438.77	231.502
1442.95	277.825
1447.13	315.533
1451.32	284.283
1455.49	254.859
1459.67	193.288
1463.84	135.635
1468.01	159.073
1472.18	146.851
1476.35	115.473
1480.51	104.15
1484.67	55.0318
1488.83	59.0995
1492.98	80.8899
1497.13	7.16148
1501.28	4.27501
1505.43	5.4669
1509.57	5.75127
1513.71	1.08095
1517.85	64.7213
1521.99	57.7964
1526.12	39.3174
1530.25	53.4332
1534.38	56.6508
1538.5	79.5411
1542.62	24.2331
1546.74	18.0756
1550.86	79.7451
1554.98	214.889
1559.09	21.5572
1563.2	114.173
1567.31	43.015
1571.41	0.343283
