Measurement: Raman, 514 nm, ccw, Raman Data Processed
Mineral: Covellite
Rruff sample: R060143
Ideal chemistry: CuS
Locality: Butte, Montana, USA
Source: Marcus Origlieri
Description: Irridescent blue to purple hexagonal plates
Measured chemistry: Cu_1.00_S_1.00_
Pin_id: L00879
Orientation: Laser parallel to c* (0 0 1). Fiducial mark perpendicular to laser is parallel to b [0 1 0]
Raman shift (cm-1)	intensity
164.811	0
169.711	191.408
174.61	123.944
179.505	237.81
184.399	487.178
189.29	774.902
194.178	1362.21
199.064	1350.8
203.948	1185.12
208.829	250.844
213.708	262.541
218.585	63.7275
223.459	56.1143
228.33	42.8809
233.199	2.01172
238.066	57.1182
242.93	232.899
247.792	432.931
252.651	931.303
257.508	2361.14
262.363	1943.99
267.215	1520.73
272.064	991.013
276.912	946.169
281.756	671.518
286.598	784.026
291.438	890.466
296.276	972.865
301.111	936.256
305.943	931.667
310.773	746.043
315.601	590.983
320.426	785.963
325.248	1255.63
330.068	1708.43
334.886	1946.1
339.701	2573.89
344.514	1899.37
349.324	1397.71
354.132	1069.91
358.938	591.226
363.741	548.314
368.541	403.348
373.339	188.659
378.135	214.935
382.928	81.54
387.718	36.4697
392.506	84.3418
397.292	280.457
402.075	714.864
406.856	2687.05
411.634	8625.04
416.41	1809.66
421.183	531.215
425.954	244.666
430.722	302.956
435.488	400.159
440.251	385.12
445.012	698.843
449.77	1701.09
454.526	3367.81
459.28	6035.73
464.03	11674.9
468.779	31192.3
473.525	42640
478.268	15934.1
483.009	8468.59
487.747	3037.53
492.483	1875.65
497.217	1191.63
501.948	837.281
506.676	628.526
511.402	466.684
516.125	529.677
520.846	519.304
525.565	459.707
530.281	806.088
534.994	338.445
539.705	475.985
544.413	349.313
549.119	408.278
553.822	384.168
558.523	367.125
563.222	365.905
567.917	336.321
572.611	288.754
577.302	231.904
581.99	289.86
586.676	187.397
591.359	371.841
596.04	369.501
600.718	384.054
605.394	422.235
610.067	207.713
614.737	111.28
619.406	112.626
624.071	20.8887
628.734	27.8594
633.395	49.2559
638.053	95.5908
642.708	107.048
647.361	133.994
652.012	153.092
656.66	145.625
661.305	144.154
665.948	152.743
670.588	63.042
675.226	40.0049
679.861	40.1797
684.494	2.08691
689.124	94.7207
693.752	40.8613
698.377	56.541
702.999	65.082
707.619	50.583
712.237	6.09668
716.852	23.4922
721.464	32.1211
726.074	176.17
730.681	98.3184
735.286	139.78
739.888	136.537
744.488	144.862
749.085	123.766
753.68	157.251
758.272	413.325
762.861	220.987
767.448	183.554
772.033	413.29
776.614	41.6084
781.194	393.377
785.77	259.831
790.345	319.894
794.916	2.43555
799.485	194.718
804.052	478.292
808.616	613.617
813.177	528.444
817.736	559.505
822.292	457.684
826.846	437.535
831.397	361.565
835.945	385.286
840.491	303.893
845.035	484.291
849.576	264.533
854.114	239.143
858.65	47.1133
863.183	16.5293
867.713	8.4502
872.241	9.43359
876.767	74.1377
881.29	72.1504
885.81	150.745
890.328	6.29492
894.843	89.9375
899.356	185.596
903.866	488.192
908.373	505.849
912.878	732.612
917.38	1040.39
921.88	1215.36
926.377	1178.33
930.872	869.457
935.364	596.844
939.853	514.401
944.34	435.118
948.824	361.193
953.306	338.719
957.785	391.543
962.261	436.642
966.735	507.551
971.207	464.585
975.675	272.833
980.141	501.492
984.605	405.356
989.066	274.694
993.524	314.253
997.98	435.522
1002.43	466.21
1006.88	509.887
1011.33	79.8867
1015.78	341.55
1020.22	244.684
1024.66	187.841
1029.1	209.656
1033.53	154.779
1037.97	269.236
1042.4	297.4
1046.82	102.246
1051.25	411.716
1055.67	406.531
1060.09	423.672
1064.51	408.143
1068.92	327.926
1073.33	341.519
1077.74	272.986
1082.15	450.261
1086.55	366.002
1090.95	331.312
1095.35	382.889
1099.75	171.722
1104.14	363.808
1108.53	234.378
1112.92	326.433
1117.31	345.624
1121.69	412.204
1126.07	575.385
1130.45	247.929
1134.82	200.593
1139.19	8.44141
1143.57	232.169
1147.93	27.1875
1152.3	183.246
1156.66	182.034
1161.02	102.906
1165.38	74.7676
1169.73	42.1904
1174.08	108.894
1178.43	7.90137
1182.78	33.1279
1187.12	147.215
1191.46	10.4004
1195.8	49.2363
1200.14	26.9141
1204.47	110.878
1208.8	131.785
1213.13	43.293
1217.46	166.314
1221.78	41.292
1226.1	96.2656
1230.42	153.234
1234.73	179.333
1239.04	74.2246
1243.35	28.96
1247.66	33.0049
1251.97	88.9014
1256.27	17.1777
1260.57	54.7158
1264.86	59.1699
1269.16	128.94
1273.45	63.5195
1277.74	87.6123
1282.03	81.6533
1286.31	46.7852
1290.59	106.168
1294.87	154.04
1299.14	302.582
1303.42	69.5781
1307.69	161.597
1311.95	6.78125
1316.22	142.634
1320.48	139.912
1324.74	256.808
1329	114.647
1333.26	262.523
1337.51	174.65
1341.76	138.412
1346	693.268
1350.25	205.73
1354.49	181.093
1358.73	104.361
1362.96	165.535
1367.2	92.3106
1371.43	108.663
1375.66	161.968
1379.88	138.059
1384.11	208.516
1388.33	302.988
1392.54	85.6025
1396.76	116.776
1400.97	166.677
1405.18	216.594
1409.39	66.7773
1413.59	95.7324
1417.8	156.681
1421.99	76.3125
1426.19	194.497
1430.38	192.226
1434.58	351.357
1438.77	471.663
1442.95	743.707
1447.13	690.437
1451.32	592.057
1455.49	641.403
1459.67	523.381
1463.84	536.363
1468.01	424.028
1472.18	435.81
1476.35	255.131
1480.51	153.751
1484.67	441.288
1488.83	343.79
1492.98	221.74
1497.13	301.438
1501.28	21.1445
1505.43	86.6231
1509.57	303.63
1513.71	63.9033
1517.85	227.427
1521.99	193.988
1526.12	23.0479
1530.25	224.102
1534.38	160.889
1538.5	282.508
1542.62	232.977
1546.74	146.754
1550.86	48.3379
1554.98	148.023
1559.09	200.259
1563.2	67.5449
1567.31	83.9473
1571.41	72.459
