Measurement: Raman, 514 nm, ccw, Raman Data Processed
Mineral: Covellite
Rruff sample: R060143
Ideal chemistry: CuS
Locality: Butte, Montana, USA
Source: Marcus Origlieri
Description: Irridescent blue to purple hexagonal plates
Measured chemistry: Cu_1.00_S_1.00_
Pin_id: L00760
Orientation: Laser parallel to -a* (-1 0 0). Fiducial mark perpendicular to laser is parallel to -c [0 0 -1]
Raman shift (cm-1)	intensity
164.811	0
169.711	49.7928
174.61	36.9908
179.505	67.1053
184.399	62.498
189.29	125.668
194.178	187.617
199.064	245.914
203.948	249.843
208.829	38.5575
213.708	84.2563
218.585	37.6426
223.459	62.0168
228.33	49.3884
233.199	73.8059
238.066	55.065
242.93	75.0379
247.792	159.532
252.651	255.66
257.508	595.394
262.363	485.923
267.215	398.835
272.064	230.96
276.912	86.9014
281.756	71.6993
286.598	0.079857
291.438	9.4824
296.276	13.9055
301.111	17.4555
305.943	9.14063
310.773	10.1406
315.601	24.7176
320.426	46.3848
325.248	63.4627
330.068	48.0892
334.886	37.6307
339.701	24.0795
344.514	29.4081
349.324	25.5318
354.132	16.5971
358.938	15.8248
363.741	38.7222
368.541	10.6249
373.339	48.169
378.135	15.2872
382.928	44.8891
387.718	55.3054
392.506	11.5952
397.292	50.6748
402.075	30.3365
406.856	39.1825
411.634	69.2917
416.41	23.6684
421.183	61.3066
425.954	135.35
430.722	238.322
435.488	329.538
440.251	587.679
445.012	1072.37
449.77	2450.36
454.526	4128.36
459.28	7426.75
464.03	14093.8
468.779	36628.1
473.525	61619.3
478.268	23058.7
483.009	8451.18
487.747	4005.19
492.483	2336.51
497.217	1488.35
501.948	1065.07
506.676	762.225
511.402	630.775
516.125	502.955
520.846	465.665
525.565	453.411
530.281	386.097
534.994	375.107
539.705	346.445
544.413	284.411
549.119	295.055
553.822	249.33
558.523	191.585
563.222	186.252
567.917	154.785
572.611	153.633
577.302	132.918
581.99	149.62
586.676	162.185
591.359	164.777
596.04	227.448
600.718	310.174
605.394	237.929
610.067	150.676
614.737	100.467
619.406	65.183
624.071	53.3518
628.734	15.0651
633.395	18.9463
638.053	9.59028
642.708	5.80258
647.361	8.79444
652.012	5.50139
656.66	6.46725
661.305	19.1638
665.948	38.5021
670.588	7.0424
675.226	22.8227
679.861	42.2119
684.494	16.4646
689.124	4.17804
693.752	40.9419
698.377	5.07045
702.999	39.775
707.619	1.27815
712.237	46.5786
716.852	57.5331
721.464	81.2716
726.074	90.6278
730.681	61.7747
735.286	67.772
739.888	156.189
744.488	106.344
749.085	89.2973
753.68	60.3471
758.272	103.136
762.861	112.985
767.448	83.6709
772.033	28.6557
776.614	63.8142
781.194	62.9484
785.77	50.5473
790.345	22.8964
794.916	40.2037
799.485	33.6985
804.052	37.9628
808.616	23.3303
813.177	12.73
817.736	16.527
822.292	3.69528
826.846	43.5994
831.397	28.4409
835.945	10.5538
840.491	5.16591
845.035	2.34521
849.576	5.27356
854.114	6.40109
858.65	1.80677
863.183	19.893
867.713	5.33396
872.241	23.7582
876.767	10.1828
881.29	33.2635
885.81	9.95117
890.328	53.0296
894.843	99.4191
899.356	111.313
903.866	161.662
908.373	310.86
912.878	511.244
917.38	704.666
921.88	894.095
926.377	1100.31
930.872	884.441
935.364	663.348
939.853	478.447
944.34	388.615
948.824	244.728
953.306	222.039
957.785	128.274
962.261	125.625
966.735	59.9541
971.207	101.71
975.675	52.1541
980.141	109.799
984.605	124.842
989.066	131.216
993.524	147.641
997.98	204.309
1002.43	170.553
1006.88	110.245
1011.33	131.306
1015.78	131.476
1020.22	118.669
1024.66	145.648
1029.1	123.123
1033.53	133.72
1037.97	152.711
1042.4	185.622
1046.82	161.823
1051.25	168.571
1055.67	118.948
1060.09	97.3193
1064.51	170.928
1068.92	157.381
1073.33	75.227
1077.74	105.576
1082.15	120.279
1086.55	107.627
1090.95	86.9288
1095.35	65.9258
1099.75	110.231
1104.14	133.202
1108.53	51.0948
1112.92	157.47
1117.31	388.916
1121.69	520.436
1126.07	463.955
1130.45	107.192
1134.82	34.7266
1139.19	39.5749
1143.57	44.6322
1147.93	12.4395
1152.3	14.498
1156.66	12.4376
1161.02	13.4036
1165.38	2.02863
1169.73	22.9195
1174.08	9.00555
1178.43	8.30486
1182.78	9.1687
1187.12	42.7048
1191.46	72.9337
1195.8	14.5244
1200.14	3.8958
1204.47	26.6552
1208.8	66.1797
1213.13	5.76787
1217.46	28.2861
1221.78	54.9224
1226.1	64.3481
1230.42	15.6949
1234.73	4.23158
1239.04	16.0374
1243.35	68.2769
1247.66	57.4874
1251.97	5.67346
1256.27	10.7345
1260.57	50.0802
1264.86	41.5407
1269.16	22.409
1273.45	19.6079
1277.74	48.4638
1282.03	40.6776
1286.31	64.6977
1290.59	0.715273
1294.87	63.1598
1299.14	51.8341
1303.42	72.5122
1307.69	26.7271
1311.95	8.18145
1316.22	51.7717
1320.48	36.0296
1324.74	80.0401
1329	32.9056
1333.26	32.1703
1337.51	33.5485
1341.76	56.5818
1346	26.5611
1350.25	69.5242
1354.49	44.3984
1358.73	3.86991
1362.96	58.6487
1367.2	26.3439
1371.43	34.0382
1375.66	36.1972
1379.88	42.8354
1384.11	30.1236
1388.33	45.2759
1392.54	19.7368
1396.76	59.5906
1400.97	30.9567
1405.18	15.552
1409.39	50.2809
1413.59	56.9414
1417.8	10.8638
1421.99	42.7371
1426.19	24.2259
1430.38	97.6575
1434.58	42.577
1438.77	75.9058
1442.95	49.9073
1447.13	35.098
1451.32	22.0779
1455.49	1.01495
1459.67	15.6708
1463.84	85.3385
1468.01	32.9757
1472.18	49.7912
1476.35	31.5971
1480.51	2.47297
1484.67	64.197
1488.83	23.5909
1492.98	73.2737
1497.13	7.87164
1501.28	40.8266
1505.43	49.8784
1509.57	35.9447
1513.71	34.9679
1517.85	5.86214
1521.99	64.1503
1526.12	49.8119
1530.25	36.9903
1534.38	88.0502
1538.5	88.7155
1542.62	30.2662
1546.74	42.1934
1550.86	67.8915
1554.98	233.584
1559.09	60.912
1563.2	12.5243
1567.31	27.585
1571.41	0.030258
