Measurement: Raman, 514 nm, ccw, Raman Data Processed
Mineral: Covellite
Rruff sample: R060306
Ideal chemistry: CuS
Locality: 3800' level, Leonard mine, Butte, Silver Bow County, Montana, USA
Source: Michael Scott
Description: Blue iridescent metallic hexagonal plates
Measured chemistry: Cu_1.00_S_1.00_
Pin_id: M00169
Orientation: Laser parallel to -a* (-1 0 0). Fiducial mark perpendicular to laser is parallel to c [0 0 1]
Raman shift (cm-1)	intensity
52.671	0
57.626	0.453857
62.579	129.195
67.529	9.10113
72.477	363.228
77.423	805.706
82.367	1624.94
87.308	2136.98
92.246	3683.36
97.182	3743.92
102.116	4211
107.047	6634.55
111.976	5935.92
116.903	5586.6
121.827	4110.34
126.749	3868.14
131.668	4971.32
136.585	6904.03
141.5	6703.43
146.412	3617.61
151.321	2931.53
156.229	2358.27
161.134	1878.85
166.036	2108.28
170.936	2124.53
175.834	1733.58
180.729	1697.4
185.622	1834.94
190.512	1852.32
195.4	2158.81
200.286	2356.88
205.169	1590.42
210.049	863.921
214.928	815.12
219.803	569.485
224.677	507.798
229.548	476.255
234.416	521.805
239.282	460.21
244.146	540.293
249.007	831.936
253.866	1436.05
258.722	2447.2
263.576	2511.36
268.427	2038.43
273.276	1258.7
278.123	885.106
282.967	453.646
287.809	379.298
292.648	252.043
297.485	105.858
302.319	109.722
307.151	72.6118
311.98	49.5022
316.807	58.3645
321.631	1.1665
326.454	59.8806
331.273	102.51
336.09	9.9873
340.905	25.6604
345.717	103.637
350.527	23.2966
355.334	69.6375
360.139	83.6267
364.941	30.4722
369.741	11.2671
374.538	7.09058
379.333	48.0835
384.126	73.2331
388.916	124.446
393.703	151.751
398.488	171.03
403.271	153.332
408.051	214.503
412.828	103.507
417.603	78.3535
422.376	183.009
427.146	246.42
431.914	358.584
436.679	524.46
441.442	850.012
446.202	1656.22
450.96	2999.05
455.715	5478.48
460.467	9458.6
465.218	18494.2
469.965	46542.2
474.711	51271
479.454	19413.5
484.194	7705.95
488.932	3938.97
493.667	2337.27
498.4	1582.74
503.13	1119.62
507.858	847.766
512.583	802.003
517.306	717.447
522.026	635.579
526.744	548.095
531.459	605.808
536.172	649.706
540.882	574.311
545.59	510.575
550.295	1204.39
554.998	762.715
559.698	303.365
564.396	312.203
569.091	299.39
573.784	249.849
578.474	77.8311
583.162	111.126
587.847	114.388
592.529	160.613
597.209	125.642
601.887	94.5713
606.562	76.3674
611.235	114.025
615.905	68.425
620.572	10.5981
625.237	39.4976
629.9	9.18945
634.56	9.5752
639.217	32.3308
643.872	34.9414
648.524	36.4853
653.174	197.248
657.821	78.6016
662.466	89.0964
667.108	19.4565
671.748	4.29663
676.385	93.061
681.02	13.0666
685.652	96.9436
690.281	66.6689
694.908	29.0659
699.533	99.9246
704.155	84.4985
708.774	76.3899
713.391	170.776
718.005	189.719
722.617	183.323
727.226	175.405
731.833	217.079
736.437	290.119
741.039	363.496
745.638	335.716
750.234	229.495
754.828	285.421
759.419	248.054
764.008	213.918
768.595	230.812
773.178	166.733
777.759	141.062
782.338	76.074
786.914	131.802
791.488	37.667
796.059	61.4692
800.627	77.5752
805.193	2.9751
809.756	155.167
814.317	19.844
818.875	70.7415
823.431	62.4407
827.984	37.231
832.534	30.0588
837.082	33.5527
841.627	12.9556
846.17	43.0527
850.71	78.688
855.248	45.158
859.783	20.4678
864.316	62.9578
868.846	64.3023
873.373	63.6211
877.898	112.854
882.42	65.0293
886.94	100.16
891.457	203.325
895.971	236.502
900.483	316.721
904.993	466.008
909.5	699.422
914.004	866.916
918.505	1124.69
923.004	1319.64
927.501	1525
931.995	1126.89
936.486	817.861
940.975	610.556
945.461	425.457
949.945	265.668
954.426	241.406
958.904	202.609
963.38	304.647
967.853	165.9
972.324	228.509
976.792	241.422
981.258	342.474
985.72	350.745
990.181	358.828
994.639	372.91
999.094	443.727
1003.55	472.898
1008	375.492
1012.44	270.092
1016.89	325.984
1021.33	308.123
1025.77	319.718
1030.21	338.345
1034.64	269.155
1039.07	378.228
1043.5	353.44
1047.93	343.856
1052.35	275.11
1056.78	316.165
1061.19	479.835
1065.61	323.256
1070.02	298.937
1074.43	331.297
1078.84	373.336
1083.25	293.307
1087.65	251.453
1092.05	282.451
1096.45	305.043
1100.85	259.662
1105.24	298.457
1109.63	225.448
1114.02	261.589
1118.4	951.185
1122.78	1399.52
1127.16	1013.87
1131.54	209.641
1135.92	34.876
1140.29	186.641
1144.66	86.0024
1149.02	111.607
1153.39	7.1875
1157.75	30.4844
1162.11	22.0894
1166.46	45.187
1170.82	30.8711
1175.17	53.1836
1179.52	2.2207
1183.86	44.7925
1188.21	73.3447
1192.55	24.3652
1196.89	76.0483
1201.22	36.7207
1205.55	63.3491
1209.88	17.998
1214.21	72.6455
1218.54	1.32275
1222.86	3.9043
1227.18	58.4316
1231.5	60.9228
1235.81	439.375
1240.12	9.78125
1244.43	16.2407
1248.74	99.6001
1253.04	30.9072
1257.34	16.9922
1261.64	38.877
1265.94	89.625
1270.23	46.4775
1274.52	44.8789
1278.81	23.6631
1283.1	36.4302
1287.38	55.9941
1291.66	46.7383
1295.94	50.977
1300.21	41.0054
1304.48	81.6348
1308.75	52.939
1313.02	118.73
1317.29	83.2236
1321.55	90.2134
1325.81	136.106
1330.06	36.2022
1334.32	78.4033
1338.57	76.0342
1342.82	27.6592
1347.06	156.895
1351.31	127.956
1355.55	86.5923
1359.79	143.279
1364.02	137.698
1368.26	91.0527
1372.49	152.389
1376.71	145.251
1380.94	126.526
1385.16	103.795
1389.38	92.8823
1393.6	24.3926
1397.81	11.4492
1402.02	62.1133
1406.23	23.8325
1410.44	64.8628
1414.64	75.75
1418.85	190.292
1423.04	16.9404
1427.24	19.02
1431.43	29.6753
1435.62	42.8403
1439.81	107.733
1444	92.0288
1448.18	41.4829
1452.36	10.5991
1456.54	73.6221
1460.71	108.914
1464.89	12.8584
1469.06	48.8418
1473.22	39.3369
1477.39	63.7163
1481.55	28.4634
1485.71	74.8125
1489.86	70.9585
1494.02	80.0791
1498.17	255.609
1502.32	31.1055
1506.46	60.019
1510.61	151.064
1514.75	124.526
1518.88	115.265
1523.02	170.531
1527.15	2.27051
1531.28	59.1543
1535.41	158.848
1539.53	56.5298
1543.66	94.7505
1547.78	111.501
1551.89	266.019
1556.01	401.771
1560.12	608.796
1564.23	72.1797
1568.33	170.134
