Measurement: Raman, 514 nm, ccw, Raman Data Processed
Mineral: Covellite
Rruff sample: R060129
Ideal chemistry: CuS
Locality: Butte, Montana, USA
Source: University of Arizona Mineral Museum
Description: Iridescent blue metallic hexagonal plates
Measured chemistry: Cu_1.00_S_1.00_
Pin_id: L00520
Orientation: Laser parallel to -a* (-1 0 0). Fiducial mark perpendicular to laser is parallel to c [0 0 1]
Raman shift (cm-1)	intensity
53.91	0
58.864	10.0591
63.817	12.0131
68.767	59.137
73.714	98.236
78.659	193.041
83.602	475.133
88.542	680.882
93.48	1034.7
98.416	1344.04
103.349	1746.52
108.28	2350.37
113.208	1573.38
118.134	1449.56
123.058	777.2
127.979	689.183
132.898	903.46
137.814	985.819
142.728	507.4
147.639	341.183
152.549	233.439
157.455	195.458
162.359	200.977
167.261	199
172.161	168.766
177.058	173.604
181.952	186.607
186.845	263.757
191.734	259.166
196.622	262.82
201.507	345.666
206.389	151.15
211.269	178.177
216.147	132.227
221.022	110.51
225.895	79.5142
230.765	92.3691
235.633	88.2658
240.498	71.4595
245.361	61.9205
250.222	115.628
255.08	239.566
259.936	356.108
264.789	240.063
269.64	119.583
274.488	61.2767
279.334	4.86072
284.178	19.8563
289.019	20.7402
293.857	17.5388
298.693	10.7587
303.527	3.20496
308.358	34.8011
313.187	79.5543
318.013	57.3694
322.837	91.1642
327.659	74.0791
332.478	41.1521
337.294	43.3827
342.108	26.7684
346.92	39.7061
351.729	51.9224
356.535	12.273
361.34	5.25415
366.141	13.0449
370.94	41.3824
375.737	62.0027
380.531	65.8398
385.323	66.8828
390.113	59.1165
394.9	93.5208
399.684	99.0975
404.466	94.903
409.245	93.9275
414.022	115.129
418.797	121.484
423.569	169.795
428.338	321.293
433.105	493.973
437.87	813.339
442.632	1465.32
447.391	2720.55
452.149	5064.87
456.903	8896.31
461.655	18670.9
466.405	46840.6
471.152	58979.4
475.897	28224.3
480.639	11235.4
485.378	5060.55
490.116	2771.27
494.85	1770.07
499.582	1270.79
504.312	937.72
509.039	754.445
513.764	657.343
518.486	565.548
523.206	537.217
527.923	551.865
532.638	487.498
537.35	449.189
542.059	1090.33
546.766	361.989
551.471	332.036
556.173	302.361
560.873	276.178
565.57	221.404
570.264	223.991
574.957	214.571
579.646	201.261
584.333	194.997
589.018	274.761
593.7	321.523
598.379	316.271
603.056	311.999
607.73	210.703
612.402	148.38
617.072	102.024
621.739	74.6328
626.403	28.2007
631.065	14.756
635.724	9.51611
640.381	4.93225
645.035	2.72894
649.687	16.2312
654.336	19.185
658.983	14.8316
663.627	6.91937
668.268	5.26361
672.907	9.24414
677.544	10.2603
682.178	1.64728
686.809	7.33441
691.438	12.3885
696.065	38.9462
700.688	30.4238
705.31	49.4787
709.929	34.5925
714.545	39.5176
719.158	44.7642
723.77	76.1472
728.378	81.5875
732.984	59.2505
737.588	69.8049
742.189	104.251
746.787	55.5874
751.383	79.8157
755.976	89.9359
760.567	64.9483
765.155	37.8538
769.741	37.6492
774.324	43.5272
778.904	16.4219
783.482	24.0474
788.058	3.3053
792.631	23.2347
797.201	16.6976
801.769	21.1683
806.334	28.843
810.897	5.1958
815.457	8.98566
820.014	13.3958
824.569	31.9972
829.122	8.66028
833.671	16.1951
838.219	23.7537
842.763	16.7008
847.306	22.7782
851.845	3.11585
856.382	33.9194
860.917	16.0868
865.448	4.83582
869.978	9.72888
874.505	51.5961
879.029	23.4429
883.55	41.2724
888.069	114.086
892.586	132.892
897.1	201.697
901.611	250.488
906.12	432.274
910.626	608.9
915.129	768.558
919.63	1028.12
924.129	1210.97
928.625	1092.97
933.118	816.954
937.609	614.145
942.097	485.151
946.582	355.816
951.065	253.287
955.546	179.305
960.023	138.773
964.499	124.403
968.971	93.1123
973.441	92.5212
977.909	110.961
982.374	131.951
986.836	129.035
991.295	112.881
995.753	129.82
1000.21	110.956
1004.66	150.169
1009.11	121.44
1013.55	119.014
1018	119.397
1022.44	83.0648
1026.88	113.731
1031.32	100.948
1035.75	131.584
1040.18	123.282
1044.61	98.8979
1049.04	107.766
1053.46	99.6894
1057.88	138.821
1062.3	105.079
1066.71	92.1434
1071.13	91.5646
1075.54	93.5206
1079.94	118.148
1084.35	54.4464
1088.75	66.8087
1093.15	95.3824
1097.55	69.6629
1101.94	63.5272
1106.34	84.4562
1110.73	63.8571
1115.11	170.758
1119.5	338.158
1123.88	376.928
1128.26	175.894
1132.63	33.254
1137.01	15.1134
1141.38	43.9819
1145.75	25.9687
1150.12	21.908
1154.48	5.49933
1158.84	15.415
1163.2	9.06134
1167.55	28.0394
1171.91	7.81769
1176.26	6.13702
1180.61	0.941956
1184.95	4.02399
1189.29	25.9001
1193.63	2.82684
1197.97	27.7696
1202.31	28.2721
1206.64	3.39947
1210.97	46.4307
1215.29	43.2623
1219.62	19.0726
1223.94	11.8831
1228.26	19.6956
1232.57	23.5038
1236.89	45.2645
1241.2	9.99994
1245.51	3.70935
1249.81	4.35919
1254.12	5.97986
1258.42	22.5813
1262.72	31.1631
1267.01	33.7023
1271.3	4.23712
1275.59	6.52203
1279.88	18.7499
1284.17	46.8097
1288.45	3.24121
1292.73	16.1446
1297.01	4.4751
1301.28	28.4438
1305.55	21.5458
1309.82	29.3046
1314.09	34.0076
1318.35	28.426
1322.61	29.3511
1326.87	14.7274
1331.13	18.9028
1335.38	31.7273
1339.63	12.2679
1343.88	37.6719
1348.12	20.7457
1352.37	34.4825
1356.61	44.7675
1360.85	39.0311
1365.08	51.7012
1369.31	44.377
1373.54	29.9977
1377.77	63.2295
1381.99	17.0723
1386.22	36.6807
1390.43	19.9446
1394.65	38.7809
1398.87	6.3999
1403.08	22.0256
1407.29	31.6808
1411.49	0.42395
1415.69	37.5216
1419.89	14.1082
1424.09	15.4484
1428.29	19.8434
1432.48	23.2584
1436.67	22.7633
1440.86	30.222
1445.04	34.6893
1449.23	2.17139
1453.4	3.50372
1457.58	41.2446
1461.76	29.9822
1465.93	17.6668
1470.1	17.3284
1474.26	47.0082
1478.43	29.7338
1482.59	2.92639
1486.75	19.2094
1490.9	49.6984
1495.06	27.0996
1499.21	4.77521
1503.35	23.5617
1507.5	46.0975
1511.64	32.8434
1515.78	9.19696
1519.92	11.7351
1524.05	36.0953
1528.18	32.8448
1532.31	38.5887
1536.44	1.75964
1540.56	12.9202
1544.69	10.3857
1548.8	19.4828
1552.92	88.0351
1557.03	42.2504
1561.14	12.2929
1565.25	14.368
1569.36	28.6748
