Measurement: Raman, 514 nm, ccw, Raman Data Processed
Mineral: Covellite
Rruff sample: R060129
Ideal chemistry: CuS
Locality: Butte, Montana, USA
Source: University of Arizona Mineral Museum
Description: Iridescent blue metallic hexagonal plates
Measured chemistry: Cu_1.00_S_1.00_
Pin_id: L00818
Orientation: Laser parallel to c* (0 0 1). Fiducial mark perpendicular to laser is parallel to a [1 0 0]
Raman shift (cm-1)	intensity
170.936	0
174.61	373.059
178.282	9.97266
181.952	299.928
185.622	631.519
189.29	696.541
192.956	704.518
196.622	1227.7
200.286	1563.89
203.948	879.008
207.609	86.6348
211.269	293.508
214.928	168.09
218.585	125.803
222.24	70.3496
225.895	137.529
229.548	67.2812
233.199	139.049
236.849	728.85
240.498	963.613
244.146	1201.41
247.792	1809.76
251.437	2921.28
255.08	4042.02
258.722	5608.09
262.363	5697.54
266.002	5346.89
269.64	4425.03
273.276	4116.93
276.912	4397.78
280.545	3464.85
284.178	2795.11
287.809	2073.72
291.438	1790.54
295.067	1663.88
298.693	1574.99
302.319	1630.99
305.943	2454.96
309.566	2677.47
313.187	3253.35
316.807	4919.76
320.426	7141.15
324.043	11415.8
327.659	17057
331.273	18319.8
334.886	14669.9
338.498	8696.83
342.108	5168.17
345.717	2925.02
349.324	1858.78
352.931	1689.76
356.535	2413.67
360.139	3599.24
363.741	4503.78
367.341	5272.97
370.94	5934.17
374.538	5609.05
378.135	5286.62
381.73	4995.22
385.323	3829.94
388.916	2214.78
392.506	1499.73
396.096	978.795
399.684	311.836
403.271	190.301
406.856	129.799
410.44	258.603
414.022	20.5918
417.603	179.799
421.183	61.334
424.761	248.828
428.338	15.5254
431.914	242.461
435.488	298.81
439.061	976.248
442.632	1093.14
446.202	1695.29
449.77	3286.67
453.337	4727.14
456.903	6787.52
460.467	10702
464.03	19889.5
467.592	30624.1
471.152	31135.7
474.711	19330.5
478.268	10481.8
481.824	5454.84
485.378	2910.25
488.932	2052.49
492.483	1456.93
496.034	920.885
499.582	446.641
503.13	551.547
506.676	481.867
510.221	222.236
513.764	310.731
517.306	561.426
520.846	527.359
524.385	409.353
527.923	292.393
531.459	699.486
534.994	345.787
538.527	14.0801
542.059	42.998
545.59	317.334
549.119	169.488
552.647	201.42
556.173	389.707
559.698	370.713
563.222	58.2207
566.744	46.168
570.264	277.023
573.784	338.816
577.302	44.5352
580.818	39.7227
584.333	269.656
587.847	130.789
591.359	206.856
594.87	244.562
598.379	345.496
601.887	368.559
605.394	173.293
608.899	306.516
612.402	381.758
615.905	165.285
619.406	982.332
622.905	597.168
626.403	520.465
629.9	101.125
633.395	67.6289
636.889	568.098
640.381	276.777
643.872	178.438
647.361	336.441
650.849	942.508
654.336	880.027
657.821	630.664
661.305	674.004
664.787	1202.34
668.268	789.609
671.748	495.242
675.226	633.969
678.703	671.234
682.178	271.258
685.652	131.863
689.124	222.117
692.595	178.559
696.065	248.066
699.533	243.852
702.999	296.488
706.465	646.019
709.929	642.449
713.391	404.309
716.852	647.969
720.311	692.68
723.77	427.438
727.226	290.152
730.681	448.305
734.135	633.594
737.588	108.023
741.039	108.426
744.488	420.801
747.936	447.676
751.383	7.50781
754.828	45.0508
758.272	689.723
761.714	153.883
765.155	108.945
768.595	360.406
772.033	566.375
775.469	184.059
778.904	83.2344
782.338	268.703
785.77	192.434
789.201	133.797
792.631	201.641
796.059	18.2227
799.485	249.25
802.91	108.914
806.334	89.4336
809.756	248.473
813.177	157.883
816.596	10.3359
820.014	122.938
823.431	188.938
826.846	303.887
830.259	23.6758
833.671	5.98047
837.082	609.398
840.491	592.734
843.899	11.2656
847.306	6.57812
850.71	317.41
854.114	802.016
857.516	427.637
860.917	171.894
864.316	293.324
867.713	597.469
871.11	146.586
874.505	187.305
877.898	471.773
881.29	564.117
884.68	63.7422
888.069	145.582
891.457	449.008
894.843	557.352
898.228	163.91
901.611	529.117
904.993	880.949
908.373	779.922
911.752	598.953
915.129	1007.71
918.505	1423.09
921.88	1346.71
925.253	1059.41
928.625	735.727
931.995	1235.13
935.364	904.492
938.731	415.277
942.097	404.981
945.461	579.422
948.824	678.164
952.186	283.981
955.546	525.316
958.904	701.019
962.261	495.731
965.617	96.9727
968.971	430.559
972.324	851.519
975.675	239.785
979.025	183.758
982.374	471.562
985.72	915.375
989.066	497.578
992.41	452.441
995.753	712.371
999.094	1006.31
1002.43	891.211
1005.77	219.059
1009.11	368.828
1012.44	479.375
1015.78	586.25
1019.11	216.269
1022.44	276.519
1025.77	313.211
1029.1	344.211
1032.42	76.957
1035.75	280.805
1039.07	658.328
1042.4	343.519
1045.72	310.832
1049.04	442.231
1052.35	689.102
1055.67	768.269
1058.98	500.465
1062.3	366.988
1065.61	811.195
1068.92	353.711
1072.23	196.508
1075.54	828.269
1078.84	711.195
1082.15	1109.25
1085.45	340.809
1088.75	392.441
1092.05	844.578
1095.35	824.926
1098.65	306.039
1101.94	469.633
1105.24	872.559
1108.53	624.656
1111.82	211.809
1115.11	351.598
1118.4	923.258
1121.69	728.184
1124.97	139.305
1128.26	283.043
1131.54	714.516
1134.82	526.441
1138.1	357.805
1141.38	218.012
1144.66	598.281
1147.93	644.269
1151.21	298.152
1154.48	107.457
1157.75	528.602
1161.02	627.148
1164.29	88.6328
1167.55	65.9141
1170.82	345.012
1174.08	407.508
1177.34	191.664
1180.61	58.5156
1183.86	48.125
1187.12	660.09
1190.38	203.519
1193.63	38.6484
1196.89	63.0781
1200.14	238.484
1203.39	413.555
1206.64	24.5898
1209.88	245.074
1213.13	1028.17
1216.37	617.84
1219.62	417.121
1222.86	234.383
1226.1	653.738
1229.34	648.09
1232.57	220.906
1235.81	351.469
1239.04	827.305
1242.28	789.773
1245.51	540.988
1248.74	488.812
1251.97	792.461
1255.19	1075.41
1258.42	657.883
1261.64	766.363
1264.86	1090.81
1268.09	716.82
1271.3	112.387
1274.52	56.4062
1277.74	226.488
1280.95	907.094
1284.17	611.289
1287.38	626.965
1290.59	644.992
1293.8	1307.61
1297.01	1046.96
1300.21	709.269
1303.42	885.934
1306.62	1305.78
1309.82	1375.23
1313.02	1002.56
1316.22	922.613
1319.42	1202.51
1322.61	1031.23
1325.81	425.914
1329	534.859
1332.19	513.894
1335.38	1024.7
1338.57	452.984
1341.76	228.832
1344.94	471.406
