Measurement: Raman, 514 nm, ccw, Raman Data Processed
Mineral: Covellite
Rruff sample: R060306
Ideal chemistry: CuS
Locality: 3800' level, Leonard mine, Butte, Silver Bow County, Montana, USA
Source: Michael Scott
Description: Blue iridescent metallic hexagonal plates
Measured chemistry: Cu_1.00_S_1.00_
Pin_id: M00169
Orientation: Laser parallel to -a* (-1 0 0). Fiducial mark perpendicular to laser is parallel to c [0 0 1]
Raman shift (cm-1)	intensity
52.671	0
57.626	6.54239
62.579	73.8611
67.529	17.7451
72.477	51.1379
77.423	139.816
82.367	296.672
87.308	443.703
92.246	833.3
97.182	1070.94
102.116	1356.23
107.047	1983.85
111.976	2134.61
116.903	1660.48
121.827	1353.4
126.749	806.181
131.668	976.773
136.585	1392.84
141.5	1582.28
146.412	792.094
151.321	558.252
156.229	429.776
161.134	251.678
166.036	356.962
170.936	340.626
175.834	273.773
180.729	300.97
185.622	319.639
190.512	358.671
195.4	438.058
200.286	442.666
205.169	384.254
210.049	192.051
214.928	243.853
219.803	194.73
224.677	190.331
229.548	148.111
234.416	162.16
239.282	142.479
244.146	242.177
249.007	374.227
253.866	662.606
258.722	1326.29
263.576	1179.28
268.427	917.531
273.276	496.051
278.123	231.821
282.967	95.8359
287.809	77.0901
292.648	48.58
297.485	3.69739
302.319	13.7537
307.151	6.37842
311.98	15.7245
316.807	35.2863
321.631	63.0582
326.454	75.9989
331.273	47.1249
336.09	9.45068
340.905	7.02783
345.717	43.3988
350.527	33.6931
355.334	1.82739
360.139	34.807
364.941	5.35583
369.741	37.752
374.538	52.3533
379.333	95.2273
384.126	67.3875
388.916	98.8391
393.703	69.5443
398.488	91.5126
403.271	83.7183
408.051	75.1333
412.828	93.7878
417.603	56.6482
422.376	140.724
427.146	174.007
431.914	271.474
436.679	452.135
441.442	801.876
446.202	1494.37
450.96	2767.57
455.715	5097.86
460.467	8598.31
465.218	17759.9
469.965	46657.6
474.711	47650.5
479.454	16569.5
484.194	6685.27
488.932	3437.85
493.667	2044.27
498.4	1380.78
503.13	988.26
507.858	713.031
512.583	625.088
517.306	601.383
522.026	488.106
526.744	513.806
531.459	413.63
536.172	399.106
540.882	403.4
545.59	299.55
550.295	262.854
554.998	271.782
559.698	214.556
564.396	193.508
569.091	187.704
573.784	116.515
578.474	144.581
583.162	106.365
587.847	195.847
592.529	228.628
597.209	233.392
601.887	170.133
606.562	171.85
611.235	89.5365
615.905	69.1843
620.572	65.7897
625.237	45.3491
629.9	2.80225
634.56	30.5293
639.217	32.1088
643.872	14.201
648.524	11.3229
653.174	4.03424
657.821	20.1865
662.466	5.33539
667.108	20.3074
671.748	6.96106
676.385	17.1597
681.02	11.3526
685.652	15.747
690.281	3.74615
694.908	3.45636
699.533	4.95111
704.155	8.24872
708.774	29.6993
713.391	2.01135
718.005	34.2306
722.617	44.9521
727.226	98.4149
731.833	122.893
736.437	150.247
741.039	153.478
745.638	146.987
750.234	84.9705
754.828	69.8303
759.419	66.5673
764.008	81.182
768.595	60.4789
773.178	71.3929
777.759	46.9333
782.338	9.71545
786.914	49.5886
791.488	9.92944
796.059	1.06726
800.627	38.57
805.193	2.48883
809.756	25.767
814.317	15.5319
818.875	17.902
823.431	5.42145
827.984	6.16217
832.534	33.5618
837.082	9.87982
841.627	16.4236
846.17	8.1745
850.71	11.8492
855.248	24.4053
859.783	35.6728
864.316	37.8914
868.846	23.0487
873.373	33.1719
877.898	15.7356
882.42	39.3147
886.94	35.3444
891.457	85.3594
895.971	141.195
900.483	204.349
904.993	296.331
909.5	409.325
914.004	568.338
918.505	799.434
923.004	964.325
927.501	1117.86
931.995	844.19
936.486	584.462
940.975	478.208
945.461	349.56
949.945	270.659
954.426	142.987
958.904	104.559
963.38	138.33
967.853	128.266
972.324	114.844
976.792	113.154
981.258	118.076
985.72	159.93
990.181	150.259
994.639	207.648
999.094	197.241
1003.55	186.772
1008	159.366
1012.44	170.622
1016.89	127.349
1021.33	172.503
1025.77	158.532
1030.21	185.48
1034.64	99.5159
1039.07	166.624
1043.5	139.701
1047.93	158.358
1052.35	143.494
1056.78	94.6796
1061.19	127.634
1065.61	155.151
1070.02	151.912
1074.43	103.358
1078.84	128.105
1083.25	101.917
1087.65	109.803
1092.05	136.767
1096.45	124.559
1100.85	42.6293
1105.24	108.522
1109.63	78.7274
1114.02	163.001
1118.4	480.419
1122.78	704.844
1127.16	518.25
1131.54	140.017
1135.92	26.5065
1140.29	65.0985
1144.66	30.6515
1149.02	18.1747
1153.39	24.7772
1157.75	1.43091
1162.11	11.7305
1166.46	18.3983
1170.82	17.5193
1175.17	27.1489
1179.52	6.87903
1183.86	15.2297
1188.21	12.4226
1192.55	2.93457
1196.89	13.5846
1201.22	14.0536
1205.55	27.4938
1209.88	35.9387
1214.21	54.3656
1218.54	11.7906
1222.86	12.2135
1227.18	45.6401
1231.5	40.0598
1235.81	39.4511
1240.12	35.8436
1244.43	38.2707
1248.74	25.6643
1253.04	11.0254
1257.34	10.4474
1261.64	25.7507
1265.94	33.0193
1270.23	44.3281
1274.52	54.5604
1278.81	62.7589
1283.1	18.5695
1287.38	53.5482
1291.66	23.2725
1295.94	18.3032
1300.21	62.489
1304.48	1.44482
1308.75	26.1787
1313.02	41.3273
1317.29	51.2435
1321.55	28.4539
1325.81	16.5054
1330.06	79.184
1334.32	20.2347
1338.57	32.0524
1342.82	45.8304
1347.06	59.598
1351.31	48.1409
1355.55	58.2884
1359.79	58.1093
1364.02	63.1172
1368.26	6.07324
1372.49	41.7754
1376.71	72.5354
1380.94	30.1344
1385.16	38.7944
1389.38	46.1477
1393.6	29.7532
1397.81	42.4015
1402.02	46.9635
1406.23	66.5829
1410.44	16.9998
1414.64	35.3571
1418.85	18.0657
1423.04	47.7284
1427.24	63.6102
1431.43	12.5597
1435.62	38.8219
1439.81	50.2283
1444	42.4808
1448.18	62.3359
1452.36	20.033
1456.54	31.7485
1460.71	44.4739
1464.89	50.1616
1469.06	37.8257
1473.22	12.39
1477.39	11.9617
1481.55	29.4646
1485.71	30.0101
1489.86	17.3533
1494.02	21.3278
1498.17	41.043
1502.32	25.6907
1506.46	38.5061
1510.61	11.3592
1514.75	32.3083
1518.88	38.2239
1523.02	52.1526
1527.15	10.8898
1531.28	46.1266
1535.41	28.14
1539.53	40.2725
1543.66	32.4639
1547.78	24.9148
1551.89	79.6698
1556.01	98.3594
1560.12	1.4043
1564.23	15.5096
1568.33	10.1932
