Measurement: Raman, 514 nm, ccw, Raman Data Processed
Mineral: Covellite
Rruff sample: R060129
Ideal chemistry: CuS
Locality: Butte, Montana, USA
Source: University of Arizona Mineral Museum
Description: Iridescent blue metallic hexagonal plates
Measured chemistry: Cu_1.00_S_1.00_
Pin_id: L00818
Orientation: Laser parallel to c* (0 0 1). Fiducial mark perpendicular to laser is parallel to a [1 0 0]
Raman shift (cm-1)	intensity
170.936	0
174.61	99.5469
178.282	75.0557
181.952	241.347
185.622	674.527
189.29	703.736
192.956	1003.59
196.622	1158.72
200.286	1287.39
203.948	1018.59
207.609	43.8057
211.269	0.56543
214.928	184.35
218.585	35.3125
222.24	12.0156
225.895	30.2676
229.548	63.042
233.199	210.571
236.849	314.41
240.498	466.556
244.146	792.981
247.792	1156.27
251.437	1895.31
255.08	2701.81
258.722	4052.1
262.363	3895.15
266.002	3678.32
269.64	3046.05
273.276	2632.46
276.912	2648.94
280.545	2333.73
284.178	1776.84
287.809	1260.28
291.438	1123.04
295.067	710.711
298.693	1009.01
302.319	971.788
305.943	1052.96
309.566	1495.51
313.187	1767.41
316.807	2573.15
320.426	3920.93
324.043	6537.37
327.659	10558.4
331.273	11657.9
334.886	9121.37
338.498	5359.93
342.108	3138.03
345.717	1602.39
349.324	1201.82
352.931	1046.24
356.535	1327.22
360.139	1908.9
363.741	2810.92
367.341	3226.57
370.94	3479.65
374.538	3400.46
378.135	3043.66
381.73	2655.37
385.323	2645.55
388.916	1600.95
392.506	876.569
396.096	513.401
399.684	107.439
403.271	338.69
406.856	221.185
410.44	84.1279
414.022	26.3701
417.603	21.1426
421.183	181.478
424.761	42.2734
428.338	56.2383
431.914	161.427
435.488	495.841
439.061	643.924
442.632	1082.33
446.202	1885.91
449.77	2982.7
453.337	4638.71
456.903	7006.93
460.467	11388.3
464.03	21514.8
467.592	37780.7
471.152	40630.5
474.711	23899.3
478.268	12369.4
481.824	6370.55
485.378	3747.44
488.932	2222.56
492.483	1778.38
496.034	1142.13
499.582	887.53
503.13	800.517
506.676	595.205
510.221	496.69
513.764	583.559
517.306	666.708
520.846	387.042
524.385	454.591
527.923	392.33
531.459	340.248
534.994	536.389
538.527	521.785
542.059	458.372
545.59	608.17
549.119	321.228
552.647	283.985
556.173	290.464
559.698	401.78
563.222	221.14
566.744	326.638
570.264	324.263
573.784	150.72
577.302	78.6357
580.818	45.8984
584.333	89.1143
587.847	17.0938
591.359	54.3457
594.87	160.185
598.379	78.3857
601.887	173.757
605.394	28.4912
608.899	134.941
612.402	174.993
615.905	231.564
619.406	47.9141
622.905	95.5889
626.403	182.051
629.9	509.778
633.395	434.513
636.889	164.848
640.381	113.929
643.872	30.4961
647.361	200.139
650.849	254.138
654.336	486.336
657.821	380.762
661.305	532.577
664.787	481.402
668.268	404.737
671.748	238.179
675.226	338.641
678.703	429.454
682.178	230.469
685.652	31.3477
689.124	115.266
692.595	119.487
696.065	44.9961
699.533	77.5078
702.999	76.6162
706.465	441.731
709.929	353.075
713.391	222.174
716.852	265.059
720.311	277.133
723.77	160.39
727.226	160.195
730.681	153.682
734.135	170.804
737.588	275.897
741.039	69.6641
744.488	147.319
747.936	110.239
751.383	148.509
754.828	285.907
758.272	158.045
761.714	90.1348
765.155	223.238
768.595	241.496
772.033	253.981
775.469	60.4443
778.904	49.2949
782.338	76.8144
785.77	58.8262
789.201	5.35156
792.631	723.337
796.059	456.547
799.485	52.5234
802.91	88.4648
806.334	100.13
809.756	37.544
813.177	34.7451
816.596	113.579
820.014	20.3086
823.431	129.899
826.846	74.7022
830.259	34.7119
833.671	90.9668
837.082	300.738
840.491	142.436
843.899	8.45312
847.306	14.9287
850.71	155.212
854.114	150.832
857.516	131.898
860.917	277.798
864.316	23.7061
867.713	56.0381
871.11	71.6611
874.505	16.3506
877.898	204.783
881.29	6.12109
884.68	30.0498
888.069	115.484
891.457	192.225
894.843	178.673
898.228	280.669
901.611	396.49
904.993	719.12
908.373	622.535
911.752	771.235
915.129	1113.65
918.505	961.566
921.88	1255.77
925.253	1369.24
928.625	1094.47
931.995	811.842
935.364	878.992
938.731	622.619
942.097	425.013
945.461	504.088
948.824	313.562
952.186	168.067
955.546	183.382
958.904	146.258
962.261	288.336
965.617	284.651
968.971	351.337
972.324	248.769
975.675	326.397
979.025	466.946
982.374	270.313
985.72	460.693
989.066	531.05
992.41	446.945
995.753	403.685
999.094	652.889
1002.43	626.456
1005.77	236.754
1009.11	279.964
1012.44	206.715
1015.78	315.47
1019.11	204.828
1022.44	230.804
1025.77	240.11
1029.1	251.995
1032.42	220.435
1035.75	238.71
1039.07	258.977
1042.4	343.735
1045.72	308.285
1049.04	301.435
1052.35	381.039
1055.67	471.573
1058.98	420.304
1062.3	415.812
1065.61	484.424
1068.92	678.388
1072.23	529.769
1075.54	959.824
1078.84	541.039
1082.15	451.988
1085.45	341.762
1088.75	437.117
1092.05	309.602
1095.35	341.982
1098.65	484.869
1101.94	303.238
1105.24	364.344
1108.53	362.707
1111.82	375.402
1115.11	385.69
1118.4	300.998
1121.69	361.209
1124.97	395.232
1128.26	321.875
1131.54	326.481
1134.82	316.481
1138.1	211.58
1141.38	142.408
1144.66	268.91
1147.93	153.178
1151.21	44.1309
1154.48	201.754
1157.75	14.4316
1161.02	122.842
1164.29	106.859
1167.55	222.734
1170.82	213.955
1174.08	29.5176
1177.34	44.7246
1180.61	3.83008
1183.86	156.111
1187.12	53.9219
1190.38	74.4844
1193.63	2.42969
1196.89	55.1699
1200.14	44.5332
1203.39	60.1738
1206.64	149.332
1209.88	254.133
1213.13	179.279
1216.37	32.9004
1219.62	19.166
1222.86	111.234
1226.1	62.4551
1229.34	100.658
1232.57	47.8086
1235.81	19.1504
1239.04	115.111
1242.28	169.1
1245.51	187.09
1248.74	221.107
1251.97	271.576
1255.19	322.227
1258.42	476.353
1261.64	152.232
1264.86	168.779
1268.09	219.787
1271.3	71.1875
1274.52	36.166
1277.74	254.533
1280.95	95.9648
1284.17	131.102
1287.38	115.074
1290.59	279.137
1293.8	393.234
1297.01	339.685
1300.21	187.277
1303.42	217.969
1306.62	377.898
1309.82	458.594
1313.02	228.572
1316.22	386.791
1319.42	470.928
1322.61	341.922
1325.81	75.1719
1329	261.236
1332.19	198.908
1335.38	111.816
1338.57	284.516
1341.76	139.945
1344.94	87.3281
1348.12	63.4941
