Measurement: Raman, 514 nm, ccw, Raman Data Processed
Mineral: Covellite
Rruff sample: R060306
Ideal chemistry: CuS
Locality: 3800' level, Leonard mine, Butte, Silver Bow County, Montana, USA
Source: Michael Scott
Description: Blue iridescent metallic hexagonal plates
Measured chemistry: Cu_1.00_S_1.00_
Pin_id: M00169
Orientation: Laser parallel to -a* (-1 0 0). Fiducial mark perpendicular to laser is parallel to c [0 0 1]
Raman shift (cm-1)	intensity
52.671	0
57.626	19.0235
62.579	158.787
67.529	28.2358
72.477	129.218
77.423	340.188
82.367	717.149
87.308	996.938
92.246	1695.18
97.182	1967.74
102.116	2182.69
107.047	3388.59
111.976	3288.02
116.903	2769.7
121.827	1899.46
126.749	1815.24
131.668	2262.16
136.585	3438.72
141.5	3535.03
146.412	1723.53
151.321	1412.34
156.229	1079.03
161.134	851.619
166.036	963.112
170.936	858.538
175.834	800.835
180.729	819.983
185.622	802.215
190.512	946.159
195.4	1009.76
200.286	1053.42
205.169	781.356
210.049	397.274
214.928	442.647
219.803	360.424
224.677	368.45
229.548	321.333
234.416	352.646
239.282	389.873
244.146	537.933
249.007	885.764
253.866	1506.32
258.722	2874.54
263.576	2688.42
268.427	2040.9
273.276	1163.1
278.123	605.066
282.967	284.892
287.809	229.591
292.648	147.807
297.485	82.5317
302.319	11.7526
307.151	12.458
311.98	17.6362
316.807	27.2703
321.631	29.3481
326.454	28.8613
331.273	13.7961
336.09	0.784424
340.905	22.1133
345.717	53.1074
350.527	14.6582
355.334	2.73218
360.139	115.196
364.941	70.3267
369.741	81.001
374.538	7.48853
379.333	49.4058
384.126	32.8352
388.916	89.825
393.703	46.3367
398.488	46.3623
403.271	30.8657
408.051	92.7747
412.828	38.1194
417.603	31.9104
422.376	22.1101
427.146	98.9707
431.914	217.567
436.679	337.81
441.442	544.371
446.202	1154.24
450.96	2342.41
455.715	4384.83
460.467	7346.37
465.218	15043.2
469.965	41963.5
474.711	42119
479.454	14483
484.194	6167.06
488.932	3067.41
493.667	1772.98
498.4	1241.12
503.13	872.873
507.858	699.17
512.583	649.509
517.306	521.772
522.026	517.344
526.744	481.036
531.459	462.07
536.172	434.416
540.882	494.581
545.59	332.015
550.295	355.884
554.998	291.696
559.698	255.318
564.396	257.742
569.091	156.425
573.784	208.642
578.474	108.525
583.162	127.187
587.847	82.8232
592.529	127.481
597.209	160.066
601.887	161.641
606.562	55.175
611.235	46.6544
615.905	82.0709
620.572	40.395
625.237	63.6571
629.9	55.9037
634.56	64.1145
639.217	52.2881
643.872	21.0721
648.524	12.4468
653.174	31.2067
657.821	39.3904
662.466	19.5837
667.108	14.2131
671.748	33.3088
676.385	9.87988
681.02	24.0666
685.652	43.4836
690.281	3.91663
694.908	15.4016
699.533	42.3378
704.155	72.4115
708.774	42.7489
713.391	112.877
718.005	123.793
722.617	151.523
727.226	220.503
731.833	200.866
736.437	221.043
741.039	284.222
745.638	230.029
750.234	224.65
754.828	190.087
759.419	189.133
764.008	172.205
768.595	139.783
773.178	71.4578
777.759	108.1
782.338	19.1307
786.914	95.9038
791.488	108.482
796.059	38.7941
800.627	3.18396
805.193	22.3577
809.756	5.88184
814.317	23.8766
818.875	5.62158
823.431	17.2763
827.984	79.4231
832.534	7.96155
837.082	61.4196
841.627	21.7979
846.17	29.8954
850.71	10.6249
855.248	54.338
859.783	4.7948
864.316	14.007
868.846	42.724
873.373	10.6079
877.898	37.0093
882.42	41.5864
886.94	51.1296
891.457	82.6482
895.971	154.164
900.483	253.666
904.993	264.159
909.5	518.594
914.004	712.097
918.505	793.482
923.004	1033.91
927.501	1135.54
931.995	878.612
936.486	608.405
940.975	439.172
945.461	323.903
949.945	224.507
954.426	166.29
958.904	142.623
963.38	79.1987
967.853	67.9373
972.324	83.4309
976.792	102.51
981.258	131.733
985.72	63.0422
990.181	128.45
994.639	91.8621
999.094	92.0532
1003.55	124.687
1008	92.2405
1012.44	78.0081
1016.89	92.8818
1021.33	39.8455
1025.77	74.4277
1030.21	48.01
1034.64	101.769
1039.07	72.0598
1043.5	108.219
1047.93	26.6721
1052.35	87.6799
1056.78	104.461
1061.19	138.184
1065.61	95.7612
1070.02	85.6748
1074.43	34.2715
1078.84	49.3911
1083.25	164.536
1087.65	107.046
1092.05	76.6794
1096.45	83.5588
1100.85	60.9141
1105.24	74.5642
1109.63	79.1812
1114.02	124.617
1118.4	123.924
1122.78	275.526
1127.16	161.259
1131.54	55.5671
1135.92	49.3816
1140.29	0.686035
1144.66	20.5505
1149.02	25.9629
1153.39	26.5207
1157.75	43.5425
1162.11	11.5571
1166.46	22.5139
1170.82	13.521
1175.17	13.4314
1179.52	27.398
1183.86	1.66064
1188.21	17.8105
1192.55	29.7158
1196.89	18.9255
1201.22	37.2293
1205.55	2.49268
1209.88	59.2444
1214.21	35.8765
1218.54	42.4858
1222.86	35.6953
1227.18	68.1936
1231.5	12.3384
1235.81	43.0398
1240.12	23.3975
1244.43	67.6821
1248.74	0.886963
1253.04	28.0615
1257.34	40.1746
1261.64	73.2449
1265.94	0.277344
1270.23	24.2517
1274.52	41.0596
1278.81	2.09009
1283.1	33.3023
1287.38	52.5293
1291.66	29.241
1295.94	95.9321
1300.21	32.2134
1304.48	162.242
1308.75	58.4932
1313.02	1.4353
1317.29	39.7817
1321.55	5.19092
1325.81	52.9937
1330.06	46.7366
1334.32	11.7293
1338.57	72.8367
1342.82	90.9839
1347.06	90.7964
1351.31	68.49
1355.55	100.059
1359.79	55.9841
1364.02	90.8303
1368.26	93.6187
1372.49	95.5938
1376.71	43.1807
1380.94	54.4834
1385.16	69.2812
1389.38	69.1636
1393.6	73.3428
1397.81	106.823
1402.02	48.2871
1406.23	32.2043
1410.44	102.149
1414.64	41.55
1418.85	36.9373
1423.04	21.7463
1427.24	3.95752
1431.43	5.87305
1435.62	79.1877
1439.81	55.7595
1444	68.2761
1448.18	46.1162
1452.36	75.6091
1456.54	9.07398
1460.71	32.6243
1464.89	90.2671
1469.06	81.7827
1473.22	93.2956
1477.39	43.8577
1481.55	46.4409
1485.71	49.0139
1489.86	46.0647
1494.02	50.5498
1498.17	41.7444
1502.32	44.5073
1506.46	39.6941
1510.61	52.9263
1514.75	14.7598
1518.88	56.2749
1523.02	46.8464
1527.15	75.929
1531.28	30.7339
1535.41	9.97095
1539.53	64.313
1543.66	5.66968
1547.78	56.522
1551.89	90.6216
1556.01	152.368
1560.12	35.1467
1564.23	34.323
1568.33	20.6016
