Measurement: Raman, 514 nm, ccw, Raman Data Processed
Mineral: Covellite
Rruff sample: R060306
Ideal chemistry: CuS
Locality: 3800' level, Leonard mine, Butte, Silver Bow County, Montana, USA
Source: Michael Scott
Description: Blue iridescent metallic hexagonal plates
Measured chemistry: Cu_1.00_S_1.00_
Pin_id: M00422
Orientation: Laser parallel to -c* (0 0 -1). Fiducial mark perpendicular to laser is parallel to a [1 0 0]
Raman shift (cm-1)	intensity
92.246	0
97.182	167.977
102.116	424.726
107.047	3906.47
111.976	3380.52
116.903	3479.02
121.827	2050.45
126.749	1765.34
131.668	3120.07
136.585	6487.59
141.5	8958.9
146.412	5519.68
151.321	2741.58
156.229	1371.93
161.134	732.197
166.036	1046.19
170.936	1093.94
175.834	803.674
180.729	770.829
185.622	989.876
190.512	1021.35
195.4	1452.33
200.286	1665.02
205.169	850.528
210.049	30.6538
214.928	254.781
219.803	8.19385
224.677	71.6694
229.548	101.487
234.416	174.364
239.282	237.69
244.146	81.4287
249.007	81.2744
253.866	508.379
258.722	1620.67
263.576	1295.19
268.427	1206.69
273.276	742.917
278.123	612.23
282.967	503.44
287.809	412.913
292.648	295.936
297.485	297.593
302.319	155.36
307.151	236.314
311.98	273.775
316.807	343.634
321.631	277.654
326.454	239.565
331.273	272.342
336.09	367.962
340.905	276.384
345.717	241.545
350.527	271.449
355.334	258.801
360.139	413.336
364.941	418.333
369.741	343.68
374.538	326.732
379.333	398.795
384.126	415.75
388.916	359.691
393.703	398.096
398.488	288.728
403.271	280.84
408.051	259.759
412.828	154.507
417.603	90.3276
422.376	75.1025
427.146	64.8687
431.914	150.792
436.679	179.014
441.442	640.964
446.202	1115.2
450.96	2127.1
455.715	4035.64
460.467	7128.91
465.218	14175.6
469.965	38661.7
474.711	44741
479.454	16272.5
484.194	6578.12
488.932	3537.8
493.667	2030.07
498.4	1414.72
503.13	1168.74
507.858	1040.3
512.583	1004.77
517.306	1000.34
522.026	1048.66
526.744	730.67
531.459	696.186
536.172	761.096
540.882	739.414
545.59	668.701
550.295	597.712
554.998	528.777
559.698	539.757
564.396	386.214
569.091	432.481
573.784	243.777
578.474	228.661
583.162	191.701
587.847	80.4595
592.529	79.5625
597.209	229.552
601.887	27.6699
606.562	60.9121
611.235	88.2505
615.905	106.721
620.572	128.179
625.237	77.8667
629.9	213.6
634.56	310.371
639.217	262.242
643.872	298.844
648.524	107.607
653.174	192.509
657.821	96.3687
662.466	31.3018
667.108	72.6113
671.748	13.2261
676.385	44.102
681.02	3.37402
685.652	23.6367
690.281	16.2246
694.908	18.3008
699.533	48.5703
704.155	66.5615
708.774	12.7759
713.391	20.396
718.005	147.273
722.617	86.6343
727.226	153.651
731.833	169.338
736.437	159.72
741.039	136.794
745.638	222.557
750.234	106.003
754.828	40.1284
759.419	164.899
764.008	116.336
768.595	155.44
773.178	143.211
777.759	152.644
782.338	204.747
786.914	145.52
791.488	198.96
796.059	136.061
800.627	177.094
805.193	93.0205
809.756	38.5859
814.317	88.8877
818.875	194.29
823.431	56.5225
827.984	15.501
832.534	121.902
837.082	5.99512
841.627	66.6221
846.17	3.63086
850.71	109.345
855.248	178.363
859.783	127.562
864.316	70.3818
868.846	222.773
873.373	140.263
877.898	151.608
882.42	148.81
886.94	257.854
891.457	199.077
895.971	387.718
900.483	357.329
904.993	591.944
909.5	577.541
914.004	820.129
918.505	1048.99
923.004	1252.63
927.501	1329.05
931.995	875.421
936.486	657.738
940.975	442.505
945.461	511.902
949.945	265.137
954.426	286.557
958.904	197.13
963.38	171.779
967.853	133.538
972.324	223.663
976.792	241.832
981.258	293.089
985.72	378.25
990.181	270.864
994.639	310.562
999.094	424.349
1003.55	360.326
1008	279.328
1012.44	190.462
1016.89	192.938
1021.33	346.681
1025.77	290.937
1030.21	265.416
1034.64	257.571
1039.07	281.056
1043.5	385.007
1047.93	436.66
1052.35	319.095
1056.78	290.796
1061.19	447.269
1065.61	300.123
1070.02	645.173
1074.43	409.357
1078.84	342.962
1083.25	475.269
1087.65	371.643
1092.05	269.306
1096.45	392.955
1100.85	182.863
1105.24	244.288
1109.63	236.651
1114.02	296.818
1118.4	685.583
1122.78	1022.27
1127.16	782.646
1131.54	236.051
1135.92	19.4834
1140.29	2.06445
1144.66	92.4023
1149.02	98.875
1153.39	2.31445
1157.75	192.773
1162.11	104.181
1166.46	48.5195
1170.82	13.7725
1175.17	32.2695
1179.52	59.5645
1183.86	107.977
1188.21	2.49023
1192.55	46.0117
1196.89	16.3711
1201.22	85.5137
1205.55	93.6426
1209.88	126.732
1214.21	154.811
1218.54	0.073242
1222.86	27.043
1227.18	112.17
1231.5	4.30371
1235.81	27.4307
1240.12	73.5488
1244.43	67.2998
1248.74	109.8
1253.04	114.927
1257.34	94.1699
1261.64	199.443
1265.94	95.7275
1270.23	242.837
1274.52	179.214
1278.81	245.606
1283.1	173.006
1287.38	24.418
1291.66	202.712
1295.94	281.132
1300.21	320.887
1304.48	297.49
1308.75	295.218
1313.02	203.66
1317.29	206.944
1321.55	313.684
1325.81	287.675
1330.06	211.171
1334.32	220.664
1338.57	332.872
1342.82	286.753
1347.06	184.504
1351.31	325.837
1355.55	299.961
1359.79	315.076
1364.02	258.031
1368.26	246.475
1372.49	280.131
1376.71	325.725
1380.94	246.367
1385.16	259.665
1389.38	179.517
1393.6	271.085
1397.81	117.958
1402.02	136.381
1406.23	82.3291
1410.44	40.1426
1414.64	134.205
1418.85	126.844
1423.04	137.168
1427.24	189.015
1431.43	148.8
1435.62	126.431
1439.81	163.028
1444	146.223
1448.18	123.429
1452.36	110.212
1456.54	98.2734
1460.71	75.4736
1464.89	41.8057
1469.06	25.3018
1473.22	80.9668
1477.39	81.7647
1481.55	170.357
1485.71	40.9707
1489.86	126.584
1494.02	55.334
1498.17	89.2686
1502.32	145.681
1506.46	75.7949
1510.61	51.2197
1514.75	158.699
1518.88	9.38965
1523.02	61.5254
1527.15	230.202
1531.28	243.941
1535.41	87.084
1539.53	88.8106
1543.66	134.5
1547.78	112.186
1551.89	301.639
1556.01	331.361
1560.12	210.815
1564.23	153.702
1568.33	129.961
