Measurement: Raman, 514 nm, ccw, Raman Data Processed
Mineral: Covellite
Rruff sample: R060143
Ideal chemistry: CuS
Locality: Butte, Montana, USA
Source: Marcus Origlieri
Description: Irridescent blue to purple hexagonal plates
Measured chemistry: Cu_1.00_S_1.00_
Pin_id: L00879
Orientation: Laser parallel to c* (0 0 1). Fiducial mark perpendicular to laser is parallel to b [0 1 0]
Raman shift (cm-1)	intensity
164.811	0
169.711	351.041
174.61	264.997
179.505	283.55
184.399	467.589
189.29	841.08
194.178	1317.42
199.064	1522.55
203.948	1330.78
208.829	233.567
213.708	208.494
218.585	31.8037
223.459	125.705
228.33	31.291
233.199	18.2803
238.066	7.41211
242.93	186.023
247.792	376.003
252.651	775.613
257.508	2607.04
262.363	2007.68
267.215	1741.92
272.064	1339.8
276.912	1078.99
281.756	959.856
286.598	1052.05
291.438	1447.6
296.276	1332.53
301.111	1156.87
305.943	1213.63
310.773	1128.64
315.601	867.055
320.426	1151.79
325.248	1667.25
330.068	2335.88
334.886	2781.14
339.701	3271.51
344.514	2419.29
349.324	1810.03
354.132	1531.38
358.938	973.5
363.741	728.794
368.541	445.397
373.339	671.967
378.135	272.648
382.928	78.9102
387.718	72.8184
392.506	154.328
397.292	330.822
402.075	1075.23
406.856	3580.51
411.634	12142
416.41	2879.56
421.183	761.289
425.954	465.025
430.722	427.779
435.488	615.615
440.251	425.557
445.012	843.406
449.77	1610.04
454.526	3198.45
459.28	5463.41
464.03	10691.9
468.779	28537
473.525	40483.7
478.268	15304.2
483.009	5931.77
487.747	2824.7
492.483	1769.69
497.217	1111.02
501.948	699.336
506.676	838.293
511.402	627.92
516.125	780.715
520.846	628.51
525.565	595.887
530.281	573.338
534.994	598.582
539.705	701.771
544.413	689.09
549.119	746.965
553.822	725.268
558.523	656.891
563.222	621.18
567.917	707.707
572.611	556.644
577.302	502.934
581.99	216.486
586.676	392.027
591.359	273.9
596.04	227.996
600.718	406.695
605.394	117.053
610.067	104.473
614.737	91.6758
619.406	4.42188
624.071	176.328
628.734	28.3906
633.395	8.10156
638.053	159.568
642.708	153.357
647.361	78.2773
652.012	119.088
656.66	97.7715
661.305	262.062
665.948	178.719
670.588	134.992
675.226	19.0371
679.861	187.408
684.494	139.504
689.124	24.332
693.752	54.1934
698.377	124.594
702.999	187.67
707.619	64.8125
712.237	82.9375
716.852	93.0703
721.464	107.766
726.074	75.3828
730.681	40.0703
735.286	75.8008
739.888	49.0059
744.488	209.791
749.085	17.0547
753.68	161.633
758.272	84.9336
762.861	63.3809
767.448	225.193
772.033	225.225
776.614	170.941
781.194	146.527
785.77	184.701
790.345	94.4824
794.916	511.893
799.485	378.904
804.052	339.912
808.616	354.826
813.177	396.123
817.736	390.783
822.292	303.9
826.846	456.867
831.397	282.4
835.945	147.518
840.491	332.598
845.035	385.148
849.576	212.094
854.114	25.0469
858.65	79.2207
863.183	16.0371
867.713	94.9414
872.241	45.6621
876.767	23.5234
881.29	8.48242
885.81	69.7422
890.328	103.654
894.843	167.15
899.356	72.2207
903.866	484.082
908.373	605.99
912.878	590.057
917.38	784.014
921.88	1132.62
926.377	1063.87
930.872	895.736
935.364	555.658
939.853	629.869
944.34	345.385
948.824	365.162
953.306	280.309
957.785	576.709
962.261	496.539
966.735	566.012
971.207	427.984
975.675	490.402
980.141	586.199
984.605	312.522
989.066	605.371
993.524	470.488
997.98	420.633
1002.43	468.172
1006.88	439.603
1011.33	184.481
1015.78	341.305
1020.22	336.035
1024.66	309.519
1029.1	348.955
1033.53	400.91
1037.97	303.109
1042.4	429.623
1046.82	172.842
1051.25	489.547
1055.67	376.117
1060.09	441.367
1064.51	415.641
1068.92	531.859
1073.33	492.348
1077.74	343.795
1082.15	385.428
1086.55	409.055
1090.95	586.65
1095.35	337.67
1099.75	434.668
1104.14	327.344
1108.53	308.08
1112.92	456.148
1117.31	575.467
1121.69	531.652
1126.07	444.309
1130.45	427.232
1134.82	177.922
1139.19	208.139
1143.57	100.26
1147.93	65.8965
1152.3	75.6777
1156.66	244.908
1161.02	65.584
1165.38	177.723
1169.73	91.6152
1174.08	113.031
1178.43	242.26
1182.78	12.5625
1187.12	59.918
1191.46	78.6758
1195.8	10.3438
1200.14	7.97656
1204.47	40.1055
1208.8	122.01
1213.13	42.3418
1217.46	3.27734
1221.78	19.1348
1226.1	205.969
1230.42	174.07
1234.73	25.6934
1239.04	148.664
1243.35	4.41797
1247.66	26.6133
1251.97	108.371
1256.27	103.602
1260.57	103.25
1264.86	10.084
1269.16	35.5117
1273.45	138.834
1277.74	77.3789
1282.03	30.4746
1286.31	148.324
1290.59	225.777
1294.87	214.326
1299.14	26.1289
1303.42	229.34
1307.69	145.478
1311.95	259.434
1316.22	328.779
1320.48	248.975
1324.74	275.459
1329	81.9082
1333.26	270.586
1337.51	203.025
1341.76	152.615
1346	199.869
1350.25	76.7285
1354.49	79.4394
1358.73	207.15
1362.96	101.301
1367.2	197.615
1371.43	160.623
1375.66	251.766
1379.88	359.072
1384.11	156.754
1388.33	184.709
1392.54	405.781
1396.76	132.588
1400.97	180.865
1405.18	150.361
1409.39	91.2656
1413.59	212.152
1417.8	48.4629
1421.99	83.957
1426.19	170.988
1430.38	281.035
1434.58	380.961
1438.77	424.83
1442.95	486.465
1447.13	346.125
1451.32	494.606
1455.49	453.566
1459.67	429.846
1463.84	496.209
1468.01	44.2734
1472.18	230.221
1476.35	219.777
1480.51	219.871
1484.67	128.318
1488.83	56.9023
1492.98	345.537
1497.13	114.269
1501.28	156.295
1505.43	184.627
1509.57	87.0215
1513.71	26.4746
1517.85	142.344
1521.99	42.7324
1526.12	108.367
1530.25	208.596
1534.38	139.299
1538.5	310.522
1542.62	86.9375
1546.74	90.1348
1550.86	393.234
1554.98	496.574
1559.09	52.834
1563.2	21.6875
1567.31	282.334
1571.41	216.307
