Measurement: Raman, 514 nm, ccw, Raman Data Processed
Mineral: Covellite
Rruff sample: R060143
Ideal chemistry: CuS
Locality: Butte, Montana, USA
Source: Marcus Origlieri
Description: Irridescent blue to purple hexagonal plates
Measured chemistry: Cu_1.00_S_1.00_
Pin_id: L00760
Orientation: Laser parallel to -a* (-1 0 0). Fiducial mark perpendicular to laser is parallel to -c [0 0 -1]
Raman shift (cm-1)	intensity
164.811	0
169.711	364.262
174.61	79.8589
179.505	314.177
184.399	622.602
189.29	1074.33
194.178	1616.27
199.064	2076.36
203.948	1581.82
208.829	240.537
213.708	405.486
218.585	132.572
223.459	6.39453
228.33	30.9033
233.199	66.5571
238.066	32.563
242.93	124.311
247.792	233.16
252.651	695.135
257.508	2053.39
262.363	3537.65
267.215	1448.08
272.064	866.058
276.912	667.7
281.756	344.277
286.598	274.428
291.438	251.027
296.276	195.128
301.111	10.7231
305.943	50.7773
310.773	0.500977
315.601	53.5737
320.426	14.1245
325.248	122.107
330.068	227.807
334.886	190.197
339.701	319.449
344.514	265.481
349.324	275.632
354.132	243.88
358.938	144.134
363.741	288.859
368.541	258.113
373.339	118.584
378.135	209.315
382.928	162.811
387.718	190.571
392.506	268.794
397.292	132.918
402.075	224.429
406.856	371.44
411.634	582.824
416.41	203.478
421.183	77.4575
425.954	73.8589
430.722	194.448
435.488	320.947
440.251	611.715
445.012	976.008
449.77	2025.54
454.526	3972.6
459.28	6931.67
464.03	13403.4
468.779	36736.4
473.525	54768.5
478.268	20268.6
483.009	7750.5
487.747	3995.9
492.483	2423.5
497.217	1624.41
501.948	1265.63
506.676	953.047
511.402	856.987
516.125	933.752
520.846	716.926
525.565	718.473
530.281	670.317
534.994	839.368
539.705	758.921
544.413	715.685
549.119	707.429
553.822	629.608
558.523	565.779
563.222	480.709
567.917	462.629
572.611	249.895
577.302	215.001
581.99	155.59
586.676	282.586
591.359	251.623
596.04	185.696
600.718	198.75
605.394	186.773
610.067	224.747
614.737	47.6387
619.406	105.439
624.071	51.1611
628.734	41.727
633.395	71.1733
638.053	108.49
642.708	69.667
647.361	75.7202
652.012	92.2114
656.66	0.150879
661.305	16.2988
665.948	2.8169
670.588	11.6763
675.226	11.019
679.861	3.46387
684.494	33.1143
689.124	79.9868
693.752	139.091
698.377	94.564
702.999	14.3032
707.619	44.523
712.237	16.3149
716.852	71.0254
721.464	189.88
726.074	277.386
730.681	261.518
735.286	255.442
739.888	326.053
744.488	261.349
749.085	244.33
753.68	201.998
758.272	227.344
762.861	227.785
767.448	213.519
772.033	222.948
776.614	170.998
781.194	109.719
785.77	114.248
790.345	162.366
794.916	15.4585
799.485	104.773
804.052	128.815
808.616	96.7524
813.177	40.3628
817.736	20.6055
822.292	44.917
826.846	42.4614
831.397	108.307
835.945	11.7139
840.491	99.959
845.035	35.5083
849.576	47.4624
854.114	31.8169
858.65	82.5102
863.183	15.4727
867.713	19.6484
872.241	104.915
876.767	86.5322
881.29	141.108
885.81	123.653
890.328	268.178
894.843	325.191
899.356	295.804
903.866	463.869
908.373	568.342
912.878	842.991
917.38	1123.68
921.88	1446.36
926.377	1573.52
930.872	1265.88
935.364	936.02
939.853	613.117
944.34	611.706
948.824	564.816
953.306	437.361
957.785	396.723
962.261	372.871
966.735	329.565
971.207	329.821
975.675	326.685
980.141	441.837
984.605	365.25
989.066	441.938
993.524	421.552
997.98	504.828
1002.43	479.496
1006.88	424.312
1011.33	409.357
1015.78	351.678
1020.22	426.235
1024.66	376.032
1029.1	366.3
1033.53	374.698
1037.97	336.36
1042.4	377.847
1046.82	341.258
1051.25	476.865
1055.67	478.715
1060.09	560.598
1064.51	430.968
1068.92	559.764
1073.33	442.466
1077.74	528.065
1082.15	490.742
1086.55	482.021
1090.95	469.803
1095.35	407.53
1099.75	331.755
1104.14	290.773
1108.53	276.857
1112.92	284.108
1117.31	320.486
1121.69	431.062
1126.07	326.788
1130.45	198.453
1134.82	121.5
1139.19	230.72
1143.57	239.746
1147.93	119.735
1152.3	126.302
1156.66	38.2168
1161.02	61.6055
1165.38	152.477
1169.73	4.84717
1174.08	54.1953
1178.43	57.0977
1182.78	65.1235
1187.12	55.2036
1191.46	67.2739
1195.8	17.9976
1200.14	121.186
1204.47	43.0195
1208.8	37.8677
1213.13	1.02588
1217.46	59.7612
1221.78	33.3921
1226.1	67.9053
1230.42	15.6104
1234.73	96.6963
1239.04	175.684
1243.35	65.0498
1247.66	80.8037
1251.97	55.8804
1256.27	127.971
1260.57	12.4209
1264.86	218.073
1269.16	57.769
1273.45	96.542
1277.74	110.173
1282.03	43.856
1286.31	27.0718
1290.59	114.705
1294.87	66.5273
1299.14	56.1025
1303.42	112.992
1307.69	98.6255
1311.95	106.141
1316.22	173.506
1320.48	26.0601
1324.74	54.0815
1329	137.345
1333.26	95.4526
1337.51	36.1567
1341.76	183.945
1346	114.737
1350.25	155.308
1354.49	71.9722
1358.73	206.097
1362.96	204.644
1367.2	183.704
1371.43	182.372
1375.66	215.118
1379.88	197.025
1384.11	155.514
1388.33	192.344
1392.54	95.2891
1396.76	199.246
1400.97	196.108
1405.18	45.1665
1409.39	91.7417
1413.59	132.633
1417.8	80.0322
1421.99	6.29346
1426.19	14.7422
1430.38	181.253
1434.58	110.766
1438.77	110.034
1442.95	156.469
1447.13	132.838
1451.32	166.878
1455.49	37.1133
1459.67	110.714
1463.84	92.6328
1468.01	85.4341
1472.18	87.1235
1476.35	71.5361
1480.51	149.568
1484.67	62.6519
1488.83	112.453
1492.98	143.659
1497.13	118.664
1501.28	29.1939
1505.43	170.112
1509.57	18.7119
1513.71	31.894
1517.85	159.941
1521.99	29.897
1526.12	112.624
1530.25	51.9839
1534.38	94.4805
1538.5	154.305
1542.62	124.665
1546.74	31.856
1550.86	118.477
1554.98	128.606
1559.09	151.273
1563.2	1.86865
1567.31	37.2573
1571.41	122.878
