Measurement: Raman, 514 nm, ccw, Raman Data Processed
Mineral: Covellite
Rruff sample: R060129
Ideal chemistry: CuS
Locality: Butte, Montana, USA
Source: University of Arizona Mineral Museum
Description: Iridescent blue metallic hexagonal plates
Measured chemistry: Cu_1.00_S_1.00_
Pin_id: L00520
Orientation: Laser parallel to -a* (-1 0 0). Fiducial mark perpendicular to laser is parallel to c [0 0 1]
Raman shift (cm-1)	intensity
126.749	0
131.668	1286.61
136.585	4217.31
141.5	2916.81
146.412	743.792
151.321	683.795
156.229	201.475
161.134	126.867
166.036	96.3457
170.936	380.383
175.834	253.655
180.729	450.614
185.622	748.421
190.512	868.939
195.4	976.007
200.286	1239.52
205.169	473.776
210.049	22.5405
214.928	66.3389
219.803	2.13062
224.677	43.239
229.548	44.5281
234.416	12.4192
239.282	2.08935
244.146	50.1904
249.007	349.708
253.866	878.409
258.722	2040.32
263.576	1702.59
268.427	1212.95
273.276	650.271
278.123	456.73
282.967	257.125
287.809	253.064
292.648	173.142
297.485	219.663
302.319	153.227
307.151	143.379
311.98	118.006
316.807	172.18
321.631	139.151
326.454	145.58
331.273	236.575
336.09	233.516
340.905	205.513
345.717	220.924
350.527	117.987
355.334	302.965
360.139	186.511
364.941	227.649
369.741	246.062
374.538	203.468
379.333	238.347
384.126	152.492
388.916	169.515
393.703	103.922
398.488	218.216
403.271	159.219
408.051	175.632
412.828	197.475
417.603	71.5549
422.376	187.291
427.146	146.231
431.914	305.829
436.679	351.283
441.442	742.224
446.202	1232.67
450.96	2306.49
455.715	4231.51
460.467	7612.69
465.218	16738.6
469.965	44633.4
474.711	35849.7
479.454	12621.9
484.194	5166.99
488.932	2844.98
493.667	1789.02
498.4	1229.84
503.13	899.079
507.858	836.142
512.583	702.313
517.306	750.755
522.026	712.96
526.744	530.443
531.459	561.341
536.172	630.429
540.882	658.91
545.59	517.658
550.295	571.742
554.998	533.165
559.698	336.263
564.396	432.202
569.091	264.992
573.784	219.563
578.474	139.356
583.162	159.583
587.847	208.92
592.529	61.3555
597.209	84.8735
601.887	105.421
606.562	145.994
611.235	122.568
615.905	26.8787
620.572	111.617
625.237	29.0623
629.9	52.4453
634.56	5.70801
639.217	29.1672
643.872	21.0527
648.524	18.4168
653.174	9.90576
657.821	6.49536
662.466	16.3723
667.108	20.1018
671.748	27.6011
676.385	12.7522
681.02	16.6287
685.652	8.44531
690.281	22.1916
694.908	52.8884
699.533	6.30737
704.155	31.7378
708.774	67.3289
713.391	12.2129
718.005	110.307
722.617	136.742
727.226	195.335
731.833	136.109
736.437	241.131
741.039	226.85
745.638	248.296
750.234	249.533
754.828	191.8
759.419	178.479
764.008	192.716
768.595	127.01
773.178	166.9
777.759	84.5164
782.338	115.132
786.914	201.183
791.488	47.0293
796.059	108.431
800.627	55.8359
805.193	31.7151
809.756	14.2959
814.317	31.0659
818.875	60.1787
823.431	6.3501
827.984	15.3049
832.534	18.1179
837.082	2.65869
841.627	85.6375
846.17	8.6001
850.71	8.74487
855.248	39.459
859.783	7.63721
864.316	47.0967
868.846	58.7075
873.373	96.2061
877.898	112.661
882.42	40.0801
886.94	38.4707
891.457	181.846
895.971	200.22
900.483	264.597
904.993	383.989
909.5	525.43
914.004	812.919
918.505	1058.52
923.004	1242.2
927.501	1347.54
931.995	984.518
936.486	616.613
940.975	471.579
945.461	366.273
949.945	315.526
954.426	203.824
958.904	285.631
963.38	234.208
967.853	233.586
972.324	401.271
976.792	391.289
981.258	344.361
985.72	425.005
990.181	365.92
994.639	382.742
999.094	377.683
1003.55	299.675
1008	357.364
1012.44	301.224
1016.89	388.264
1021.33	241.475
1025.77	292.915
1030.21	217.556
1034.64	268.416
1039.07	273.463
1043.5	282.711
1047.93	344.154
1052.35	334.773
1056.78	359.652
1061.19	339.897
1065.61	412.424
1070.02	376.812
1074.43	330.368
1078.84	279.475
1083.25	373.161
1087.65	302.472
1092.05	353.234
1096.45	287.637
1100.85	270.807
1105.24	259.096
1109.63	242.296
1114.02	291.244
1118.4	390.954
1122.78	489.562
1127.16	262.009
1131.54	143.748
1135.92	162.532
1140.29	109.248
1144.66	74.6865
1149.02	95.5483
1153.39	52.3603
1157.75	123.233
1162.11	6.26807
1166.46	90.1074
1170.82	66.2295
1175.17	65.7588
1179.52	18.9893
1183.86	40.2373
1188.21	9.5459
1192.55	10.0645
1196.89	50.0933
1201.22	1.70361
1205.55	8.52051
1209.88	49.3301
1214.21	39.2969
1218.54	65.6118
1222.86	49.4419
1227.18	45.2398
1231.5	21.9946
1235.81	53.5991
1240.12	43.7935
1244.43	34.4346
1248.74	19.2607
1253.04	3.2417
1257.34	87.6724
1261.64	40.5073
1265.94	35.3066
1270.23	26.8467
1274.52	39.4341
1278.81	42.0117
1283.1	7.54199
1287.38	19.9697
1291.66	45.1523
1295.94	46.1313
1300.21	18.0151
1304.48	165.75
1308.75	143.38
1313.02	50.9214
1317.29	2.11035
1321.55	120.267
1325.81	34.5454
1330.06	120.72
1334.32	74.2314
1338.57	140.045
1342.82	74.3408
1347.06	102.142
1351.31	190.358
1355.55	103.01
1359.79	49.0283
1364.02	59.1187
1368.26	116.638
1372.49	132.541
1376.71	80.4038
1380.94	89.3779
1385.16	101.345
1389.38	156.573
1393.6	5.4585
1397.81	93.4663
1402.02	56.1313
1406.23	94.3804
1410.44	31.6372
1414.64	92.8848
1418.85	58.7031
1423.04	109.656
1427.24	59.5996
1431.43	102.017
1435.62	120.27
1439.81	111.407
1444	13.9468
1448.18	118.288
1452.36	99.8618
1456.54	49.2178
1460.71	60.5942
1464.89	6.03369
1469.06	69.2925
1473.22	82.7246
1477.39	36.206
1481.55	100.875
1485.71	7.76416
1489.86	111.71
1494.02	105.873
1498.17	30.5132
1502.32	28.3779
1506.46	48.3804
1510.61	54.2837
1514.75	40.2373
1518.88	112.249
1523.02	56.793
1527.15	6.0835
1531.28	99.5225
1535.41	133.352
1539.53	19.9727
1543.66	115.631
1547.78	133.21
1551.89	750.467
1556.01	229.344
1560.12	103.287
1564.23	42.9673
1568.33	42.2881
1572.43	0
