Measurement: Raman, 514 nm, ccw, Raman Data Processed
Mineral: Covellite
Rruff sample: R060143
Ideal chemistry: CuS
Locality: Butte, Montana, USA
Source: Marcus Origlieri
Description: Irridescent blue to purple hexagonal plates
Measured chemistry: Cu_1.00_S_1.00_
Pin_id: L00879
Orientation: Laser parallel to c* (0 0 1). Fiducial mark perpendicular to laser is parallel to b [0 1 0]
Raman shift (cm-1)	intensity
164.811	0
169.711	270.848
174.61	51.5283
179.505	507.805
184.399	541.748
189.29	854.681
194.178	1368.52
199.064	1593.73
203.948	1261.67
208.829	57.6826
213.708	396.196
218.585	50.4238
223.459	34.1523
228.33	4.41992
233.199	15.1934
238.066	134.279
242.93	29.5508
247.792	377.123
252.651	1010.16
257.508	2687.79
262.363	2363.39
267.215	1855.22
272.064	1317.49
276.912	1216.96
281.756	1038.02
286.598	1210.49
291.438	1154.84
296.276	1367.53
301.111	1451.45
305.943	1391.62
310.773	1154.56
315.601	994.657
320.426	984.719
325.248	2012.02
330.068	2469.02
334.886	2942.09
339.701	3232.6
344.514	2551.33
349.324	1874.68
354.132	1490.6
358.938	1069.24
363.741	800.179
368.541	503.831
373.339	297.493
378.135	133.794
382.928	18.6143
387.718	26.7295
392.506	114.534
397.292	310.86
402.075	1194.08
406.856	3926.3
411.634	12890.4
416.41	2665.52
421.183	690.664
425.954	568.976
430.722	566.264
435.488	629.49
440.251	424.603
445.012	785.699
449.77	1561.68
454.526	3177.36
459.28	5716.44
464.03	10951.9
468.779	29461.9
473.525	40862.3
478.268	15428.3
483.009	5863.89
487.747	3020.08
492.483	1644.94
497.217	1177.51
501.948	625.435
506.676	578.244
511.402	410.337
516.125	443.527
520.846	482.007
525.565	318.785
530.281	363.379
534.994	459.137
539.705	459.838
544.413	447.102
549.119	245.93
553.822	524.737
558.523	375.281
563.222	320.125
567.917	373.596
572.611	263.634
577.302	222.03
581.99	262.703
586.676	215.931
591.359	338.31
596.04	337.542
600.718	535.68
605.394	511.477
610.067	327.052
614.737	248.237
619.406	202.152
624.071	129.039
628.734	83.4463
633.395	108.52
638.053	8.20312
642.708	22.249
647.361	470.062
652.012	177.218
656.66	445.289
661.305	113.55
665.948	191.92
670.588	121.325
675.226	164.305
679.861	40.748
684.494	115.486
689.124	18.6182
693.752	96.3135
698.377	52.9678
702.999	78.5459
707.619	49.7139
712.237	125.176
716.852	6.24121
721.464	129.148
726.074	12.206
730.681	136.48
735.286	207.195
739.888	107.019
744.488	47.8242
749.085	113.832
753.68	129.694
758.272	172.109
762.861	133.113
767.448	205.683
772.033	194.829
776.614	241.566
781.194	222.681
785.77	165.624
790.345	28.1787
794.916	202.273
799.485	185.591
804.052	304.849
808.616	500.746
813.177	489.871
817.736	526.718
822.292	609.533
826.846	511.366
831.397	280.386
835.945	213.861
840.491	356.891
845.035	286.706
849.576	62.2832
854.114	87.6416
858.65	114.966
863.183	32.6875
867.713	34.2812
872.241	7.4375
876.767	22.8652
881.29	89.7539
885.81	119.363
890.328	125.607
894.843	137.147
899.356	318.731
903.866	330.635
908.373	469.264
912.878	750.676
917.38	932.238
921.88	1089.45
926.377	1215.71
930.872	892.291
935.364	452.531
939.853	569.449
944.34	457.566
948.824	271.941
953.306	465.732
957.785	319.08
962.261	453.93
966.735	472.199
971.207	513.109
975.675	431.117
980.141	421.621
984.605	453.215
989.066	246.94
993.524	516.553
997.98	255.678
1002.43	484.318
1006.88	344.26
1011.33	409.156
1015.78	286.037
1020.22	126.615
1024.66	216.228
1029.1	122.484
1033.53	199.889
1037.97	254.666
1042.4	681.562
1046.82	467.799
1051.25	389.586
1055.67	256.748
1060.09	460.75
1064.51	568.693
1068.92	406.062
1073.33	476.76
1077.74	381.51
1082.15	579.873
1086.55	483.506
1090.95	1011.15
1095.35	443.348
1099.75	268.684
1104.14	394.406
1108.53	474.867
1112.92	479.068
1117.31	633.494
1121.69	754.627
1126.07	593.527
1130.45	326.262
1134.82	343.531
1139.19	226.086
1143.57	165.385
1147.93	253.293
1152.3	188.432
1156.66	224.416
1161.02	137.816
1165.38	104.254
1169.73	66.1367
1174.08	84.7578
1178.43	105.307
1182.78	137.894
1187.12	273.953
1191.46	109.674
1195.8	4.89844
1200.14	104.482
1204.47	14.9121
1208.8	55.6777
1213.13	212.066
1217.46	126.492
1221.78	172.676
1226.1	53.8281
1230.42	147.91
1234.73	126.871
1239.04	320.869
1243.35	82.7832
1247.66	113.574
1251.97	202.35
1256.27	109.1
1260.57	263.66
1264.86	43.1035
1269.16	39.4746
1273.45	125.766
1277.74	155.709
1282.03	137.789
1286.31	256.992
1290.59	49.627
1294.87	240.666
1299.14	44.498
1303.42	120.221
1307.69	57.3574
1311.95	6.14258
1316.22	238.643
1320.48	104.478
1324.74	198.537
1329	157.375
1333.26	159.356
1337.51	125.961
1341.76	295.414
1346	150.074
1350.25	207.34
1354.49	330.484
1358.73	211.656
1362.96	53.4941
1367.2	59.3789
1371.43	160.978
1375.66	150.369
1379.88	136.285
1384.11	93.5566
1388.33	405.098
1392.54	163.961
1396.76	118.994
1400.97	134.307
1405.18	158.144
1409.39	69.1523
1413.59	62.2363
1417.8	146.762
1421.99	53.9883
1426.19	139.666
1430.38	337.988
1434.58	409.217
1438.77	417.902
1442.95	537.775
1447.13	399.346
1451.32	494.885
1455.49	574.467
1459.67	328.041
1463.84	599.67
1468.01	313.238
1472.18	418.623
1476.35	261.736
1480.51	279.832
1484.67	258.385
1488.83	184.078
1492.98	168.728
1497.13	33.6074
1501.28	124.061
1505.43	205.91
1509.57	90.1348
1513.71	47.8477
1517.85	44.7598
1521.99	142.685
1526.12	293.69
1530.25	190.029
1534.38	39.9609
1538.5	128.871
1542.62	167.086
1546.74	52.8887
1550.86	520.359
1554.98	825.547
1559.09	37.9414
1563.2	92.5566
1567.31	306.244
1571.41	98.2188
