Measurement: Raman, 514 nm, ccw, Raman Data Processed
Mineral: Covellite
Rruff sample: R060129
Ideal chemistry: CuS
Locality: Butte, Montana, USA
Source: University of Arizona Mineral Museum
Description: Iridescent blue metallic hexagonal plates
Measured chemistry: Cu_1.00_S_1.00_
Pin_id: L00520
Orientation: Laser parallel to -a* (-1 0 0). Fiducial mark perpendicular to laser is parallel to c [0 0 1]
Raman shift (cm-1)	intensity
126.749	0
131.668	730.444
136.585	1633.95
141.5	1022.47
146.412	392.619
151.321	554.053
156.229	78.1846
161.134	52.502
166.036	204.772
170.936	294.402
175.834	172.701
180.729	266.074
185.622	462.213
190.512	566.961
195.4	680.887
200.286	911.186
205.169	236.06
210.049	14.71
214.928	17.0684
219.803	0.712402
224.677	12.5161
229.548	42.6067
234.416	9.61377
239.282	112.59
244.146	328.528
249.007	905.47
253.866	1852.92
258.722	3099.62
263.576	2690.23
268.427	1693.53
273.276	820.427
278.123	407.043
282.967	76.9871
287.809	50.2043
292.648	34.3716
297.485	21.4946
302.319	2.9043
307.151	16.7898
311.98	5.7207
316.807	5.69043
321.631	28.1003
326.454	23.3596
331.273	78.7644
336.09	40.4907
340.905	10.8345
345.717	72.7625
350.527	30.074
355.334	13.6785
360.139	75.1738
364.941	15.053
369.741	39.8706
374.538	39.656
379.333	117.052
384.126	196.25
388.916	135.25
393.703	128.897
398.488	191.661
403.271	158.596
408.051	180.81
412.828	170.827
417.603	202.236
422.376	177.501
427.146	252.904
431.914	416.975
436.679	641.51
441.442	1027.29
446.202	1856.46
450.96	3470.86
455.715	6190.1
460.467	11111.3
465.218	27541.6
469.965	58334.7
474.711	38554.7
479.454	13944.2
484.194	5956.2
488.932	3214.52
493.667	2171.59
498.4	1492.88
503.13	994.926
507.858	833.278
512.583	753.021
517.306	710.726
522.026	694.181
526.744	607.566
531.459	656.244
536.172	663.965
540.882	581.936
545.59	525.216
550.295	498.837
554.998	401.208
559.698	381.121
564.396	347.29
569.091	327.336
573.784	270.942
578.474	547.383
583.162	286.408
587.847	244.311
592.529	266.253
597.209	352.19
601.887	303.091
606.562	208.951
611.235	211.773
615.905	205.541
620.572	148.232
625.237	53.8479
629.9	39.425
634.56	11.9854
639.217	76.3447
643.872	10.5317
648.524	39.7036
653.174	4.36499
657.821	5.41406
662.466	19.3201
667.108	39.2434
671.748	33.9458
676.385	24.781
681.02	35.6133
685.652	12.0315
690.281	40.7483
694.908	57.1562
699.533	11.6729
704.155	8.88208
708.774	66.3635
713.391	20.5161
718.005	114.597
722.617	169.131
727.226	234.47
731.833	203.61
736.437	278.55
741.039	321.298
745.638	256.61
750.234	268.623
754.828	187.095
759.419	179.041
764.008	230.79
768.595	48.1553
773.178	122.847
777.759	115.489
782.338	51.1853
786.914	101.588
791.488	67.4941
796.059	84.23
800.627	47.8367
805.193	42.1138
809.756	49.0342
814.317	66.1111
818.875	66.1826
823.431	43.5207
827.984	28.7158
832.534	2.06641
837.082	14.1909
841.627	11.761
846.17	5.85742
850.71	11.2236
855.248	15.5945
859.783	22.5647
864.316	37.4902
868.846	49.377
873.373	19.2322
877.898	65.064
882.42	54.8652
886.94	82.6404
891.457	122.413
895.971	241.189
900.483	280.975
904.993	331.678
909.5	632.512
914.004	838.436
918.505	1026.37
923.004	1269.35
927.501	1526.44
931.995	1150.76
936.486	816.489
940.975	638.811
945.461	506.162
949.945	384.9
954.426	274.418
958.904	283.997
963.38	271.643
967.853	409.681
972.324	475.015
976.792	353.65
981.258	292.01
985.72	311.147
990.181	265.829
994.639	322.69
999.094	348.704
1003.55	336.875
1008	252.325
1012.44	322
1016.89	266.065
1021.33	292.055
1025.77	201.203
1030.21	230.509
1034.64	268.975
1039.07	271.619
1043.5	218.478
1047.93	314.947
1052.35	266.151
1056.78	283.531
1061.19	276.566
1065.61	338.373
1070.02	350.253
1074.43	295.571
1078.84	231.571
1083.25	275.942
1087.65	305.084
1092.05	284.592
1096.45	334.348
1100.85	234.538
1105.24	245.776
1109.63	208.39
1114.02	200.952
1118.4	330.172
1122.78	391.438
1127.16	220.888
1131.54	173.837
1135.92	76.0999
1140.29	46.5808
1144.66	109.747
1149.02	41.9815
1153.39	52.2744
1157.75	51.6372
1162.11	48.1709
1166.46	33.6604
1170.82	63.7349
1175.17	31.0408
1179.52	7.10181
1183.86	29.6758
1188.21	62.2046
1192.55	55.2534
1196.89	69.1919
1201.22	15.2498
1205.55	44.2883
1209.88	50.7097
1214.21	6.9165
1218.54	9.40088
1222.86	55.5681
1227.18	25.6782
1231.5	108.731
1235.81	0.822998
1240.12	41.772
1244.43	17.6636
1248.74	5.50415
1253.04	6.23731
1257.34	19.1621
1261.64	13.4204
1265.94	42.126
1270.23	52.9898
1274.52	34.9299
1278.81	40.8506
1283.1	43.6707
1287.38	17.7707
1291.66	60.4683
1295.94	46.094
1300.21	98.6506
1304.48	11.9658
1308.75	68.9663
1313.02	92.0867
1317.29	130.127
1321.55	11.6052
1325.81	141.341
1330.06	116.622
1334.32	73.6392
1338.57	56.7395
1342.82	121.5
1347.06	118.74
1351.31	111.354
1355.55	86.8774
1359.79	80.0256
1364.02	65.0571
1368.26	122.136
1372.49	87.8218
1376.71	150.186
1380.94	104.711
1385.16	158.115
1389.38	104.929
1393.6	103.237
1397.81	37.8152
1402.02	144.499
1406.23	34.1201
1410.44	79.7114
1414.64	90.9285
1418.85	60.4194
1423.04	77.8748
1427.24	75.324
1431.43	46.2549
1435.62	104.314
1439.81	34.9653
1444	28.6633
1448.18	110.007
1452.36	92.8884
1456.54	66.1389
1460.71	25.4206
1464.89	19.6682
1469.06	30.0127
1473.22	103.285
1477.39	83.5137
1481.55	140.787
1485.71	70.2451
1489.86	52.9927
1494.02	126.671
1498.17	78.292
1502.32	85.8899
1506.46	89.583
1510.61	40.5625
1514.75	70.5
1518.88	100.186
1523.02	37.7153
1527.15	50.9985
1531.28	91.4219
1535.41	33.9922
1539.53	93.2371
1543.66	88.1011
1547.78	153.415
1551.89	431.349
1556.01	259.283
1560.12	47.7229
1564.23	9.55566
1568.33	118.953
1572.43	0
