Measurement: Raman, 514 nm, ccw, Raman Data Processed
Mineral: Covellite
Rruff sample: R060306
Ideal chemistry: CuS
Locality: 3800' level, Leonard mine, Butte, Silver Bow County, Montana, USA
Source: Michael Scott
Description: Blue iridescent metallic hexagonal plates
Measured chemistry: Cu_1.00_S_1.00_
Pin_id: M00422
Orientation: Laser parallel to -c* (0 0 -1). Fiducial mark perpendicular to laser is parallel to a [1 0 0]
Raman shift (cm-1)	intensity
92.246	0
97.182	147.708
102.116	414.981
107.047	3801.53
111.976	3395.42
116.903	3790.93
121.827	1561.27
126.749	1597.89
131.668	3240.58
136.585	6480.94
141.5	9161.78
146.412	5403.06
151.321	2629.61
156.229	1036.61
161.134	690.089
166.036	1181.27
170.936	956.372
175.834	763.03
180.729	712.047
185.622	781.369
190.512	1103
195.4	1506.32
200.286	1605.74
205.169	816.059
210.049	281.682
214.928	92.625
219.803	48.7261
224.677	228.212
229.548	161.949
234.416	224.592
239.282	131.118
244.146	24.9761
249.007	165.952
253.866	535.231
258.722	1653.46
263.576	1403.45
268.427	1386.66
273.276	774.846
278.123	587.777
282.967	428.414
287.809	303.156
292.648	331.303
297.485	318.021
302.319	348.897
307.151	151.957
311.98	179.33
316.807	364.278
321.631	250.596
326.454	160.746
331.273	355.697
336.09	412.437
340.905	317.929
345.717	262.146
350.527	270.002
355.334	408.055
360.139	433.774
364.941	369.861
369.741	485.343
374.538	319.634
379.333	290.947
384.126	328.5
388.916	373.813
393.703	488.338
398.488	352.463
403.271	315.734
408.051	238.744
412.828	189.681
417.603	94.5474
422.376	104.211
427.146	120.684
431.914	169.943
436.679	268.178
441.442	629.177
446.202	1214.62
450.96	2323.58
455.715	4500.35
460.467	7580.81
465.218	15319.6
469.965	41858.2
474.711	47567.6
479.454	17011.4
484.194	7008.13
488.932	3698.93
493.667	2308.07
498.4	1719.56
503.13	1239.26
507.858	1250.35
512.583	1073.66
517.306	1090.24
522.026	977.486
526.744	794.419
531.459	715.009
536.172	731.58
540.882	928.54
545.59	678.393
550.295	631.518
554.998	536.742
559.698	423.628
564.396	468.018
569.091	335.295
573.784	296.772
578.474	147.74
583.162	128.467
587.847	145.645
592.529	114.147
597.209	127.764
601.887	71.3921
606.562	9.86621
611.235	104.174
615.905	134.087
620.572	180.141
625.237	157.137
629.9	295.165
634.56	265.394
639.217	383.615
643.872	250.833
648.524	83.9517
653.174	83.0991
657.821	4.31104
662.466	63.2549
667.108	160.647
671.748	54.5684
676.385	83.6426
681.02	123.569
685.652	37.1763
690.281	115.27
694.908	20.5342
699.533	42.103
704.155	49.2788
708.774	1.63477
713.391	23.4854
718.005	21.4976
722.617	69.124
727.226	78.458
731.833	151.827
736.437	135.609
741.039	153.115
745.638	164.25
750.234	120.192
754.828	300.847
759.419	238.215
764.008	249.297
768.595	64.0942
773.178	275.6
777.759	122.819
782.338	15.2534
786.914	108.168
791.488	127.845
796.059	98.5518
800.627	154.79
805.193	112.823
809.756	215.683
814.317	47.1938
818.875	139.28
823.431	33.125
827.984	64.0713
832.534	34.8398
837.082	22.9375
841.627	87.9863
846.17	125.128
850.71	103.951
855.248	111.204
859.783	95.2568
864.316	77.5381
868.846	82.2695
873.373	108.97
877.898	67.707
882.42	90.3643
886.94	155.751
891.457	287.288
895.971	234.752
900.483	363.433
904.993	487.927
909.5	577.6
914.004	947.104
918.505	1265.03
923.004	1340.31
927.501	1307.97
931.995	1241.48
936.486	587.754
940.975	439.773
945.461	292.938
949.945	333.696
954.426	277.08
958.904	42.6367
963.38	234.769
967.853	119.244
972.324	163.87
976.792	84.6103
981.258	137.864
985.72	236.857
990.181	142.429
994.639	233.685
999.094	119.528
1003.55	158.648
1008	150.752
1012.44	258.425
1016.89	314.084
1021.33	223.481
1025.77	246.656
1030.21	204.097
1034.64	177.388
1039.07	136.034
1043.5	250.569
1047.93	301.643
1052.35	365.025
1056.78	240.756
1061.19	343.213
1065.61	260.517
1070.02	256.918
1074.43	399.837
1078.84	228.845
1083.25	342.945
1087.65	400.37
1092.05	253.644
1096.45	378.733
1100.85	242.184
1105.24	174.738
1109.63	303.427
1114.02	272.504
1118.4	268.317
1122.78	385.185
1127.16	291.093
1131.54	260.055
1135.92	81.1289
1140.29	141.235
1144.66	145.37
1149.02	31.5342
1153.39	33.7236
1157.75	75.8711
1162.11	59.75
1166.46	110.517
1170.82	93.1426
1175.17	33.7275
1179.52	7.29394
1183.86	52.7842
1188.21	54.0557
1192.55	5.69531
1196.89	60.544
1201.22	228.705
1205.55	233.42
1209.88	161.839
1214.21	1.89062
1218.54	93.9209
1222.86	186.949
1227.18	22.9492
1231.5	24.9463
1235.81	29.9473
1240.12	19.1934
1244.43	636.562
1248.74	74.3057
1253.04	84.0547
1257.34	86.8154
1261.64	95.3281
1265.94	63.2891
1270.23	79.2324
1274.52	147.677
1278.81	225.336
1283.1	82.0059
1287.38	134.164
1291.66	99.165
1295.94	151.709
1300.21	12.4395
1304.48	194.379
1308.75	222.919
1313.02	133.216
1317.29	245.449
1321.55	183.358
1325.81	274.82
1330.06	213.652
1334.32	207.057
1338.57	121.527
1342.82	162.722
1347.06	106.178
1351.31	205.157
1355.55	315.162
1359.79	250.11
1364.02	324.71
1368.26	254.982
1372.49	329.327
1376.71	248.653
1380.94	206.677
1385.16	263.655
1389.38	88.6455
1393.6	83.333
1397.81	102.065
1402.02	223.444
1406.23	96.5498
1410.44	119.943
1414.64	94.8037
1418.85	59.04
1423.04	200.315
1427.24	197.47
1431.43	137.401
1435.62	35.3242
1439.81	183.142
1444	58.7685
1448.18	16.2822
1452.36	136.251
1456.54	93.665
1460.71	82.5654
1464.89	84.8926
1469.06	90.4023
1473.22	7.76856
1477.39	167.034
1481.55	68.7939
1485.71	0.389648
1489.86	151.495
1494.02	13.5654
1498.17	99.5928
1502.32	50.915
1506.46	193.289
1510.61	26.6992
1514.75	104.63
1518.88	138.617
1523.02	66.7861
1527.15	178.934
1531.28	151.144
1535.41	105.863
1539.53	149.776
1543.66	142.13
1547.78	33.1826
1551.89	202.56
1556.01	255.819
1560.12	0.077148
1564.23	42.0557
1568.33	66.9648
