Measurement: Raman, 514 nm, ccw, Raman Data Processed
Mineral: Covellite
Rruff sample: R060306
Ideal chemistry: CuS
Locality: 3800' level, Leonard mine, Butte, Silver Bow County, Montana, USA
Source: Michael Scott
Description: Blue iridescent metallic hexagonal plates
Measured chemistry: Cu_1.00_S_1.00_
Pin_id: M00422
Orientation: Laser parallel to -c* (0 0 -1). Fiducial mark perpendicular to laser is parallel to a [1 0 0]
Raman shift (cm-1)	intensity
92.246	0
97.182	2.70801
102.116	584.211
107.047	4098.06
111.976	3344.86
116.903	3774.01
121.827	1741.77
126.749	1623.44
131.668	3110.51
136.585	5499.69
141.5	6163.27
146.412	2291.1
151.321	1147.79
156.229	888.658
161.134	623.9
166.036	1048.58
170.936	1055.12
175.834	672.236
180.729	761.797
185.622	929.056
190.512	1190.36
195.4	1553.7
200.286	1807.79
205.169	677.446
210.049	29.1963
214.928	133.89
219.803	55.6465
224.677	116.887
229.548	99.1494
234.416	162.144
239.282	92.2148
244.146	124.762
249.007	168.058
253.866	446.946
258.722	1513.41
263.576	1392.26
268.427	1144.71
273.276	842.096
278.123	577.849
282.967	292.841
287.809	250.41
292.648	252.795
297.485	271.329
302.319	241.381
307.151	165.383
311.98	202.31
316.807	252.005
321.631	297.104
326.454	251.215
331.273	320.315
336.09	251.381
340.905	240.751
345.717	256.151
350.527	228.834
355.334	310.505
360.139	350.185
364.941	367.985
369.741	261.269
374.538	188.709
379.333	176.632
384.126	191.449
388.916	321.812
393.703	136.321
398.488	144.047
403.271	203.18
408.051	107.43
412.828	87.3799
417.603	82.1777
422.376	183.577
427.146	133.019
431.914	262.147
436.679	388.772
441.442	721.262
446.202	1297.44
450.96	2326.94
455.715	4527.89
460.467	7324.29
465.218	14996.1
469.965	40455.6
474.711	45161.7
479.454	16166.1
484.194	6690.65
488.932	3557.77
493.667	2233.03
498.4	1492.1
503.13	1164.88
507.858	1096.65
512.583	1142.85
517.306	1113.68
522.026	924.818
526.744	756.946
531.459	796.245
536.172	742.604
540.882	867.18
545.59	879.404
550.295	745.346
554.998	682.852
559.698	596.035
564.396	598.357
569.091	618.459
573.784	526.886
578.474	382.354
583.162	287.494
587.847	284.736
592.529	122.331
597.209	168.089
601.887	154.997
606.562	107.125
611.235	94.375
615.905	74.3008
620.572	55.7412
625.237	42.624
629.9	88.2139
634.56	16.2217
639.217	29.2998
643.872	33.169
648.524	16.6885
653.174	121.857
657.821	35.2705
662.466	82.5283
667.108	22.5967
671.748	77.9365
676.385	52.4941
681.02	26.918
685.652	42.499
690.281	118.057
694.908	33.1435
699.533	47.5342
704.155	67.5635
708.774	17.9883
713.391	61.2353
718.005	0.291016
722.617	158.805
727.226	140.467
731.833	98.8848
736.437	90.7402
741.039	253.6
745.638	254.808
750.234	325.261
754.828	343.156
759.419	143.801
764.008	181.736
768.595	102.192
773.178	157.773
777.759	14.4971
782.338	81.2773
786.914	80.9336
791.488	43.3691
796.059	92.4893
800.627	5.13281
805.193	413.59
809.756	222.808
814.317	130.359
818.875	22.7803
823.431	54.4297
827.984	207.01
832.534	16.5742
837.082	28.582
841.627	33.5088
846.17	23.1328
850.71	84.6777
855.248	86.9004
859.783	37.1816
864.316	17.3789
868.846	31.4648
873.373	29.4707
877.898	134.374
882.42	91.0898
886.94	98.7588
891.457	144.82
895.971	215.196
900.483	387.802
904.993	491.49
909.5	706.244
914.004	982.225
918.505	1171.94
923.004	1344.88
927.501	1325.38
931.995	1033.17
936.486	605.336
940.975	425.795
945.461	404.376
949.945	329.6
954.426	99.1357
958.904	138.819
963.38	256.649
967.853	182.389
972.324	181.734
976.792	242.1
981.258	191.98
985.72	270.734
990.181	348.613
994.639	342.236
999.094	386.636
1003.55	208.2
1008	228.249
1012.44	132.214
1016.89	255.452
1021.33	315.961
1025.77	203.64
1030.21	172.254
1034.64	219.843
1039.07	334.413
1043.5	267.429
1047.93	411.233
1052.35	347.127
1056.78	395.118
1061.19	474.301
1065.61	373.953
1070.02	319.261
1074.43	319.729
1078.84	423.378
1083.25	320.725
1087.65	244.817
1092.05	178.275
1096.45	230.693
1100.85	351.228
1105.24	393.878
1109.63	373.325
1114.02	323.253
1118.4	329.427
1122.78	251.435
1127.16	345.507
1131.54	103.647
1135.92	389.289
1140.29	162.14
1144.66	162.52
1149.02	98.9961
1153.39	70.5225
1157.75	147.094
1162.11	122.579
1166.46	162.369
1170.82	15.5088
1175.17	132.968
1179.52	84.4951
1183.86	60.0449
1188.21	26.4971
1192.55	2.10547
1196.89	186.318
1201.22	102.565
1205.55	87.4639
1209.88	90.1787
1214.21	55.7852
1218.54	293.272
1222.86	129.632
1227.18	162.951
1231.5	173.261
1235.81	156.626
1240.12	153.052
1244.43	106.297
1248.74	86.3311
1253.04	276.344
1257.34	140.373
1261.64	195.428
1265.94	210.477
1270.23	39.0547
1274.52	228.56
1278.81	159.573
1283.1	153.559
1287.38	100.515
1291.66	212.673
1295.94	266.577
1300.21	84.7432
1304.48	247.637
1308.75	139.773
1313.02	236.387
1317.29	240.915
1321.55	126.243
1325.81	268.868
1330.06	195.674
1334.32	178.749
1338.57	145.569
1342.82	235.878
1347.06	190.724
1351.31	153.253
1355.55	285.999
1359.79	178.99
1364.02	270.823
1368.26	277.89
1372.49	303.906
1376.71	341.479
1380.94	188.95
1385.16	193.256
1389.38	250.93
1393.6	114.826
1397.81	301.382
1402.02	105.597
1406.23	217.904
1410.44	41.0117
1414.64	146.66
1418.85	64.6992
1423.04	150.98
1427.24	16.0508
1431.43	41.0039
1435.62	98.6846
1439.81	257.681
1444	129.216
1448.18	116.641
1452.36	142.715
1456.54	7.36133
1460.71	153.467
1464.89	105.552
1469.06	110.751
1473.22	123.953
1477.39	103.395
1481.55	80.0684
1485.71	97.5977
1489.86	154.194
1494.02	139.939
1498.17	135.844
1502.32	3.2207
1506.46	23.5586
1510.61	27.4043
1514.75	237.001
1518.88	7.04883
1523.02	163.834
1527.15	157.018
1531.28	168.275
1535.41	86.8379
1539.53	2.60059
1543.66	132.477
1547.78	193.126
1551.89	363.896
1556.01	432.156
1560.12	4.51269
1564.23	174.897
1568.33	101.92
