Measurement: Raman, 514 nm, ccw, Raman Data Processed
Mineral: Creedite
Rruff sample: R050141
Ideal chemistry: Ca_3_Al_2_(SO_4_)(OH)_2_F_8_2H_2_O
Locality: Mina de Navidad, Rodeo, Durango, Mexico
Source: Dave Bunk Minerals
Description: Radiating group of bladed crystals
Measured chemistry: Ca_3.00_Al_2.00_(S_1.00_O_4_)(OH)_2_(F_7.31_(OH)_0.69_)_Σ=8_·2H_2_O ; OH estimated by stoichiometry and charge balance OH=10-F
Pin_id: L00203
Orientation: Laser parallel to c* (0 0 1). Fiducial mark perpendicular to laser is parallel to -a [-1 0 0]
Raman shift (cm-1)	intensity
103.206	0
107.387	134.521
111.566	442.742
115.744	228.028
119.919	413.558
124.092	647.484
128.263	1063.07
132.432	3115.53
136.599	1142.03
140.764	417.806
144.927	265.405
149.088	152.992
153.247	160.743
157.404	87.064
161.559	80.648
165.711	169.817
169.862	316.729
174.011	540.283
178.158	507.402
182.303	481.952
186.446	931.445
190.587	2428.53
194.726	1963.49
198.862	674.443
202.997	384.354
207.13	402.834
211.261	458.709
215.39	853.593
219.517	623.777
223.642	343.488
227.765	163.286
231.886	7.141
236.005	13.943
240.122	1.886
244.237	6.859
248.35	3.389
252.461	30.872
256.57	74.076
260.677	58.414
264.782	49.69
268.885	23.331
272.986	67.473
277.085	16.215
281.182	100.912
285.278	249.417
289.371	295.763
293.462	210.999
297.552	194.57
301.639	200.669
305.724	163.182
309.808	84.09
313.889	17.229
317.969	49.996
322.046	26.685
326.122	21.624
330.196	16.924
334.267	67.617
338.337	49.052
342.405	427.771
346.471	120.858
350.535	150.098
354.597	112.701
358.657	98.963
362.715	168.003
366.771	352.825
370.825	445.385
374.877	344.698
378.928	257.749
382.976	208.562
387.023	203.153
391.067	143.804
395.11	145.156
399.15	255.392
403.189	334.148
407.226	181.594
411.261	126.494
415.294	107.992
419.325	91.966
423.354	75.698
427.381	99.77
431.406	201.022
435.43	282.791
439.451	394.08
443.471	627.693
447.488	1020.74
451.504	1237.75
455.518	1052.4
459.53	1434.32
463.54	1735.77
467.548	1447.62
471.554	1212.41
475.558	1455.44
479.561	2915.49
483.561	5287.91
487.559	3595.48
491.556	1503.32
495.551	811.32
499.544	631.657
503.535	545.908
507.524	424.716
511.511	339.071
515.496	467.029
519.48	749.774
523.461	942.168
527.441	1166.53
531.418	1651.09
535.394	1788.64
539.368	1199.56
543.34	693.768
547.311	387.539
551.279	418.06
555.245	297.715
559.21	148.114
563.173	51.721
567.133	85.978
571.092	79.927
575.049	134.289
579.005	61.716
582.958	48.662
586.909	75.594
590.859	115.452
594.807	275.776
598.753	623.03
602.697	934.311
606.639	506.589
610.579	236.871
614.518	87.146
618.454	6.568
622.389	75.714
626.322	484.01
630.253	1126.37
634.182	436.716
638.109	155.387
642.035	190.796
645.958	207.973
649.88	186.08
653.8	36.366
657.718	11.162
661.634	15.267
665.549	20.229
669.461	91.166
673.372	49.648
677.281	62.216
681.188	83.677
685.093	99.968
688.997	87.391
692.898	4.181
696.798	43.812
700.696	36.421
704.592	24.558
708.486	35.525
712.378	13.404
716.269	31.255
720.158	28.514
724.045	26.694
727.93	71.368
731.813	77.824
735.694	25.951
739.574	58.928
743.452	125.427
747.328	180.895
751.202	147.325
755.075	157.792
758.945	216.147
762.814	297.691
766.681	355.976
770.546	341.551
774.409	203.534
778.271	78.701
782.131	145.003
785.989	140.089
789.845	75.134
793.699	49.114
797.552	5.04
801.402	22.907
805.251	57.709
809.098	107.413
812.944	60.963
816.787	79.929
820.629	61.232
824.469	113.547
828.307	121.904
832.144	84.317
835.978	3.671
839.811	0.952
843.642	55.057
847.472	57.756
851.299	89.2
855.125	95.775
858.949	25.033
862.771	36.529
866.591	50.943
870.41	78.579
874.227	122.452
878.042	8.564
881.855	29.713
885.667	5.725
889.476	45.316
893.284	79.933
897.09	57.39
900.895	86.95
904.698	16.613
908.499	21.893
912.298	57.387
916.095	133.221
919.891	107.682
923.685	51.097
927.477	30.486
931.267	19.105
935.056	88.267
938.843	144.595
942.628	126.947
946.411	129
950.193	98.619
953.973	88.267
957.751	241.118
961.527	314.711
965.302	440.817
969.075	581.167
972.846	660.593
976.615	1307.59
980.383	2937.06
984.149	10367.5
987.913	37997.2
991.675	11607.8
995.436	2935.33
999.195	1195.91
1002.95	731.57
1006.71	548.33
1010.46	421.172
1014.21	342.165
1017.96	221.992
1021.71	168.771
1025.46	122.947
1029.2	121.86
1032.95	193.78
1036.69	248.06
1040.43	186.753
1044.17	106.601
1047.9	73.112
1051.64	26.718
1055.37	61.2
1059.1	18.786
1062.83	68.448
1066.56	105.504
1070.29	110.25
1074.01	19.735
1077.73	18.305
1081.46	116.054
1085.17	217.749
1088.89	256.588
1092.61	117.578
1096.32	4.536
1100.04	21.428
1103.75	23.697
1107.46	25.304
1111.16	117.413
1114.87	233.471
1118.57	355.554
1122.28	531.087
1125.98	975.871
1129.67	1363.08
1133.37	3233.73
1137.07	5066.55
1140.76	2704.62
1144.45	1240.29
1148.14	587.374
1151.83	261.776
1155.52	129.38
1159.21	106.443
1162.89	61.859
1166.57	112.106
1170.25	135.435
1173.93	170.879
1177.61	217.679
1181.28	387.247
1184.96	650.739
1188.63	282.103
1192.3	148.98
1195.97	144.927
1199.64	102.993
1203.3	131.174
1206.97	105.702
1210.63	10.993
1214.29	17.735
1217.95	12.858
1221.6	62.893
1225.26	90.084
1228.91	98.881
1232.57	131.798
1236.21	122.217
1239.86	88.13
1243.51	29.905
1247.16	9.595
1250.8	66.358
1254.44	104.749
1258.08	217.359
1261.72	111.989
1265.36	142.077
1268.99	103.448
1272.63	44.716
1276.26	4.01
1279.89	6.841
1283.52	41.832
1287.15	106.668
1290.77	168.383
1294.4	187.093
1298.02	87.599
1301.64	49.977
1305.26	37.162
1308.88	113.246
1312.49	65.748
1316.11	79.097
1319.72	78.831
1323.33	143.433
1326.94	99.895
1330.55	151.193
1334.15	59.392
1337.76	51.471
1341.36	30.637
1344.96	59.107
1348.56	14.868
1352.16	40.565
1355.75	143.516
1359.35	226.094
1362.94	222.443
1366.53	173.211
1370.12	108.763
1373.71	2.089
1377.3	7.942
1380.88	44.453
1384.46	85.94
1388.05	101.694
1391.63	126.192
1395.2	191.076
1398.78	179.174
1402.36	178.04
1405.93	88.544
1409.5	128.202
1413.07	136.458
1416.64	27.629
1420.21	32.852
1423.78	111.265
1427.34	76.973
1430.9	118.243
1434.46	208.531
1438.02	205.439
1441.58	254.284
1445.13	187.085
1448.69	161.216
1452.24	176.924
1455.79	97.312
1459.34	101.458
1462.89	140.637
1466.44	138.824
1469.98	232.804
1473.53	234.942
1477.07	285.875
1480.61	222.29
1484.14	171.229
1487.68	191.299
1491.22	185.164
1494.75	108.907
1498.28	81.38
1501.81	26.798
1505.34	85.92
1508.87	149.632
1512.4	118.624
