Measurement: Raman, 514 nm, ccw, Raman Data Processed
Mineral: Creedite
Rruff sample: R050141
Ideal chemistry: Ca_3_Al_2_(SO_4_)(OH)_2_F_8_2H_2_O
Locality: Mina de Navidad, Rodeo, Durango, Mexico
Source: Dave Bunk Minerals
Description: Radiating group of bladed crystals
Measured chemistry: Ca_3.00_Al_2.00_(S_1.00_O_4_)(OH)_2_(F_7.31_(OH)_0.69_)_Σ=8_·2H_2_O ; OH estimated by stoichiometry and charge balance OH=10-F
Pin_id: L00115
Orientation: Laser parallel to -b* (0 -1 0). Fiducial mark perpendicular to laser is parallel to c [0 0 1]
Raman shift (cm-1)	intensity
80.872	0
85.064	300.074
89.254	257.823
93.442	58.01
97.628	488.454
101.812	575.117
105.994	268.262
110.174	493.065
114.351	1099.48
118.527	472.918
122.701	396.489
126.873	1100.98
131.042	968.153
135.21	476.308
139.376	302.846
143.539	540.687
147.701	666.306
151.861	891.99
156.018	875.397
160.174	621.147
164.327	341.509
168.479	758.298
172.628	1611.34
176.776	1464.46
180.922	955.077
185.065	1275.46
189.207	2395.85
193.346	3029.76
197.484	1308.15
201.619	680.769
205.753	359.638
209.884	43.305
214.014	147.761
218.141	429.86
222.267	248.994
226.391	246.152
230.512	278.205
234.632	199.227
238.749	89.689
242.865	91.665
246.979	192.951
251.09	245.547
255.2	111.427
259.308	163.051
263.414	272.955
267.517	85.933
271.619	154.083
275.719	71.771
279.817	321.61
283.913	182.356
288.007	16.022
292.099	276.575
296.189	364.002
300.277	61.278
304.363	39.563
308.447	355.459
312.529	413.244
316.609	76.139
320.687	217.667
324.764	299.305
328.838	388.774
332.91	90.954
336.981	134.094
341.049	540.833
345.116	686.395
349.18	565.905
353.243	484.476
357.304	553.043
361.362	565.636
365.419	374.094
369.474	474.273
373.527	909.669
377.578	837.055
381.627	411.392
385.674	426.904
389.719	1049.17
393.762	1204.72
397.804	858.336
401.843	663.182
405.881	936.298
409.916	989.867
413.95	559.417
417.981	429.405
422.011	912.824
426.039	1308.46
430.065	1321.28
434.089	2103.32
438.111	6036.84
442.131	9951.38
446.149	7248.55
450.166	3317.12
454.18	2204.96
458.193	2034.83
462.203	1580.55
466.212	824.201
470.219	701.149
474.224	1261.35
478.227	1458.71
482.228	1733.93
486.227	1859.61
490.224	1517.74
494.22	1239.58
498.213	565.849
502.205	90.192
506.194	355.584
510.182	814.025
514.168	562.511
518.152	68.04
522.134	126.609
526.114	548.469
530.093	607.39
534.069	182.515
538.044	182.438
542.017	547.809
545.987	1100
549.956	742.163
553.923	281.041
557.889	252.744
561.852	709.041
565.813	936.243
569.773	447.568
573.731	146.308
577.686	464.041
581.64	853.485
585.593	805.416
589.543	476.649
593.491	1013.27
597.438	2700.57
601.382	5400.48
605.325	4625.47
609.266	1824.34
613.205	730.089
617.142	849.715
621.078	611.248
625.011	229.655
628.943	101.954
632.872	296.218
636.8	621.845
640.726	728.403
644.651	466.503
648.573	483.719
652.494	993.642
656.412	1715.54
660.329	2369.17
664.244	2472.64
668.157	1795.96
672.069	1447.12
675.978	1203.13
679.886	704.972
683.792	130.651
687.696	20.157
691.598	157.375
695.498	400.164
699.397	215.518
703.293	168.808
707.188	185.788
711.081	67.581
714.972	350.442
718.862	153.622
722.749	37.681
726.635	198.573
730.519	23.088
734.401	473.918
738.281	446.516
742.16	138.755
746.036	27.266
749.911	310.424
753.784	701.951
757.655	933.284
761.525	771.5
765.392	664.566
769.258	675.477
773.122	1049.24
776.984	1108.86
780.844	665.751
784.703	134.873
788.56	116.077
792.415	332.553
796.268	725.479
800.119	705.108
803.969	258.774
807.816	55.68
811.662	414.609
815.506	1089.86
819.349	1113.04
823.189	912.11
827.028	472.083
830.865	328.962
834.7	525.747
838.534	980.921
842.365	834.733
846.195	355.479
850.023	13.992
853.85	175.842
857.674	684.111
861.497	900.021
865.318	975.473
869.137	258.622
872.955	138.503
876.77	242.208
880.584	871.346
884.396	1017.24
888.207	616.814
892.015	224.029
895.822	36.653
899.627	452.058
903.43	896.177
907.232	597.385
911.032	520.56
914.83	180.01
918.626	192.455
922.42	486.044
926.213	1053.88
930.004	1122.99
933.793	651.252
937.581	368.541
941.366	147.91
945.15	721.195
948.932	1135.67
952.713	1317.7
956.491	990.664
960.268	688.86
964.044	420.32
967.817	949.032
971.589	1845.75
975.359	2860.58
979.127	3925.53
982.893	8240.59
986.658	30235.8
990.421	31641
994.183	9526.43
997.942	4102.02
1001.7	2757.71
1005.46	1572.97
1009.21	737.663
1012.96	484.759
1016.71	776.525
1020.46	1314.78
1024.21	1436.56
1027.96	1115.16
1031.7	481.947
1035.44	148.483
1039.18	421.457
1042.92	816.396
1046.66	1153.15
1050.39	1329.96
1054.13	852.311
1057.86	41.487
1061.59	65.094
1065.32	112.588
1069.05	667.364
1072.77	1127.61
1076.49	1216.91
1080.22	902.701
1083.94	354.404
1087.65	18.046
1091.37	139.171
1095.09	506.752
1098.8	962.214
1102.51	995.781
1106.22	732.219
1109.93	341.079
1113.63	163.911
1117.34	130.795
1121.04	710.019
1124.74	1573.58
1128.44	2553.02
1132.14	3951.74
1135.84	6450.11
1139.53	4718.18
1143.22	1896.07
1146.91	934.349
1150.61	957.023
1154.29	1052.65
1157.98	1038.55
1161.66	733.707
1165.35	81.263
1169.03	44.151
1172.71	4.4
1176.38	296.66
1180.06	615.2
1183.73	893.209
1187.41	899.892
1191.08	523.567
1194.75	44.435
1198.41	1.811
1202.08	72.32
1205.74	239.407
1209.41	612.792
1213.07	986.758
1216.73	1035.46
1220.38	549.053
1224.04	195.472
1227.69	256.257
1231.35	363.518
1235	471.326
1238.65	789.494
1242.3	1022.9
1245.94	1124.87
1249.59	1025.11
1253.23	597.34
1256.87	329.219
1260.51	86.048
1264.15	231.364
1267.78	544.378
1271.42	857.66
1275.05	1184.78
1278.68	1108.64
1282.31	715.768
1285.94	226.768
1289.56	5.645
1293.19	0
