Measurement: Raman, 514 nm, ccw, Raman Data Processed
Mineral: Creedite
Rruff sample: R050141
Ideal chemistry: Ca_3_Al_2_(SO_4_)(OH)_2_F_8_2H_2_O
Locality: Mina de Navidad, Rodeo, Durango, Mexico
Source: Dave Bunk Minerals
Description: Radiating group of bladed crystals
Measured chemistry: Ca_3.00_Al_2.00_(S_1.00_O_4_)(OH)_2_(F_7.31_(OH)_0.69_)_Σ=8_·2H_2_O ; OH estimated by stoichiometry and charge balance OH=10-F
Pin_id: L00475
Orientation: Laser parallel to (1 0 1). Fiducial mark perpendicular to laser is parallel to b [0 1 0]
Raman shift (cm-1)	intensity
90.65	0
94.838	52.018
99.023	94.987
103.206	121.605
107.387	153.257
111.566	419.002
115.744	132.876
119.919	190.774
124.092	466.894
128.263	636.281
132.432	329.954
136.599	269.077
140.764	253.26
144.927	400.876
149.088	809.901
153.247	985.749
157.404	414.901
161.559	209.422
165.711	291.469
169.862	455.222
174.011	793.597
178.158	1065.76
182.303	811.87
186.446	644.777
190.587	620.243
194.726	350.156
198.862	165.357
202.997	163.836
207.13	152.017
211.261	166.146
215.39	292.961
219.517	441.799
223.642	764.636
227.765	710.544
231.886	276.682
236.005	106.911
240.122	127.027
244.237	18.143
248.35	8.85
252.461	27.338
256.57	41.512
260.677	23.533
264.782	18.652
268.885	12.424
272.986	7.029
277.085	27.604
281.182	23.736
285.278	18.945
289.371	96.637
293.462	5.314
297.552	34.06
301.639	16.533
305.724	35.871
309.808	26.873
313.889	57.778
317.969	9.162
322.046	20.006
326.122	12.244
330.196	9.593
334.267	104.952
338.337	167.33
342.405	254.6
346.471	637.702
350.535	757.652
354.597	393.54
358.657	174.277
362.715	95.598
366.771	72.157
370.825	156.207
374.877	118.342
378.928	70.59
382.976	63.642
387.023	111.769
391.067	91.884
395.11	69.991
399.15	50.09
403.189	82.171
407.226	25.239
411.261	17.81
415.294	42.211
419.325	21.729
423.354	55.743
427.381	94.299
431.406	228.576
435.43	407.204
439.451	872.458
443.471	1112.51
447.488	1342.39
451.504	1415.36
455.518	991.476
459.53	780.858
463.54	599.063
467.548	550.745
471.554	506.726
475.558	957.517
479.561	2298.11
483.561	4003.67
487.559	3112.68
491.556	1538.25
495.551	725.331
499.544	394.438
503.535	250.576
507.524	132.75
511.511	14.963
515.496	17.785
519.48	6.49
523.461	12.713
527.441	37.157
531.418	64.053
535.394	64.019
539.368	94.13
543.34	248.262
547.311	423.688
551.279	440.178
555.245	410.549
559.21	332.393
563.173	227.927
567.133	255.399
571.092	361.757
575.049	290.592
579.005	332.25
582.958	360.345
586.909	588.631
590.859	1135.07
594.807	2374.66
598.753	5555.42
602.697	8432.32
606.639	4995.34
610.579	2000.56
614.518	859.889
618.454	328.358
622.389	236.968
626.322	429.719
630.253	840.648
634.182	564.708
638.109	304.887
642.035	420.152
645.958	782.522
649.88	1158.99
653.8	1502.55
657.718	2471.19
661.634	3661.9
665.549	4024.69
669.461	2757.56
673.372	1516.96
677.281	816.569
681.188	481.974
685.093	385.603
688.997	212.679
692.898	180.812
696.798	36.217
700.696	25.703
704.592	128.277
708.486	103.925
712.378	24.294
716.269	28.878
720.158	75.56
724.045	124.253
727.93	115.206
731.813	221.782
735.694	181.344
739.574	267.523
743.452	444.407
747.328	553.24
751.202	662.433
755.075	830.933
758.945	1068.63
762.814	1437.72
766.681	1691.66
770.546	1626.4
774.409	1252.73
778.271	822.955
782.131	552.691
785.989	499.305
789.845	337.94
793.699	245.589
797.552	136.25
801.402	221.922
805.251	304.604
809.098	458.293
812.944	489.99
816.787	631.692
820.629	563.399
824.469	519.109
828.307	484.823
832.144	322.548
835.978	212.349
839.811	98.211
843.642	88.103
847.472	9.026
851.299	45.93
855.125	35.818
858.949	51.698
862.771	10.662
866.591	6.771
870.41	5.426
874.227	8.301
878.042	68.935
881.855	4.483
885.667	16.016
889.476	17.575
893.284	3.753
897.09	107.913
900.895	18.026
904.698	73.056
908.499	58.24
912.298	7.446
916.095	46.89
919.891	11.475
923.685	42.986
927.477	1.732
931.267	7.495
935.056	78.702
938.843	165.294
942.628	207.471
946.411	231.642
950.193	193.833
953.973	213.024
957.751	289.197
961.527	462.353
965.302	763.517
969.075	1118.66
972.846	1411.79
976.615	2544.91
980.383	5414.01
984.149	17855.1
987.913	58307.2
991.675	25439.3
995.436	7341.36
999.195	2949.41
1002.95	1608.45
1006.71	1031.49
1010.46	747.546
1014.21	679.726
1017.96	493.644
1021.71	364.732
1025.46	309.651
1029.2	265.003
1032.95	297.968
1036.69	415.292
1040.43	494.826
1044.17	395.22
1047.9	241.944
1051.64	180.886
1055.37	128.693
1059.1	109.628
1062.83	126.531
1066.56	113.717
1070.29	146.885
1074.01	15.721
1077.73	2.696
1081.46	73.143
1085.17	76.411
1088.89	146.737
1092.61	130.475
1096.32	231.065
1100.04	152.586
1103.75	93.061
1107.46	191.442
1111.16	270.934
1114.87	497.414
1118.57	703.83
1122.28	1301.43
1125.98	2369.01
1129.67	3476.65
1133.37	7145.42
1137.07	10408.1
1140.76	6070.89
1144.45	2854.78
1148.14	1550.27
1151.83	742.25
1155.52	470.661
1159.21	416.869
1162.89	277.818
1166.57	206.492
1170.25	277.389
1173.93	314.304
1177.61	436.099
1181.28	772.891
1184.96	1685.75
1188.63	982.965
1192.3	396.919
1195.97	304.602
1199.64	168.739
1203.3	179.516
1206.97	178.625
1210.63	70.965
1214.29	63.478
1217.95	48.408
1221.6	23.366
1225.26	72.717
1228.91	195.455
1232.57	193.575
1236.21	246.569
1239.86	156.499
1243.51	61.312
1247.16	41.096
1250.8	66.396
1254.44	119.562
1258.08	124.787
1261.72	69.749
1265.36	206.965
1268.99	189.914
1272.63	72.98
1276.26	37.994
1279.89	33.217
1283.52	42.57
1287.15	19.289
1290.77	156.659
1294.4	189.018
1298.02	143.979
1301.64	127.927
1305.26	71.309
1308.88	39.688
1312.49	56.062
1316.11	37.042
1319.72	80.063
1323.33	123.93
1326.94	148.836
1330.55	159.395
1334.15	144.296
1337.76	96.571
1341.36	22.684
1344.96	45.673
1348.56	18.08
1352.16	44.772
1355.75	131.332
1359.35	236.739
1362.94	237.696
1366.53	308.661
1370.12	120.522
1373.71	98.809
1377.3	10.625
1380.88	30.655
1384.46	107.135
1388.05	61.829
1391.63	110.246
1395.2	207.415
1398.78	275.031
1402.36	178.551
1405.93	253.676
1409.5	149.629
1413.07	106.886
1416.64	25.045
1420.21	11.487
1423.78	125.478
1427.34	59.536
1430.9	171.921
1434.46	247.578
1438.02	275.039
1441.58	303.176
1445.13	296.82
1448.69	163.379
1452.24	195.822
1455.79	101.922
1459.34	79.84
1462.89	92.667
1466.44	104.712
1469.98	211.667
1473.53	261.574
1477.07	357.66
1480.61	301.916
1484.14	313.311
1487.68	299.46
1491.22	274.341
1494.75	191.275
1498.28	115.667
1501.81	1.062
1505.34	41.4
1508.87	21.719
1512.4	55.988
1515.92	169.589
1519.44	122.712
