Measurement: Raman, 514 nm, ccw, Raman Data Processed
Mineral: Creedite
Rruff sample: R050141
Ideal chemistry: Ca_3_Al_2_(SO_4_)(OH)_2_F_8_2H_2_O
Locality: Mina de Navidad, Rodeo, Durango, Mexico
Source: Dave Bunk Minerals
Description: Radiating group of bladed crystals
Measured chemistry: Ca_3.00_Al_2.00_(S_1.00_O_4_)(OH)_2_(F_7.31_(OH)_0.69_)_Σ=8_·2H_2_O ; OH estimated by stoichiometry and charge balance OH=10-F
Pin_id: L00115
Orientation: Laser parallel to -b* (0 -1 0). Fiducial mark perpendicular to laser is parallel to c [0 0 1]
Raman shift (cm-1)	intensity
99.023	0
103.206	18.132
107.387	164.232
111.566	505.016
115.744	137.948
119.919	133.414
124.092	158.336
128.263	135.379
132.432	80.229
136.599	97.366
140.764	41.476
144.927	22.475
149.088	169.66
153.247	247.106
157.404	54.035
161.559	52.792
165.711	125.691
169.862	186.544
174.011	285.836
178.158	293.716
182.303	230.985
186.446	352.864
190.587	638.615
194.726	562.403
198.862	205.771
202.997	26.471
207.13	66.226
211.261	51.052
215.39	50.616
219.517	24.573
223.642	147.416
227.765	154.351
231.886	1.244
236.005	17.822
240.122	90.881
244.237	74.274
248.35	24.837
252.461	70.967
256.57	163.141
260.677	59.463
264.782	17.058
268.885	17.882
272.986	65.441
277.085	33.288
281.182	6.309
285.278	101.412
289.371	126.564
293.462	46.744
297.552	4.924
301.639	128.07
305.724	89.887
309.808	1.071
313.889	30.103
317.969	46.754
322.046	18.472
326.122	42.982
330.196	59.608
334.267	54.595
338.337	32.717
342.405	39.294
346.471	99.49
350.535	142.055
354.597	147.488
358.657	29.305
362.715	83.837
366.771	266.883
370.825	206.095
374.877	118.167
378.928	88.948
382.976	190.671
387.023	166.247
391.067	115.763
395.11	216.024
399.15	252.462
403.189	177.891
407.226	31.688
411.261	98.286
415.294	197.591
419.325	184.845
423.354	90.045
427.381	182.945
431.406	429.548
435.43	998.655
439.451	2189.74
443.471	2260.58
447.488	1137.43
451.504	674.268
455.518	344.022
459.53	236.331
463.54	248.716
467.548	266.311
471.554	176.502
475.558	203.223
479.561	302.25
483.561	591.489
487.559	430.949
491.556	156.812
495.551	79.536
499.544	109.687
503.535	156.252
507.524	32.431
511.511	51.468
515.496	67.486
519.48	237.105
523.461	142.899
527.441	9.342
531.418	8.649
535.394	163.071
539.368	215.683
543.34	126.49
547.311	59.122
551.279	109.752
555.245	213.444
559.21	131.975
563.173	18.056
567.133	88.889
571.092	240.336
575.049	171.639
579.005	120.629
582.958	25.01
586.909	509.612
590.859	349.975
594.807	455.52
598.753	812.979
602.697	1156.34
606.639	1100.71
610.579	490.097
614.518	252.476
618.454	27.874
622.389	105.266
626.322	242.804
630.253	265.08
634.182	158.547
638.109	70.247
642.035	168.932
645.958	403.35
649.88	326.255
653.8	278.971
657.718	289.139
661.634	466.829
665.549	679.591
669.461	543.846
673.372	239.344
677.281	150.716
681.188	169.394
685.093	252.408
688.997	123.573
692.898	49.209
696.798	52.136
700.696	47.241
704.592	178.734
708.486	188.141
712.378	33.631
716.269	22.672
720.158	33.931
724.045	176.434
727.93	221.888
731.813	98.267
735.694	29.6
739.574	16.746
743.452	225.907
747.328	251.107
751.202	151.17
755.075	51.822
758.945	124.156
762.814	274.196
766.681	410.208
770.546	264.556
774.409	168.564
778.271	52.486
782.131	160.36
785.989	253.279
789.845	147.053
793.699	128.483
797.552	47.795
801.402	77.879
805.251	204.427
809.098	219.869
812.944	90.261
816.787	58.605
820.629	122.949
824.469	226.283
828.307	310.612
832.144	250.916
835.978	72.214
839.811	10.523
843.642	30.688
847.472	200.79
851.299	230.595
855.125	115.604
858.949	78.446
862.771	61.38
866.591	116.577
870.41	190.027
874.227	269.885
878.042	144.952
881.855	17.688
885.667	25.273
889.476	135.865
893.284	256.378
897.09	139.914
900.895	72.531
904.698	17.068
908.499	12.48
912.298	204.885
916.095	187.168
919.891	256.555
923.685	120.64
927.477	60.634
931.267	9.562
935.056	159.84
938.843	338.829
942.628	281.751
946.411	133.454
950.193	25.285
953.973	46.992
957.751	163.751
961.527	310.822
965.302	395.747
969.075	425.299
972.846	255.924
976.615	378.5
980.383	1028.06
984.149	3480.61
987.913	11006
991.675	4784.14
995.436	1305.48
999.195	496.911
1002.95	345.291
1006.71	361.804
1010.46	384.151
1014.21	422.51
1017.96	167.9
1021.71	97.989
1025.46	29.692
1029.2	199.097
1032.95	297.336
1036.69	471.835
1040.43	400.226
1044.17	181.522
1047.9	88.25
1051.64	89.007
1055.37	174.659
1059.1	252.195
1062.83	370.4
1066.56	365.022
1070.29	84.908
1074.01	98.349
1077.73	80.688
1081.46	105.263
1085.17	418.893
1088.89	394.523
1092.61	319.152
1096.32	293.785
1100.04	87.481
1103.75	3.805
1107.46	129.922
1111.16	242.31
1114.87	348.874
1118.57	308.787
1122.28	337.688
1125.98	333.52
1129.67	264.131
1133.37	862.446
1137.07	1361.82
1140.76	979.064
1144.45	697.018
1148.14	521.442
1151.83	246.793
1155.52	79.555
1159.21	62.017
1162.89	130.129
1166.57	292.604
1170.25	357.286
1173.93	412.615
1177.61	316.633
1181.28	88.16
1184.96	7.929
1188.63	108.674
1192.3	143.417
1195.97	360.56
1199.64	0
