Measurement: Raman, 514 nm, ccw, Raman Data Processed
Mineral: Creedite
Rruff sample: R050141
Ideal chemistry: Ca_3_Al_2_(SO_4_)(OH)_2_F_8_2H_2_O
Locality: Mina de Navidad, Rodeo, Durango, Mexico
Source: Dave Bunk Minerals
Description: Radiating group of bladed crystals
Measured chemistry: Ca_3.00_Al_2.00_(S_1.00_O_4_)(OH)_2_(F_7.31_(OH)_0.69_)_Σ=8_·2H_2_O ; OH estimated by stoichiometry and charge balance OH=10-F
Pin_id: L00475
Orientation: Laser parallel to (1 0 1). Fiducial mark perpendicular to laser is parallel to b [0 1 0]
Raman shift (cm-1)	intensity
86.461	0
90.65	36.159
94.838	113.33
99.023	104.999
103.206	150.832
107.387	365.237
111.566	642.111
115.744	585.311
119.919	648.362
124.092	1295.66
128.263	2799.93
132.432	4929.69
136.599	2257.93
140.764	754.239
144.927	338.696
149.088	324.367
153.247	245.963
157.404	149.352
161.559	144.314
165.711	338.486
169.862	449.413
174.011	685.319
178.158	608.694
182.303	805.654
186.446	1796.41
190.587	3950.25
194.726	3213.16
198.862	1250.14
202.997	589.866
207.13	523.619
211.261	790.033
215.39	1292.69
219.517	1016.2
223.642	542.822
227.765	279.532
231.886	125.311
236.005	52.135
240.122	24.995
244.237	8.1
248.35	21.815
252.461	25.147
256.57	82.633
260.677	7.419
264.782	10.146
268.885	3.681
272.986	13.214
277.085	79.118
281.182	129.626
285.278	407.271
289.371	475.017
293.462	438.835
297.552	312.702
301.639	286.608
305.724	147.542
309.808	32.497
313.889	22.545
317.969	46.374
322.046	26.734
326.122	34.923
330.196	62.262
334.267	46.705
338.337	21.257
342.405	22.053
346.471	1.001
350.535	85.058
354.597	72.133
358.657	139.227
362.715	241.336
366.771	484.433
370.825	732.441
374.877	650.267
378.928	467.478
382.976	300.372
387.023	205.999
391.067	182.75
395.11	162.571
399.15	279.501
403.189	514.09
407.226	332.466
411.261	236.596
415.294	156.5
419.325	191.771
423.354	141.079
427.381	223.703
431.406	316.55
435.43	542.315
439.451	958.807
443.471	1384.32
447.488	1953.86
451.504	2171.41
455.518	2057.99
459.53	2807.59
463.54	3073.74
467.548	2588.37
471.554	2408.01
475.558	3142.79
479.561	5708.5
483.561	8101.09
487.559	6957.92
491.556	3440.19
495.551	1901.53
499.544	1329.28
503.535	1027.99
507.524	837.338
511.511	771.288
515.496	867.273
519.48	1215.29
523.461	1722.35
527.441	2409.47
531.418	3128.64
535.394	2899.85
539.368	2052.12
543.34	1272.16
547.311	887.164
551.279	633.078
555.245	496.324
559.21	274.798
563.173	149.185
567.133	102.769
571.092	96.415
575.049	92.27
579.005	146.018
582.958	56.845
586.909	95.716
590.859	139.704
594.807	307.734
598.753	796.779
602.697	1134.83
606.639	633.888
610.579	258.949
614.518	98.018
618.454	32.901
622.389	86.138
626.322	299.191
630.253	678.333
634.182	466.261
638.109	211.341
642.035	234.667
645.958	345.883
649.88	214.217
653.8	113.59
657.718	45.634
661.634	12.862
665.549	54.645
669.461	175.141
673.372	179.621
677.281	255.084
681.188	116.104
685.093	227.436
688.997	56.968
692.898	42.559
696.798	23.905
700.696	34.976
704.592	32.075
708.486	27.633
712.378	84.241
716.269	35.457
720.158	50.272
724.045	102.182
727.93	47.844
731.813	40.04
735.694	90.937
739.574	124.048
743.452	132.824
747.328	189.309
751.202	255.208
755.075	324.096
758.945	326.884
762.814	441.618
766.681	610.296
770.546	555.035
774.409	398.059
778.271	259.573
782.131	245.475
785.989	188.871
789.845	132.174
793.699	29.415
797.552	50.622
801.402	106.774
805.251	173.855
809.098	148.853
812.944	161.775
816.787	134.956
820.629	148.44
824.469	143.163
828.307	121.822
832.144	114.415
835.978	83.917
839.811	78.306
843.642	87.613
847.472	16.148
851.299	73.11
855.125	8.347
858.949	13.065
862.771	6.946
866.591	4.094
870.41	13.109
874.227	134.716
878.042	65.15
881.855	31.325
885.667	46.061
889.476	114.219
893.284	25.401
897.09	101.536
900.895	68.583
904.698	11.589
908.499	76.57
912.298	64.528
916.095	87.467
919.891	147.385
923.685	131.265
927.477	104.166
931.267	29.825
935.056	73.98
938.843	210.689
942.628	316.68
946.411	281.278
950.193	206.618
953.973	248.384
957.751	328.087
961.527	388.772
965.302	757.869
969.075	961.616
972.846	1277.38
976.615	2314.14
980.383	4834.9
984.149	16031.7
987.913	51186.9
991.675	22061.7
995.436	6078.42
999.195	2543.9
1002.95	1278.75
1006.71	832.639
1010.46	559.221
1014.21	478.589
1017.96	336.736
1021.71	218.152
1025.46	177.157
1029.2	191.683
1032.95	165.926
1036.69	180.758
1040.43	253.711
1044.17	207.51
1047.9	226.654
1051.64	12.131
1055.37	174.121
1059.1	165.437
1062.83	142.727
1066.56	96.948
1070.29	84.221
1074.01	4.468
1077.73	2.044
1081.46	45.306
1085.17	104.727
1088.89	155.261
1092.61	131.233
1096.32	145.198
1100.04	87.642
1103.75	4.481
1107.46	39.006
1111.16	157.609
1114.87	331.251
1118.57	527.138
1122.28	915.184
1125.98	1723.77
1129.67	2549.46
1133.37	5174.5
1137.07	7483.41
1140.76	4323.99
1144.45	1981.8
1148.14	1007.33
1151.83	550.234
1155.52	342.744
1159.21	189.509
1162.89	117.181
1166.57	155.284
1170.25	163.636
1173.93	205.392
1177.61	375.467
1181.28	781.532
1184.96	1467.3
1188.63	886.388
1192.3	363.294
1195.97	221.413
1199.64	188.096
1203.3	139.518
1206.97	157.102
1210.63	164.233
1214.29	72.49
1217.95	41.496
1221.6	54.499
1225.26	233.743
1228.91	144.297
1232.57	204.026
1236.21	163.292
1239.86	243.684
1243.51	153.095
1247.16	24.292
1250.8	107.604
1254.44	161.986
1258.08	126.647
1261.72	66.089
1265.36	218.115
1268.99	177.115
1272.63	177.941
1276.26	50.375
1279.89	51.787
1283.52	4.942
1287.15	13.917
1290.77	142.923
1294.4	184.452
1298.02	154.667
1301.64	133.889
1305.26	60.619
1308.88	45.003
1312.49	6.818
1316.11	9.155
1319.72	77.938
1323.33	83.528
1326.94	186.883
1330.55	223.021
1334.15	109.864
1337.76	159.574
1341.36	79.014
1344.96	108.236
1348.56	37.7
1352.16	58.93
1355.75	157.453
1359.35	218.881
1362.94	256.134
1366.53	324.377
1370.12	147.503
1373.71	107.147
1377.3	22.286
1380.88	103.837
1384.46	191.985
1388.05	61.566
1391.63	174.31
1395.2	268.491
1398.78	212.409
1402.36	290.695
1405.93	319.292
1409.5	290.795
1413.07	179.756
1416.64	80.198
1420.21	43.573
1423.78	115.534
1427.34	80.047
1430.9	158.065
1434.46	182.982
1438.02	295.913
1441.58	305.957
1445.13	335.427
1448.69	262.983
1452.24	154.021
1455.79	118.474
1459.34	90.42
1462.89	68.006
1466.44	105.357
1469.98	223.232
1473.53	248.725
1477.07	332.063
1480.61	310.57
1484.14	295.586
1487.68	276.188
1491.22	219.029
1494.75	157.126
1498.28	101.53
1501.81	6.988
1505.34	8.389
1508.87	31.117
1512.4	167.103
1515.92	77.362
1519.44	252.039
