Measurement: Raman, 514 nm, ccw, Raman Data Processed
Mineral: Creedite
Rruff sample: R050141
Ideal chemistry: Ca_3_Al_2_(SO_4_)(OH)_2_F_8_2H_2_O
Locality: Mina de Navidad, Rodeo, Durango, Mexico
Source: Dave Bunk Minerals
Description: Radiating group of bladed crystals
Measured chemistry: Ca_3.00_Al_2.00_(S_1.00_O_4_)(OH)_2_(F_7.31_(OH)_0.69_)_Σ=8_·2H_2_O ; OH estimated by stoichiometry and charge balance OH=10-F
Pin_id: L00255
Orientation: Laser parallel to a* (1 0 0). Fiducial mark perpendicular to laser is parallel to b [0 1 0]
Raman shift (cm-1)	intensity
101.812	0
105.994	3.633
110.174	429.274
114.351	644.763
118.527	255.383
122.701	417.455
126.873	1072.85
131.042	377.729
135.21	111.725
139.376	54.48
143.539	81.229
147.701	79.078
151.861	275.369
156.018	177.811
160.174	139.427
164.327	209.215
168.479	745.767
172.628	1821.57
176.776	1289.31
180.922	916.707
185.065	1507.76
189.207	3195.87
193.346	3694.33
197.484	1350.18
201.619	672.856
205.753	289.228
209.884	147.356
214.014	197.312
218.141	216.109
222.267	127.829
226.391	195.914
230.512	184.52
234.632	91.448
238.749	89.268
242.865	61.258
246.979	114.169
251.09	58.517
255.2	31.934
259.308	65.775
263.414	80.867
267.517	45.156
271.619	75.126
275.719	107.565
279.817	142.481
283.913	28.579
288.007	75.779
292.099	239.035
296.189	160.556
300.277	40.357
304.363	156.712
308.447	357.477
312.529	352.574
316.609	154.805
320.687	100.198
324.764	205.984
328.838	107.026
332.91	38.72
336.981	123.52
341.049	203.456
345.116	172.958
349.18	69.699
353.243	184.841
357.304	275.129
361.362	213.001
365.419	77.735
369.474	179.249
373.527	255.053
377.578	191.88
381.627	80.411
385.674	161.965
389.719	330.62
393.762	359.744
397.804	187.195
401.843	247.824
405.881	398.774
409.916	299.49
413.95	221.585
417.981	293.432
422.011	525.066
426.039	689.891
430.065	978.742
434.089	2227.39
438.111	7329.13
442.131	14108.7
446.149	5049.73
450.166	1936.31
454.18	1285.14
458.193	1183.6
462.203	913.564
466.212	519.404
470.219	458.982
474.224	541.535
478.227	568.592
482.228	582.171
486.227	659.869
490.224	462.984
494.22	286.955
498.213	80.726
502.205	75.455
506.194	141.489
510.182	188.977
514.168	53.214
518.152	34.512
522.134	95.412
526.114	166.167
530.093	120.507
534.069	35.656
538.044	47.753
542.017	224.52
545.987	330.972
549.956	223.634
553.923	84.719
557.889	194.083
561.852	346.362
565.813	296.044
569.773	192.99
573.731	140.952
577.686	211.708
581.64	280.578
585.593	216.971
589.543	192.011
593.491	495.811
597.438	1038.43
601.382	1534.87
605.325	1001.28
609.266	281.607
613.205	273.544
617.142	391.355
621.078	150.756
625.011	158.917
628.943	357.339
632.872	517.432
636.8	314.049
640.726	172.586
644.651	37.093
648.573	230.569
652.494	541.328
656.412	893.462
660.329	1244
664.244	1485.34
668.157	1221.69
672.069	1041.91
675.978	737.641
679.886	426.315
683.792	160.938
687.696	211.779
691.598	265.234
695.498	256.884
699.397	94.642
703.293	0.636
707.188	9.943
711.081	114.078
714.972	156.603
718.862	60.916
722.749	56.461
726.635	16.332
730.519	136.898
734.401	203.094
738.281	83.092
742.16	16.722
746.036	50.689
749.911	196.552
753.784	187.426
757.655	122.678
761.525	63.281
765.392	13.314
769.258	85.168
773.122	205.69
776.984	217.069
780.844	59.48
784.703	30.242
788.56	71.27
792.415	224.368
796.268	271.242
800.119	83.212
803.969	14.148
807.816	6.053
811.662	235.899
815.506	429.721
819.349	345.512
823.189	192.264
827.028	59.979
830.865	180.654
834.7	240.293
838.534	356.896
842.365	195.436
846.195	1.08
850.023	17.332
853.85	128.672
857.674	266.666
861.497	223.801
865.318	95.947
869.137	0.672
872.955	16.622
876.77	161.51
880.584	322.294
884.396	285.951
888.207	109.121
892.015	38.232
895.822	26.54
899.627	220.276
903.43	268.846
907.232	194.071
911.032	87.731
914.83	25.989
918.626	48.566
922.42	184.976
926.213	245.016
930.004	255.477
933.793	81.191
937.581	3.026
941.366	85.394
945.15	276.612
948.932	386.821
952.713	409.166
956.491	269.326
960.268	196.157
964.044	279.505
967.817	550.13
971.589	869.529
975.359	1467.92
979.127	2163.3
982.893	5271.67
986.658	22496
990.421	16516.3
994.183	4287.25
997.942	1788.58
1001.7	1008.73
1005.46	523.1
1009.21	281.455
1012.96	234.952
1016.71	334.883
1020.46	495.588
1024.21	362.021
1027.96	216.592
1031.7	85.381
1035.44	29.971
1039.18	137.594
1042.92	206.625
1046.66	267.429
1050.39	299.528
1054.13	83.545
1057.86	107.455
1061.59	19.872
1065.32	107.111
1069.05	334.979
1072.77	310.05
1076.49	333.84
1080.22	309.08
1083.94	309.881
1087.65	312.488
1091.37	316.686
1095.09	268.565
1098.8	319.576
1102.51	363.539
1106.22	134.743
1109.93	26.915
1113.63	40.707
1117.34	104.28
1121.04	348.412
1124.74	715.542
1128.44	969.456
1132.14	1384.42
1135.84	2302.58
1139.53	1542.53
1143.22	651.638
1146.91	457.948
1150.61	504.039
1154.29	504.55
1157.98	354.118
1161.66	227.114
1165.35	59.074
1169.03	25.431
1172.71	118.326
1176.38	326.271
1180.06	731.287
1183.73	1444.7
1187.41	1111.41
1191.08	342.359
1194.75	4.564
1198.41	17.312
1202.08	141.429
1205.74	206.666
1209.41	349.891
1213.07	412.75
1216.73	374.074
1220.38	131.741
1224.04	4.736
1227.69	21.61
1231.35	133.938
1235	261.201
1238.65	384.556
1242.3	420.728
1245.94	334.95
1249.59	281.038
1253.23	35.063
1256.87	41.817
1260.51	66.024
1264.15	159.087
1267.78	277.975
1271.42	392.643
1275.05	480.838
1278.68	423.957
1282.31	240.509
1285.94	43.008
1289.56	39.713
1293.19	48.521
1296.81	163.602
1300.43	329.581
1304.05	332.423
1307.67	315.05
1311.29	372.615
1314.9	240.028
1318.52	64.48
1322.13	42.764
1325.74	66.965
1329.34	143.089
1332.95	238.571
1336.56	378.614
1340.16	458.074
1343.76	377.519
1347.36	275.467
1350.96	39.806
1354.56	52.02
1358.15	30.412
1361.74	57.71
1365.34	219.864
1368.93	310.852
1372.52	319.879
1376.1	529.472
1379.69	377.969
1383.27	300.111
1386.85	167.409
1390.43	91.188
1394.01	29.436
1397.59	65.138
1401.17	185.05
1404.74	279.607
1408.31	399.016
1411.88	478.008
1415.45	448.29
1419.02	431.755
1422.59	260.708
1426.15	141.398
1429.71	311.134
1433.28	247.464
1436.84	5.085
1440.39	256.924
1443.95	440.768
1447.5	494.107
1451.06	574.996
1454.61	497.947
1458.16	490.952
1461.71	381.458
1465.26	255.699
1468.8	109.519
1472.34	1.676
1475.89	20.535
1479.43	139.231
1482.97	321.571
1486.5	371.645
1490.04	518.109
1493.57	591.802
1497.11	507.307
1500.64	346.896
1504.17	323.01
1507.69	183.178
1511.22	88.482
1514.74	37.369
1518.27	1.047
1521.79	0
