Measurement: Raman, 514 nm, ccw, Raman Data Processed
Mineral: Creedite
Rruff sample: R050141
Ideal chemistry: Ca_3_Al_2_(SO_4_)(OH)_2_F_8_2H_2_O
Locality: Mina de Navidad, Rodeo, Durango, Mexico
Source: Dave Bunk Minerals
Description: Radiating group of bladed crystals
Measured chemistry: Ca_3.00_Al_2.00_(S_1.00_O_4_)(OH)_2_(F_7.31_(OH)_0.69_)_Σ=8_·2H_2_O ; OH estimated by stoichiometry and charge balance OH=10-F
Pin_id: L00475
Orientation: Laser parallel to (1 0 1). Fiducial mark perpendicular to laser is parallel to b [0 1 0]
Raman shift (cm-1)	intensity
76.678	0
80.872	231.362
85.064	186.363
89.254	6.985
93.442	3.859
97.628	97.761
101.812	162.157
105.994	222.001
110.174	640.892
114.351	470.18
118.527	254.796
122.701	528.657
126.873	1223.57
131.042	1920.29
135.21	1541.41
139.376	969.275
143.539	1183.87
147.701	888.689
151.861	597.512
156.018	330.467
160.174	239.625
164.327	435.531
168.479	904.154
172.628	1516.54
176.776	1541.38
180.922	1171.57
185.065	1094.43
189.207	1625.23
193.346	1838.68
197.484	1294.3
201.619	1389.61
205.753	1275.9
209.884	803.695
214.014	1039.53
218.141	1158.85
222.267	769.177
226.391	580.195
230.512	312.063
234.632	124.796
238.749	89.737
242.865	52.823
246.979	44.329
251.09	16.268
255.2	8.611
259.308	102.043
263.414	7.356
267.517	22.967
271.619	9.272
275.719	110.525
279.817	179.618
283.913	212.579
288.007	323.375
292.099	350.978
296.189	147.371
300.277	137.247
304.363	101.6
308.447	197.46
312.529	196.156
316.609	152.706
320.687	46.119
324.764	154.3
328.838	13.927
332.91	43.284
336.981	86.239
341.049	133.719
345.116	174.056
349.18	309.328
353.243	287.539
357.304	158.685
361.362	61.767
365.419	150.783
369.474	269.637
373.527	301.333
377.578	122.978
381.627	81.624
385.674	80.29
389.719	165.947
393.762	223.624
397.804	234.289
401.843	260.882
405.881	229.957
409.916	1.837
413.95	56.839
417.981	26.359
422.011	39.36
426.039	42.035
430.065	22.524
434.089	156.715
438.111	509.992
442.131	894.409
446.149	1082.97
450.166	1258.52
454.18	1197.04
458.193	1339.55
462.203	1361.05
466.212	1046.46
470.219	909.517
474.224	1287
478.227	2344.49
482.228	4215.55
486.227	4414.87
490.224	2431.72
494.22	1151.17
498.213	485.002
502.205	286.785
506.194	202.157
510.182	238.852
514.168	182.589
518.152	235.369
522.134	424.055
526.114	702.927
530.093	876.045
534.069	950.039
538.044	778.144
542.017	617.576
545.987	592.645
549.956	485.632
553.923	387.843
557.889	289.41
561.852	252.19
565.813	243.055
569.773	189.797
573.731	191.362
577.686	215.376
581.64	272.714
585.593	297.96
589.543	465.801
593.491	1259.03
597.438	2606.43
601.382	5038.01
605.325	4059.7
609.266	1625.47
613.205	847.301
617.142	661.243
621.078	844.256
625.011	1893.34
628.943	5666.48
632.872	4733.71
636.8	1497.04
640.726	647.395
644.651	400.688
648.573	466.223
652.494	698.259
656.412	955.027
660.329	1394.86
664.244	1565.75
668.157	1145.69
672.069	851.69
675.978	537.736
679.886	182.83
683.792	12.054
687.696	149.526
691.598	70.877
695.498	49.882
699.397	34.054
703.293	74.892
707.188	63.762
711.081	31.782
714.972	113.909
718.862	53.29
722.749	2.995
726.635	158.315
730.519	230.467
734.401	200.008
738.281	318.714
742.16	308.961
746.036	455.637
749.911	662.159
753.784	823.361
757.655	876.241
761.525	896.233
765.392	985.625
769.258	1082.97
773.122	935.426
776.984	644.506
780.844	401.558
784.703	192.693
788.56	187.437
792.415	125.355
796.268	210.21
800.119	150.993
803.969	15.705
807.816	64.341
811.662	319.91
815.506	462.411
819.349	422.84
823.189	330.199
827.028	218.485
830.865	186.696
834.7	213.833
838.534	217.702
842.365	111.646
846.195	38.507
850.023	85.197
853.85	128.475
857.674	149.935
861.497	113.904
865.318	12.306
869.137	69.439
872.955	9.92
876.77	139.523
880.584	105.824
884.396	100.01
888.207	17.989
892.015	89.187
895.822	32.659
899.627	181.649
903.43	182.842
907.232	80.84
911.032	9.605
914.83	40.226
918.626	38.871
922.42	244.309
926.213	157.393
930.004	165.623
933.793	56.783
937.581	6.985
941.366	120.981
945.15	311.036
948.932	379.249
952.713	376.188
956.491	325.542
960.268	451.215
964.044	449.848
967.817	800.423
971.589	1209.94
975.359	1981.4
979.127	3657.81
982.893	9730.18
986.658	38542.5
990.421	33503.8
994.183	9735.72
997.942	3527.7
1001.7	1831.47
1005.46	1009.88
1009.21	565.386
1012.96	521.85
1016.71	496.779
1020.46	475.596
1024.21	415.49
1027.96	316.272
1031.7	336.49
1035.44	290.895
1039.18	372.486
1042.92	456.978
1046.66	406.163
1050.39	343.792
1054.13	159.181
1057.86	34.827
1061.59	91.124
1065.32	29.504
1069.05	209.937
1072.77	173.594
1076.49	83.872
1080.22	33.595
1083.94	80.815
1087.65	57.189
1091.37	123.322
1095.09	142.381
1098.8	264.477
1102.51	225.556
1106.22	132.332
1109.93	92.378
1113.63	90.783
1117.34	353.702
1121.04	913.947
1124.74	1565.14
1128.44	2687.28
1132.14	4831.4
1135.84	8634.61
1139.53	6288.35
1143.22	2740.99
1146.91	1368.02
1150.61	887.363
1154.29	673.362
1157.98	437.101
1161.66	352.151
1165.35	300.774
1169.03	371.263
1172.71	484.667
1176.38	1026.03
1180.06	2307.95
1183.73	5947.73
1187.41	4512.46
1191.08	1737.99
1194.75	657
1198.41	320.889
1202.08	296.521
1205.74	400.362
1209.41	316.27
1213.07	399.098
1216.73	224.453
1220.38	184.001
1224.04	117.09
1227.69	210.045
1231.35	208.632
1235	153.6
1238.65	203.295
1242.3	319.902
1245.94	219.329
1249.59	188.421
1253.23	57.304
1256.87	3.233
1260.51	103.579
1264.15	205.296
1267.78	231.714
1271.42	271.615
1275.05	399.7
1278.68	339.48
1282.31	76.258
1285.94	133.146
1289.56	1.627
1293.19	79.831
1296.81	92.739
1300.43	193.021
1304.05	198.264
1307.67	59.842
1311.29	161.232
1314.9	155.812
1318.52	98.775
1322.13	43.476
1325.74	54.937
1329.34	14.176
1332.95	74.179
1336.56	202.911
1340.16	314.309
1343.76	303.365
1347.36	232.309
1350.96	72.901
1354.56	46.724
1358.15	91.382
1361.74	67.689
1365.34	306.607
1368.93	120.994
1372.52	190.029
1376.1	196.549
1379.69	340.225
1383.27	231.06
1386.85	150.771
1390.43	54.043
1394.01	15.947
1397.59	19.119
1401.17	132.66
1404.74	367.082
1408.31	224.274
1411.88	342.365
1415.45	307.074
1419.02	229.254
1422.59	73.844
1426.15	143.95
1429.71	216.146
1433.28	17.291
1436.84	110.031
1440.39	309.783
1443.95	317.187
1447.5	419.332
1451.06	282.091
1454.61	507.599
1458.16	361.122
1461.71	433.584
1465.26	108.36
1468.8	136.134
1472.34	120.05
1475.89	100.371
1479.43	138.345
1482.97	242.464
1486.5	312.73
1490.04	410.955
1493.57	466.945
1497.11	413.241
1500.64	232.559
1504.17	267.112
1507.69	94.666
1511.22	95.373
1514.74	4.042
1518.27	5.481
