Measurement: Raman, 514 nm, ccw, Raman Data Processed
Mineral: Creedite
Rruff sample: R050141
Ideal chemistry: Ca_3_Al_2_(SO_4_)(OH)_2_F_8_2H_2_O
Locality: Mina de Navidad, Rodeo, Durango, Mexico
Source: Dave Bunk Minerals
Description: Radiating group of bladed crystals
Measured chemistry: Ca_3.00_Al_2.00_(S_1.00_O_4_)(OH)_2_(F_7.31_(OH)_0.69_)_Σ=8_·2H_2_O ; OH estimated by stoichiometry and charge balance OH=10-F
Pin_id: L00255
Orientation: Laser parallel to a* (1 0 0). Fiducial mark perpendicular to laser is parallel to b [0 1 0]
Raman shift (cm-1)	intensity
103.206	0
107.387	143.025
111.566	561.801
115.744	177.967
119.919	218.349
124.092	484.946
128.263	433.43
132.432	405.906
136.599	238.609
140.764	112.06
144.927	12.897
149.088	122.27
153.247	109.762
157.404	21.761
161.559	10.661
165.711	270.946
169.862	460.696
174.011	871.17
178.158	682.218
182.303	596.802
186.446	1008.67
190.587	2298.99
194.726	1719.94
198.862	696.021
202.997	390.958
207.13	242.835
211.261	158.033
215.39	179.406
219.517	77.945
223.642	167.065
227.765	185.783
231.886	38.918
236.005	5.353
240.122	70.998
244.237	25.783
248.35	41.606
252.461	70.685
256.57	103.264
260.677	25.159
264.782	106.631
268.885	65.636
272.986	64.246
277.085	10.453
281.182	2.019
285.278	84.511
289.371	189.098
293.462	66.818
297.552	58.465
301.639	180.263
305.724	280.124
309.808	300.542
313.889	357.031
317.969	378.619
322.046	236.976
326.122	100.571
330.196	36.964
334.267	155.192
338.337	132.769
342.405	46.812
346.471	39.528
350.535	193.494
354.597	195.64
358.657	140.104
362.715	120.014
366.771	182.673
370.825	184.777
374.877	87.639
378.928	83.019
382.976	219.961
387.023	182.676
391.067	177.55
395.11	193.76
399.15	271.435
403.189	274.642
407.226	141.435
411.261	123.671
415.294	222.95
419.325	326.359
423.354	190.031
427.381	325.092
431.406	798.076
435.43	1870.97
439.451	5092.53
443.471	5295.77
447.488	2076.53
451.504	1176.19
455.518	691.326
459.53	841.44
463.54	570.299
467.548	535.424
471.554	384.172
475.558	301.958
479.561	588.646
483.561	1079.1
487.559	812.23
491.556	330.762
495.551	85.578
499.544	129.157
503.535	213.083
507.524	69.415
511.511	18.681
515.496	38.732
519.48	148.093
523.461	159.105
527.441	64.405
531.418	123.602
535.394	203.751
539.368	224.852
543.34	129.008
547.311	138.365
551.279	118.179
555.245	213.982
559.21	202.235
563.173	87.327
567.133	215.97
571.092	382.116
575.049	376.18
579.005	226.907
582.958	108.282
586.909	217.943
590.859	576.807
594.807	965.687
598.753	1088.75
602.697	1011.77
606.639	635.701
610.579	383.867
614.518	195.941
618.454	61.096
622.389	119.276
626.322	371.634
630.253	1027.1
634.182	474.476
638.109	113.657
642.035	104.805
645.958	238.918
649.88	316.334
653.8	289.896
657.718	421.151
661.634	668.309
665.549	985.287
669.461	784.845
673.372	401.009
677.281	235.047
681.188	148.238
685.093	203.626
688.997	204.489
692.898	96.887
696.798	36.529
700.696	15.643
704.592	107.964
708.486	152.025
712.378	50.284
716.269	31.366
720.158	44.949
724.045	136.835
727.93	108.607
731.813	93.156
735.694	14.869
739.574	11.954
743.452	101.492
747.328	171.861
751.202	91.167
755.075	46.438
758.945	6.37
762.814	110.908
766.681	124.976
770.546	125.393
774.409	69.322
778.271	10.199
782.131	84.457
785.989	159.185
789.845	175.062
793.699	59.487
797.552	75.458
801.402	286.16
805.251	32.707
809.098	236.403
812.944	134.516
816.787	120.618
820.629	26.666
824.469	116.659
828.307	191.604
832.144	224.502
835.978	66.343
839.811	10.913
843.642	30.709
847.472	92.119
851.299	148.556
855.125	134.852
858.949	80.026
862.771	15.029
866.591	13.345
870.41	60.231
874.227	191.303
878.042	194.379
881.855	53.975
885.667	12.518
889.476	100.582
893.284	171.277
897.09	221.719
900.895	152.104
904.698	36.043
908.499	6.044
912.298	38.515
916.095	195.909
919.891	287.154
923.685	93.446
927.477	86.633
931.267	0.478
935.056	91.776
938.843	207.628
942.628	275.51
946.411	185.477
950.193	98.508
953.973	100.508
957.751	92.188
961.527	284.893
965.302	467.259
969.075	546.19
972.846	495.934
976.615	789.871
980.383	1795.79
984.149	6147.62
987.913	21795.5
991.675	7409.47
995.436	1974.16
999.195	752.945
1002.95	391.363
1006.71	293.289
1010.46	362.927
1014.21	293.575
1017.96	243.23
1021.71	113.203
1025.46	24.602
1029.2	64.55
1032.95	121.434
1036.69	225.307
1040.43	279.317
1044.17	181.65
1047.9	3.693
1051.64	13.168
1055.37	4.849
1059.1	100.024
1062.83	262.018
1066.56	308.124
1070.29	184.423
1074.01	118.257
1077.73	107.616
1081.46	277.303
1085.17	749.48
1088.89	674.69
1092.61	406.795
1096.32	298.12
1100.04	69.664
1103.75	42.726
1107.46	86.688
1111.16	116.315
1114.87	139.239
1118.57	318.516
1122.28	321.59
1125.98	465.017
1129.67	568.144
1133.37	1223.47
1137.07	1932.79
1140.76	1171.39
1144.45	737.743
1148.14	458.961
1151.83	200.116
1155.52	92.646
1159.21	49.29
1162.89	39.804
1166.57	214.837
1170.25	263.038
1173.93	369.028
1177.61	476.202
1181.28	867.033
1184.96	1554.07
1188.63	692.397
1192.3	260.346
1195.97	302.163
1199.64	283.714
1203.3	304.938
1206.97	241.317
1210.63	185.404
1214.29	25.303
1217.95	50.238
1221.6	97.78
1225.26	199.473
1228.91	301.159
1232.57	281.805
1236.21	346.103
1239.86	218.418
1243.51	155.069
1247.16	395.188
1250.8	51.644
1254.44	79.434
1258.08	261.403
1261.72	222.439
1265.36	392.462
1268.99	292.919
1272.63	145.541
1276.26	41.212
1279.89	38.689
1283.52	16.087
1287.15	96.176
1290.77	280.344
1294.4	290.515
1298.02	307.33
1301.64	235.886
1305.26	38.458
1308.88	130.86
1312.49	20.789
1316.11	5.224
1319.72	145.375
1323.33	166.347
1326.94	281.213
1330.55	262.771
1334.15	260.973
1337.76	147.526
1341.36	49.964
1344.96	13.275
1348.56	51.196
1352.16	353.763
1355.75	69.934
1359.35	107.922
1362.94	379.316
1366.53	428.042
1370.12	305.888
1373.71	117.681
1377.3	77.865
1380.88	70.8
1384.46	7.279
1388.05	34.746
1391.63	246.583
1395.2	365.428
1398.78	426.5
1402.36	376.158
1405.93	327.1
1409.5	266.39
1413.07	192.657
1416.64	57.52
1420.21	92.399
1423.78	151.636
1427.34	101.487
1430.9	281.361
1434.46	387.973
1438.02	400.576
1441.58	427.541
1445.13	372.521
1448.69	230.039
1452.24	144.037
1455.79	121.965
1459.34	42.662
1462.89	78.586
1466.44	139.106
1469.98	275.66
1473.53	413.419
1477.07	528.455
1480.61	423.919
1484.14	505.469
1487.68	342.171
1491.22	324.986
1494.75	201.525
1498.28	105.344
1501.81	23.187
1505.34	74.533
1508.87	171.18
1512.4	172.165
