Measurement: Raman, 514 nm, ccw, Raman Data Processed
Mineral: Creedite
Rruff sample: R050141
Ideal chemistry: Ca_3_Al_2_(SO_4_)(OH)_2_F_8_2H_2_O
Locality: Mina de Navidad, Rodeo, Durango, Mexico
Source: Dave Bunk Minerals
Description: Radiating group of bladed crystals
Measured chemistry: Ca_3.00_Al_2.00_(S_1.00_O_4_)(OH)_2_(F_7.31_(OH)_0.69_)_Σ=8_·2H_2_O ; OH estimated by stoichiometry and charge balance OH=10-F
Pin_id: L00255
Orientation: Laser parallel to a* (1 0 0). Fiducial mark perpendicular to laser is parallel to b [0 1 0]
Raman shift (cm-1)	intensity
101.812	0
105.994	6.315
110.174	294.005
114.351	296.96
118.527	228.226
122.701	314.269
126.873	873.858
131.042	2190.91
135.21	1201.53
139.376	392.066
143.539	236.137
147.701	119.707
151.861	176.122
156.018	97.152
160.174	23.679
164.327	15.404
168.479	157.929
172.628	419.304
176.776	353.534
180.922	225.367
185.065	620.635
189.207	1493.38
193.346	1775.16
197.484	685.655
201.619	565.572
205.753	382.722
209.884	286.49
214.014	557.33
218.141	713.079
222.267	305.603
226.391	140.614
230.512	101.109
234.632	13.14
238.749	56.414
242.865	10.24
246.979	51.985
251.09	11.006
255.2	8.235
259.308	23.001
263.414	8.351
267.517	46.706
271.619	60.305
275.719	1.192
279.817	147.741
283.913	87.268
288.007	198.772
292.099	292.315
296.189	260.595
300.277	118.536
304.363	145.792
308.447	213.524
312.529	265.684
316.609	230.385
320.687	83.624
324.764	104.8
328.838	71.779
332.91	1.004
336.981	60.502
341.049	121.858
345.116	68.464
349.18	64.62
353.243	138.036
357.304	222.074
361.362	175.936
365.419	102.635
369.474	296.163
373.527	439.387
377.578	247.616
381.627	118.698
385.674	169.612
389.719	206.089
393.762	223.337
397.804	141.104
401.843	199.983
405.881	286.51
409.916	163.653
413.95	45.895
417.981	9.41
422.011	110.812
426.039	107.253
430.065	48.573
434.089	196.745
438.111	523.866
442.131	950.352
446.149	766.373
450.166	847.092
454.18	892.75
458.193	1238.36
462.203	1372.97
466.212	1046.49
470.219	940.192
474.224	1279.36
478.227	1847.41
482.228	2973.69
486.227	3056.13
490.224	1799.32
494.22	942.928
498.213	432.239
502.205	319.649
506.194	316.108
510.182	354.902
514.168	287.24
518.152	317.575
522.134	511.36
526.114	1004.02
530.093	1293.47
534.069	1091.83
538.044	886.63
542.017	703.196
545.987	590.317
549.956	281.001
553.923	144.377
557.889	199.057
561.852	190.638
565.813	206.538
569.773	148.022
573.731	109.36
577.686	151.356
581.64	210.966
585.593	105.686
589.543	158.139
593.491	526.592
597.438	950.175
601.382	1133.79
605.325	687.431
609.266	180.079
613.205	99.729
617.142	188.398
621.078	189.078
625.011	252.773
628.943	849.481
632.872	743.217
636.8	334.14
640.726	156.362
644.651	110.577
648.573	69.989
652.494	213.954
656.412	176.476
660.329	144.73
664.244	26.585
668.157	71.553
672.069	182.423
675.978	200.402
679.886	183.043
683.792	2.953
687.696	17.323
691.598	107.985
695.498	134.86
699.397	40.684
703.293	72.119
707.188	22.585
711.081	19.075
714.972	23.428
718.862	35.157
722.749	12.934
726.635	27.925
730.519	68.857
734.401	175.851
738.281	107.646
742.16	59.461
746.036	90.542
749.911	200.207
753.784	250.047
757.655	268.637
761.525	175.188
765.392	184.688
769.258	268.353
773.122	288.88
776.984	222.322
780.844	98.71
784.703	13.04
788.56	56.119
792.415	168.221
796.268	169.162
800.119	75.992
803.969	30.794
807.816	9.527
811.662	111.181
815.506	220.762
819.349	217.28
823.189	90.739
827.028	46.136
830.865	83.469
834.7	138.734
838.534	193.705
842.365	140.713
846.195	62.67
850.023	26.028
853.85	63.146
857.674	164.469
861.497	249.305
865.318	69.786
869.137	48.189
872.955	51.786
876.77	90.224
880.584	143.313
884.396	172.401
888.207	68.381
892.015	61.157
895.822	17.453
899.627	170.322
903.43	213.066
907.232	142.753
911.032	99.445
914.83	37.281
918.626	93.57
922.42	167.154
926.213	200.69
930.004	211.218
933.793	80.732
937.581	22.334
941.366	32.613
945.15	160.919
948.932	205.888
952.713	326.905
956.491	198.514
960.268	260.253
964.044	229.626
967.817	459.614
971.589	731.006
975.359	1170.29
979.127	1901.56
982.893	4720.93
986.658	20414.5
990.421	15131.8
994.183	3878.71
997.942	1717.24
1001.7	957.461
1005.46	416.126
1009.21	262.267
1012.96	199.043
1016.71	279.649
1020.46	279.921
1024.21	292.259
1027.96	222.233
1031.7	25.469
1035.44	18.611
1039.18	194.694
1042.92	192.868
1046.66	293.881
1050.39	236.21
1054.13	81.672
1057.86	69.12
1061.59	10.541
1065.32	22.845
1069.05	194.388
1072.77	275.927
1076.49	277.109
1080.22	376.27
1083.94	290.968
1087.65	310.417
1091.37	241.14
1095.09	203.938
1098.8	201.697
1102.51	172.086
1106.22	158.073
1109.93	45.796
1113.63	21.25
1117.34	222.796
1121.04	440.641
1124.74	894.325
1128.44	1497.15
1132.14	2402.01
1135.84	3862.81
1139.53	2476.59
1143.22	983.577
1146.91	530.469
1150.61	466.774
1154.29	478.741
1157.98	326.885
1161.66	229.615
1165.35	97.522
1169.03	67.106
1172.71	627.854
1176.38	344.647
1180.06	812.401
1183.73	1981.46
1187.41	1465.22
1191.08	487.094
1194.75	144.596
1198.41	71.453
1202.08	148.795
1205.74	185.303
1209.41	263.592
1213.07	357.611
1216.73	262.605
1220.38	160.811
1224.04	30.924
1227.69	28.524
1231.35	149.748
1235	174.431
1238.65	253.241
1242.3	300.785
1245.94	324.221
1249.59	220.713
1253.23	61.018
1256.87	13.451
1260.51	114.079
1264.15	82.336
1267.78	221.471
1271.42	265.143
1275.05	419.997
1278.68	335.513
1282.31	156.813
1285.94	51.998
1289.56	14.984
1293.19	27.087
1296.81	205.939
1300.43	72.776
1304.05	312.252
1307.67	196.162
1311.29	254.952
1314.9	172.595
1318.52	62.08
1322.13	63.418
1325.74	38.613
1329.34	9.331
1332.95	202.975
1336.56	331.729
1340.16	312.292
1343.76	307.545
1347.36	203.742
1350.96	82.816
1354.56	4.4
1358.15	28.402
1361.74	14.918
1365.34	197.29
1368.93	249.823
1372.52	268.898
1376.1	306.214
1379.69	335.725
1383.27	265.555
1386.85	203.618
1390.43	78.838
1394.01	14.067
1397.59	61.744
1401.17	127.086
1404.74	264.208
1408.31	347.568
1411.88	324.887
1415.45	430.856
1419.02	304.122
1422.59	202.14
1426.15	204.707
1429.71	61.483
1433.28	41.237
1436.84	14.644
1440.39	194.204
1443.95	263.917
1447.5	405.011
1451.06	418.24
1454.61	458.63
1458.16	402.714
1461.71	399.723
1465.26	202.629
1468.8	79.546
1472.34	21.853
1475.89	31.638
1479.43	130.156
1482.97	186.088
1486.5	231.96
1490.04	324.858
1493.57	431.938
1497.11	388.436
1500.64	337.159
1504.17	277.311
1507.69	154.222
1511.22	3.023
1514.74	7.262
1518.27	1.412
1521.79	0
