Measurement: Raman, 514 nm, ccw, Raman Data Processed
Mineral: Creedite
Rruff sample: R050141
Ideal chemistry: Ca_3_Al_2_(SO_4_)(OH)_2_F_8_2H_2_O
Locality: Mina de Navidad, Rodeo, Durango, Mexico
Source: Dave Bunk Minerals
Description: Radiating group of bladed crystals
Measured chemistry: Ca_3.00_Al_2.00_(S_1.00_O_4_)(OH)_2_(F_7.31_(OH)_0.69_)_Σ=8_·2H_2_O ; OH estimated by stoichiometry and charge balance OH=10-F
Pin_id: L00115
Orientation: Laser parallel to -b* (0 -1 0). Fiducial mark perpendicular to laser is parallel to c [0 0 1]
Raman shift (cm-1)	intensity
103.206	0
107.387	151.016
111.566	593.993
115.744	346.566
119.919	153.678
124.092	132.346
128.263	112.103
132.432	87.638
136.599	96.125
140.764	18.625
144.927	18.984
149.088	166.934
153.247	112.826
157.404	57.099
161.559	28.593
165.711	163.81
169.862	260.486
174.011	382.229
178.158	454.111
182.303	360.767
186.446	445.912
190.587	888.125
194.726	793.38
198.862	268.68
202.997	112.464
207.13	109.795
211.261	75.868
215.39	63.779
219.517	37.075
223.642	174.088
227.765	122.39
231.886	8.747
236.005	31.247
240.122	98.885
244.237	87.605
248.35	6.691
252.461	121.997
256.57	211.708
260.677	85.414
264.782	10.893
268.885	56.657
272.986	115.87
277.085	94.594
281.182	143.472
285.278	223.43
289.371	227.186
293.462	43.004
297.552	77.877
301.639	110.756
305.724	136.019
309.808	50.855
313.889	15.324
317.969	119.448
322.046	25.152
326.122	72.22
330.196	27.13
334.267	136.423
338.337	98.368
342.405	8.441
346.471	132.708
350.535	225.809
354.597	155.859
358.657	78.715
362.715	209.812
366.771	358.917
370.825	457.418
374.877	285.508
378.928	186.203
382.976	326.916
387.023	280.217
391.067	142.334
395.11	268.375
399.15	401.364
403.189	238.347
407.226	49.789
411.261	174.517
415.294	271.167
419.325	265.856
423.354	84.567
427.381	233.143
431.406	571.184
435.43	1113.91
439.451	2775.64
443.471	2985.34
447.488	1433.01
451.504	737.649
455.518	436.269
459.53	274.861
463.54	356.124
467.548	353.52
471.554	176.065
475.558	127.996
479.561	298.496
483.561	551.573
487.559	355.848
491.556	125.8
495.551	47.475
499.544	215.283
503.535	190.503
507.524	28.974
511.511	29.428
515.496	121.866
519.48	259.273
523.461	90.612
527.441	24.109
531.418	68.271
535.394	178.442
539.368	207.581
543.34	110.431
547.311	25.531
551.279	95.574
555.245	182.447
559.21	113.425
563.173	20.629
567.133	138.258
571.092	207.138
575.049	220.807
579.005	94.67
582.958	84.284
586.909	253.128
590.859	432.981
594.807	623.321
598.753	1080.15
602.697	1528.96
606.639	1087.75
610.579	593.543
614.518	249.318
618.454	350.073
622.389	189.84
626.322	390.612
630.253	345.377
634.182	253.139
638.109	97.925
642.035	296.742
645.958	468.533
649.88	456.601
653.8	167.499
657.718	79.965
661.634	163.847
665.549	286.723
669.461	259.583
673.372	166.427
677.281	107.442
681.188	211.192
685.093	321.083
688.997	224.871
692.898	38.68
696.798	49.551
700.696	34.014
704.592	135.628
708.486	116.151
712.378	8.855
716.269	34.274
720.158	68.924
724.045	234.384
727.93	157.573
731.813	127.934
735.694	53.809
739.574	54.584
743.452	181.787
747.328	287.956
751.202	142.101
755.075	14.951
758.945	119.091
762.814	302.771
766.681	363.921
770.546	342.078
774.409	104.242
778.271	77.413
782.131	188.615
785.989	306.408
789.845	293.606
793.699	57.914
797.552	91.868
801.402	164.21
805.251	285.271
809.098	242.287
812.944	182.335
816.787	122.42
820.629	138.542
824.469	258.729
828.307	395.932
832.144	275.179
835.978	84.473
839.811	95.822
843.642	126.028
847.472	172.456
851.299	307.11
855.125	264.66
858.949	64.16
862.771	48.772
866.591	143.55
870.41	266.263
874.227	373.015
878.042	198.816
881.855	54.641
885.667	41.704
889.476	224.825
893.284	314.715
897.09	298.632
900.895	99.577
904.698	23.947
908.499	45.112
912.298	291.146
916.095	345.202
919.891	322.277
923.685	70.397
927.477	123.569
931.267	47.794
935.056	149.061
938.843	412.373
942.628	336.776
946.411	105.236
950.193	53.792
953.973	97.327
957.751	300.761
961.527	497.13
965.302	569.939
969.075	565.734
972.846	460.104
976.615	686.047
980.383	1584.07
984.149	5480
987.913	16771.2
991.675	6722.52
995.436	1739.04
999.195	624.527
1002.95	495.137
1006.71	425.673
1010.46	468.746
1014.21	499.245
1017.96	299.233
1021.71	60.679
1025.46	50.118
1029.2	178.277
1032.95	296.149
1036.69	413.625
1040.43	486.938
1044.17	201.71
1047.9	61.543
1051.64	71.747
1055.37	211.116
1059.1	414.22
1062.83	354.433
1066.56	381.819
1070.29	209.072
1074.01	117.717
1077.73	104.606
1081.46	230.539
1085.17	419.392
1088.89	599.342
1092.61	392.395
1096.32	247.554
1100.04	153.815
1103.75	62.177
1107.46	245.659
1111.16	297.283
1114.87	282.084
1118.57	311.159
1122.28	219.509
1125.98	146.055
1129.67	5.916
1133.37	240.47
1137.07	436.15
1140.76	454.057
1144.45	555.341
1148.14	477.207
1151.83	188.338
1155.52	5.703
1159.21	69.842
1162.89	207.4
1166.57	299.357
1170.25	371.001
1173.93	444.659
1177.61	353.057
1181.28	84.905
1184.96	63.355
1188.63	0.568
