Measurement: Raman, 514 nm, ccw, Raman Data Processed
Mineral: Creedite
Rruff sample: R050141
Ideal chemistry: Ca_3_Al_2_(SO_4_)(OH)_2_F_8_2H_2_O
Locality: Mina de Navidad, Rodeo, Durango, Mexico
Source: Dave Bunk Minerals
Description: Radiating group of bladed crystals
Measured chemistry: Ca_3.00_Al_2.00_(S_1.00_O_4_)(OH)_2_(F_7.31_(OH)_0.69_)_Σ=8_·2H_2_O ; OH estimated by stoichiometry and charge balance OH=10-F
Pin_id: L00203
Orientation: Laser parallel to c* (0 0 1). Fiducial mark perpendicular to laser is parallel to -a [-1 0 0]
Raman shift (cm-1)	intensity
111.566	0
115.744	1.934
119.919	270.205
124.092	31.518
128.263	238.238
132.432	911.948
136.599	533.544
140.764	381.51
144.927	370.173
149.088	171.511
153.247	86.686
157.404	30.021
161.559	101.622
165.711	228.918
169.862	558.833
174.011	820.318
178.158	696.496
182.303	503.457
186.446	429.517
190.587	719.379
194.726	585.505
198.862	316.433
202.997	285.983
207.13	260.26
211.261	293.441
215.39	462.696
219.517	341.102
223.642	202.589
227.765	156.386
231.886	8.208
236.005	19.569
240.122	81.683
244.237	2.329
248.35	62.505
252.461	56.23
256.57	601.357
260.677	59.741
264.782	12.198
268.885	33.761
272.986	17.933
277.085	2.036
281.182	74.864
285.278	207.323
289.371	168.241
293.462	76.393
297.552	51.068
301.639	91.603
305.724	87.684
309.808	81.069
313.889	91.748
317.969	90.165
322.046	55.631
326.122	16.92
330.196	45.312
334.267	124.486
338.337	78.848
342.405	79.245
346.471	283.03
350.535	369.345
354.597	191.25
358.657	106.199
362.715	145.941
366.771	245.218
370.825	258.021
374.877	193.924
378.928	127.56
382.976	208.417
387.023	151.505
391.067	171.431
395.11	246.116
399.15	350.674
403.189	286.348
407.226	179.67
411.261	112.625
415.294	129.884
419.325	117.911
423.354	47.138
427.381	100.297
431.406	223.954
435.43	294.713
439.451	512.674
443.471	641.086
447.488	989.689
451.504	961.915
455.518	575.199
459.53	552.052
463.54	595.5
467.548	498.345
471.554	439.573
475.558	590.09
479.561	1295.65
483.561	2448.42
487.559	1664.84
491.556	607.366
495.551	324.124
499.544	230.329
503.535	181.677
507.524	75.793
511.511	52.049
515.496	63.837
519.48	138.722
523.461	220.862
527.441	249.719
531.418	358.883
535.394	400.035
539.368	316.773
543.34	148.331
547.311	71.876
551.279	87.904
555.245	119.526
559.21	61.131
563.173	5.629
567.133	48.521
571.092	132.909
575.049	133.312
579.005	144.683
582.958	175.959
586.909	318.552
590.859	712.425
594.807	1409.71
598.753	2520.13
602.697	3810.57
606.639	2129.99
610.579	925.404
614.518	492.809
618.454	190.214
622.389	314.703
626.322	795.213
630.253	1809.56
634.182	714.972
638.109	206.54
642.035	159.873
645.958	221.625
649.88	218.021
653.8	136.789
657.718	82.37
661.634	33.899
665.549	122.351
669.461	100.811
673.372	41.721
677.281	39.156
681.188	74.255
685.093	86.702
688.997	46.098
692.898	5.571
696.798	54.016
700.696	19.238
704.592	57.659
708.486	26.537
712.378	9.541
716.269	63.86
720.158	0.618
724.045	78.255
727.93	81.894
731.813	58.236
735.694	28.494
739.574	46.003
743.452	135.228
747.328	187.12
751.202	100.729
755.075	77.876
758.945	130.884
762.814	190.842
766.681	224.735
770.546	162.612
774.409	46.402
778.271	107.14
782.131	164.875
785.989	121.493
789.845	107.01
793.699	15.535
797.552	26.818
801.402	63.116
805.251	86.352
809.098	80.517
812.944	78.646
816.787	98.585
820.629	53.575
824.469	127.561
828.307	158.446
832.144	73.26
835.978	45.955
839.811	17.644
843.642	46.654
847.472	95.696
851.299	72.785
855.125	45.893
858.949	51.696
862.771	49.089
866.591	67.91
870.41	64.154
874.227	118.756
878.042	59.169
881.855	5.602
885.667	1.555
889.476	81.121
893.284	101.845
897.09	105.659
900.895	7.522
904.698	35.762
908.499	9.924
912.298	8.595
916.095	78.251
919.891	93.895
923.685	52.525
927.477	36.068
931.267	0.299
935.056	65.29
938.843	175.039
942.628	106.728
946.411	125.402
950.193	72.909
953.973	77.44
957.751	239.211
961.527	255.878
965.302	465.608
969.075	498.272
972.846	648.921
976.615	1133.58
980.383	2666.67
984.149	9501.33
987.913	34549.3
991.675	10687.1
995.436	2772.8
999.195	1231.51
1002.95	665.212
1006.71	520.27
1010.46	422.94
1014.21	336.237
1017.96	319.39
1021.71	191.642
1025.46	124.739
1029.2	213.952
1032.95	368.102
1036.69	375.376
1040.43	409.219
1044.17	287.537
1047.9	127.138
1051.64	121.539
1055.37	135.167
1059.1	83.927
1062.83	150.917
1066.56	100.857
1070.29	63.874
1074.01	53.847
1077.73	94.784
1081.46	306.313
1085.17	735.545
1088.89	537.597
1092.61	548.027
1096.32	110.292
1100.04	31.549
1103.75	21.877
1107.46	65.404
1111.16	115.913
1114.87	66.124
1118.57	143.332
1122.28	292.739
1125.98	341.965
1129.67	444.244
1133.37	1036.69
1137.07	1647.52
1140.76	920.224
1144.45	378.098
1148.14	227.934
1151.83	107.432
1155.52	26.071
1159.21	2.531
1162.89	41.055
1166.57	101.067
1170.25	113.24
1173.93	136.472
1177.61	225.296
1181.28	259.141
1184.96	193.333
1188.63	206.861
1192.3	169.913
1195.97	143.665
1199.64	154.642
1203.3	102.02
1206.97	69.15
1210.63	67.971
1214.29	17.977
1217.95	35.047
1221.6	75.152
1225.26	148.991
1228.91	164.032
1232.57	154.335
1236.21	160.399
1239.86	81.02
1243.51	48.73
1247.16	41.438
1250.8	51.281
1254.44	183.976
1258.08	140.526
1261.72	139.727
1265.36	154.905
1268.99	137.017
1272.63	77.833
1276.26	22.015
1279.89	12.727
1283.52	80.575
1287.15	63.598
1290.77	229.117
1294.4	114.157
1298.02	183.085
1301.64	116.65
1305.26	34.149
1308.88	6.592
1312.49	29.752
1316.11	78.983
1319.72	107.006
1323.33	153.856
1326.94	120.563
1330.55	140.19
1334.15	122.621
1337.76	90.85
1341.36	18.93
1344.96	43.122
1348.56	33.714
1352.16	109.363
1355.75	143.858
1359.35	170.001
1362.94	248.845
1366.53	213.036
1370.12	170.104
1373.71	14.364
1377.3	12.294
1380.88	46.587
1384.46	41.746
1388.05	61.091
1391.63	222.042
1395.2	224.419
1398.78	245.425
1402.36	147.49
1405.93	145.393
1409.5	91.181
1413.07	123.13
1416.64	20.916
1420.21	74.492
1423.78	77.563
1427.34	117.699
1430.9	249.735
1434.46	215.14
1438.02	279.65
1441.58	276.582
1445.13	205.052
1448.69	199.805
1452.24	153.404
1455.79	59.633
1459.34	136.492
1462.89	198.735
1466.44	175.266
1469.98	213.15
1473.53	294.689
1477.07	325.596
1480.61	281.004
1484.14	176.137
1487.68	154.595
1491.22	123.755
1494.75	2.464
1498.28	67.885
1501.81	9.673
1505.34	55.678
1508.87	120.556
1512.4	124.529
1515.92	116.965
1519.44	189.917
