Measurement: Raman, 514 nm, ccw, Raman Data Processed
Mineral: Creedite
Rruff sample: R050141
Ideal chemistry: Ca_3_Al_2_(SO_4_)(OH)_2_F_8_2H_2_O
Locality: Mina de Navidad, Rodeo, Durango, Mexico
Source: Dave Bunk Minerals
Description: Radiating group of bladed crystals
Measured chemistry: Ca_3.00_Al_2.00_(S_1.00_O_4_)(OH)_2_(F_7.31_(OH)_0.69_)_Σ=8_·2H_2_O ; OH estimated by stoichiometry and charge balance OH=10-F
Pin_id: L00203
Orientation: Laser parallel to c* (0 0 1). Fiducial mark perpendicular to laser is parallel to -a [-1 0 0]
Raman shift (cm-1)	intensity
103.206	0
107.387	116.886
111.566	74.025
115.744	48.608
119.919	192.283
124.092	47.438
128.263	72.398
132.432	354.469
136.599	69.704
140.764	97.318
144.927	59.227
149.088	136.281
153.247	117.427
157.404	13.066
161.559	29.8
165.711	154.539
169.862	265.784
174.011	450.786
178.158	618.526
182.303	356.082
186.446	251.624
190.587	122.097
194.726	51.94
198.862	66.349
202.997	35.008
207.13	52.564
211.261	93.93
215.39	221.217
219.517	152.832
223.642	54.348
227.765	66.232
231.886	19.144
236.005	20.912
240.122	2.963
244.237	34.567
248.35	72.013
252.461	283.818
256.57	323.95
260.677	92.932
264.782	23.156
268.885	51.869
272.986	109.605
277.085	77.453
281.182	142.283
285.278	226.135
289.371	124.855
293.462	46.365
297.552	63.281
301.639	76.052
305.724	76.765
309.808	54.928
313.889	15.099
317.969	30.543
322.046	34.675
326.122	40.073
330.196	40.641
334.267	94.543
338.337	169.076
342.405	170.278
346.471	525.402
350.535	754.407
354.597	318.623
358.657	188.335
362.715	187.913
366.771	296.356
370.825	344.679
374.877	204.488
378.928	198.373
382.976	166.533
387.023	278.909
391.067	424.902
395.11	518.283
399.15	543.424
403.189	433.271
407.226	235.057
411.261	165.604
415.294	187.969
419.325	176.555
423.354	92.486
427.381	136.274
431.406	251.78
435.43	419.97
439.451	757.493
443.471	929.022
447.488	1304.42
451.504	1319.05
455.518	670.789
459.53	378.339
463.54	308.059
467.548	293.455
471.554	267.917
475.558	401.209
479.561	963.697
483.561	1914.31
487.559	1337.42
491.556	534.621
495.551	238.567
499.544	159.149
503.535	118.026
507.524	50.159
511.511	15.225
515.496	27.389
519.48	79.517
523.461	36.474
527.441	12.463
531.418	11.273
535.394	32.634
539.368	34.438
543.34	63.6
547.311	16.032
551.279	13.823
555.245	128.473
559.21	100.988
563.173	79.892
567.133	149.895
571.092	218.003
575.049	335.095
579.005	301.954
582.958	377.565
586.909	647.693
590.859	1212.41
594.807	2202.24
598.753	4412.1
602.697	7087
606.639	4072.9
610.579	1712.66
614.518	778.41
618.454	419.246
622.389	358.976
626.322	403.77
630.253	582.583
634.182	289.619
638.109	104.572
642.035	118.291
645.958	189.36
649.88	151.652
653.8	97.361
657.718	127.107
661.634	59.779
665.549	105.26
669.461	110.38
673.372	64.557
677.281	45.839
681.188	47.6
685.093	30.395
688.997	54.209
692.898	5.211
696.798	66.679
700.696	10.093
704.592	34.135
708.486	7.842
712.378	6.334
716.269	35.452
720.158	14.6
724.045	25.521
727.93	5.77
731.813	72.334
735.694	31.973
739.574	5.589
743.452	45.173
747.328	139.255
751.202	130.739
755.075	14.198
758.945	9.375
762.814	96.294
766.681	89.624
770.546	142.981
774.409	40.313
778.271	42.621
782.131	47.992
785.989	103.253
789.845	112.466
793.699	45.623
797.552	4.748
801.402	5.843
805.251	87.928
809.098	84.001
812.944	104.054
816.787	158.088
820.629	77.104
824.469	114.107
828.307	138.933
832.144	97.738
835.978	19.716
839.811	76.459
843.642	9.181
847.472	42.912
851.299	64.559
855.125	24.648
858.949	33.787
862.771	45.481
866.591	67.959
870.41	43.904
874.227	116.589
878.042	89.688
881.855	19.675
885.667	13.098
889.476	28.996
893.284	76.712
897.09	70.557
900.895	63.665
904.698	46.68
908.499	19.435
912.298	62.451
916.095	106.471
919.891	134.467
923.685	54.471
927.477	46.394
931.267	4.565
935.056	97.427
938.843	161.415
942.628	174.198
946.411	167.085
950.193	166.95
953.973	148.819
957.751	283.369
961.527	376.831
965.302	608.047
969.075	777.323
972.846	912.598
976.615	1673.9
980.383	3672.22
984.149	12974.6
987.913	45994
991.675	14093.4
995.436	3653.42
999.195	1502.07
1002.95	895.565
1006.71	697.49
1010.46	526.231
1014.21	461.104
1017.96	356.913
1021.71	299.992
1025.46	223.872
1029.2	250.939
1032.95	300.7
1036.69	465.77
1040.43	591.88
1044.17	460.045
1047.9	329.369
1051.64	176.959
1055.37	171.215
1059.1	220.832
1062.83	143.41
1066.56	187.245
1070.29	114.662
1074.01	123.305
1077.73	122.91
1081.46	194.528
1085.17	312.027
1088.89	286.564
1092.61	200.59
1096.32	151.584
1100.04	9.181
1103.75	53.663
1107.46	9.136
1111.16	35.671
1114.87	138.49
1118.57	58.012
1122.28	110.863
1125.98	166.56
1129.67	16.464
1133.37	131.697
1137.07	191.521
1140.76	138.181
1144.45	158.883
1148.14	78.853
1151.83	61.336
1155.52	42.601
1159.21	45.445
1162.89	28.924
1166.57	37.44
1170.25	90.716
1173.93	112.888
1177.61	181.302
1181.28	140.552
1184.96	269.129
1188.63	128.327
1192.3	87.794
1195.97	126.951
1199.64	138.868
1203.3	133.585
1206.97	172.673
1210.63	64.277
1214.29	67.511
1217.95	9.311
1221.6	100.949
1225.26	170.927
1228.91	155.704
1232.57	229.403
1236.21	196.987
1239.86	116.16
1243.51	82.427
1247.16	9.893
1250.8	123.112
1254.44	75.009
1258.08	240.799
1261.72	203.067
1265.36	205.812
1268.99	206.345
1272.63	45.755
1276.26	9.9
1279.89	46.642
1283.52	71.784
1287.15	65.821
1290.77	223.094
1294.4	131.69
1298.02	205.332
1301.64	127.564
1305.26	52.852
1308.88	95.081
1312.49	70.973
1316.11	88.764
1319.72	147.479
1323.33	131.683
1326.94	149.054
1330.55	194.563
1334.15	116.836
1337.76	124.98
1341.36	46.88
1344.96	76.921
1348.56	48.895
1352.16	33.581
1355.75	140.996
1359.35	156.61
1362.94	211.356
1366.53	226.97
1370.12	151.2
1373.71	81.225
1377.3	18.812
1380.88	68.722
1384.46	38.95
1388.05	32.089
1391.63	170.607
1395.2	243.21
1398.78	187.34
1402.36	268.498
1405.93	143.645
1409.5	143.729
1413.07	86.219
1416.64	109.637
1420.21	27.567
1423.78	118.269
1427.34	68.713
1430.9	202.968
1434.46	296.049
1438.02	238.886
1441.58	294.486
1445.13	250.55
1448.69	154.966
1452.24	149.897
1455.79	80.046
1459.34	114.13
1462.89	71.085
1466.44	194.981
1469.98	245.175
1473.53	327.796
1477.07	368.492
1480.61	356.857
1484.14	294.072
1487.68	214.255
1491.22	208.704
1494.75	129.674
1498.28	35.779
1501.81	17.409
1505.34	20.55
1508.87	104.271
1512.4	128.074
1515.92	170.727
