Measurement: Raman, 514 nm, ccw, Raman Data Processed
Mineral: Crocoite
Rruff sample: R040053
Ideal chemistry: Pb^2+^Cr^6+^O_4_
Locality: Dundas, Tasmania
Source: Bob Downs
Description: Reddish-orange prismatic crystal
Measured chemistry: (Pb_.995_Mn_.005_)CrO_4_
Pin_id: L00166
Orientation: Laser parallel to -a* (-1 0 0). Fiducial mark perpendicular to laser is parallel to b [0 1 0]
Raman shift (cm-1)	intensity
61.962	0
66.157	50.798
70.349	92.144
74.54	504.321
78.729	444.295
82.916	433.704
87.101	602.813
91.284	1016.97
95.465	912.801
99.644	753.825
103.82	713.93
107.995	816.321
112.168	946.029
116.339	1096.3
120.508	1292.4
124.675	1649.63
128.84	2864.26
133.003	3882.16
137.164	3347.35
141.323	2333.81
145.48	1683.52
149.635	1300.98
153.788	991.373
157.939	788.986
162.088	650.837
166.235	598.488
170.38	626.456
174.523	598.292
178.664	542.718
182.803	503.198
186.94	440.144
191.076	414.188
195.209	413.46
199.34	329.081
203.47	279.979
207.597	256.078
211.722	262.355
215.846	227.781
219.967	135.352
224.087	126.053
228.204	115.551
232.32	60.627
236.434	102.387
240.545	32.534
244.655	41.646
248.763	25.489
252.869	73.917
256.973	10.819
261.075	31.923
265.175	19.292
269.273	31.325
273.369	28.14
277.463	35.71
281.556	9.97
285.646	15.511
289.734	19.612
293.821	39.85
297.905	47.564
301.988	14.966
306.069	11.142
310.147	88.343
314.224	126.242
318.299	17.502
322.372	312.424
326.443	271.914
330.512	506.759
334.579	1128.13
338.645	831.058
342.708	757.001
346.769	968.609
350.829	992.682
354.887	1743.15
358.942	1507.47
362.996	840.795
367.048	690.01
371.098	1372.16
375.146	2318.36
379.192	871.342
383.236	412.574
387.279	313.086
391.319	386.483
395.358	729.431
399.394	812.38
403.429	306.508
407.462	461.733
411.493	582.937
415.522	108.555
419.549	144.928
423.575	136.234
427.598	172.043
431.619	115.657
435.639	118.235
439.657	130.829
443.673	215.172
447.687	218.936
451.699	265.683
455.709	150.043
459.717	229.968
463.724	294.04
467.728	172.858
471.731	214.528
475.732	177.442
479.731	265.272
483.728	202.483
487.723	189.767
491.716	205.942
495.708	180.21
499.697	169.245
503.685	183.583
507.671	237.471
511.655	195.908
515.637	249.874
519.617	176.385
523.596	134.435
527.572	179.006
531.547	131.1
535.52	193.724
539.491	100.863
543.46	116.511
547.427	153.675
551.393	115.357
555.356	84.522
559.318	129.175
563.278	88.335
567.236	100.982
571.192	108.105
575.147	0.681
579.099	48.674
583.05	20.862
586.999	12.869
590.946	34.094
594.891	33.605
598.834	5.239
602.776	5.566
606.715	88.591
610.653	7.636
614.589	26.718
618.523	4.45
622.456	11.12
626.386	42.629
630.315	48.07
634.242	22.718
638.167	64.896
642.09	3.035
646.012	19.861
649.931	17.99
653.849	32.924
657.765	60.857
661.679	31.518
665.592	16.061
669.502	76.343
673.411	13.276
677.318	135.532
681.223	189.293
685.126	202.777
689.028	339.061
692.927	270.988
696.825	400.277
700.721	395.397
704.616	404.061
708.508	461.682
712.399	461.413
716.288	515.323
720.175	501.433
724.06	504.097
727.944	482.398
731.825	464.558
735.705	484.461
739.584	553.178
743.46	582.121
747.334	629.691
751.207	677.392
755.078	790.591
758.947	973.687
762.815	920.593
766.68	1014.1
770.544	1022.51
774.406	1084.31
778.267	1268.2
782.125	1070.39
785.982	1587.49
789.837	1839.32
793.69	1941.42
797.542	2207.97
801.391	2515.64
805.239	2736.05
809.085	2951.26
812.93	3506.59
816.772	4952.52
820.613	6848.8
824.452	9745.44
828.29	14962.6
832.125	28570.3
835.959	52528.5
839.791	43527.2
843.621	23266.6
847.45	15506.6
851.277	12907.1
855.102	10208.1
858.925	6969.98
862.746	4981.95
866.566	3915.36
870.384	3028.53
874.2	2472.25
878.015	2126.52
881.828	1941.35
885.639	1857
889.448	1795.06
893.256	1603.31
897.061	1520.46
900.865	1268.13
904.668	1388.14
908.468	1397.03
912.267	1186.46
916.064	1036.56
919.86	847.373
923.653	614.737
927.445	730.609
931.236	581.076
935.024	577.104
938.811	468.698
942.596	311.822
946.379	254.489
950.161	296.704
953.94	252.438
957.719	424.702
961.495	403.702
965.27	362.838
969.043	334.386
972.814	364.344
976.583	395.569
980.351	336.383
984.117	386.867
987.882	139.762
991.644	90.453
995.405	115.199
999.165	141
1002.92	214.112
1006.68	254.235
1010.43	228.003
1014.18	61.323
1017.93	102.474
1021.68	107.039
1025.43	236.411
1029.18	142.998
1032.92	260.977
1036.66	95.646
1040.4	82.15
1044.14	1.145
1047.88	77.123
1051.62	423.857
1055.35	308.77
1059.08	223.934
1062.81	199.301
1066.54	94.791
1070.27	190.403
1073.99	256.271
1077.72	202.042
1081.44	398.087
1085.16	244.285
1088.88	130.279
1092.59	176.462
1096.31	112.429
1100.02	258.695
1103.73	125.356
1107.44	52.516
1111.15	10.592
1114.86	124
1118.57	319.658
1122.27	145.566
1125.97	175.575
1129.67	56.835
1133.37	1.914
1137.07	107.104
1140.76	178.401
1144.45	1.679
1148.15	68.507
1151.84	95.725
1155.53	79.054
1159.21	162.175
1162.9	144.471
1166.58	267.998
1170.26	259.104
1173.94	38.245
1177.62	0.767
1181.3	103.478
1184.97	203.716
1188.65	359.896
1192.32	484.865
1195.99	317.46
1199.66	381.085
1203.33	430.166
1206.99	414.787
1210.65	362.72
1214.32	312.44
1217.98	539.826
1221.64	736.453
1225.29	652.19
1228.95	471.664
1232.6	337.836
1236.26	302.283
1239.91	506.854
1243.56	301.927
1247.2	415.59
1250.85	568.976
1254.49	520.774
1258.13	490.609
1261.78	531.913
1265.41	382.457
1269.05	393.746
1272.69	353.422
1276.32	303.281
1279.95	469.505
1283.59	464.231
1287.21	474.862
1290.84	381.212
1294.47	268.896
1298.09	303.274
1301.72	195.895
1305.34	217.671
1308.96	236.691
1312.58	158.222
1316.19	180.28
1319.81	369.141
1323.42	394.526
1327.03	144.355
1330.64	56.066
1334.25	7.456
1337.86	20.933
1341.46	78.26
1345.07	75.575
1348.67	202.152
1352.27	438.09
1355.87	313.486
1359.46	298.363
1363.06	252.721
1366.65	196.515
1370.25	10.024
1373.84	172.801
1377.43	205.115
1381.02	330.254
1384.6	372.316
1388.18	313.306
1391.77	363.83
1395.35	278.62
1398.93	316.916
1402.51	214.862
1406.08	261.727
1409.66	97.759
1413.23	120.485
1416.8	335.36
1420.37	258.88
1423.94	437.636
1427.51	988.098
1431.08	541.384
1434.64	327.46
1438.2	234.207
1441.76	236.702
1445.32	32.902
1448.88	93.858
1452.43	98.948
1455.99	254.291
1459.54	347.131
1463.09	436.052
1466.64	587.208
1470.19	459.182
1473.74	587.251
1477.28	420.153
1480.83	285.866
1484.37	89.13
1487.91	177.263
1491.45	144.623
1494.98	132.26
1498.52	99.855
1502.05	478.334
1505.59	288.113
1509.12	439.414
1512.65	431.401
1516.17	555.954
1519.7	373.07
1523.23	403.218
1526.75	119.32
1530.27	0.422
1533.79	0
