Measurement: Raman, 514 nm, ccw, Raman Data Processed
Mineral: Crocoite
Rruff sample: R040053
Ideal chemistry: Pb^2+^Cr^6+^O_4_
Locality: Dundas, Tasmania
Source: Bob Downs
Description: Reddish-orange prismatic crystal
Measured chemistry: (Pb_.995_Mn_.005_)CrO_4_
Pin_id: L00229
Orientation: Laser parallel to -b* (0 -1 0). Fiducial mark perpendicular to laser is parallel to -c [0 0 -1]
Raman shift (cm-1)	intensity
80.125	0
84.311	57.826
88.496	101.522
92.678	219.239
96.858	444.667
101.036	495.923
105.212	242.719
109.387	156.151
113.559	130.807
117.729	214.56
121.897	246.067
126.063	444.773
130.228	833.71
134.39	1427.47
138.55	1709.07
142.709	1282.77
146.865	847.448
151.019	600.347
155.171	392.616
159.322	292.343
163.47	203.311
167.617	181.028
171.761	161.058
175.904	191.417
180.044	259.063
184.183	256.136
188.319	225.088
192.454	224.908
196.586	158.17
200.717	121.408
204.846	92.644
208.972	99.826
213.097	95.963
217.22	94.016
221.341	79.953
225.46	52.762
229.577	20.429
233.692	16.955
237.805	4.672
241.916	2.605
246.025	6.15
250.132	20.646
254.237	42.214
258.34	14.514
262.442	20.611
266.541	11.691
270.639	27.564
274.734	35.443
278.828	17.227
282.919	7.501
287.009	3.503
291.097	14.144
295.183	5.216
299.266	54.38
303.348	33.421
307.428	32.318
311.507	29.958
315.583	95.409
319.657	73.755
323.729	120.959
327.8	183.815
331.868	315.747
335.935	803.446
339.999	1112.56
344.062	509.234
348.123	724.623
352.182	610.848
356.239	784.654
360.294	1010.09
364.347	656.798
368.398	404
372.448	616.123
376.495	1585.98
380.54	1121
384.584	389.848
388.626	277.391
392.666	263.794
396.704	320.055
400.74	440.024
404.774	321.626
408.806	184.712
412.836	176.55
416.865	165.149
420.891	162.844
424.916	161.671
428.939	145.165
432.959	139.127
436.978	164.435
440.996	121.058
445.011	168.922
449.024	199.273
453.036	126.874
457.045	136.093
461.053	131.51
465.059	155.227
469.063	138.202
473.065	121.826
477.065	174.186
481.063	153.199
485.06	162.314
489.054	139.761
493.047	101.97
497.038	170.396
501.027	147.942
505.014	137.536
508.999	116.636
512.982	141.003
516.964	138.114
520.944	90.016
524.921	138.613
528.897	130.959
532.871	116.053
536.844	116.896
540.814	84.488
544.783	125.823
548.749	68.909
552.714	91.285
556.677	62.616
560.638	57.583
564.597	83.624
568.555	87.45
572.511	16.953
576.464	65.236
580.416	42.427
584.366	22.362
588.315	22.041
592.261	23.293
596.206	45.38
600.148	24.338
604.089	21.979
608.028	5.604
611.965	6.254
615.901	38.583
619.834	1.101
623.766	5.326
627.696	4.892
631.624	29.281
635.551	4.64
639.475	8.564
643.398	9.648
647.318	18.961
651.237	27.94
655.155	10.827
659.07	37.373
662.984	119.197
666.895	39.456
670.805	36.045
674.713	1.584
678.62	61.929
682.524	40.301
686.427	61.616
690.328	14.742
694.227	70.973
698.124	159.621
702.02	176.596
705.913	191.779
709.805	175.043
713.695	204.04
717.584	188.698
721.47	220.375
725.355	191.196
729.238	170.735
733.119	195.611
736.998	195.373
740.876	268.536
744.752	307.451
748.626	243.218
752.498	322.661
756.368	462.884
760.237	469.272
764.104	396.809
767.969	441.173
771.832	435.303
775.693	503.922
779.553	453.857
783.411	569.917
787.267	615.453
791.122	753.621
794.974	859.813
798.825	1002.84
802.674	1109.97
806.522	1139.7
810.367	1407.65
814.211	1622.47
818.053	2305.15
821.893	3333.55
825.732	4719.61
829.568	5837.85
833.403	8373.3
837.236	16787
841.068	26801
844.898	16695.2
848.726	9649.7
852.552	8724.49
856.376	9309.57
860.199	7284.9
864.02	4275.52
867.839	2954.63
871.656	2187.94
875.472	1681.54
879.286	1396.41
883.098	1239.52
886.909	1087.91
890.717	1012.58
894.524	968.929
898.33	872.136
902.133	748.498
905.935	760.383
909.735	700.417
913.533	558.724
917.33	534.347
921.124	450.243
924.918	398.427
928.709	387.907
932.499	303.734
936.286	260.839
940.073	238.233
943.857	177.913
947.64	158.87
951.421	143.116
955.2	138.653
958.978	105.549
962.753	53.611
966.527	131.904
970.3	163.428
974.071	155.173
977.84	157.129
981.607	135.687
985.372	123.879
989.136	76.804
992.898	93.139
996.659	141.124
1000.42	145.06
1004.17	95.28
1007.93	60.071
1011.68	99.208
1015.43	12
1019.18	60.077
1022.93	53.394
1026.68	133.826
1030.42	10.317
1034.17	35.413
1037.91	0.081
1041.65	123.951
1045.39	73.093
1049.12	122.34
1052.86	30.712
1056.59	27.192
1060.33	58.769
1064.06	17.443
1067.78	31.197
1071.51	72.028
1075.23	89.928
1078.96	120.893
1082.68	113.908
1086.4	10.11
1090.12	46.205
1093.83	70.534
1097.55	85.673
1101.26	94.827
1104.97	103.986
1108.68	41.141
1112.39	47.355
1116.1	24.123
1119.8	64.603
1123.5	556.802
1127.2	203.865
1130.9	9.27
1134.6	19.212
1138.3	9.339
1141.99	71.378
1145.69	13.934
1149.38	9.884
1153.07	33.692
1156.76	26.276
1160.44	54.76
1164.13	45.237
1167.81	44.317
1171.49	43.631
1175.17	10.27
1178.85	37.641
1182.52	29.603
1186.2	93.502
1189.87	109.011
1193.54	115.255
1197.21	94.617
1200.88	140.937
1204.55	173.46
1208.21	190.869
1211.88	207.861
1215.54	175.583
1219.2	240.926
1222.86	166.14
1226.51	164.812
1230.17	144.015
1233.82	159.554
1237.47	204.776
1241.12	222.775
1244.77	206.147
1248.42	210.738
1252.06	197.879
1255.71	148.301
1259.35	163.358
1262.99	182.845
1266.63	208.494
1270.26	168.24
1273.9	265.116
1277.53	233.788
1281.16	181.885
1284.8	196.127
1288.42	159.098
1292.05	78.746
1295.68	134.691
1299.3	61.622
1302.92	85.095
1306.55	67.498
1310.16	190.283
1313.78	85.853
1317.4	101.643
1321.01	37.536
1324.62	41.965
1328.24	47.516
1331.85	32.426
1335.45	91.178
1339.06	28.693
1342.66	89.938
1346.27	116.926
1349.87	86.69
1353.47	121.659
1357.07	22.933
1360.66	30.982
1364.26	63.811
1367.85	48.432
1371.44	13.844
1375.04	126.045
1378.62	122.921
1382.21	155.911
1385.8	158.564
1389.38	123.116
1392.96	100.655
1396.54	103.544
1400.12	79.979
1403.7	66.157
1407.28	127.884
1410.85	153.358
1414.42	173.297
1417.99	156.656
1421.56	162.125
1425.13	87.944
1428.7	99.556
1432.26	137.474
1435.83	89.588
1439.39	73.735
1442.95	102.058
1446.51	65.166
1450.06	143.688
1453.62	115.23
1457.17	150.754
1460.73	138.531
1464.28	185.676
1467.83	158.895
1471.37	145.938
1474.92	86.765
1478.46	84.215
1482.01	118.626
1485.55	84.778
1489.09	138.534
1492.63	155.46
1496.16	145.419
1499.7	166.95
1503.23	138.859
1506.76	110.185
1510.29	107.791
1513.82	67.811
1517.35	27.948
1520.88	0.655
1524.4	1.838
1527.92	15.582
1531.44	33.05
1534.96	123.965
