Measurement: Raman, 514 nm, ccw, Raman Data Processed
Mineral: Crocoite
Rruff sample: R050044
Ideal chemistry: Pb^2+^Cr^6+^O_4_
Locality: Red Ledge mine, Dundas, Tasmania
Source: Eugene Schlepp
Description: Red crystal fragment
Measured chemistry: Pb_1.02_Cr_0.99_O_4_
Pin_id: L00482
Orientation: Laser parallel to (-1 0 -1). Fiducial mark perpendicular to laser is parallel to b [0 1 0]
Raman shift (cm-1)	intensity
163.613	0
167.78	16.352
171.945	31.441
176.108	92.089
180.268	83.094
184.426	50.003
188.582	73.649
192.736	62.193
196.887	54.558
201.036	49.412
205.184	54.736
209.328	47.815
213.471	53.202
217.611	45.608
221.75	68.185
225.886	25.693
230.019	68.758
234.151	61.616
238.281	29.763
242.408	61.568
246.533	25.541
250.656	27.925
254.776	15.706
258.895	25.75
263.011	23.917
267.125	33.105
271.237	25.797
275.346	12.834
279.454	12.956
283.559	27.553
287.662	18.931
291.763	27.076
295.862	15.006
299.959	34.549
304.053	22.313
308.146	65.241
312.236	70.405
316.324	95.853
320.409	191.883
324.493	377.505
328.574	586.188
332.654	504.127
336.731	497.169
340.806	631.312
344.879	645.526
348.949	970.401
353.018	1095.59
357.084	960.053
361.148	1073.02
365.21	920.581
369.27	625.161
373.328	852.135
377.384	1841.75
381.437	2024.2
385.488	829.179
389.538	408.744
393.585	298.897
397.63	369.544
401.672	510.896
405.713	397.916
409.752	248.762
413.788	200.409
417.822	207.216
421.854	174.146
425.884	170.482
429.912	119.934
433.938	149.193
437.962	169.195
441.983	168.686
446.003	172.601
450.02	216.528
454.035	183.989
458.048	234.804
462.059	219.066
466.068	180.318
470.075	172.064
474.08	155.439
478.082	174.983
482.083	219.937
486.081	194.349
490.077	198.486
494.072	176.755
498.064	171.415
502.054	195.899
506.041	169.92
510.027	162.63
514.011	178.035
517.993	162.145
521.972	151.964
525.95	184.496
529.925	171.754
533.898	119.748
537.869	138.478
541.839	87.948
545.806	114.158
549.771	98.113
553.734	90.816
557.694	109.266
561.653	56.475
565.61	127.436
569.565	69.156
573.517	74.385
577.468	64.899
581.416	32.924
585.362	5.305
589.307	27.853
593.249	15.687
597.189	23.493
601.127	39.949
605.064	9.793
608.998	35.134
612.93	7.116
616.86	15.952
620.787	36.616
624.713	32.659
628.637	63.117
632.559	1.734
636.479	14.446
640.396	8.234
644.312	32.735
648.226	16.119
652.137	15.952
656.047	6.409
659.954	21.176
663.86	84.817
667.763	28.204
671.665	61.663
675.564	28.125
679.462	56.211
683.357	91.423
687.25	116.864
691.142	171.867
695.031	199.063
698.918	235.663
702.804	261.652
706.687	276.121
710.568	255.592
714.447	302.168
718.325	301.537
722.2	306.693
726.073	305.105
729.944	312.885
733.814	378.687
737.681	337.374
741.546	399.108
745.409	463.94
749.27	489.106
753.13	493.885
756.987	578.49
760.842	587.332
764.695	627.579
768.547	635.071
772.396	708.233
776.243	733.096
780.089	880.42
783.932	951.774
787.773	1105.07
791.613	1264.06
795.45	1458.74
799.285	1570.23
803.119	1778.84
806.95	2056.71
810.78	2332.37
814.607	2811.43
818.433	3350.76
822.256	4709.35
826.078	6409.23
829.898	9139.42
833.715	14415.9
837.531	24982.8
841.345	35540
845.157	29107.6
848.966	20175.6
852.774	16034
856.58	14602.8
860.384	11922.2
864.186	8851.83
867.986	6291.85
871.784	4716.23
875.581	3522.99
879.375	2856.14
883.167	2290.62
886.957	2074.46
890.746	1756.62
894.532	1604.12
898.317	1470.04
902.099	1388.34
905.88	1200.02
909.659	1112.11
913.435	971.627
917.21	858.601
920.983	748.036
924.754	734.898
928.523	610.198
932.29	501.81
936.056	503.627
939.819	402.214
943.58	453.166
947.34	357.498
951.097	244.426
954.853	243.7
958.606	215.695
962.358	267.364
966.108	173.465
969.856	213.739
973.602	203.206
977.346	214.532
981.088	232.425
984.828	202.699
988.567	142.291
992.303	103.524
996.038	128.084
999.77	83.305
1003.5	85.138
1007.23	45.22
1010.96	70.599
1014.68	52.241
1018.4	49.961
1022.13	81.875
1025.85	16.159
1029.56	2.051
1033.28	14.772
1036.99	0.332
1040.7	14.791
1044.41	25.498
1048.12	36.378
1051.83	88.405
1055.53	53.557
1059.24	46.84
1062.94	87.254
1066.63	71.779
1070.33	74.385
1074.03	33.108
1077.72	88.902
1081.41	56.767
1085.1	18.702
1088.79	8.701
1092.47	37.749
1096.16	16.85
1099.84	51.966
1103.52	69.076
1107.2	1.797
1110.87	27.336
1114.55	0.53
1118.22	19.589
1121.89	20.308
1125.56	24.274
1129.23	13.555
1132.89	4.017
1136.56	24.945
1140.22	77.522
1143.88	52.966
1147.53	17.794
1151.19	34.155
1154.84	10.543
1158.5	6.198
1162.15	12.432
1165.8	11.65
1169.44	38.083
1173.09	6.402
1176.73	63.559
1180.37	130.437
1184.01	95.544
1187.65	141.883
1191.28	139.368
1194.92	161.613
1198.55	170.384
1202.18	166.62
1205.81	158.346
1209.43	222.938
1213.06	225.258
1216.68	198.931
1220.3	218.804
1223.92	223.775
1227.54	212.68
1231.15	187.793
1234.77	194.541
1238.38	270.794
1241.99	219.649
1245.6	210.594
1249.21	198.913
1252.81	203.206
1256.41	214.371
1260.01	211.282
1263.61	238.744
1267.21	230.806
1270.81	268.099
1274.4	245.327
1277.99	196.299
1281.58	161.297
1285.17	88.563
1288.76	61.376
1292.34	117.75
1295.93	30.887
1299.51	71.287
1303.09	131.333
1306.66	88.503
1310.24	49.161
1313.82	74.104
1317.39	112.158
1320.96	45.455
1324.53	56.572
1328.09	49.447
1331.66	52.05
1335.22	36.448
1338.79	94.801
1342.35	103.698
1345.9	108.365
1349.46	46.792
1353.01	70.093
1356.57	68.158
1360.12	14.024
1363.67	44.787
1367.21	71.781
1370.76	35.906
1374.3	31.631
1377.85	82.826
1381.39	49.736
1384.93	84.016
1388.46	80.573
1392	31.465
1395.53	30.06
1399.06	19.508
1402.59	41.445
1406.12	118.832
1409.65	97.699
1413.17	129.052
1416.69	55.095
1420.22	125.527
1423.74	102.1
1427.25	40.279
1430.77	32.092
1434.28	39.966
1437.8	24.015
1441.31	86.023
1444.82	103.783
1448.32	37.407
1451.83	166.492
1455.33	88.898
1458.83	100.558
1462.34	101.609
1465.83	70.691
1469.33	46.006
1472.83	90.581
1476.32	25.592
1479.81	85.781
1483.3	97.313
1486.79	137.479
1490.28	145.141
1493.76	111.365
1497.24	179.237
1500.72	96.06
1504.2	82.31
1507.68	131.502
1511.16	82.858
1514.63	11.47
