Measurement: Raman, 514 nm, ccw, Raman Data Processed
Mineral: Crocoite
Rruff sample: R040053
Ideal chemistry: Pb^2+^Cr^6+^O_4_
Locality: Dundas, Tasmania
Source: Bob Downs
Description: Reddish-orange prismatic crystal
Measured chemistry: (Pb_.995_Mn_.005_)CrO_4_
Pin_id: L00142
Orientation: Laser parallel to c* (0 0 1). Fiducial mark perpendicular to laser is parallel to a [1 0 0]
Raman shift (cm-1)	intensity
66.157	0
70.349	116.422
74.54	43.675
78.729	125.405
82.916	120.509
87.101	45.322
91.284	184.031
95.465	239.947
99.644	294.792
103.82	252.315
107.995	268.858
112.168	418.604
116.339	1059.22
120.508	551.793
124.675	445.605
128.84	471.013
133.003	783.61
137.164	926.98
141.323	766.131
145.48	667.525
149.635	508.356
153.788	505.952
157.939	437.681
162.088	394.042
166.235	301.634
170.38	371.081
174.523	238.357
178.664	232.285
182.803	139.467
186.94	173.561
191.076	96.119
195.209	100.582
199.34	102.41
203.47	93.508
207.597	55.808
211.722	51.355
215.846	36.858
219.967	40.576
224.087	50.611
228.204	7.968
232.32	36.519
236.434	51.052
240.545	31.516
244.655	16.144
248.763	16.167
252.869	27.702
256.973	53.948
261.075	30.66
265.175	89.263
269.273	127.87
273.369	82.284
277.463	100.675
281.556	158.819
285.646	158.634
289.734	172.419
293.821	206.166
297.905	203.91
301.988	238.916
306.069	310.714
310.147	335.208
314.224	416.071
318.299	606.375
322.372	1190.78
326.443	2462.78
330.512	1494.07
334.579	1244.09
338.645	1998.19
342.708	1266.5
346.769	1756.73
350.829	1327.23
354.887	624.199
358.942	576.164
362.996	573.389
367.048	488.69
371.098	603.669
375.146	1338.97
379.192	1812.5
383.236	717.615
387.279	471.646
391.319	447.122
395.358	541.614
399.394	851.947
403.429	634.987
407.462	377.912
411.493	371.643
415.522	257.998
419.549	219.139
423.575	286.351
427.598	231.192
431.619	250.421
435.639	210.288
439.657	208.082
443.673	268.292
447.687	242.336
451.699	210.17
455.709	236.39
459.717	234.932
463.724	213.896
467.728	211.358
471.731	195.923
475.732	245.169
479.731	211.773
483.728	163.355
487.723	157.739
491.716	171.334
495.708	205.154
499.697	167.284
503.685	142.218
507.671	172.219
511.655	189.185
515.637	135.027
519.617	139.37
523.596	125.353
527.572	168.996
531.547	171.497
535.52	107.188
539.491	64.822
543.46	82.241
547.427	140.551
551.393	129.761
555.356	107.856
559.318	80.92
563.278	101.995
567.236	104.039
571.192	293.025
575.147	38.676
579.099	45.771
583.05	80.525
586.999	68.402
590.946	3.443
594.891	10.215
598.834	14.975
602.776	56.961
606.715	3.623
610.653	54.99
614.589	43.575
618.523	13.49
622.456	59.072
626.386	19.228
630.315	18.538
634.242	24.103
638.167	44.175
642.09	63.041
646.012	23.801
649.931	10.752
653.849	17.769
657.765	50.778
661.679	83.03
665.592	12.463
669.502	51.316
673.411	31.414
677.318	45.3
681.223	24.188
685.126	6.141
689.028	26.115
692.927	70.548
696.825	53.942
700.721	98.59
704.616	25.276
708.508	38.926
712.399	78.317
716.288	120.435
720.175	66.553
724.06	81.945
727.944	129.671
731.825	71.167
735.705	102.639
739.584	182.35
743.46	126.975
747.334	180.268
751.207	162.912
755.078	271.339
758.947	298.254
762.815	310.025
766.68	236.426
770.544	347.261
774.406	365.401
778.267	537.053
782.125	566.774
785.982	639.393
789.837	795.704
793.69	951.313
797.542	1259.92
801.391	1379.52
805.239	1592.02
809.085	1913.66
812.93	2335.3
816.772	3386.94
820.613	4848.44
824.452	6456.2
828.29	7791.15
832.125	10386.7
835.959	17161
839.791	26675.8
843.621	21240.6
847.45	14407.3
851.277	12964.1
855.102	12951.2
858.925	11128.4
862.746	8345.84
866.566	6296.48
870.384	4694.29
874.2	3600.79
878.015	3091.96
881.828	2822.3
885.639	2545.8
889.448	2195.31
893.256	1665.32
897.061	1302.32
900.865	1096.52
904.668	1035.88
908.468	965.795
912.267	840.524
916.064	678.47
919.86	496.621
923.653	454.954
927.445	459.025
931.236	471.724
935.024	402.621
938.811	311.707
942.596	154.967
946.379	154.419
950.161	192.049
953.94	156.407
957.719	228.51
961.495	126.639
965.27	73.959
969.043	76.719
972.814	203.644
976.583	168.414
980.351	249.832
984.117	119.583
987.882	69.849
991.644	45.89
995.405	77.396
999.165	122.016
1002.92	210.099
1006.68	161.737
1010.43	134.238
1014.18	43.799
1017.93	52.976
1021.68	59.506
1025.43	101.109
1029.18	125.456
1032.92	124.354
1036.66	33.015
1040.4	10.315
1044.14	35.336
1047.88	70.057
1051.62	140.831
1055.35	143.644
1059.08	138.47
1062.81	68.335
1066.54	8.229
1070.27	15.406
1073.99	77.379
1077.72	134.366
1081.44	123.521
1085.16	137.498
1088.88	16.484
1092.59	44.785
1096.31	29.909
1100.02	2.948
1103.73	67.861
1107.44	84.645
1111.15	166.826
1114.86	15.164
1118.57	61.681
1122.27	286.094
1125.97	107.926
1129.67	86.412
1133.37	103.506
1137.07	101.746
1140.76	66.694
1144.45	14.565
1148.15	66.611
1151.84	6.534
1155.53	111.955
1159.21	114.617
1162.9	181.116
1166.58	102.812
1170.26	30.818
1173.94	80.131
1177.62	38.456
1181.3	87.201
1184.97	139.254
1188.65	256.194
1192.32	294.793
1195.99	279.859
1199.66	210.2
1203.33	163.43
1206.99	137.148
1210.65	181.956
1214.32	192.106
1217.98	238.815
1221.64	316.288
1225.29	296.644
1228.95	239.116
1232.6	218.871
1236.26	89.198
1239.91	136.649
1243.56	212.523
1247.2	281.912
1250.85	341.895
1254.49	302.851
1258.13	206.342
1261.78	183.847
1265.41	95.801
1269.05	95.101
1272.69	102.487
1276.32	251.551
1279.95	180.558
1283.59	303.586
1287.21	303.755
1290.84	168.905
1294.47	120.534
1298.09	67.611
1301.72	45.389
1305.34	72.082
1308.96	165.532
1312.58	119.651
1316.19	121.702
1319.81	127.42
1323.42	65.163
1327.03	99.978
1330.64	2.405
1334.25	47.007
1337.86	28.211
1341.46	42.127
1345.07	174.893
1348.67	243.475
1352.27	249.795
1355.87	114.914
1359.46	199.956
1363.06	1.595
1366.65	43.473
1370.25	73.809
1373.84	84.88
1377.43	152.002
1381.02	153.582
1384.6	237.934
1388.18	276.13
1391.77	278.698
1395.35	173.397
1398.93	52.909
1402.51	78.983
1406.08	24.305
1409.66	242.822
1413.23	158.235
1416.8	141.446
1420.37	249.911
1423.94	204.013
1427.51	231.182
1431.08	179.722
1434.64	164.505
1438.2	92.14
1441.76	32.669
1445.32	100.032
1448.88	164.8
1452.43	74.75
1455.99	179.104
1459.54	279.717
1463.09	326.824
1466.64	291.013
1470.19	280.956
1473.74	211.938
1477.28	258.124
1480.83	110.456
1484.37	57.405
1487.91	52.333
1491.45	109.26
1494.98	81.546
1498.52	104.751
1502.05	315.555
1505.59	308.689
1509.12	135.739
1512.65	275.839
1516.17	300.293
1519.7	204.042
1523.23	150.447
1526.75	54.665
1530.27	4.466
1533.79	13.672
1537.31	0
