Measurement: Raman, 514 nm, ccw, Raman Data Processed
Mineral: Crocoite
Rruff sample: R050044
Ideal chemistry: Pb^2+^Cr^6+^O_4_
Locality: Red Ledge mine, Dundas, Tasmania
Source: Eugene Schlepp
Description: Red crystal fragment
Measured chemistry: Pb_1.02_Cr_0.99_O_4_
Pin_id: L00482
Orientation: Laser parallel to (-1 0 -1). Fiducial mark perpendicular to laser is parallel to b [0 1 0]
Raman shift (cm-1)	intensity
159.444	0
163.613	39.484
167.78	0.973
171.945	25.389
176.108	50.531
180.268	34.522
184.426	51.457
188.582	50.74
192.736	16.384
196.887	64.13
201.036	41.818
205.184	50.537
209.328	38.091
213.471	24.288
217.611	24.005
221.75	46.605
225.886	56.488
230.019	61.365
234.151	57.524
238.281	12.204
242.408	30.104
246.533	35.291
250.656	13.765
254.776	28.412
258.895	34.132
263.011	0.136
267.125	15.552
271.237	4.129
275.346	7.571
279.454	3.876
283.559	10.024
287.662	29.978
291.763	25.846
295.862	41.261
299.959	47.879
304.053	267.203
308.146	38.513
312.236	74.378
316.324	96.404
320.409	138.478
324.493	218.929
328.574	362.334
332.654	588.025
336.731	1316.45
340.806	1922.49
344.879	1262.94
348.949	1122.82
353.018	942.318
357.084	464.58
361.148	318.654
365.21	283.142
369.27	194.397
373.328	181.083
377.384	241.221
381.437	264.045
385.488	167.018
389.538	160.948
393.585	201.315
397.63	482.806
401.672	1093.67
405.713	913.436
409.752	350.119
413.788	156.191
417.822	113.202
421.854	101.681
425.884	92.735
429.912	56.236
433.938	54.934
437.962	69.442
441.983	116.731
446.003	112.579
450.02	124.154
454.035	115.132
458.048	136.182
462.059	142.64
466.068	154.765
470.075	148.461
474.08	108.504
478.082	159.549
482.083	136.423
486.081	130.062
490.077	129.526
494.072	127.577
498.064	112.519
502.054	126.438
506.041	127.986
510.027	116.444
514.011	120.607
517.993	88.593
521.972	112.465
525.95	103.094
529.925	127.538
533.898	66.815
537.869	88.929
541.839	72.887
545.806	61.436
549.771	77.324
553.734	71.808
557.694	63.14
561.653	75.322
565.61	33.362
569.565	57.252
573.517	70.017
577.468	39.663
581.416	28.049
585.362	15.258
589.307	7.912
593.249	7.454
597.189	11.245
601.127	38.817
605.064	6.636
608.998	8.782
612.93	29.173
616.86	2.221
620.787	27.633
624.713	35.801
628.637	5.198
632.559	21.076
636.479	18.426
640.396	7.622
644.312	19.709
648.226	18.374
652.137	1.431
656.047	9.981
659.954	10.523
663.86	15.188
667.763	4.792
671.665	31.346
675.564	24.536
679.462	0.241
683.357	19.926
687.25	27.161
691.142	72.147
695.031	71.31
698.918	92.218
702.804	85.914
706.687	130.799
710.568	131.793
714.447	139.681
718.325	97.635
722.2	120.25
726.073	75.885
729.944	172.897
733.814	173.78
737.681	178.573
741.546	201.721
745.409	207.249
749.27	250.643
753.13	267.933
756.987	359.348
760.842	302.709
764.695	388.657
768.547	466.131
772.396	519.857
776.243	595.967
780.089	777.086
783.932	1057.18
787.773	1288.76
791.613	1585.02
795.45	1928.67
799.285	2272.54
803.119	2501.59
806.95	2967.74
810.78	3365.08
814.607	4001.4
818.433	5058.1
822.256	7032.88
826.078	9852.94
829.898	14025.2
833.715	22307.6
837.531	38950.3
841.345	53043.3
845.157	40966.4
848.966	26299.8
852.774	19073.3
856.58	15807
860.384	12120.9
864.186	9074.97
867.986	6785.2
871.784	5303.6
875.581	4242.18
879.375	3512.01
883.167	2974.28
886.957	2639.39
890.746	2270.75
894.532	1931.52
898.317	1646.58
902.099	1436.08
905.88	1245.19
909.659	1055.62
913.435	914.238
917.21	825.122
920.983	919.094
924.754	600.451
928.523	545.066
932.29	556.918
936.056	453.228
939.819	399.002
943.58	409.162
947.34	391.742
951.097	301.876
954.853	277.767
958.606	245.239
962.358	195.532
966.108	206.089
969.856	200.019
973.602	187.304
977.346	157.084
981.088	164.043
984.828	155.423
988.567	94.761
992.303	119.863
996.038	101.214
999.77	86.197
1003.5	62.641
1007.23	68.934
1010.96	45.585
1014.68	22.307
1018.4	10.151
1022.13	33.032
1025.85	62.991
1029.56	46.02
1033.28	1.894
1036.99	15.248
1040.7	11.446
1044.41	19.702
1048.12	2.997
1051.83	19.333
1055.53	14.704
1059.24	7.126
1062.94	26.689
1066.63	15.934
1070.33	10.535
1074.03	30.274
1077.72	29.493
1081.41	7.992
1085.1	10.513
1088.79	24.044
1092.47	15.548
1096.16	4.028
1099.84	23.496
1103.52	1.056
1107.2	27.64
1110.87	11.302
1114.55	0.922
1118.22	15.997
1121.89	10.01
1125.56	17.125
1129.23	31.613
1132.89	37.831
1136.56	33.48
1140.22	2.657
1143.88	26.691
1147.53	24.778
1151.19	28.032
1154.84	40.009
1158.5	66.843
1162.15	35.629
1165.8	79.686
1169.44	94.632
1173.09	79.694
1176.73	89.259
1180.37	96.429
1184.01	102.641
1187.65	118.484
1191.28	129.678
1194.92	122.824
1198.55	179.736
1202.18	85.048
1205.81	163.876
1209.43	172.088
1213.06	114.594
1216.68	137.656
1220.3	178.039
1223.92	121.754
1227.54	134.988
1231.15	132.5
1234.77	162.164
1238.38	179.149
1241.99	181.577
1245.6	120.747
1249.21	173.662
1252.81	150.069
1256.41	180.52
1260.01	113.283
1263.61	149.419
1267.21	118.773
1270.81	116.523
1274.4	115.926
1277.99	82.426
1281.58	86.239
1285.17	97.887
1288.76	41.977
1292.34	76.389
1295.93	78.65
1299.51	48.248
1303.09	89.161
1306.66	82.714
1310.24	51.29
1313.82	16.585
1317.39	60.834
1320.96	43.908
1324.53	59.617
1328.09	37.637
1331.66	38.271
1335.22	22.77
1338.79	33.349
1342.35	44.45
1345.9	74.592
1349.46	37.677
1353.01	34.65
1356.57	29.345
1360.12	37.951
1363.67	28.423
1367.21	62.334
1370.76	40.547
1374.3	27.487
1377.85	34.997
1381.39	42.703
1384.93	72.227
1388.46	2.619
1392	21.039
1395.53	6.438
1399.06	25.931
1402.59	38.639
1406.12	32.171
1409.65	13.938
1413.17	62.157
1416.69	6.547
1420.22	47.941
1423.74	99.501
1427.25	26.149
1430.77	50.121
1434.28	31.604
1437.8	38.126
1441.31	21.604
1444.82	57.615
1448.32	24.978
1451.83	50.908
1455.33	62.639
1458.83	81.143
1462.34	31.454
1465.83	49.374
1469.33	36.988
1472.83	72.481
1476.32	58.352
1479.81	11.851
1483.3	15.596
1486.79	16.94
1490.28	95.58
1493.76	58.88
1497.24	82.33
1500.72	110.88
1504.2	28.328
1507.68	57.864
1511.16	23.744
1514.63	2.521
