Measurement: Raman, 514 nm, ccw, Raman Data Processed
Mineral: Crocoite
Rruff sample: R050044
Ideal chemistry: Pb^2+^Cr^6+^O_4_
Locality: Red Ledge mine, Dundas, Tasmania
Source: Eugene Schlepp
Description: Red crystal fragment
Measured chemistry: Pb_1.02_Cr_0.99_O_4_
Pin_id: L00200
Orientation: Laser parallel to c* (0 0 1). Fiducial mark perpendicular to laser is parallel to -a [-1 0 0]
Raman shift (cm-1)	intensity
155.272	0
159.444	18.192
163.613	9.883
167.78	1.049
171.945	28.183
176.108	27.495
180.268	38.873
184.426	17.216
188.582	30.626
192.736	41.091
196.887	46.374
201.036	57.636
205.184	51.794
209.328	42.326
213.471	53.579
217.611	52.938
221.75	51.737
225.886	37.24
230.019	27.671
234.151	3.884
238.281	22.383
242.408	17.071
246.533	23.005
250.656	16.046
254.776	10.125
258.895	19.812
263.011	0.211
267.125	22.162
271.237	0.995
275.346	1.304
279.454	23.241
283.559	13.398
287.662	19.142
291.763	19.886
295.862	1.833
299.959	11.274
304.053	18.388
308.146	21.541
312.236	40.322
316.324	62.175
320.409	91.147
324.493	245.558
328.574	646.774
332.654	512.779
336.731	356.324
340.806	733.406
344.879	531.292
348.949	491.926
353.018	595.644
357.084	171.676
361.148	146.422
365.21	125.978
369.27	88.378
373.328	92.447
377.384	125.858
381.437	345.158
385.488	204.374
389.538	117.294
393.585	106.837
397.63	142.031
401.672	348.371
405.713	433.35
409.752	141.575
413.788	58.645
417.822	50.694
421.854	39.955
425.884	50.146
429.912	24.824
433.938	43.699
437.962	46.486
441.983	54.684
446.003	69.698
450.02	47.622
454.035	48.469
458.048	65.532
462.059	73.486
466.068	74.041
470.075	70.518
474.08	66.376
478.082	66.24
482.083	90.252
486.081	62.16
490.077	90.775
494.072	85.405
498.064	85.867
502.054	88.986
506.041	100.829
510.027	84.938
514.011	99.622
517.993	80.751
521.972	79.534
525.95	92.273
529.925	97.87
533.898	93.4
537.869	82.842
541.839	77.213
545.806	88.515
549.771	70.749
553.734	74.92
557.694	72.032
561.653	76.369
565.61	92.086
569.565	96.669
573.517	96.827
577.468	78.49
581.416	59.99
585.362	44.475
589.307	37.667
593.249	5.108
597.189	1.113
601.127	3.68
605.064	3.478
608.998	4.609
612.93	2.46
616.86	6.57
620.787	8.609
624.713	12.849
628.637	4.123
632.559	7.349
636.479	15.874
640.396	7.29
644.312	6.345
648.226	22.95
652.137	23.264
656.047	10.492
659.954	1.295
663.86	10.867
667.763	4.01
671.665	22.071
675.564	27.063
679.462	36.073
683.357	26.058
687.25	0.979
691.142	33.966
695.031	17.895
698.918	44.81
702.804	65.465
706.687	59.605
710.568	64.489
714.447	48.366
718.325	17.238
722.2	36.107
726.073	31.975
729.944	32.842
733.814	72.714
737.681	84.595
741.546	79.452
745.409	84.149
749.27	80.972
753.13	88.635
756.987	129.285
760.842	153.643
764.695	144.353
768.547	155.542
772.396	184.404
776.243	230.864
780.089	242.199
783.932	318.52
787.773	398.582
791.613	474.105
795.45	625.404
799.285	737.029
803.119	823.34
806.95	918.108
810.78	1077.79
814.607	1329.98
818.433	1663.96
822.256	2305.36
826.078	3155.51
829.898	4180.99
833.715	6081.8
837.531	10927.7
841.345	19024.6
845.157	15391.7
848.966	8896.87
852.774	6362.09
856.58	5779.38
860.384	4746.72
864.186	3550.13
867.986	2724.66
871.784	2110.2
875.581	1688.83
879.375	1462.49
883.167	1292.28
886.957	1161.07
890.746	952.264
894.532	824.19
898.317	684.717
902.099	583.738
905.88	529.594
909.659	470.783
913.435	379.24
917.21	343.675
920.983	277.188
924.754	249.782
928.523	231.461
932.29	214.261
936.056	181.896
939.819	163.774
943.58	146.93
947.34	132.808
951.097	123.03
954.853	92.661
958.606	129.388
962.358	105.797
966.108	82.69
969.856	79.723
973.602	81.85
977.346	75.542
981.088	59.509
984.828	57.469
988.567	46.671
992.303	24.203
996.038	66.455
999.77	45.102
1003.5	23.791
1007.23	14.606
1010.96	20.678
1014.68	15.014
1018.4	36.506
1022.13	2.311
1025.85	21.933
1029.56	11.195
1033.28	10.486
1036.99	13.192
1040.7	0.851
1044.41	10.518
1048.12	14.914
1051.83	5.344
1055.53	0.794
1059.24	5.759
1062.94	1.313
1066.63	0.85
1070.33	13.629
1074.03	39.483
1077.72	47.64
1081.41	18.166
1085.1	35.702
1088.79	7.26
1092.47	3.813
1096.16	3.409
1099.84	44.962
1103.52	27.51
1107.2	18.032
1110.87	5.534
1114.55	1.087
1118.22	6.462
1121.89	3.999
1125.56	4.61
1129.23	1.01
1132.89	7.325
1136.56	9.615
1140.22	1.792
1143.88	3.194
1147.53	8.797
1151.19	24.327
1154.84	36.558
1158.5	4.893
1162.15	2.955
1165.8	19.027
1169.44	13.039
1173.09	27.148
1176.73	47.057
1180.37	54.074
1184.01	66.623
1187.65	73.593
1191.28	65.971
1194.92	81.227
1198.55	49.779
1202.18	39.967
1205.81	71.536
1209.43	44.142
1213.06	64.75
1216.68	67.669
1220.3	59.468
1223.92	58.455
1227.54	77.035
1231.15	55.822
1234.77	58.844
1238.38	27.052
1241.99	82.581
1245.6	86.668
1249.21	85.68
1252.81	69.506
1256.41	26.85
1260.01	45.365
1263.61	29.532
1267.21	37.255
1270.81	81.224
1274.4	58.695
1277.99	44.853
1281.58	78.992
1285.17	44.84
1288.76	30.215
1292.34	29.404
1295.93	9.482
1299.51	42.217
1303.09	41.706
1306.66	35.81
1310.24	31.248
1313.82	36.52
1317.39	52.807
1320.96	24.954
1324.53	24.032
1328.09	13.06
1331.66	22.038
1335.22	24.97
1338.79	6.169
1342.35	33.61
1345.9	57.339
1349.46	45.026
1353.01	27.672
1356.57	4.406
1360.12	1.969
1363.67	7.531
1367.21	32.437
1370.76	21.869
1374.3	44.999
1377.85	37.819
1381.39	23.983
1384.93	35.121
1388.46	30.156
1392	17.202
1395.53	6.005
1399.06	50.065
1402.59	18.054
1406.12	2.925
1409.65	61.509
1413.17	50.237
1416.69	44.411
1420.22	54.952
1423.74	47.444
1427.25	51.661
1430.77	72.198
1434.28	45.028
1437.8	9.764
1441.31	4.668
1444.82	57.937
1448.32	67.871
1451.83	59.186
1455.33	59.325
1458.83	44.399
1462.34	35.616
1465.83	67.596
1469.33	56.528
1472.83	19.507
1476.32	73.311
1479.81	27.437
1483.3	32.629
1486.79	32.014
1490.28	43.948
1493.76	48.96
1497.24	56.002
1500.72	28.573
1504.2	57.722
1507.68	45.108
1511.16	29.648
1514.63	0
