Measurement: Raman, 514 nm, ccw, Raman Data Processed
Mineral: Crocoite
Rruff sample: R040053
Ideal chemistry: Pb^2+^Cr^6+^O_4_
Locality: Dundas, Tasmania
Source: Bob Downs
Description: Reddish-orange prismatic crystal
Measured chemistry: (Pb_.995_Mn_.005_)CrO_4_
Pin_id: L00229
Orientation: Laser parallel to -b* (0 -1 0). Fiducial mark perpendicular to laser is parallel to -c [0 0 -1]
Raman shift (cm-1)	intensity
82.916	0
87.101	9.365
91.284	315.782
95.465	715.244
99.644	693.354
103.82	344.222
107.995	344.466
112.168	436.646
116.339	595.71
120.508	775.847
124.675	1136.95
128.84	1899.36
133.003	3382.19
137.164	4699.41
141.323	3874.37
145.48	2553.48
149.635	1880.76
153.788	1423.25
157.939	922.981
162.088	656.943
166.235	560.101
170.38	447.99
174.523	462.304
178.664	543.758
182.803	504.658
186.94	494.258
191.076	451.192
195.209	420.716
199.34	406.805
203.47	338.3
207.597	279.176
211.722	198.419
215.846	218.955
219.967	178.734
224.087	195.718
228.204	137.905
232.32	116.287
236.434	91.78
240.545	110.41
244.655	32.11
248.763	54.023
252.869	41.709
256.973	15.7
261.075	25.667
265.175	17.565
269.273	9.976
273.369	25.835
277.463	79.28
281.556	40.201
285.646	77.03
289.734	39.613
293.821	23.766
297.905	23.173
301.988	22.24
306.069	18.745
310.147	79.149
314.224	65.348
318.299	110.612
322.372	148.948
326.443	248.334
330.512	254.424
334.579	553.182
338.645	966.459
342.708	712.557
346.769	648.593
350.829	1004.46
354.887	1376.91
358.942	2396.56
362.996	1845.68
367.048	1028.12
371.098	870.479
375.146	1719.86
379.192	2547.77
383.236	972.128
387.279	404.82
391.319	433.646
395.358	477.878
399.394	809.889
403.429	707.106
407.462	303.716
411.493	192.829
415.522	186.429
419.549	199.883
423.575	149.342
427.598	123.259
431.619	150.995
435.639	149.423
439.657	94.893
443.673	151.931
447.687	223.288
451.699	196.425
455.709	237.435
459.717	240.538
463.724	221.608
467.728	174.822
471.731	223.788
475.732	235.849
479.731	202.81
483.728	277.696
487.723	253.114
491.716	154.711
495.708	220.163
499.697	201.595
503.685	162.68
507.671	182.413
511.655	201.795
515.637	260.83
519.617	207.519
523.596	179.837
527.572	119.797
531.547	171.38
535.52	152.584
539.491	381.423
543.46	293.923
547.427	112.074
551.393	138.838
555.356	154.975
559.318	126.329
563.278	115.047
567.236	27.374
571.192	113.241
575.147	23.715
579.099	4.264
583.05	33.24
586.999	29.746
590.946	2.314
594.891	89.699
598.834	33.838
602.776	10.338
606.715	7.064
610.653	16.275
614.589	77.985
618.523	27.804
622.456	59.032
626.386	3.76
630.315	15.75
634.242	27.875
638.167	55.909
642.09	39.38
646.012	28.212
649.931	44.574
653.849	68.256
657.765	49.759
661.679	35.802
665.592	35.987
669.502	108.728
673.411	136.447
677.318	136.64
681.223	153.163
685.126	252.376
689.028	253.133
692.927	391.733
696.825	356.959
700.721	597.024
704.616	505.716
708.508	503.907
712.399	586.227
716.288	541.258
720.175	577.07
724.06	602.042
727.944	666.365
731.825	585.271
735.705	573.292
739.584	661.768
743.46	694.626
747.334	727.167
751.207	737.003
755.078	875.28
758.947	954.036
762.815	1100.45
766.68	1075.78
770.544	1369.83
774.406	1099.4
778.267	1272.93
782.125	1225.18
785.982	1334.82
789.837	1459.72
793.69	1808.55
797.542	1804.21
801.391	2093.95
805.239	2222.7
809.085	2560.53
812.93	2765.41
816.772	3426.68
820.613	4708.36
824.452	6717.45
828.29	9436.95
832.125	13956.9
835.959	26657.5
839.791	50498.5
843.621	42200.2
847.45	20952.4
851.277	13655.3
855.102	11468.8
858.925	9383.75
862.746	6289.46
866.566	4244.72
870.384	3122.57
874.2	2335.05
878.015	1936.14
881.828	1716.91
885.639	1654.26
889.448	1627.18
893.256	1660.72
897.061	1498.98
900.865	1581.82
904.668	1624.22
908.468	1485.3
912.267	1420.97
916.064	1240.27
919.86	1106.23
923.653	931.864
927.445	663.252
931.236	774.035
935.024	573.589
938.811	542.8
942.596	453.548
946.379	294.881
950.161	274.808
953.94	268.285
957.719	189.276
961.495	172.06
965.27	276.888
969.043	270.285
972.814	273.136
976.583	284.431
980.351	367.167
984.117	325.98
987.882	377.197
991.644	170.377
995.405	202.352
999.165	71.079
1002.92	147.651
1006.68	142.744
1010.43	91.379
1014.18	100.917
1017.93	18.084
1021.68	110.498
1025.43	153.983
1029.18	127.221
1032.92	73.888
1036.66	277.423
1040.4	14.831
1044.14	7.224
1047.88	58.086
1051.62	132.587
1055.35	293.102
1059.08	178.86
1062.81	104.829
1066.54	172.962
1070.27	59.246
1073.99	122.67
1077.72	191.221
1081.44	151.871
1085.16	299.61
1088.88	228.432
1092.59	123.326
1096.31	123.275
1100.02	115.262
1103.73	157.493
1107.44	131.541
1111.15	239.597
1114.86	51.664
1118.57	166.753
1122.27	434.763
1125.97	233.739
1129.67	86.275
1133.37	17.475
1137.07	16.016
1140.76	43.4
1144.45	96.244
1148.15	74.58
1151.84	8.682
1155.53	8.719
1159.21	1.154
1162.9	0.306
1166.58	74.639
1170.26	13.553
1173.94	49.737
1177.62	22.21
1181.3	40.764
1184.97	42.441
1188.65	89.616
1192.32	203.442
1195.99	250.351
1199.66	232.188
1203.33	202.507
1206.99	236.98
1210.65	265.871
1214.32	319.649
1217.98	336.094
1221.64	341.731
1225.29	370.356
1228.95	339.178
1232.6	316.071
1236.26	226.848
1239.91	232.397
1243.56	296.916
1247.2	231.341
1250.85	239.541
1254.49	330.372
1258.13	349.727
1261.78	316.524
1265.41	343.219
1269.05	267.169
1272.69	269.832
1276.32	318.349
1279.95	216.937
1283.59	337.672
1287.21	235.589
1290.84	310.76
1294.47	157.468
1298.09	116.817
1301.72	70.791
1305.34	87.091
1308.96	103.422
1312.58	106.331
1316.19	60.729
1319.81	130.292
1323.42	127.114
1327.03	191.936
1330.64	77.412
1334.25	25.407
1337.86	53.77
1341.46	17.595
1345.07	25.058
1348.67	52.328
1352.27	176.233
1355.87	141.706
1359.46	147.921
1363.06	87.923
1366.65	162.39
1370.25	86.615
1373.84	27.511
1377.43	106.227
1381.02	74.891
1384.6	198.585
1388.18	188.708
1391.77	165.973
1395.35	169.323
1398.93	60.04
1402.51	200.266
1406.08	137.831
1409.66	54.917
1413.23	44.905
1416.8	165.278
1420.37	187.053
1423.94	186.408
1427.51	176.195
1431.08	138.653
1434.64	192.846
1438.2	170.327
1441.76	133.868
1445.32	72.102
1448.88	7.171
1452.43	22.73
1455.99	73.025
1459.54	138.334
1463.09	113.343
1466.64	203.394
1470.19	288.18
1473.74	109.783
1477.28	316.97
1480.83	216.353
1484.37	188.371
1487.91	141.997
1491.45	56.471
1494.98	139.013
1498.52	92.977
1502.05	44.215
1505.59	182.393
1509.12	147.826
1512.65	227.923
1516.17	169.119
1519.7	234.541
1523.23	230.642
1526.75	141.224
1530.27	0
