Measurement: Raman, 514 nm, ccw, Raman Data Processed
Mineral: Crocoite
Rruff sample: R040053
Ideal chemistry: Pb^2+^Cr^6+^O_4_
Locality: Dundas, Tasmania
Source: Bob Downs
Description: Reddish-orange prismatic crystal
Measured chemistry: (Pb_.995_Mn_.005_)CrO_4_
Pin_id: L00166
Orientation: Laser parallel to -a* (-1 0 0). Fiducial mark perpendicular to laser is parallel to b [0 1 0]
Raman shift (cm-1)	intensity
61.962	0
66.157	19.682
70.349	131.753
74.54	328.56
78.729	473.043
82.916	661.579
87.101	982.776
91.284	1455.09
95.465	1293.94
99.644	1068.29
103.82	981.625
107.995	1141.73
112.168	1290.57
116.339	1391.74
120.508	1739.4
124.675	2559.64
128.84	4137.79
133.003	5058.31
137.164	4413.2
141.323	3018.25
145.48	2248.69
149.635	1687.22
153.788	1247.98
157.939	1015.65
162.088	930.831
166.235	823.746
170.38	775.243
174.523	751.674
178.664	673.631
182.803	664.367
186.94	708.89
191.076	585.302
195.209	505.061
199.34	508.621
203.47	469.427
207.597	427.925
211.722	383.073
215.846	344.85
219.967	360.312
224.087	221.383
228.204	265.819
232.32	247.207
236.434	200.973
240.545	146.349
244.655	134.721
248.763	165.868
252.869	17.051
256.973	74.671
261.075	8.228
265.175	16.207
269.273	30.148
273.369	44.966
277.463	46.84
281.556	34.59
285.646	37.451
289.734	72.616
293.821	87.528
297.905	67.845
301.988	27.812
306.069	26.667
310.147	4.515
314.224	111.899
318.299	85.365
322.372	157.145
326.443	205.432
330.512	484.667
334.579	997.096
338.645	708.661
342.708	794.249
346.769	944.999
350.829	1303.71
354.887	2435.75
358.942	1822.71
362.996	916.055
367.048	812.944
371.098	1884.98
375.146	2118.89
379.192	563.668
383.236	272.078
387.279	219.452
391.319	273.795
395.358	591.745
399.394	529.914
403.429	165.114
407.462	11.649
411.493	69.752
415.522	3.019
419.549	52.154
423.575	66.093
427.598	56.768
431.619	95.758
435.639	64.495
439.657	70.893
443.673	119.669
447.687	139.479
451.699	166.03
455.709	152.841
459.717	117.125
463.724	170.986
467.728	160.521
471.731	104.796
475.732	209.41
479.731	192.601
483.728	148.06
487.723	148.807
491.716	126.857
495.708	96.855
499.697	109.369
503.685	127.608
507.671	114.565
511.655	153.24
515.637	107.626
519.617	120.718
523.596	79.513
527.572	52.981
531.547	76.063
535.52	151.814
539.491	22.235
543.46	143.266
547.427	167.968
551.393	38.334
555.356	61.292
559.318	146.864
563.278	128.028
567.236	72.533
571.192	44.769
575.147	136.903
579.099	27.362
583.05	10.142
586.999	75.416
590.946	64.445
594.891	49.79
598.834	61.141
602.776	11.476
606.715	57.842
610.653	77.716
614.589	9.922
618.523	2.146
622.456	32.227
626.386	7.14
630.315	10.561
634.242	117.701
638.167	90.733
642.09	5.57
646.012	18.624
649.931	28.13
653.849	82.884
657.765	143.714
661.679	72.371
665.592	74.693
669.502	132.031
673.411	176.025
677.318	203.086
681.223	259.34
685.126	318.565
689.028	464.197
692.927	472.776
696.825	609.335
700.721	533.387
704.616	547.883
708.508	581.581
712.399	670.534
716.288	653.645
720.175	665.853
724.06	618.213
727.944	570.972
731.825	709.851
735.705	759.45
739.584	677.76
743.46	760.507
747.334	802.667
751.207	927.725
755.078	1018.88
758.947	1194.33
762.815	1056.75
766.68	1201.45
770.544	1192.47
774.406	1442.61
778.267	1273.82
782.125	1348.14
785.982	1575.43
789.837	1789.18
793.69	1911.03
797.542	2142.28
801.391	2415.21
805.239	2518.29
809.085	2922.97
812.93	3626.03
816.772	5019.49
820.613	7023.36
824.452	9977.66
828.29	15692.4
832.125	31057.8
835.959	52323.7
839.791	37400.3
843.621	19227.6
847.45	13365.5
851.277	11364.1
855.102	8763.25
858.925	5932.99
862.746	4103.36
866.566	3075.16
870.384	2280.8
874.2	2045.03
878.015	1867.88
881.828	1740.53
885.639	1687.69
889.448	1633.52
893.256	1514.39
897.061	1458.64
900.865	1391.59
904.668	1542.86
908.468	1435.23
912.267	1197.29
916.064	1085.06
919.86	910.508
923.653	797.598
927.445	779.338
931.236	628.786
935.024	517.659
938.811	357.291
942.596	331.479
946.379	282.225
950.161	335.517
953.94	288.303
957.719	332.581
961.495	177.356
965.27	258.603
969.043	356.316
972.814	382.434
976.583	453.836
980.351	281.814
984.117	332.619
987.882	60.372
991.644	192.774
995.405	59.013
999.165	231.236
1002.92	262.51
1006.68	103.737
1010.43	207.792
1014.18	60.579
1017.93	144.58
1021.68	154.161
1025.43	242.852
1029.18	21.197
1032.92	142.033
1036.66	96.116
1040.4	26.141
1044.14	117.024
1047.88	172.765
1051.62	313.354
1055.35	200.205
1059.08	6.246
1062.81	95.482
1066.54	91.872
1070.27	200.401
1073.99	384.066
1077.72	309.036
1081.44	331.981
1085.16	179.909
1088.88	22.038
1092.59	190.202
1096.31	112.412
1100.02	249.485
1103.73	222.566
1107.44	304.129
1111.15	50.19
1114.86	111.219
1118.57	207.215
1122.27	112.302
1125.97	10.249
1129.67	121.167
1133.37	42.58
1137.07	13.793
1140.76	201.95
1144.45	120.283
1148.15	85.421
1151.84	161.777
1155.53	100.254
1159.21	136.606
1162.9	127.261
1166.58	94.831
1170.26	105.657
1173.94	8.332
1177.62	59.433
1181.3	366.204
1184.97	250.389
1188.65	316.321
1192.32	311.53
1195.99	200.093
1199.66	275.05
1203.33	214.089
1206.99	357.578
1210.65	448.66
1214.32	387.821
1217.98	393.094
1221.64	563.221
1225.29	470.209
1228.95	328.423
1232.6	223.507
1236.26	268.913
1239.91	425.081
1243.56	401.256
1247.2	379.933
1250.85	496.905
1254.49	399.091
1258.13	352.638
1261.78	373.264
1265.41	217.822
1269.05	302.783
1272.69	366.487
1276.32	394.549
1279.95	376.076
1283.59	385.407
1287.21	314.773
1290.84	123.484
1294.47	98.155
1298.09	162.461
1301.72	99.254
1305.34	249.555
1308.96	270.689
1312.58	284.141
1316.19	222.862
1319.81	97.191
1323.42	103.435
1327.03	20.294
1330.64	25.379
1334.25	89.174
1337.86	120.304
1341.46	216.632
1345.07	205.845
1348.67	307.583
1352.27	282.088
1355.87	222.218
1359.46	92.771
1363.06	85.835
1366.65	61.514
1370.25	43.809
1373.84	199.352
1377.43	208.851
1381.02	354.924
1384.6	313.905
1388.18	278.08
1391.77	152.1
1395.35	96.115
1398.93	139.839
1402.51	150.685
1406.08	77.739
1409.66	118.953
1413.23	185.046
1416.8	346.351
1420.37	342.899
1423.94	284.461
1427.51	263.618
1431.08	225.981
1434.64	231.426
1438.2	55.047
1441.76	102.224
1445.32	34.844
1448.88	151.911
1452.43	187.713
1455.99	327.987
1459.54	266.21
1463.09	381.257
1466.64	445.958
1470.19	177.751
1473.74	267.712
1477.28	171.112
1480.83	183.432
1484.37	118.502
1487.91	138.28
1491.45	33.223
1494.98	170.664
1498.52	240.688
1502.05	362.875
1505.59	332.637
1509.12	339.218
1512.65	257.666
1516.17	167.285
1519.7	128.037
1523.23	17.201
1526.75	60.476
1530.27	0.58
1533.79	0
