Measurement: Raman, 514 nm, ccw, Raman Data Processed
Mineral: Crocoite
Rruff sample: R050044
Ideal chemistry: Pb^2+^Cr^6+^O_4_
Locality: Red Ledge mine, Dundas, Tasmania
Source: Eugene Schlepp
Description: Red crystal fragment
Measured chemistry: Pb_1.02_Cr_0.99_O_4_
Pin_id: L00130
Orientation: Laser parallel to b* (0 1 0). Fiducial mark perpendicular to laser is parallel to -c [0 0 -1]
Raman shift (cm-1)	intensity
171.945	0
176.108	66.655
180.268	96.747
184.426	68.296
188.582	167.177
192.736	136.865
196.887	165.443
201.036	114.718
205.184	74.589
209.328	33.826
213.471	63.838
217.611	62.043
221.75	99.674
225.886	75.26
230.019	8.433
234.151	37.774
238.281	33.355
242.408	95.745
246.533	75.481
250.656	13.646
254.776	59.494
258.895	8.944
263.011	22.892
267.125	5.321
271.237	1.601
275.346	7.987
279.454	2.277
283.559	8.171
287.662	13.669
291.763	9.594
295.862	35.252
299.959	63.863
304.053	52.886
308.146	105.521
312.236	92.412
316.324	96.84
320.409	179.409
324.493	304.999
328.574	451.983
332.654	497.462
336.731	849.065
340.806	1030.02
344.879	817.519
348.949	637.625
353.018	503.406
357.084	484.068
361.148	388.543
365.21	287.724
369.27	249.139
373.328	420.665
377.384	871.95
381.437	804.709
385.488	441.294
389.538	214.244
393.585	142.579
397.63	170.31
401.672	142.925
405.713	135.688
409.752	120.224
413.788	89.082
417.822	90.418
421.854	65.13
425.884	78.078
429.912	70.163
433.938	67.79
437.962	94.82
441.983	90.689
446.003	91.102
450.02	103.473
454.035	104.344
458.048	108.773
462.059	118.621
466.068	142.131
470.075	165.925
474.08	179.32
478.082	180.133
482.083	210.751
486.081	170.006
490.077	182.039
494.072	193.734
498.064	173.157
502.054	125.227
506.041	131.922
510.027	154.656
514.011	135.684
517.993	126.373
521.972	119.753
525.95	118.84
529.925	150.655
533.898	170.225
537.869	198.571
541.839	166.699
545.806	323.625
549.771	628.357
553.734	836.226
557.694	596.926
561.653	340.567
565.61	189.776
569.565	113.749
573.517	111.237
577.468	87.547
581.416	61.855
585.362	32.265
589.307	2.29
593.249	6.893
597.189	36.275
601.127	46.966
605.064	18.934
608.998	13.834
612.93	5.108
616.86	2.388
620.787	28.97
624.713	38.514
628.637	20.997
632.559	22.712
636.479	0.442
640.396	31.595
644.312	29.635
648.226	35.621
652.137	16.506
656.047	27.016
659.954	21.177
663.86	45.235
667.763	12.475
671.665	29.565
675.564	36.434
679.462	41.207
683.357	35.11
687.25	70.269
691.142	81.111
695.031	86.763
698.918	118.026
702.804	131.275
706.687	157.514
710.568	128.755
714.447	169.004
718.325	157.264
722.2	198.542
726.073	172.809
729.944	235.112
733.814	206.336
737.681	219.807
741.546	262.939
745.409	244.146
749.27	263.422
753.13	284.075
756.987	313.852
760.842	331.772
764.695	323.931
768.547	292.273
772.396	318.145
776.243	368.903
780.089	422.016
783.932	522.527
787.773	569.17
791.613	670.294
795.45	858.038
799.285	993.688
803.119	1147.47
806.95	1443.55
810.78	1846.88
814.607	2470.36
818.433	3991.01
822.256	8050.47
826.078	13537.5
829.898	13022.6
833.715	13638.1
837.531	17083.7
841.345	17189.5
845.157	16515.5
848.966	14201.7
852.774	9668.03
856.58	6680.54
860.384	4814.22
864.186	3378.05
867.986	2532.03
871.784	2020.15
875.581	1588.42
879.375	1407.84
883.167	1196.41
886.957	1113.12
890.746	922.988
894.532	824.01
898.317	762.202
902.099	730.597
905.88	622.176
909.659	619.021
913.435	586.177
917.21	502.049
920.983	483.108
924.754	543.042
928.523	516.927
932.29	507.662
936.056	431.945
939.819	375.468
943.58	400.346
947.34	399.212
951.097	350.292
954.853	346.921
958.606	317.713
962.358	305.336
966.108	274.734
969.856	281.838
973.602	250.978
977.346	218.051
981.088	216.307
984.828	186.858
988.567	134.255
992.303	132.202
996.038	66.477
999.77	127.478
1003.5	84.89
1007.23	21.48
1010.96	74.944
1014.68	30.57
1018.4	31.039
1022.13	43.551
1025.85	36.1
1029.56	14.687
1033.28	15.828
1036.99	5.966
1040.7	23.653
1044.41	24.363
1048.12	2.902
1051.83	48.864
1055.53	28.653
1059.24	41.451
1062.94	17.747
1066.63	7.032
1070.33	14.792
1074.03	25.521
1077.72	1.77
1081.41	1.903
1085.1	37.502
1088.79	3.022
1092.47	15.609
1096.16	0.278
1099.84	12.999
1103.52	26.195
1107.2	26.74
1110.87	17.809
1114.55	26.993
1118.22	9.322
1121.89	6.201
1125.56	3.62
1129.23	17.128
1132.89	27.113
1136.56	2.3
1140.22	8.345
1143.88	10.853
1147.53	14.273
1151.19	20.63
1154.84	56.789
1158.5	34.802
1162.15	86.718
1165.8	94.754
1169.44	118.531
1173.09	112.273
1176.73	116.422
1180.37	149.12
1184.01	122.364
1187.65	140.798
1191.28	191.758
1194.92	168.9
1198.55	198.597
1202.18	191.907
1205.81	210.175
1209.43	278.472
1213.06	254.82
1216.68	224.679
1220.3	250.949
1223.92	206.206
1227.54	205.166
1231.15	181.375
1234.77	161.158
1238.38	195.807
1241.99	215.151
1245.6	155.579
1249.21	168.724
1252.81	120.464
1256.41	151.889
1260.01	156.464
1263.61	168.204
1267.21	154.502
1270.81	151.218
1274.4	164.266
1277.99	128.456
1281.58	115.026
1285.17	92.032
1288.76	71.568
1292.34	98.078
1295.93	110.816
1299.51	121.307
1303.09	91.994
1306.66	98.979
1310.24	100.538
1313.82	98.964
1317.39	48.586
1320.96	82.542
1324.53	14.746
1328.09	47.692
1331.66	30.509
1335.22	60.204
1338.79	61.742
1342.35	71.119
1345.9	55.393
1349.46	95.587
1353.01	54.514
1356.57	44.321
1360.12	29.006
1363.67	61.595
1367.21	83.024
1370.76	39.344
1374.3	44.607
1377.85	23.35
1381.39	52.047
1384.93	48.639
1388.46	25.229
1392	54.813
1395.53	37.379
1399.06	36.111
1402.59	15.962
1406.12	44.787
1409.65	67.469
1413.17	30.285
1416.69	27.62
1420.22	61.932
1423.74	33.767
1427.25	2.649
1430.77	37.21
1434.28	34.448
1437.8	3.227
1441.31	18.505
1444.82	13.683
1448.32	36.453
1451.83	44.776
1455.33	71.209
1458.83	11.017
1462.34	9.772
1465.83	33.191
1469.33	39.109
1472.83	41.567
1476.32	48.381
1479.81	31.768
1483.3	29.678
1486.79	2.088
1490.28	15.192
1493.76	28.421
1497.24	44.972
1500.72	5.34
1504.2	7.963
1507.68	11.054
1511.16	75.18
1514.63	0.129
