Measurement: Raman, 514 nm, ccw, Raman Data Processed
Mineral: Crocoite
Rruff sample: R040053
Ideal chemistry: Pb^2+^Cr^6+^O_4_
Locality: Dundas, Tasmania
Source: Bob Downs
Description: Reddish-orange prismatic crystal
Measured chemistry: (Pb_.995_Mn_.005_)CrO_4_
Pin_id: L00142
Orientation: Laser parallel to c* (0 0 1). Fiducial mark perpendicular to laser is parallel to a [1 0 0]
Raman shift (cm-1)	intensity
66.157	0
70.349	6.916
74.54	67.411
78.729	382.904
82.916	128.337
87.101	244.035
91.284	397.842
95.465	618.012
99.644	1089.19
103.82	772.876
107.995	302.23
112.168	208.107
116.339	645.934
120.508	212.348
124.675	201.018
128.84	350.621
133.003	613.173
137.164	716.408
141.323	580.899
145.48	437.486
149.635	373.412
153.788	303.882
157.939	327.474
162.088	351.293
166.235	309.382
170.38	339.411
174.523	356.356
178.664	349.95
182.803	321.923
186.94	303.612
191.076	230.367
195.209	190.552
199.34	134.245
203.47	79.334
207.597	98.252
211.722	63.703
215.846	29.9
219.967	42.359
224.087	35.518
228.204	21.096
232.32	7.148
236.434	34.871
240.545	28.986
244.655	33.332
248.763	22.489
252.869	34.517
256.973	16.656
261.075	28.268
265.175	74.211
269.273	74.946
273.369	70.624
277.463	104.289
281.556	113.975
285.646	121.742
289.734	162.641
293.821	168.807
297.905	188.046
301.988	203.458
306.069	245.989
310.147	323.638
314.224	323.783
318.299	415.135
322.372	549.376
326.443	827.935
330.512	1082.96
334.579	2309.59
338.645	5303.82
342.708	2510.67
346.769	2222.88
350.829	2275.76
354.887	908.833
358.942	732.246
362.996	682.771
367.048	693.583
371.098	1106.97
375.146	4148.62
379.192	4783.75
383.236	1177.9
387.279	619.544
391.319	553.582
395.358	501.648
399.394	499.843
403.429	413.847
407.462	387.06
411.493	379.946
415.522	335.25
419.549	272.65
423.575	301.482
427.598	285.125
431.619	306.462
435.639	314.169
439.657	301.829
443.673	332.68
447.687	377.53
451.699	267.15
455.709	299.864
459.717	292.612
463.724	279.876
467.728	255.059
471.731	262.917
475.732	283.406
479.731	266.196
483.728	217.246
487.723	244.086
491.716	235.434
495.708	242.05
499.697	181.616
503.685	182.485
507.671	179.582
511.655	207.907
515.637	216.34
519.617	143.737
523.596	135.368
527.572	198.981
531.547	148.316
535.52	152.008
539.491	96.974
543.46	125.635
547.427	142.086
551.393	128.344
555.356	102.494
559.318	71.562
563.278	96.576
567.236	105.533
571.192	96.415
575.147	65.167
579.099	16.634
583.05	65.874
586.999	77.545
590.946	15.505
594.891	11.607
598.834	4.167
602.776	36.723
606.715	0.018
610.653	7.955
614.589	50.262
618.523	77.215
622.456	0.409
626.386	7.724
630.315	44.121
634.242	24.803
638.167	19.492
642.09	35.084
646.012	21.672
649.931	10.761
653.849	9.374
657.765	65.396
661.679	11.034
665.592	2.146
669.502	18.55
673.411	29.126
677.318	54.762
681.223	42.528
685.126	10.656
689.028	22.435
692.927	5.816
696.825	120.548
700.721	116.142
704.616	123.779
708.508	36.426
712.399	93.167
716.288	93.676
720.175	139.316
724.06	147.712
727.944	51.744
731.825	77.132
735.705	135.152
739.584	287.157
743.46	265.262
747.334	213.808
751.207	250.795
755.078	281.695
758.947	355.575
762.815	341.722
766.68	322.072
770.544	391.031
774.406	397.869
778.267	614.012
782.125	749.52
785.982	772.308
789.837	926.193
793.69	1125.14
797.542	1490.37
801.391	1799.14
805.239	2054.63
809.085	2409.55
812.93	3080.78
816.772	4397.02
820.613	6614.81
824.452	9589.74
828.29	12211.6
832.125	15763
835.959	25747.1
839.791	41592.2
843.621	35717
847.45	27992.5
851.277	29108.3
855.102	31764.5
858.925	27050.8
862.746	18968.1
866.566	12965.1
870.384	9452.25
874.2	6849.67
878.015	5307.31
881.828	4486.18
885.639	4004.77
889.448	3472.71
893.256	2953.17
897.061	2476.03
900.865	2155.02
904.668	1923.23
908.468	1738.13
912.267	1507.62
916.064	1259.6
919.86	952.858
923.653	893.491
927.445	799.432
931.236	756.481
935.024	677.796
938.811	553.345
942.596	416.163
946.379	273.908
950.161	332.18
953.94	257.596
957.719	202.506
961.495	266.496
965.27	137.942
969.043	125.18
972.814	106.665
976.583	191.327
980.351	247.672
984.117	218.307
987.882	140.775
991.644	63.263
995.405	78.375
999.165	132.027
1002.92	154.372
1006.68	210.778
1010.43	112.206
1014.18	42.245
1017.93	11.014
1021.68	132.26
1025.43	78.664
1029.18	138.375
1032.92	62.392
1036.66	64.153
1040.4	79.865
1044.14	5.967
1047.88	60.012
1051.62	75.084
1055.35	152.203
1059.08	156.398
1062.81	92.635
1066.54	6.894
1070.27	3.761
1073.99	47.614
1077.72	136.942
1081.44	132.255
1085.16	146.57
1088.88	94.884
1092.59	11.618
1096.31	35.851
1100.02	4.095
1103.73	63.268
1107.44	109.32
1111.15	134.258
1114.86	18.333
1118.57	42.095
1122.27	241.872
1125.97	141.88
1129.67	26.646
1133.37	54.304
1137.07	59.375
1140.76	15.594
1144.45	60.199
1148.15	21.832
1151.84	46.264
1155.53	64.405
1159.21	110.5
1162.9	140.053
1166.58	92
1170.26	63.217
1173.94	64.02
1177.62	59.819
1181.3	41.901
1184.97	147.338
1188.65	233.085
1192.32	325.766
1195.99	347.872
1199.66	222.28
1203.33	278.94
1206.99	189.489
1210.65	207.524
1214.32	258.168
1217.98	279.462
1221.64	324.161
1225.29	352.298
1228.95	262.382
1232.6	248.935
1236.26	127.462
1239.91	153.157
1243.56	223.536
1247.2	304.187
1250.85	388.822
1254.49	316.075
1258.13	233.461
1261.78	237.525
1265.41	162.675
1269.05	149.541
1272.69	130.093
1276.32	237.11
1279.95	269.267
1283.59	303.818
1287.21	302.242
1290.84	219.856
1294.47	123.286
1298.09	62.959
1301.72	100.928
1305.34	115.951
1308.96	181.833
1312.58	117.322
1316.19	131.129
1319.81	116.576
1323.42	194.447
1327.03	121.515
1330.64	13.823
1334.25	57.458
1337.86	22.786
1341.46	19.219
1345.07	139.48
1348.67	272.983
1352.27	250.186
1355.87	138.184
1359.46	198.148
1363.06	36.694
1366.65	30.207
1370.25	29.433
1373.84	19.609
1377.43	111.583
1381.02	141.295
1384.6	148.03
1388.18	269.726
1391.77	269.796
1395.35	142.678
1398.93	75.912
1402.51	68.054
1406.08	43.355
1409.66	78.906
1413.23	98.391
1416.8	143.427
1420.37	196.239
1423.94	209.517
1427.51	192.923
1431.08	262.028
1434.64	178.511
1438.2	191.014
1441.76	42.754
1445.32	69.633
1448.88	12.201
1452.43	51.388
1455.99	105.158
1459.54	231.278
1463.09	329.305
1466.64	232.889
1470.19	360.376
1473.74	203.146
1477.28	240.191
1480.83	108.13
1484.37	107.579
1487.91	65.144
1491.45	125.956
1494.98	125.905
1498.52	118.976
1502.05	243.548
1505.59	309.837
1509.12	353.966
1512.65	264.803
1516.17	232.146
1519.7	225.111
1523.23	188.333
1526.75	49.092
1530.27	1.561
1533.79	0.899
