Measurement: Raman, 514 nm, ccw, Raman Data Processed
Mineral: Crocoite
Rruff sample: R050044
Ideal chemistry: Pb^2+^Cr^6+^O_4_
Locality: Red Ledge mine, Dundas, Tasmania
Source: Eugene Schlepp
Description: Red crystal fragment
Measured chemistry: Pb_1.02_Cr_0.99_O_4_
Pin_id: L00274
Orientation: Laser parallel to a* (1 0 0). Fiducial mark perpendicular to laser is parallel to b [0 1 0]
Raman shift (cm-1)	intensity
163.613	0
167.78	64.947
171.945	37.982
176.108	120.475
180.268	143.527
184.426	135.435
188.582	220.22
192.736	157.284
196.887	180.606
201.036	130.56
205.184	158.016
209.328	139.377
213.471	63.237
217.611	60.495
221.75	56.129
225.886	31.258
230.019	125.511
234.151	108.116
238.281	58.251
242.408	203.256
246.533	52.109
250.656	66.113
254.776	75.734
258.895	56.301
263.011	8.064
267.125	45.858
271.237	23.561
275.346	4.023
279.454	91.014
283.559	26.375
287.662	5.859
291.763	30.434
295.862	28.2
299.959	0.24
304.053	72.111
308.146	62.654
312.236	113.319
316.324	116.25
320.409	219.025
324.493	176.935
328.574	284.328
332.654	364.439
336.731	629.282
340.806	1145.48
344.879	997.649
348.949	937.66
353.018	1203.33
357.084	1670.58
361.148	2869.46
365.21	2439.91
369.27	1472.06
373.328	1308.1
377.384	2348.19
381.437	2482.75
385.488	1030.56
389.538	606.45
393.585	555.854
397.63	624.509
401.672	828.237
405.713	858.043
409.752	537.973
413.788	325.215
417.822	281.745
421.854	276.992
425.884	263.498
429.912	214.592
433.938	199.484
437.962	224.228
441.983	273.692
446.003	282.708
450.02	321.536
454.035	335.352
458.048	352.418
462.059	324.893
466.068	311.414
470.075	268.668
474.08	327.599
478.082	336.404
482.083	368.914
486.081	340.655
490.077	300.228
494.072	328.361
498.064	249.073
502.054	246.263
506.041	271.694
510.027	337.737
514.011	304.093
517.993	309.926
521.972	260.246
525.95	295.058
529.925	295.379
533.898	176.206
537.869	208.55
541.839	275.448
545.806	241.91
549.771	130.946
553.734	184.533
557.694	165.707
561.653	204.473
565.61	121.812
569.565	111.697
573.517	157.191
577.468	127.292
581.416	57.964
585.362	34.164
589.307	40.696
593.249	3.386
597.189	32.565
601.127	22.229
605.064	36.029
608.998	51.425
612.93	68.515
616.86	44.296
620.787	116.163
624.713	105.945
628.637	54.204
632.559	77.888
636.479	24.167
640.396	20.934
644.312	29.643
648.226	9.083
652.137	55.887
656.047	71.58
659.954	36.636
663.86	99.827
667.763	38.239
671.665	138.521
675.564	200.266
679.462	150.949
683.357	242.463
687.25	327.807
691.142	361.428
695.031	439.041
698.918	469.788
702.804	596.366
706.687	626.905
710.568	590.529
714.447	674.12
718.325	585.278
722.2	675.094
726.073	573.182
729.944	697.304
733.814	760.596
737.681	831.178
741.546	851.273
745.409	910.51
749.27	953.17
753.13	1071.04
756.987	1126.21
760.842	1202.11
764.695	1205.52
768.547	1377.44
772.396	1339.73
776.243	1298.95
780.089	1452.86
783.932	1616.32
787.773	1696.64
791.613	1940.32
795.45	2172.99
799.285	2437.43
803.119	2507.01
806.95	2920.66
810.78	3319.64
814.607	3619.05
818.433	4370.15
822.256	6028.59
826.078	8438.7
829.898	11839.3
833.715	18850.6
837.531	35162.4
841.345	57255
845.157	43888.3
848.966	24332.3
852.774	16077.1
856.58	13602.7
860.384	10269
864.186	7016.05
867.986	4823.76
871.784	3691.22
875.581	3025.38
879.375	2599.21
883.167	2206.68
886.957	2177.82
890.746	2031.64
894.532	1968.12
898.317	1932.92
902.099	1854.26
905.88	1772.97
909.659	1733.38
913.435	1576.6
917.21	1376.68
920.983	1131.54
924.754	1076.17
928.523	951.663
932.29	872.997
936.056	772.04
939.819	595.815
943.58	574.298
947.34	538.346
951.097	409.984
954.853	339.225
958.606	309.028
962.358	389.384
966.108	311.289
969.856	386.732
973.602	359.723
977.346	352.57
981.088	382.019
984.828	297.995
988.567	102.113
992.303	130.224
996.038	93.732
999.77	112.523
1003.5	108.144
1007.23	98.731
1010.96	46
1014.68	2.986
1018.4	109.712
1022.13	41.265
1025.85	91.069
1029.56	47.058
1033.28	0.239
1036.99	47.435
1040.7	25.732
1044.41	25.023
1048.12	22.773
1051.83	121.294
1055.53	65.061
1059.24	105.056
1062.94	96.294
1066.63	100.72
1070.33	87.321
1074.03	165.082
1077.72	166.982
1081.41	55.009
1085.1	38.161
1088.79	2.584
1092.47	48.757
1096.16	63.17
1099.84	113.023
1103.52	129.149
1107.2	51.687
1110.87	94.238
1114.55	72.79
1118.22	33.336
1121.89	20.858
1125.56	66.323
1129.23	1.283
1132.89	55.901
1136.56	77.73
1140.22	90.306
1143.88	136.188
1147.53	83.954
1151.19	20.645
1154.84	54.122
1158.5	34.346
1162.15	11.351
1165.8	13.339
1169.44	16.989
1173.09	24.651
1176.73	15.5
1180.37	52.187
1184.01	73.628
1187.65	80.728
1191.28	247.309
1194.92	209.791
1198.55	212.07
1202.18	168.823
1205.81	282.071
1209.43	309.527
1213.06	297.188
1216.68	358.376
1220.3	332.827
1223.92	304.861
1227.54	292.919
1231.15	257.504
1234.77	194.132
1238.38	383.506
1241.99	311.318
1245.6	341.274
1249.21	318.212
1252.81	342.392
1256.41	324.456
1260.01	305.417
1263.61	243.939
1267.21	311.402
1270.81	271.084
1274.4	264.793
1277.99	211.37
1281.58	264.303
1285.17	221.422
1288.76	107.739
1292.34	132.758
1295.93	223.137
1299.51	121.4
1303.09	160.794
1306.66	84.828
1310.24	90.423
1313.82	111.558
1317.39	81.317
1320.96	84.937
1324.53	19.057
1328.09	59.181
1331.66	5.737
1335.22	53.384
1338.79	97.216
1342.35	71.078
1345.9	62.177
1349.46	75.521
1353.01	86.06
1356.57	96.243
1360.12	103.143
1363.67	123.521
1367.21	51.787
1370.76	115.656
1374.3	112.792
1377.85	122.511
1381.39	156.853
1384.93	193.588
1388.46	121.718
1392	103.224
1395.53	73.124
1399.06	86.079
1402.59	56.492
1406.12	109.383
1409.65	180.139
1413.17	192.942
1416.69	182.624
1420.22	65.472
1423.74	165.549
1427.25	13.187
1430.77	0.645
1434.28	26.726
1437.8	34.536
1441.31	23.495
1444.82	173.364
1448.32	71.781
1451.83	176.26
1455.33	170.135
1458.83	152.592
1462.34	86.212
1465.83	130.596
1469.33	161.877
1472.83	104.348
1476.32	151.945
1479.81	130.753
1483.3	173.08
1486.79	134.131
1490.28	212.709
1493.76	169.711
1497.24	200.413
1500.72	129.833
1504.2	161.453
1507.68	126.256
1511.16	120.375
1514.63	2.685
