Measurement: Raman, 514 nm, ccw, Raman Data Processed
Mineral: Crocoite
Rruff sample: R040053
Ideal chemistry: Pb^2+^Cr^6+^O_4_
Locality: Dundas, Tasmania
Source: Bob Downs
Description: Reddish-orange prismatic crystal
Measured chemistry: (Pb_.995_Mn_.005_)CrO_4_
Pin_id: L00142
Orientation: Laser parallel to c* (0 0 1). Fiducial mark perpendicular to laser is parallel to a [1 0 0]
Raman shift (cm-1)	intensity
66.157	0
70.349	92.462
74.54	150.978
78.729	391.216
82.916	159.957
87.101	120.923
91.284	212.42
95.465	291.17
99.644	158.635
103.82	110.15
107.995	167.551
112.168	164.381
116.339	677.436
120.508	295.635
124.675	359.56
128.84	470.743
133.003	740.25
137.164	770.254
141.323	668.448
145.48	533.093
149.635	541.999
153.788	541.414
157.939	484.119
162.088	421.87
166.235	380.661
170.38	271.909
174.523	237.532
178.664	194.096
182.803	126.456
186.94	150.565
191.076	107.224
195.209	117.171
199.34	86.558
203.47	81.308
207.597	59.325
211.722	37.551
215.846	24.956
219.967	29.518
224.087	15.747
228.204	23.863
232.32	54.566
236.434	1.441
240.545	14.788
244.655	8.237
248.763	31.691
252.869	10.347
256.973	14.945
261.075	61.804
265.175	69.617
269.273	101.458
273.369	63.741
277.463	76.352
281.556	122.814
285.646	156.552
289.734	136.981
293.821	171.315
297.905	190.131
301.988	200.898
306.069	246.35
310.147	273.665
314.224	347.94
318.299	361.247
322.372	416.459
326.443	611.031
330.512	673.946
334.579	951.423
338.645	2026.64
342.708	1216.55
346.769	1119.26
350.829	1041.52
354.887	615.34
358.942	587.693
362.996	536.965
367.048	478.556
371.098	465.663
375.146	479.485
379.192	578.253
383.236	437.317
387.279	379.485
391.319	438.765
395.358	558.206
399.394	1023.41
403.429	855.004
407.462	393.823
411.493	287.103
415.522	235.722
419.549	193.213
423.575	225.687
427.598	310.085
431.619	199.155
435.639	186.097
439.657	266.019
443.673	245.553
447.687	253.104
451.699	229.583
455.709	186.274
459.717	215.075
463.724	241.825
467.728	549.369
471.731	633.088
475.732	223.579
479.731	303.238
483.728	218.975
487.723	204.269
491.716	208.047
495.708	224.455
499.697	219.709
503.685	131.825
507.671	184.006
511.655	206.258
515.637	223.642
519.617	172.801
523.596	173.851
527.572	168.816
531.547	147.649
535.52	120.349
539.491	64.867
543.46	66.212
547.427	145.394
551.393	111.466
555.356	74.45
559.318	46.391
563.278	110.243
567.236	59.027
571.192	59.612
575.147	17.77
579.099	9.281
583.05	65.481
586.999	53.312
590.946	13.93
594.891	5.703
598.834	27.886
602.776	59.271
606.715	16.333
610.653	20.662
614.589	31.839
618.523	9.374
622.456	14
626.386	17.577
630.315	32.85
634.242	60.527
638.167	30.637
642.09	36.619
646.012	4.785
649.931	42.438
653.849	25.064
657.765	27.094
661.679	38.472
665.592	5.298
669.502	17.85
673.411	2.871
677.318	6.508
681.223	54.235
685.126	28.971
689.028	23.329
692.927	22.618
696.825	132.434
700.721	150.444
704.616	91.916
708.508	29.041
712.399	26.04
716.288	113.266
720.175	210.806
724.06	142.098
727.944	62.23
731.825	106.326
735.705	187.26
739.584	269.773
743.46	259.188
747.334	196.154
751.207	245.46
755.078	335.793
758.947	446
762.815	440.017
766.68	604.823
770.544	538.641
774.406	583.291
778.267	734.135
782.125	966.439
785.982	1157.54
789.837	1343.8
793.69	1572.83
797.542	1926.14
801.391	2251.52
805.239	2563.29
809.085	2918.15
812.93	3513.93
816.772	4791.16
820.613	6882.87
824.452	9324.75
828.29	11639.8
832.125	16204.1
835.959	27888.1
839.791	44213.7
843.621	33838.6
847.45	19644.7
851.277	14030.9
855.102	11487.4
858.925	9164.17
862.746	6951.17
866.566	5397.33
870.384	4260.74
874.2	3270.5
878.015	2668.43
881.828	2434.85
885.639	2263.04
889.448	1962.62
893.256	1647.18
897.061	1248.11
900.865	1080.03
904.668	1000.14
908.468	946.645
912.267	874.127
916.064	749.876
919.86	575.875
923.653	527.646
927.445	455.072
931.236	504.496
935.024	447.569
938.811	359.221
942.596	191.465
946.379	150.927
950.161	203.573
953.94	266.176
957.719	224.254
961.495	238.454
965.27	119.112
969.043	94.794
972.814	61.391
976.583	145.284
980.351	277.317
984.117	238.513
987.882	51.634
991.644	26.435
995.405	56.618
999.165	82.025
1002.92	190.537
1006.68	187.175
1010.43	121.894
1014.18	78.042
1017.93	3.576
1021.68	192.046
1025.43	91.526
1029.18	159.114
1032.92	34.402
1036.66	94.534
1040.4	33.271
1044.14	36.356
1047.88	158.611
1051.62	109.601
1055.35	216.66
1059.08	220.758
1062.81	88.867
1066.54	17.021
1070.27	13.684
1073.99	62.547
1077.72	134.83
1081.44	195.186
1085.16	177.37
1088.88	70.515
1092.59	18.638
1096.31	12.798
1100.02	19.799
1103.73	68.329
1107.44	132.17
1111.15	189.407
1114.86	50.397
1118.57	20.712
1122.27	238.89
1125.97	94.484
1129.67	21.586
1133.37	114.339
1137.07	145.469
1140.76	85.649
1144.45	11.7
1148.15	20.643
1151.84	30.219
1155.53	16.31
1159.21	164.191
1162.9	187.782
1166.58	83.007
1170.26	113.985
1173.94	89.637
1177.62	37.422
1181.3	54.148
1184.97	90.537
1188.65	208.711
1192.32	293.25
1195.99	273.299
1199.66	256.497
1203.33	167.834
1206.99	161.802
1210.65	218.958
1214.32	210.478
1217.98	300.113
1221.64	372.272
1225.29	345.619
1228.95	272.895
1232.6	163.032
1236.26	154.11
1239.91	151.03
1243.56	197.307
1247.2	277.111
1250.85	292.988
1254.49	308.695
1258.13	245.121
1261.78	215.203
1265.41	123.751
1269.05	114.659
1272.69	79.294
1276.32	192.098
1279.95	209.049
1283.59	252.543
1287.21	272.448
1290.84	225.046
1294.47	181.961
1298.09	74.707
1301.72	17.952
1305.34	70.682
1308.96	80.465
1312.58	90.807
1316.19	82.597
1319.81	165.589
1323.42	161.634
1327.03	90.765
1330.64	34.194
1334.25	42.961
1337.86	3.106
1341.46	28.749
1345.07	112.304
1348.67	170.591
1352.27	212.645
1355.87	187.545
1359.46	169.289
1363.06	83.781
1366.65	1.452
1370.25	15.284
1373.84	8.94
1377.43	95.331
1381.02	72.545
1384.6	198.8
1388.18	346.177
1391.77	267.381
1395.35	190.632
1398.93	111.406
1402.51	87.448
1406.08	16.236
1409.66	111.396
1413.23	381.015
1416.8	130.62
1420.37	211.006
1423.94	217.818
1427.51	293.576
1431.08	301.351
1434.64	191.467
1438.2	149.256
1441.76	46.511
1445.32	121.366
1448.88	47.829
1452.43	95.306
1455.99	139.615
1459.54	303.242
1463.09	328.653
1466.64	311.626
1470.19	395.564
1473.74	296.406
1477.28	404.291
1480.83	218.316
1484.37	92.407
1487.91	104.113
1491.45	128.319
1494.98	187.683
1498.52	184.25
1502.05	322.85
1505.59	349.265
1509.12	489.98
1512.65	358.134
1516.17	380.193
1519.7	327.129
1523.23	357.745
1526.75	150.82
1530.27	6.196
1533.79	11.782
