Measurement: Raman, 514 nm, ccw, Raman Data Processed
Mineral: Crocoite
Rruff sample: R050044
Ideal chemistry: Pb^2+^Cr^6+^O_4_
Locality: Red Ledge mine, Dundas, Tasmania
Source: Eugene Schlepp
Description: Red crystal fragment
Measured chemistry: Pb_1.02_Cr_0.99_O_4_
Pin_id: L00274
Orientation: Laser parallel to a* (1 0 0). Fiducial mark perpendicular to laser is parallel to b [0 1 0]
Raman shift (cm-1)	intensity
163.613	0
167.78	36.851
171.945	15.305
176.108	42.474
180.268	23.078
184.426	23.422
188.582	29.908
192.736	17.784
196.887	14.308
201.036	27.704
205.184	33.185
209.328	29.5
213.471	30.086
217.611	20.417
221.75	14.074
225.886	10.79
230.019	12.397
234.151	27.054
238.281	0.71
242.408	29.447
246.533	5.049
250.656	35.599
254.776	15.383
258.895	5.255
263.011	18.172
267.125	11.099
271.237	6.992
275.346	0.12
279.454	14.686
283.559	18.413
287.662	4.046
291.763	12.584
295.862	20.288
299.959	24.611
304.053	16.611
308.146	23.315
312.236	30.002
316.324	24.755
320.409	82.649
324.493	127.474
328.574	185.961
332.654	297.637
336.731	704.888
340.806	1346.2
344.879	796.318
348.949	722.009
353.018	629.727
357.084	256.231
361.148	211.376
365.21	153.478
369.27	109.538
373.328	116.186
377.384	177.89
381.437	195.218
385.488	126.536
389.538	100.476
393.585	139.29
397.63	241.117
401.672	694.571
405.713	691.19
409.752	189.002
413.788	110.451
417.822	89.005
421.854	75.131
425.884	74.238
429.912	43.317
433.938	43.7
437.962	34.103
441.983	73.335
446.003	76.845
450.02	63.002
454.035	72.413
458.048	79.728
462.059	92.951
466.068	79.657
470.075	71.395
474.08	91.978
478.082	99.269
482.083	78.487
486.081	101.071
490.077	91.546
494.072	74.803
498.064	95.973
502.054	73.242
506.041	113.392
510.027	86.743
514.011	98.721
517.993	84.828
521.972	59.942
525.95	87.698
529.925	94.744
533.898	54.179
537.869	54.462
541.839	63.596
545.806	77.583
549.771	50.426
553.734	51.125
557.694	56.681
561.653	50.095
565.61	44.371
569.565	36.509
573.517	51.51
577.468	27.359
581.416	17.92
585.362	1.356
589.307	18.524
593.249	24.398
597.189	12.908
601.127	0.642
605.064	0.258
608.998	4.465
612.93	11.343
616.86	9.392
620.787	17.624
624.713	26.191
628.637	16.044
632.559	4.997
636.479	22.842
640.396	17.495
644.312	27.075
648.226	2.502
652.137	28.688
656.047	11.789
659.954	12.632
663.86	57.588
667.763	7.496
671.665	16.195
675.564	6.307
679.462	8.131
683.357	5.642
687.25	32.834
691.142	14.891
695.031	20.905
698.918	73.95
702.804	54.96
706.687	53.693
710.568	70.522
714.447	86.306
718.325	90.095
722.2	73.71
726.073	47.232
729.944	83.918
733.814	75.962
737.681	134.252
741.546	104.258
745.409	123.318
749.27	174.466
753.13	119.065
756.987	236.656
760.842	249.951
764.695	253.424
768.547	237.582
772.396	321.806
776.243	351.966
780.089	489.567
783.932	617.19
787.773	761.082
791.613	949.085
795.45	1170.65
799.285	1390.88
803.119	1584.88
806.95	1859.47
810.78	2043.75
814.607	2312.92
818.433	2903.17
822.256	3980.01
826.078	5627.29
829.898	7891.13
833.715	12555.3
837.531	24214.6
841.345	40313.6
845.157	30093.1
848.966	16792.8
852.774	11712.5
856.58	10142.5
860.384	7919.72
864.186	5670.81
867.986	4170.59
871.784	3291.87
875.581	2689.24
879.375	2193.7
883.167	1837.25
886.957	1633.25
890.746	1449.02
894.532	1209.88
898.317	1055.92
902.099	922.006
905.88	774.193
909.659	667.48
913.435	612.9
917.21	483.851
920.983	449.871
924.754	417.063
928.523	353.477
932.29	343.108
936.056	300.389
939.819	300.813
943.58	235.333
947.34	266.53
951.097	206.23
954.853	211.198
958.606	117.899
962.358	181.328
966.108	114.514
969.856	102.062
973.602	125.159
977.346	115.862
981.088	86.967
984.828	77.92
988.567	63.485
992.303	59.51
996.038	73.594
999.77	48.229
1003.5	99.653
1007.23	15.398
1010.96	30.106
1014.68	25.031
1018.4	8.752
1022.13	23.75
1025.85	55.943
1029.56	41.537
1033.28	17.998
1036.99	25.894
1040.7	4.76
1044.41	2.354
1048.12	19.567
1051.83	7.475
1055.53	16.387
1059.24	10.31
1062.94	11.697
1066.63	23.829
1070.33	7.956
1074.03	10.292
1077.72	39.401
1081.41	1.065
1085.1	23.771
1088.79	39.34
1092.47	48.05
1096.16	10.616
1099.84	5.135
1103.52	21.571
1107.2	1.057
1110.87	15.289
1114.55	4.475
1118.22	19.318
1121.89	26.799
1125.56	24.746
1129.23	30.57
1132.89	68.272
1136.56	44.867
1140.22	13.666
1143.88	24.864
1147.53	49.674
1151.19	24.929
1154.84	13.818
1158.5	31.927
1162.15	81.536
1165.8	31.923
1169.44	16.966
1173.09	54.91
1176.73	45.683
1180.37	59.521
1184.01	87.893
1187.65	110.154
1191.28	107.243
1194.92	96.468
1198.55	109.176
1202.18	102.792
1205.81	123.83
1209.43	177.359
1213.06	123.24
1216.68	169.21
1220.3	123.874
1223.92	135.818
1227.54	137.018
1231.15	86.553
1234.77	88.473
1238.38	135.103
1241.99	98.794
1245.6	107.849
1249.21	137.321
1252.81	158.242
1256.41	129.991
1260.01	118.284
1263.61	82.336
1267.21	95.995
1270.81	96.244
1274.4	150.925
1277.99	104.664
1281.58	116.165
1285.17	107.993
1288.76	27.999
1292.34	50.813
1295.93	50.636
1299.51	63.863
1303.09	40.371
1306.66	61.518
1310.24	84.645
1313.82	86.831
1317.39	55.181
1320.96	67.365
1324.53	1.21
1328.09	13.222
1331.66	7.993
1335.22	2.595
1338.79	54.975
1342.35	39.141
1345.9	12.043
1349.46	36.755
1353.01	16.338
1356.57	56.751
1360.12	32.933
1363.67	103.905
1367.21	0.698
1370.76	40.278
1374.3	43.781
1377.85	52.799
1381.39	36.066
1384.93	74.174
1388.46	18.112
1392	28.885
1395.53	50.637
1399.06	31.362
1402.59	58.604
1406.12	39.425
1409.65	3.158
1413.17	63.156
1416.69	61.715
1420.22	74.833
1423.74	59.266
1427.25	41.563
1430.77	111.476
1434.28	13.222
1437.8	30.936
1441.31	94.918
1444.82	13.184
1448.32	28.903
1451.83	96.769
1455.33	68.212
1458.83	98.75
1462.34	97.499
1465.83	43.667
1469.33	98.361
1472.83	92.005
1476.32	85.21
1479.81	61.588
1483.3	65.635
1486.79	48.774
1490.28	68.186
1493.76	114.811
1497.24	85.687
1500.72	101.45
1504.2	67.37
1507.68	72.167
1511.16	72.091
1514.63	17.12
