Measurement: Raman, 514 nm, ccw, Raman Data Processed
Mineral: Crocoite
Rruff sample: R050044
Ideal chemistry: Pb^2+^Cr^6+^O_4_
Locality: Red Ledge mine, Dundas, Tasmania
Source: Eugene Schlepp
Description: Red crystal fragment
Measured chemistry: Pb_1.02_Cr_0.99_O_4_
Pin_id: L00130
Orientation: Laser parallel to b* (0 1 0). Fiducial mark perpendicular to laser is parallel to -c [0 0 -1]
Raman shift (cm-1)	intensity
159.444	0
163.613	72.831
167.78	45.391
171.945	42.553
176.108	101.556
180.268	78.126
184.426	95.942
188.582	176.171
192.736	147.509
196.887	105.601
201.036	177.346
205.184	101.763
209.328	101.169
213.471	113.633
217.611	194.12
221.75	69.559
225.886	87.792
230.019	130.684
234.151	152.155
238.281	39.915
242.408	50.564
246.533	98.739
250.656	43.523
254.776	68.75
258.895	84.26
263.011	12.876
267.125	6.422
271.237	15.239
275.346	11.72
279.454	5.208
283.559	54.188
287.662	77.723
291.763	9.37
295.862	35.2
299.959	81.096
304.053	89.916
308.146	102.524
312.236	178.986
316.324	239.103
320.409	409.921
324.493	471.552
328.574	672.666
332.654	753.103
336.731	1166.17
340.806	1729.37
344.879	1522.64
348.949	1158.21
353.018	1380.24
357.084	2039.25
361.148	2718.07
365.21	2107.78
369.27	1377.11
373.328	1531.16
377.384	2528.04
381.437	2241.52
385.488	1104.64
389.538	693.642
393.585	529.973
397.63	746.756
401.672	922.905
405.713	664.209
409.752	423.907
413.788	326.371
417.822	341.421
421.854	263.028
425.884	325.943
429.912	221.463
433.938	192.246
437.962	254.087
441.983	371.06
446.003	342.594
450.02	381.624
454.035	380.721
458.048	478.662
462.059	433.825
466.068	420.55
470.075	446.618
474.08	534.664
478.082	457.252
482.083	546.339
486.081	503.156
490.077	518.771
494.072	500.782
498.064	417.138
502.054	433.873
506.041	356.989
510.027	389.482
514.011	403.364
517.993	306.642
521.972	323.323
525.95	362.433
529.925	324.98
533.898	271.964
537.869	275.405
541.839	294.323
545.806	370.74
549.771	471.68
553.734	625.152
557.694	489.162
561.653	384.722
565.61	199.848
569.565	136.509
573.517	170.656
577.468	72.083
581.416	41.833
585.362	37.89
589.307	36.104
593.249	17.709
597.189	114.197
601.127	32.785
605.064	29.588
608.998	72.288
612.93	33.824
616.86	29.04
620.787	127.974
624.713	129.985
628.637	122.793
632.559	46.134
636.479	9.909
640.396	7.494
644.312	35.554
648.226	5.869
652.137	78.92
656.047	165.371
659.954	155.718
663.86	154.145
667.763	172.875
671.665	237.188
675.564	294.953
679.462	267.36
683.357	331.257
687.25	343.92
691.142	479.632
695.031	589.84
698.918	653.259
702.804	660.136
706.687	770.325
710.568	731.597
714.447	865.968
718.325	840.456
722.2	902.438
726.073	812.317
729.944	1021.8
733.814	1072.33
737.681	1199.16
741.546	1218.62
745.409	1258.23
749.27	1266.85
753.13	1294.58
756.987	1596.95
760.842	1668.07
764.695	1706.26
768.547	1771.57
772.396	1838.69
776.243	1972.78
780.089	2168
783.932	2261.76
787.773	2463.02
791.613	2922.49
795.45	3173.74
799.285	3687.5
803.119	4012.17
806.95	4787.44
810.78	5673.39
814.607	7049.98
818.433	9677.27
822.256	16465.2
826.078	24744
829.898	27683.6
833.715	35214
837.531	50695.4
841.345	57337.9
845.157	46661.4
848.966	32425.8
852.774	21001.2
856.58	14717.6
860.384	10394.9
864.186	7483.07
867.986	5562.04
871.784	4461.79
875.581	3612.36
879.375	3463.75
883.167	3055.96
886.957	2759.03
890.746	2612.98
894.532	2457.8
898.317	2153.6
902.099	2340.44
905.88	2068.34
909.659	1947.29
913.435	1897.71
917.21	1678.69
920.983	1523.79
924.754	1633.86
928.523	1332.99
932.29	1372.19
936.056	1126.57
939.819	891.636
943.58	860.524
947.34	1042.19
951.097	699.853
954.853	753.271
958.606	720.353
962.358	647.668
966.108	602.34
969.856	774.073
973.602	663.048
977.346	567.64
981.088	526.968
984.828	444.885
988.567	265.586
992.303	297.871
996.038	183.709
999.77	264.04
1003.5	280.483
1007.23	85.046
1010.96	59.797
1014.68	90.275
1018.4	230.378
1022.13	74.821
1025.85	67.115
1029.56	59.856
1033.28	81.048
1036.99	1.354
1040.7	19.609
1044.41	161.923
1048.12	7.58
1051.83	128.563
1055.53	151.864
1059.24	235.447
1062.94	133.28
1066.63	93.342
1070.33	72.61
1074.03	136.068
1077.72	213.701
1081.41	170.489
1085.1	65.45
1088.79	62.527
1092.47	24.719
1096.16	11.99
1099.84	222.302
1103.52	119.587
1107.2	67.866
1110.87	14.146
1114.55	39.612
1118.22	6.542
1121.89	57.405
1125.56	60.384
1129.23	39.864
1132.89	153.098
1136.56	186.104
1140.22	158.157
1143.88	136.108
1147.53	15.149
1151.19	99.829
1154.84	122.558
1158.5	49.878
1162.15	107.969
1165.8	20.989
1169.44	72.164
1173.09	27.453
1176.73	172.488
1180.37	185.637
1184.01	240.949
1187.65	274.534
1191.28	246.161
1194.92	312.123
1198.55	470.387
1202.18	396.235
1205.81	520.611
1209.43	578.587
1213.06	578.493
1216.68	545.167
1220.3	553.255
1223.92	553.904
1227.54	423.155
1231.15	470.756
1234.77	406.636
1238.38	501.354
1241.99	566.235
1245.6	539.547
1249.21	519.632
1252.81	408.541
1256.41	484.986
1260.01	435.709
1263.61	381.788
1267.21	465.28
1270.81	508.45
1274.4	477.996
1277.99	427.759
1281.58	226.881
1285.17	195.246
1288.76	47.846
1292.34	122.694
1295.93	243.162
1299.51	155.93
1303.09	288.303
1306.66	203.903
1310.24	179.43
1313.82	176.829
1317.39	130.253
1320.96	120.469
1324.53	35.083
1328.09	87.915
1331.66	167.286
1335.22	149.804
1338.79	143.781
1342.35	160.165
1345.9	200.44
1349.46	122.858
1353.01	117.542
1356.57	125.859
1360.12	98.525
1363.67	147.683
1367.21	188.633
1370.76	194.002
1374.3	223.999
1377.85	83.022
1381.39	281.622
1384.93	223.523
1388.46	94.705
1392	146.169
1395.53	168.632
1399.06	78.919
1402.59	145.458
1406.12	144.247
1409.65	219.762
1413.17	325.775
1416.69	235.796
1420.22	80.553
1423.74	172.825
1427.25	119.531
1430.77	103.184
1434.28	159.7
1437.8	40.241
1441.31	138.298
1444.82	251.433
1448.32	200.829
1451.83	199.54
1455.33	234.45
1458.83	332.588
1462.34	279.301
1465.83	141.013
1469.33	91.811
1472.83	179.386
1476.32	182.101
1479.81	157.542
1483.3	291.345
1486.79	237.697
1490.28	354.518
1493.76	359.939
1497.24	338.253
1500.72	234.915
1504.2	222.628
1507.68	200.699
1511.16	220.329
1514.63	5.59
