Measurement: Raman, 514 nm, ccw, Raman Data Processed
Mineral: Crocoite
Rruff sample: R050044
Ideal chemistry: Pb^2+^Cr^6+^O_4_
Locality: Red Ledge mine, Dundas, Tasmania
Source: Eugene Schlepp
Description: Red crystal fragment
Measured chemistry: Pb_1.02_Cr_0.99_O_4_
Pin_id: L00274
Orientation: Laser parallel to a* (1 0 0). Fiducial mark perpendicular to laser is parallel to b [0 1 0]
Raman shift (cm-1)	intensity
165.002	0
169.169	0.855
173.333	28.75
177.495	69.383
181.654	62.157
185.812	58.727
189.967	42.414
194.12	8.868
198.271	86.042
202.419	63.106
206.565	63.819
210.71	39.948
214.851	33.682
218.991	60.903
223.129	75.417
227.264	108.274
231.397	84.035
235.528	83.442
239.656	49.802
243.783	39.286
247.907	4.615
252.029	7.751
256.149	18.441
260.267	44.331
264.382	14.689
268.496	12.294
272.607	26.204
276.716	30.958
280.823	7.552
284.927	3.949
289.03	29.125
293.13	35.945
297.228	10.216
301.324	39.103
305.418	44.634
309.509	50.042
313.599	81.418
317.686	115.863
321.771	143.339
325.854	170.939
329.934	237.272
334.013	311.34
338.089	640.049
342.164	801.899
346.236	561.664
350.306	617.163
354.373	719.088
358.439	1090.08
362.503	1374
366.564	985.876
370.623	689.133
374.68	799.719
378.735	1667.99
382.788	1314.88
386.838	526.437
390.887	298.358
394.933	294.719
398.977	431.485
403.02	579.321
407.059	464.676
411.097	189.424
415.133	114.306
419.167	147.713
423.198	140.872
427.227	180.277
431.254	163.595
435.28	137.012
439.303	163.673
443.323	182.441
447.342	209.181
451.359	188.407
455.373	216.119
459.386	176.853
463.396	212.895
467.404	215.572
471.41	219.395
475.414	217.226
479.416	165.728
483.416	196.082
487.413	209.527
491.409	189.582
495.402	188.392
499.394	194.802
503.383	174.686
507.37	204.201
511.355	192.47
515.338	163.31
519.319	181.818
523.298	169.998
527.275	185.852
531.25	116.396
535.222	207.62
539.193	144.54
543.161	139.164
547.128	125.495
551.092	75.527
555.054	138.257
559.014	94.704
562.972	78.983
566.928	101.719
570.882	93.307
574.834	59.173
578.784	82.977
582.732	14.368
586.677	9.72
590.621	12.553
594.563	35.623
598.502	35.123
602.44	10.338
606.375	27.648
610.308	42.585
614.24	22.282
618.169	41.595
622.096	68.312
626.021	1.733
629.945	0.331
633.866	0.621
637.785	24.347
641.702	8.927
645.617	48.438
649.53	29.589
653.441	10.406
657.35	0.099
661.256	263.656
665.161	57.853
669.064	8.607
672.965	66.834
676.864	63.935
680.76	116.671
684.655	159.82
688.548	135.477
692.438	205.228
696.327	221.965
700.214	266.531
704.098	329.152
707.981	329.996
711.861	331.654
715.74	407.732
719.617	415.436
723.491	298.145
727.364	351.645
731.234	431.146
735.103	410.314
738.969	392.052
742.834	452.349
746.697	529.516
750.557	566.335
754.416	578.463
758.272	635.452
762.127	655.627
765.979	720.884
769.83	766.145
773.679	853.266
777.525	911.979
781.37	929.48
785.213	1032.18
789.053	1170.33
792.892	1358.99
796.729	1511.4
800.563	1615.09
804.396	1791.93
808.227	2050.33
812.056	2263.03
815.883	2595.24
819.708	3412.64
823.531	4460.42
827.352	6254.52
831.17	9156.95
834.988	15069.8
838.803	28893
842.616	37516.6
846.427	24350.6
850.236	14235
854.043	10419.9
857.849	8815.3
861.652	6641.13
865.453	4444.4
869.253	3241.03
873.05	2630.06
876.846	2190.53
880.639	1872.39
884.431	1642.64
888.22	1511.28
892.008	1332.33
895.794	1259.78
899.578	1223.69
903.36	1099.05
907.14	1173.91
910.918	1082.2
914.694	966.979
918.468	948.27
922.24	794.088
926.011	662.368
929.779	610.118
933.546	468.318
937.31	496.921
941.073	387.917
944.833	357.55
948.592	318.355
952.349	277.539
956.104	279.093
959.857	202.613
963.608	204.106
967.357	203.701
971.105	226.115
974.85	230.496
978.594	230.53
982.335	206.905
986.075	161.741
989.812	177.961
993.548	128.047
997.282	111.34
1001.01	106.921
1004.74	52.119
1008.47	30.505
1012.2	6.516
1015.92	70.594
1019.65	31.082
1023.37	73.72
1027.09	99.626
1030.8	70.136
1034.52	94.276
1038.23	46.067
1041.94	45.082
1045.65	66.3
1049.36	39.286
1053.06	57.198
1056.77	39.878
1060.47	47.693
1064.17	55.51
1067.87	92.696
1071.56	92.869
1075.26	4.147
1078.95	92.517
1082.64	39.97
1086.33	35.496
1090.02	41.989
1093.7	65.797
1097.38	107.574
1101.07	43.389
1104.74	44.769
1108.42	6.95
1112.1	99.869
1115.77	3.691
1119.44	77.5
1123.11	13.28
1126.78	0.011
1130.45	96.37
1134.11	66.235
1137.78	44.857
1141.44	4.682
1145.1	53.352
1148.75	11.403
1152.41	11.858
1156.06	58.13
1159.71	26.448
1163.36	18.301
1167.01	84.459
1170.66	61.198
1174.3	24.487
1177.94	35.535
1181.58	83.009
1185.22	65.61
1188.86	67.24
1192.49	77.612
1196.13	87.954
1199.76	180.771
1203.39	113.63
1207.02	206.45
1210.64	221.004
1214.27	193.324
1217.89	280.435
1221.51	220.611
1225.13	228.159
1228.74	239.198
1232.36	223.333
1235.97	266.262
1239.58	306.585
1243.19	222.681
1246.8	188.954
1250.41	188.108
1254.01	251.002
1257.61	256.919
1261.21	230.467
1264.81	293.029
1268.41	205.303
1272.01	302.33
1275.6	120.089
1279.19	76.491
1282.78	148.408
1286.37	175.945
1289.95	207.829
1293.54	152.144
1297.12	167.522
1300.7	90.339
1304.28	16.958
1307.86	68.508
1311.43	79.363
1315.01	5.421
1318.58	30.515
1322.15	20.881
1325.72	5.589
1329.28	109.152
1332.85	124.367
1336.41	129.284
1339.97	42.899
1343.53	92.203
1347.09	110.224
1350.64	60.98
1354.2	141.707
1357.75	55.931
1361.3	75.137
1364.85	61.502
1368.4	107.098
1371.94	103.449
1375.48	82.523
1379.03	71.214
1382.57	38.866
1386.11	100.417
1389.64	51.61
1393.18	82.403
1396.71	138.824
1400.24	140.186
1403.77	200.766
1407.3	162.496
1410.82	159.451
1414.35	69.073
1417.87	51.677
1421.39	77.722
1424.91	65.277
1428.43	73.538
1431.94	65.58
1435.45	152.965
1438.97	165.372
1442.48	115.918
1445.98	126.668
1449.49	117.142
1453	112.498
1456.5	89.511
1460	60.962
1463.5	85.888
1467	166.951
1470.49	161.342
1473.99	133.549
1477.48	71.932
1480.97	112.975
1484.46	138.243
1487.95	70.572
1491.44	127.805
1494.92	63.189
1498.4	80.002
1501.88	10.447
1505.36	16.967
1508.84	13.402
1512.32	106.052
1515.79	92.391
1519.26	0
