Measurement: Raman, 514 nm, ccw, Raman Data Processed
Mineral: Crocoite
Rruff sample: R040053
Ideal chemistry: Pb^2+^Cr^6+^O_4_
Locality: Dundas, Tasmania
Source: Bob Downs
Description: Reddish-orange prismatic crystal
Measured chemistry: (Pb_.995_Mn_.005_)CrO_4_
Pin_id: L00166
Orientation: Laser parallel to -a* (-1 0 0). Fiducial mark perpendicular to laser is parallel to b [0 1 0]
Raman shift (cm-1)	intensity
61.962	0
66.157	423.681
70.349	31.788
74.54	569.02
78.729	136.693
82.916	10.311
87.101	82.659
91.284	256.318
95.465	217.47
99.644	50.08
103.82	39.44
107.995	56.447
112.168	213.043
116.339	190.65
120.508	189.14
124.675	320.266
128.84	609.107
133.003	801.183
137.164	663.049
141.323	358.295
145.48	238.592
149.635	205.166
153.788	178.842
157.939	124.122
162.088	137.506
166.235	80.014
170.38	94.205
174.523	94.943
178.664	58.251
182.803	40.397
186.94	52.636
191.076	52.367
195.209	56.448
199.34	51.102
203.47	42.321
207.597	5.059
211.722	232.317
215.846	10.901
219.967	0.649
224.087	28.841
228.204	27.652
232.32	2.69
236.434	3.632
240.545	12.134
244.655	27.252
248.763	15.726
252.869	18.781
256.973	38.582
261.075	69.74
265.175	76.716
269.273	80.666
273.369	107.827
277.463	122.482
281.556	116.184
285.646	125.366
289.734	108.187
293.821	152.159
297.905	133.977
301.988	185.893
306.069	182.196
310.147	244.922
314.224	278.797
318.299	369.947
322.372	491.038
326.443	569.562
330.512	890.337
334.579	2148.94
338.645	1518.34
342.708	1070.73
346.769	1396.84
350.829	600.684
354.887	463.666
358.942	399.555
362.996	274.085
367.048	280.844
371.098	350.113
375.146	456.785
379.192	354.768
383.236	287.724
387.279	294.025
391.319	404.586
395.358	902.114
399.394	1419.5
403.429	455.474
407.462	205.432
411.493	189.862
415.522	144.22
419.549	177.266
423.575	151.563
427.598	123.928
431.619	166.564
435.639	155.187
439.657	147.812
443.673	195.653
447.687	130.318
451.699	159.81
455.709	177.645
459.717	160.254
463.724	180.239
467.728	166.653
471.731	165.115
475.732	184.706
479.731	167.005
483.728	171.179
487.723	147.259
491.716	123.369
495.708	153.831
499.697	152.491
503.685	146.933
507.671	109.575
511.655	169.537
515.637	179.353
519.617	141.467
523.596	144.91
527.572	126.871
531.547	150.879
535.52	153.449
539.491	115.7
543.46	126.618
547.427	83.373
551.393	66.977
555.356	88.425
559.318	105.673
563.278	73.73
567.236	36.481
571.192	55.581
575.147	83.2
579.099	27.171
583.05	31.403
586.999	37.912
590.946	19.677
594.891	30.271
598.834	29.653
602.776	4.164
606.715	2.542
610.653	30.134
614.589	4.919
618.523	1.658
622.456	58.343
626.386	5.774
630.315	1.706
634.242	11.489
638.167	43.008
642.09	29.737
646.012	2.681
649.931	29.799
653.849	32.374
657.765	20.185
661.679	46.16
665.592	30.054
669.502	4.408
673.411	71.558
677.318	16.072
681.223	4.41
685.126	18.459
689.028	29.394
692.927	25.437
696.825	73.097
700.721	49.376
704.616	55.401
708.508	69.439
712.399	53.333
716.288	23.155
720.175	53.45
724.06	111.874
727.944	56.726
731.825	68.116
735.705	90.256
739.584	74.827
743.46	155.574
747.334	145.273
751.207	179.842
755.078	200.492
758.947	269.564
762.815	285.662
766.68	367.824
770.544	438.569
774.406	539.7
778.267	722.227
782.125	800.179
785.982	1304.51
789.837	1501.18
793.69	1783.94
797.542	2026.35
801.391	2335.42
805.239	2648.91
809.085	2931.47
812.93	3575.53
816.772	4752.88
820.613	6806.53
824.452	9947.7
828.29	14982.8
832.125	28493.1
835.959	56433.2
839.791	50904.1
843.621	26516.7
847.45	18199.6
851.277	15242.8
855.102	13346
858.925	8789.32
862.746	6322.72
866.566	4876.14
870.384	3907.86
874.2	3228.51
878.015	2672.28
881.828	2267.14
885.639	1985.19
889.448	1756.35
893.256	1479.54
897.061	1272.78
900.865	1146.73
904.668	927.217
908.468	779.763
912.267	711.584
916.064	618.813
919.86	499.831
923.653	398.188
927.445	403.652
931.236	359.171
935.024	476.056
938.811	487.452
942.596	308.572
946.379	163.516
950.161	127.023
953.94	119.961
957.719	166.63
961.495	128.853
965.27	90.888
969.043	106.666
972.814	98.042
976.583	98.37
980.351	77.777
984.117	141.119
987.882	66.64
991.644	115.836
995.405	44.577
999.165	60.118
1002.92	134.228
1006.68	43.151
1010.43	99.667
1014.18	20.2
1017.93	11.251
1021.68	60.291
1025.43	90.567
1029.18	35.876
1032.92	144.661
1036.66	31.646
1040.4	12.797
1044.14	73.261
1047.88	27.459
1051.62	128.186
1055.35	90.06
1059.08	3.766
1062.81	27.622
1066.54	38.891
1070.27	21.431
1073.99	65.858
1077.72	99.218
1081.44	156.404
1085.16	125.713
1088.88	51.016
1092.59	113.085
1096.31	45.748
1100.02	115.284
1103.73	246.132
1107.44	203.702
1111.15	42.812
1114.86	101.315
1118.57	257.212
1122.27	166.59
1125.97	41.044
1129.67	32.86
1133.37	9.07
1137.07	9.342
1140.76	8.92
1144.45	64.3
1148.15	99.414
1151.84	149.171
1155.53	76.469
1159.21	118.962
1162.9	88.396
1166.58	165.66
1170.26	169.933
1173.94	113.515
1177.62	128.84
1181.3	89.462
1184.97	113.753
1188.65	97.896
1192.32	233.149
1195.99	230.392
1199.66	199.316
1203.33	338.638
1206.99	297.521
1210.65	253.804
1214.32	205
1217.98	283.796
1221.64	365.039
1225.29	294.964
1228.95	233.459
1232.6	178.634
1236.26	186.088
1239.91	260.497
1243.56	251.556
1247.2	186.808
1250.85	259.171
1254.49	283.917
1258.13	228.698
1261.78	247.409
1265.41	251.435
1269.05	247.023
1272.69	178.388
1276.32	117.995
1279.95	200.139
1283.59	218.948
1287.21	272.341
1290.84	144.34
1294.47	224.71
1298.09	205.198
1301.72	119.062
1305.34	134.314
1308.96	117.727
1312.58	124.938
1316.19	99.26
1319.81	21.093
1323.42	17.416
1327.03	45.146
1330.64	55.505
1334.25	84.515
1337.86	12.518
1341.46	41.817
1345.07	21.977
1348.67	114.819
1352.27	109.292
1355.87	180.456
1359.46	100.992
1363.06	227.43
1366.65	132.505
1370.25	27.2
1373.84	33.693
1377.43	95.484
1381.02	90.438
1384.6	163.066
1388.18	101.939
1391.77	94.811
1395.35	167.349
1398.93	277.864
1402.51	262.916
1406.08	175.291
1409.66	30.683
1413.23	2.185
1416.8	144.165
1420.37	70.189
1423.94	95.438
1427.51	112.628
1431.08	298.688
1434.64	219.362
1438.2	184.856
1441.76	194.74
1445.32	105.878
1448.88	183.632
1452.43	86.12
1455.99	230.177
1459.54	140.015
1463.09	230.53
1466.64	303.816
1470.19	216.27
1473.74	340.234
1477.28	224.387
1480.83	341.146
1484.37	194.887
1487.91	269.283
1491.45	149.668
1494.98	123.338
1498.52	11.423
1502.05	182.825
1505.59	62.862
1509.12	154.877
1512.65	177.87
1516.17	304.045
1519.7	226.732
1523.23	250.324
1526.75	229.718
1530.27	84.406
