Measurement: Raman, 514 nm, ccw, Raman Data Processed
Mineral: Crocoite
Rruff sample: R050044
Ideal chemistry: Pb^2+^Cr^6+^O_4_
Locality: Red Ledge mine, Dundas, Tasmania
Source: Eugene Schlepp
Description: Red crystal fragment
Measured chemistry: Pb_1.02_Cr_0.99_O_4_
Pin_id: L00130
Orientation: Laser parallel to b* (0 1 0). Fiducial mark perpendicular to laser is parallel to -c [0 0 -1]
Raman shift (cm-1)	intensity
163.613	0
167.78	26.404
171.945	3.944
176.108	25.102
180.268	92.34
184.426	71.163
188.582	117.09
192.736	176.848
196.887	193.153
201.036	226.158
205.184	153.678
209.328	107.846
213.471	158.765
217.611	82.439
221.75	85.035
225.886	52.531
230.019	84.92
234.151	109.229
238.281	71.479
242.408	91.828
246.533	95.546
250.656	19.001
254.776	52.191
258.895	41.86
263.011	15.238
267.125	32.686
271.237	32.449
275.346	67.871
279.454	30.405
283.559	41.075
287.662	24.299
291.763	17.532
295.862	21.044
299.959	6.518
304.053	37.06
308.146	3.642
312.236	65.755
316.324	124.795
320.409	295.7
324.493	499.425
328.574	494.993
332.654	543.092
336.731	1049.3
340.806	1371.88
344.879	1492.81
348.949	757.371
353.018	569.793
357.084	678.274
361.148	646.553
365.21	463.479
369.27	349.656
373.328	520.266
377.384	1144.51
381.437	1547.53
385.488	907.435
389.538	379.792
393.585	256.569
397.63	237.866
401.672	266.424
405.713	235.109
409.752	224.431
413.788	208.62
417.822	209.946
421.854	185.743
425.884	164.466
429.912	167.108
433.938	167.718
437.962	184.362
441.983	214.406
446.003	207.874
450.02	280.532
454.035	268.288
458.048	305.898
462.059	334.934
466.068	330.636
470.075	397.566
474.08	455.403
478.082	490.199
482.083	510.721
486.081	500.998
490.077	468.486
494.072	425.981
498.064	376.637
502.054	341.327
506.041	354.476
510.027	351.179
514.011	298.688
517.993	272.54
521.972	293.984
525.95	286.036
529.925	243.772
533.898	252.006
537.869	287.96
541.839	239.583
545.806	260.889
549.771	338.895
553.734	459.195
557.694	504.984
561.653	320.861
565.61	320.023
569.565	240.564
573.517	183.75
577.468	139.741
581.416	130.509
585.362	68.313
589.307	3.332
593.249	19.704
597.189	2.562
601.127	6.424
605.064	21.875
608.998	35.025
612.93	36.853
616.86	5.725
620.787	34.624
624.713	68.88
628.637	36.574
632.559	20.653
636.479	26.051
640.396	26.67
644.312	23.867
648.226	16.184
652.137	13.301
656.047	13.634
659.954	5.808
663.86	45.846
667.763	15.221
671.665	62.609
675.564	72.104
679.462	93.802
683.357	112.324
687.25	118.432
691.142	177.784
695.031	241.265
698.918	255.549
702.804	280.869
706.687	384.296
710.568	385.763
714.447	360.253
718.325	385.772
722.2	391.329
726.073	400.867
729.944	484.361
733.814	555.712
737.681	634.884
741.546	629.522
745.409	608.448
749.27	639.281
753.13	663.637
756.987	772.288
760.842	773.006
764.695	719.951
768.547	721.729
772.396	748.018
776.243	825.524
780.089	922.555
783.932	1007.11
787.773	1141.21
791.613	1298.92
795.45	1490.12
799.285	1698.2
803.119	2003.22
806.95	2369.17
810.78	3059.15
814.607	4211.94
818.433	7265.18
822.256	16404.5
826.078	28145.5
829.898	23706.9
833.715	21758.6
837.531	26090.8
841.345	26883.3
845.157	31766.3
848.966	29439.6
852.774	15823.3
856.58	8127.4
860.384	4873.79
864.186	3523.5
867.986	2680.52
871.784	2233.87
875.581	1892.53
879.375	1664.52
883.167	1445.83
886.957	1352.18
890.746	1262.43
894.532	1137.74
898.317	1117.41
902.099	1143.53
905.88	1078.11
909.659	1078.13
913.435	982.627
917.21	899.582
920.983	927.001
924.754	957.069
928.523	953.41
932.29	990.117
936.056	894.75
939.819	800.385
943.58	752.444
947.34	782.272
951.097	719.273
954.853	726.386
958.606	720.648
962.358	691.131
966.108	631.302
969.856	633.557
973.602	627.872
977.346	526.664
981.088	567.597
984.828	490.154
988.567	443.083
992.303	310.98
996.038	300.917
999.77	268.74
1003.5	209.315
1007.23	165.894
1010.96	137.25
1014.68	128.759
1018.4	114.416
1022.13	138.213
1025.85	89.148
1029.56	27.211
1033.28	322.397
1036.99	99.699
1040.7	68.111
1044.41	104.625
1048.12	77.235
1051.83	66.933
1055.53	46.71
1059.24	78.56
1062.94	16.474
1066.63	17.446
1070.33	58.145
1074.03	13.529
1077.72	27.623
1081.41	12.259
1085.1	16.177
1088.79	25.148
1092.47	37.156
1096.16	12.276
1099.84	1.476
1103.52	6.082
1107.2	29.465
1110.87	31.123
1114.55	36.938
1118.22	13.992
1121.89	24.24
1125.56	5.745
1129.23	12.508
1132.89	49.445
1136.56	22.725
1140.22	22.273
1143.88	1.056
1147.53	8.951
1151.19	47.72
1154.84	87.339
1158.5	139.833
1162.15	174.261
1165.8	162.556
1169.44	182.792
1173.09	180.905
1176.73	180.884
1180.37	199.685
1184.01	218.372
1187.65	255.999
1191.28	286.431
1194.92	255.678
1198.55	320.927
1202.18	346.061
1205.81	413.884
1209.43	392.972
1213.06	418.729
1216.68	429.886
1220.3	353.698
1223.92	421.372
1227.54	404.647
1231.15	400.337
1234.77	330.986
1238.38	343.999
1241.99	368.816
1245.6	281.058
1249.21	260.113
1252.81	310.894
1256.41	268.595
1260.01	258.14
1263.61	263.695
1267.21	252.396
1270.81	268.016
1274.4	253.495
1277.99	226.177
1281.58	190.696
1285.17	197.004
1288.76	151.77
1292.34	203.878
1295.93	153.324
1299.51	136.133
1303.09	103.144
1306.66	127.592
1310.24	166.989
1313.82	129.419
1317.39	114.644
1320.96	117.715
1324.53	94.531
1328.09	69.213
1331.66	105.565
1335.22	94.689
1338.79	76.694
1342.35	117.37
1345.9	107.873
1349.46	57.149
1353.01	56.41
1356.57	29.313
1360.12	62.984
1363.67	42.406
1367.21	61.609
1370.76	44.549
1374.3	28.028
1377.85	61.111
1381.39	73.996
1384.93	63.501
1388.46	57.94
1392	5.457
1395.53	17.377
1399.06	18.436
1402.59	21.769
1406.12	27.262
1409.65	25.843
1413.17	40.298
1416.69	12.552
1420.22	34.634
1423.74	56.594
1427.25	24.597
1430.77	31.357
1434.28	15.698
1437.8	2.208
1441.31	46.88
1444.82	69.897
1448.32	93.081
1451.83	49.27
1455.33	81.251
1458.83	79.48
1462.34	63.54
1465.83	33.846
1469.33	71.462
1472.83	58.537
1476.32	38.896
1479.81	60.312
1483.3	66.531
1486.79	71.015
1490.28	76.86
1493.76	78.761
1497.24	64.467
1500.72	72.049
1504.2	97.416
1507.68	6.618
1511.16	56.006
1514.63	0.23
