Measurement: Raman, 514 nm, ccw, Raman Data Processed
Mineral: Crocoite
Rruff sample: R040053
Ideal chemistry: Pb^2+^Cr^6+^O_4_
Locality: Dundas, Tasmania
Source: Bob Downs
Description: Reddish-orange prismatic crystal
Measured chemistry: (Pb_.995_Mn_.005_)CrO_4_
Pin_id: L00292
Orientation: Laser parallel to (-1 0 -1). Fiducial mark perpendicular to laser is parallel to -b [0 -1 0]
Raman shift (cm-1)	intensity
87.101	0
91.284	65.611
95.465	110.583
99.644	126.427
103.82	148.283
107.995	205.584
112.168	232.457
116.339	440.718
120.508	595.914
124.675	976.955
128.84	1700.43
133.003	3156.44
137.164	3823.93
141.323	2886.03
145.48	1864.2
149.635	1323.92
153.788	919.283
157.939	666.365
162.088	464.724
166.235	359.563
170.38	288.696
174.523	249.266
178.664	202.268
182.803	166.047
186.94	188.181
191.076	169.838
195.209	235.448
199.34	147.403
203.47	134.637
207.597	178.048
211.722	186.604
215.846	80.29
219.967	108.057
224.087	33.869
228.204	27.697
232.32	71.508
236.434	17.71
240.545	19.048
244.655	9.744
248.763	11.383
252.869	13.305
256.973	2.819
261.075	39.391
265.175	21.253
269.273	24.329
273.369	2.82
277.463	12.233
281.556	30.599
285.646	1.317
289.734	16.018
293.821	35.506
297.905	24.955
301.988	22.488
306.069	10.005
310.147	93.839
314.224	100.29
318.299	148.961
322.372	117.318
326.443	189.831
330.512	235.895
334.579	277.124
338.645	436.606
342.708	728.934
346.769	1459.16
350.829	1756.4
354.887	1448.83
358.942	1868.07
362.996	1381.44
367.048	960.234
371.098	1130.2
375.146	3367.05
379.192	3658.72
383.236	1007.7
387.279	444.084
391.319	409.065
395.358	378.372
399.394	529.501
403.429	375.43
407.462	202.777
411.493	206.156
415.522	556.982
419.549	144.011
423.575	209.939
427.598	149.232
431.619	221.871
435.639	202.373
439.657	233.55
443.673	184.613
447.687	204.527
451.699	246.96
455.709	229.909
459.717	247.304
463.724	233.899
467.728	188.761
471.731	216.387
475.732	189.704
479.731	204.741
483.728	209.694
487.723	234.719
491.716	210.185
495.708	165.641
499.697	204.638
503.685	179.167
507.671	217.353
511.655	162.501
515.637	193.013
519.617	212.186
523.596	146.024
527.572	216.527
531.547	146.707
535.52	185.548
539.491	155.064
543.46	82.256
547.427	111.102
551.393	171.62
555.356	131.818
559.318	71.694
563.278	85.233
567.236	93.44
571.192	75.283
575.147	72.729
579.099	5.766
583.05	103.478
586.999	14.677
590.946	13.564
594.891	8
598.834	1.952
602.776	39.681
606.715	11.854
610.653	6.445
614.589	36.276
618.523	4.487
622.456	89.21
626.386	2.595
630.315	35.468
634.242	19.624
638.167	4.81
642.09	12.161
646.012	16.1
649.931	8.921
653.849	5.94
657.765	2.118
661.679	40.004
665.592	16.021
669.502	11.42
673.411	106.798
677.318	22.848
681.223	104.064
685.126	141.363
689.028	181.568
692.927	347.238
696.825	267.525
700.721	297.432
704.616	343.334
708.508	385.316
712.399	454.15
716.288	819.758
720.175	760.732
724.06	737.405
727.944	586.45
731.825	420.487
735.705	469.504
739.584	505.213
743.46	453.273
747.334	606.391
751.207	636.647
755.078	619.309
758.947	748.062
762.815	896.456
766.68	853.563
770.544	855.036
774.406	891.344
778.267	959.685
782.125	891.94
785.982	796.88
789.837	1222.76
793.69	1427.05
797.542	1484.91
801.391	1711.66
805.239	1851.93
809.085	2101.05
812.93	2384.87
816.772	2998.01
820.613	4060.18
824.452	5495.99
828.29	8103.15
832.125	12670.7
835.959	25358.7
839.791	47147.1
843.621	37696.1
847.45	21225.7
851.277	18445.9
855.102	19406.4
858.925	16997.9
862.746	11269.9
866.566	7132.45
870.384	4965.07
874.2	3465.25
878.015	2729.79
881.828	2206.8
885.639	1788.3
889.448	1659.34
893.256	1574.8
897.061	1494.76
900.865	1522.24
904.668	1280.24
908.468	1407.74
912.267	1187.79
916.064	1080.38
919.86	943.524
923.653	795.232
927.445	639.439
931.236	583.189
935.024	522.506
938.811	467.316
942.596	415.615
946.379	328.353
950.161	277.53
953.94	305.125
957.719	119.137
961.495	197.571
965.27	168.398
969.043	208.596
972.814	237.161
976.583	267.091
980.351	277.659
984.117	161.549
987.882	193.034
991.644	64.716
995.405	91.629
999.165	38.5
1002.92	125.022
1006.68	114.216
1010.43	117.167
1014.18	81.877
1017.93	45.528
1021.68	60.693
1025.43	67.9
1029.18	53.941
1032.92	49.073
1036.66	19.71
1040.4	81.542
1044.14	63.818
1047.88	114.988
1051.62	176.766
1055.35	147.248
1059.08	123.979
1062.81	84.85
1066.54	91.868
1070.27	94.008
1073.99	98.245
1077.72	143.576
1081.44	137.979
1085.16	192.451
1088.88	172.975
1092.59	98.537
1096.31	135.276
1100.02	194.874
1103.73	137.477
1107.44	47.077
1111.15	137.789
1114.86	13.342
1118.57	124.852
1122.27	310.401
1125.97	156.805
1129.67	1.272
1133.37	30.383
1137.07	15.354
1140.76	57.81
1144.45	135.552
1148.15	57.733
1151.84	3.888
1155.53	29.141
1159.21	97.825
1162.9	106.143
1166.58	21
1170.26	0.917
1173.94	71.403
1177.62	11.752
1181.3	2.669
1184.97	70.597
1188.65	61.982
1192.32	131.171
1195.99	140.508
1199.66	149.456
1203.33	158.982
1206.99	271.705
1210.65	291.047
1214.32	242.923
1217.98	279.333
1221.64	271.239
1225.29	248.959
1228.95	302.554
1232.6	329.571
1236.26	216.364
1239.91	201.526
1243.56	242.384
1247.2	218.021
1250.85	306.666
1254.49	357.843
1258.13	290.967
1261.78	376.795
1265.41	329.23
1269.05	252.599
1272.69	232.194
1276.32	218.42
1279.95	222.926
1283.59	254.312
1287.21	172.4
1290.84	218.247
1294.47	156.659
1298.09	183.958
1301.72	197.845
1305.34	142.603
1308.96	83.824
1312.58	127.823
1316.19	24.591
1319.81	82.826
1323.42	44.103
1327.03	75.602
1330.64	82.712
1334.25	20.346
1337.86	7.121
1341.46	16.462
1345.07	104.069
1348.67	75.611
1352.27	67.792
1355.87	78.616
1359.46	148.091
1363.06	155.305
1366.65	116.084
1370.25	84.837
1373.84	33
1377.43	113.869
1381.02	109.5
1384.6	93.235
1388.18	96.164
1391.77	126.662
1395.35	105.345
1398.93	154.4
1402.51	110.062
1406.08	116.014
1409.66	113.308
1413.23	30.531
1416.8	87.581
1420.37	108.515
1423.94	123.131
1427.51	78.868
1431.08	105.782
1434.64	198.645
1438.2	123.654
1441.76	133.543
1445.32	142.771
1448.88	27.272
1452.43	95.323
1455.99	77.833
1459.54	144.307
1463.09	92.376
1466.64	145.999
1470.19	164.183
1473.74	220.324
1477.28	191.215
1480.83	158.617
1484.37	117.716
1487.91	123.057
1491.45	85.761
1494.98	81.793
1498.52	73.607
1502.05	36.872
1505.59	154.277
1509.12	109.156
1512.65	115.492
1516.17	75.322
1519.7	137.911
1523.23	75.51
1526.75	189.544
1530.27	127.078
1533.79	2.136
