Measurement: Raman, 514 nm, ccw, Raman Data Processed
Mineral: Crocoite
Rruff sample: R050044
Ideal chemistry: Pb^2+^Cr^6+^O_4_
Locality: Red Ledge mine, Dundas, Tasmania
Source: Eugene Schlepp
Description: Red crystal fragment
Measured chemistry: Pb_1.02_Cr_0.99_O_4_
Pin_id: L00200
Orientation: Laser parallel to c* (0 0 1). Fiducial mark perpendicular to laser is parallel to -a [-1 0 0]
Raman shift (cm-1)	intensity
163.613	0
167.78	22.13
171.945	14.247
176.108	44.62
180.268	79.888
184.426	95.393
188.582	82.746
192.736	68.781
196.887	33.773
201.036	45.942
205.184	30.715
209.328	36.832
213.471	28.896
217.611	29.56
221.75	27.995
225.886	18.143
230.019	19.088
234.151	38.099
238.281	11.028
242.408	17.429
246.533	20.839
250.656	15.385
254.776	1.088
258.895	7.898
263.011	17.769
267.125	22.673
271.237	5.573
275.346	1.556
279.454	1.746
283.559	10
287.662	2.343
291.763	3.259
295.862	13.792
299.959	7.538
304.053	14.05
308.146	42.436
312.236	45.892
316.324	68.309
320.409	118.861
324.493	274.284
328.574	650.57
332.654	572.961
336.731	718.367
340.806	1943.66
344.879	1166.87
348.949	699.76
353.018	864.493
357.084	287.014
361.148	201.419
365.21	168.739
369.27	151.864
373.328	230.667
377.384	846.308
381.437	1805.91
385.488	451.077
389.538	175.996
393.585	117.567
397.63	114.902
401.672	151.814
405.713	154.829
409.752	96.828
413.788	84.665
417.822	61.093
421.854	56.875
425.884	67.227
429.912	53.625
433.938	26.945
437.962	62.043
441.983	81.749
446.003	85.252
450.02	68.814
454.035	46.545
458.048	72.912
462.059	61.758
466.068	63.089
470.075	58.155
474.08	78.322
478.082	81.053
482.083	73.82
486.081	57.566
490.077	73.372
494.072	69.835
498.064	48.951
502.054	50.433
506.041	49.648
510.027	49.02
514.011	57.421
517.993	53.794
521.972	37.505
525.95	37.413
529.925	52.088
533.898	38.679
537.869	41.189
541.839	34.616
545.806	28.966
549.771	30.241
553.734	31.441
557.694	33.569
561.653	28.621
565.61	42.61
569.565	12.522
573.517	18.546
577.468	16.11
581.416	14.796
585.362	24.405
589.307	4.059
593.249	3.846
597.189	8.432
601.127	8.687
605.064	11.858
608.998	7.065
612.93	15.146
616.86	10.296
620.787	8.562
624.713	17.899
628.637	20.451
632.559	4.924
636.479	25.244
640.396	5.505
644.312	8.65
648.226	5.733
652.137	10.206
656.047	19.654
659.954	29.512
663.86	29.24
667.763	1.07
671.665	1.136
675.564	17.593
679.462	8.415
683.357	2.937
687.25	3.134
691.142	25.55
695.031	26.076
698.918	30.455
702.804	34.856
706.687	46.152
710.568	39.504
714.447	28.846
718.325	56.989
722.2	22.357
726.073	26.964
729.944	20
733.814	29.175
737.681	77.916
741.546	64.203
745.409	56.856
749.27	63.031
753.13	116.058
756.987	109.959
760.842	123.963
764.695	92.552
768.547	145.543
772.396	145.848
776.243	171.551
780.089	202.029
783.932	220.396
787.773	249.441
791.613	353.481
795.45	452.857
799.285	544.273
803.119	620.09
806.95	750.618
810.78	892.676
814.607	1128.7
818.433	1542.95
822.256	2393.01
826.078	3489.99
829.898	4479.28
833.715	5688.73
837.531	9177.22
841.345	15674
845.157	13850.9
848.966	9867.81
852.774	9654.85
856.58	11121.9
860.384	10009.1
864.186	6922.38
867.986	4801.7
871.784	3483.1
875.581	2634.57
879.375	2160.12
883.167	1870.14
886.957	1565.84
890.746	1318.89
894.532	1118.39
898.317	1000.68
902.099	829.718
905.88	762.844
909.659	642.058
913.435	568.721
917.21	461.246
920.983	381.764
924.754	360.37
928.523	322.062
932.29	289.868
936.056	247.777
939.819	207.78
943.58	196.865
947.34	170.017
951.097	124.476
954.853	126.889
958.606	123.212
962.358	99.652
966.108	73.654
969.856	56.394
973.602	82.539
977.346	31.154
981.088	69.3
984.828	50.855
988.567	10.107
992.303	52.729
996.038	60.034
999.77	46.285
1003.5	41.521
1007.23	28.097
1010.96	19.937
1014.68	27.125
1018.4	16.457
1022.13	6.438
1025.85	23.454
1029.56	17.198
1033.28	84.195
1036.99	0.406
1040.7	11.017
1044.41	15.475
1048.12	29.962
1051.83	28.488
1055.53	3.031
1059.24	8.391
1062.94	5.801
1066.63	0.801
1070.33	28.416
1074.03	12.043
1077.72	19.682
1081.41	6.328
1085.1	25.988
1088.79	14.654
1092.47	16.322
1096.16	5.011
1099.84	1.648
1103.52	16.697
1107.2	28.93
1110.87	4.552
1114.55	0.838
1118.22	0.75
1121.89	3.678
1125.56	17.143
1129.23	3.686
1132.89	8.286
1136.56	0.998
1140.22	20.145
1143.88	4.788
1147.53	5.254
1151.19	0.358
1154.84	36.292
1158.5	18.325
1162.15	25.615
1165.8	18.796
1169.44	5.861
1173.09	40.611
1176.73	33.065
1180.37	37.984
1184.01	48.691
1187.65	62.501
1191.28	75.139
1194.92	54.862
1198.55	69.434
1202.18	59.087
1205.81	59.598
1209.43	60.07
1213.06	107.528
1216.68	78.846
1220.3	70.412
1223.92	65.741
1227.54	52.702
1231.15	54.999
1234.77	63.23
1238.38	82.357
1241.99	112.125
1245.6	75.142
1249.21	89.368
1252.81	79.67
1256.41	63.673
1260.01	59.056
1263.61	55.934
1267.21	81.521
1270.81	67.3
1274.4	60.988
1277.99	58.392
1281.58	89.142
1285.17	117.17
1288.76	27.592
1292.34	33.305
1295.93	114.137
1299.51	20.47
1303.09	5.816
1306.66	25.913
1310.24	28.961
1313.82	33.537
1317.39	27.612
1320.96	33.493
1324.53	33.281
1328.09	11.108
1331.66	6.183
1335.22	22.465
1338.79	27.052
1342.35	41.548
1345.9	56.959
1349.46	27.307
1353.01	27.639
1356.57	32.949
1360.12	10.123
1363.67	19.338
1367.21	29.41
1370.76	31.426
1374.3	21.512
1377.85	22.445
1381.39	34.185
1384.93	36.857
1388.46	12.457
1392	0.007
1395.53	15.5
1399.06	40.056
1402.59	17.795
1406.12	23.384
1409.65	39.069
1413.17	74.93
1416.69	23.827
1420.22	24.772
1423.74	34.905
1427.25	14.348
1430.77	12.115
1434.28	19.187
1437.8	6.067
1441.31	8.582
1444.82	26.632
1448.32	38.091
1451.83	42.77
1455.33	48.552
1458.83	27.682
1462.34	82.554
1465.83	21.517
1469.33	40.007
1472.83	33.719
1476.32	28.365
1479.81	15.963
1483.3	23.121
1486.79	38.987
1490.28	39.628
1493.76	57.389
1497.24	54.231
1500.72	48.297
1504.2	52.649
1507.68	31.426
1511.16	0.383
1514.63	16.388
