Measurement: Raman, 514 nm, ccw, Raman Data Processed
Mineral: Crocoite
Rruff sample: R040053
Ideal chemistry: Pb^2+^Cr^6+^O_4_
Locality: Dundas, Tasmania
Source: Bob Downs
Description: Reddish-orange prismatic crystal
Measured chemistry: (Pb_.995_Mn_.005_)CrO_4_
Pin_id: L00292
Orientation: Laser parallel to (-1 0 -1). Fiducial mark perpendicular to laser is parallel to -b [0 -1 0]
Raman shift (cm-1)	intensity
66.157	0
70.349	9.498
74.54	25.313
78.729	112.814
82.916	103.055
87.101	117.143
91.284	228.174
95.465	379.87
99.644	383.498
103.82	211.618
107.995	186.028
112.168	223.441
116.339	317.342
120.508	241.46
124.675	327.276
128.84	460.312
133.003	653.517
137.164	684.93
141.323	489.255
145.48	318.278
149.635	200.089
153.788	156.887
157.939	126.16
162.088	125.45
166.235	119.154
170.38	122.485
174.523	120.387
178.664	104.092
182.803	66.823
186.94	73.499
191.076	93.119
195.209	23.297
199.34	38.402
203.47	54.426
207.597	46.362
211.722	40.202
215.846	50.939
219.967	40.563
224.087	3.077
228.204	0.516
232.32	14.479
236.434	14.397
240.545	3.138
244.655	0.228
248.763	14.589
252.869	18.064
256.973	37.282
261.075	0.643
265.175	9.892
269.273	12.502
273.369	12.156
277.463	12.016
281.556	12.257
285.646	42.432
289.734	44.931
293.821	19.355
297.905	64.549
301.988	68.632
306.069	87.732
310.147	95.617
314.224	72.362
318.299	134.898
322.372	169.136
326.443	281.313
330.512	401.189
334.579	889.764
338.645	1685.31
342.708	1004.78
346.769	860.268
350.829	846.287
354.887	376.336
358.942	260.362
362.996	191.026
367.048	150.473
371.098	149.163
375.146	204.694
379.192	220.074
383.236	156.579
387.279	139.486
391.319	213.847
395.358	313.011
399.394	882.787
403.429	881.86
407.462	266.265
411.493	128.153
415.522	101.787
419.549	97.024
423.575	96.759
427.598	61.361
431.619	94.5
435.639	78.285
439.657	112.672
443.673	80.068
447.687	111.561
451.699	120.062
455.709	130.207
459.717	113.151
463.724	117.805
467.728	128.503
471.731	126.361
475.732	116.049
479.731	114.777
483.728	116.456
487.723	107.759
491.716	105.072
495.708	95.996
499.697	104.01
503.685	70.318
507.671	110.078
511.655	85.579
515.637	89.587
519.617	108.615
523.596	120.132
527.572	52.088
531.547	50.451
535.52	83.645
539.491	55.683
543.46	42.557
547.427	43.273
551.393	42.841
555.356	34.267
559.318	40.555
563.278	26.711
567.236	41.734
571.192	32.625
575.147	45.29
579.099	12.782
583.05	21.051
586.999	8.024
590.946	12.908
594.891	5.411
598.834	14.674
602.776	3.012
606.715	22.458
610.653	20.149
614.589	11.109
618.523	13.178
622.456	44.431
626.386	6.961
630.315	11.304
634.242	1.499
638.167	16.592
642.09	15.379
646.012	20.736
649.931	25.849
653.849	21.434
657.765	26.178
661.679	10.17
665.592	9.071
669.502	1.029
673.411	6.956
677.318	11.185
681.223	9.405
685.126	0.199
689.028	30.667
692.927	47.085
696.825	45.332
700.721	52.253
704.616	54.513
708.508	68.862
712.399	86.991
716.288	49.057
720.175	60.457
724.06	79.053
727.944	87.377
731.825	68.529
735.705	61.127
739.584	114.412
743.46	111.63
747.334	160.814
751.207	200.963
755.078	172.886
758.947	196.842
762.815	251.752
766.68	282.21
770.544	286.979
774.406	347.401
778.267	440.349
782.125	598.229
785.982	720.06
789.837	989.805
793.69	1308.8
797.542	1466.57
801.391	1613.1
805.239	1818.75
809.085	2069.07
812.93	2375.76
816.772	2886.54
820.613	4027.91
824.452	5713.69
828.29	8193.38
832.125	12680
835.959	26256.4
839.791	49373.5
843.621	36941
847.45	18318.6
851.277	12816.4
855.102	11654.3
858.925	9552.37
862.746	6662.63
866.566	4802.93
870.384	3765.34
874.2	2991.86
878.015	2378.5
881.828	1997.27
885.639	1711.15
889.448	1500.59
893.256	1312.6
897.061	1142.6
900.865	944.146
904.668	768.776
908.468	788.663
912.267	654.546
916.064	527.496
919.86	437.593
923.653	410.637
927.445	342.531
931.236	324.106
935.024	259.889
938.811	300.725
942.596	227.662
946.379	198.699
950.161	156.839
953.94	200.093
957.719	111.645
961.495	88.907
965.27	92.492
969.043	119.541
972.814	124.767
976.583	113.184
980.351	115.151
984.117	71.747
987.882	99.591
991.644	54.323
995.405	76.79
999.165	97.458
1002.92	43.104
1006.68	29.057
1010.43	43.111
1014.18	19.436
1017.93	8.641
1021.68	16.497
1025.43	41.26
1029.18	77.965
1032.92	32.803
1036.66	43.763
1040.4	1.325
1044.14	45.323
1047.88	0.641
1051.62	16.777
1055.35	57.67
1059.08	14.641
1062.81	14.574
1066.54	39.525
1070.27	10.458
1073.99	27.48
1077.72	23.445
1081.44	1.705
1085.16	103.117
1088.88	58.921
1092.59	17.79
1096.31	15.511
1100.02	11.475
1103.73	24.316
1107.44	6.004
1111.15	17.907
1114.86	11.104
1118.57	20.254
1122.27	218.571
1125.97	156.064
1129.67	19.313
1133.37	13.943
1137.07	46.258
1140.76	2.906
1144.45	39.024
1148.15	18.306
1151.84	31.256
1155.53	65.532
1159.21	51.677
1162.9	44.125
1166.58	37.828
1170.26	50.436
1173.94	70.598
1177.62	49.894
1181.3	68.19
1184.97	55.685
1188.65	151.603
1192.32	119.85
1195.99	93.448
1199.66	112.938
1203.33	136.24
1206.99	127.11
1210.65	147.151
1214.32	149.611
1217.98	134.979
1221.64	146.343
1225.29	162.831
1228.95	153.357
1232.6	200.707
1236.26	95.943
1239.91	130.035
1243.56	79.012
1247.2	84.428
1250.85	171.01
1254.49	155.844
1258.13	193.819
1261.78	122.84
1265.41	159.479
1269.05	105.248
1272.69	154.381
1276.32	140.392
1279.95	85.638
1283.59	88.334
1287.21	112.654
1290.84	106.396
1294.47	39.734
1298.09	55.756
1301.72	76.474
1305.34	36.638
1308.96	103.743
1312.58	50.466
1316.19	40.593
1319.81	36.669
1323.42	50.513
1327.03	120.121
1330.64	3.343
1334.25	4.353
1337.86	17.745
1341.46	25.46
1345.07	9.849
1348.67	27.278
1352.27	48.613
1355.87	70.779
1359.46	36.642
1363.06	68.128
1366.65	66.631
1370.25	55.013
1373.84	55.236
1377.43	77.302
1381.02	49.067
1384.6	55.724
1388.18	10.989
1391.77	139.282
1395.35	79.292
1398.93	78.43
1402.51	95.356
1406.08	68.831
1409.66	56.71
1413.23	15.263
1416.8	7.341
1420.37	85.163
1423.94	80.117
1427.51	89.028
1431.08	82.947
1434.64	127.396
1438.2	105.488
1441.76	48.424
1445.32	62.087
1448.88	2.684
1452.43	62.966
1455.99	37.508
1459.54	90.979
1463.09	59.875
1466.64	119.827
1470.19	123.32
1473.74	123.177
1477.28	40.674
1480.83	94.301
1484.37	114.739
1487.91	69.238
1491.45	11.375
1494.98	15.867
1498.52	43.996
1502.05	106.622
1505.59	145.855
1509.12	51.065
1512.65	111.791
1516.17	76.957
1519.7	59.608
1523.23	65.494
1526.75	101.183
1530.27	0.799
1533.79	0.106
