Measurement: Raman, 514 nm, ccw, Raman Data Processed
Mineral: Crocoite
Rruff sample: R040053
Ideal chemistry: Pb^2+^Cr^6+^O_4_
Locality: Dundas, Tasmania
Source: Bob Downs
Description: Reddish-orange prismatic crystal
Measured chemistry: (Pb_.995_Mn_.005_)CrO_4_
Pin_id: L00229
Orientation: Laser parallel to -b* (0 -1 0). Fiducial mark perpendicular to laser is parallel to -c [0 0 -1]
Raman shift (cm-1)	intensity
66.157	0
70.349	7.637
74.54	3.658
78.729	90.328
82.916	137.275
87.101	197.166
91.284	314.502
95.465	573.124
99.644	1047.32
103.82	811.665
107.995	322.364
112.168	220.164
116.339	161.276
120.508	133.346
124.675	169.804
128.84	204.527
133.003	361.416
137.164	461.077
141.323	311.666
145.48	210.802
149.635	145.531
153.788	139.339
157.939	133.811
162.088	114.925
166.235	128.727
170.38	149.418
174.523	183.729
178.664	272.736
182.803	276.655
186.94	293.947
191.076	221.444
195.209	177.186
199.34	96.863
203.47	95.462
207.597	80.976
211.722	49.402
215.846	35.744
219.967	12.005
224.087	24.166
228.204	20.208
232.32	0.104
236.434	1.798
240.545	4.591
244.655	29.231
248.763	11.951
252.869	3.768
256.973	3.656
261.075	21.554
265.175	0.559
269.273	12.332
273.369	0.008
277.463	41.396
281.556	13.66
285.646	17.825
289.734	18.836
293.821	27.769
297.905	20.472
301.988	52.102
306.069	64.611
310.147	100.152
314.224	96.461
318.299	123.635
322.372	179.455
326.443	362.988
330.512	567.427
334.579	1608.82
338.645	3687.08
342.708	1676.17
346.769	1039.15
350.829	1127.1
354.887	422.949
358.942	315.901
362.996	272.897
367.048	268.672
371.098	462.244
375.146	2089.43
379.192	2715.56
383.236	614.162
387.279	250.587
391.319	166.884
395.358	163.301
399.394	151.732
403.429	135.788
407.462	146.63
411.493	123.855
415.522	123.364
419.549	93.513
423.575	83.623
427.598	73.281
431.619	93.958
435.639	101.145
439.657	110.024
443.673	128.646
447.687	140.877
451.699	136.334
455.709	132.219
459.717	120.69
463.724	122.441
467.728	92.626
471.731	89.508
475.732	116.543
479.731	121.583
483.728	122.523
487.723	98.868
491.716	85.735
495.708	95.681
499.697	101.051
503.685	109.07
507.671	74.294
511.655	74.594
515.637	66.984
519.617	76.004
523.596	86.489
527.572	61.507
531.547	77.094
535.52	75.627
539.491	76.69
543.46	48.579
547.427	70.319
551.393	58.896
555.356	33.33
559.318	55.625
563.278	51.776
567.236	147.818
571.192	43.758
575.147	69.592
579.099	38.217
583.05	30.622
586.999	13.841
590.946	6
594.891	13.75
598.834	4.01
602.776	13.854
606.715	3.567
610.653	6.48
614.589	1.57
618.523	15.517
622.456	12.794
626.386	20.637
630.315	8.8
634.242	14.971
638.167	9.83
642.09	169.355
646.012	7.737
649.931	26.592
653.849	2.235
657.765	10.801
661.679	16.744
665.592	21.672
669.502	7.17
673.411	19.182
677.318	22.685
681.223	15.174
685.126	8.926
689.028	9.644
692.927	38.369
696.825	40.72
700.721	31.165
704.616	31.73
708.508	16.01
712.399	53.2
716.288	46.466
720.175	25.585
724.06	18.858
727.944	18.93
731.825	22.338
735.705	57.785
739.584	58.457
743.46	79.971
747.334	88.679
751.207	67.789
755.078	84.554
758.947	125.547
762.815	135.519
766.68	120.542
770.544	184.289
774.406	196.979
778.267	219.652
782.125	257.709
785.982	314.524
789.837	473.523
793.69	591.399
797.542	758.27
801.391	908.935
805.239	1075.37
809.085	1295.56
812.93	1655.77
816.772	2397.02
820.613	3769.64
824.452	5801.27
828.29	7150.22
832.125	8581.84
835.959	14279.3
839.791	26118
843.621	22167.1
847.45	14796.2
851.277	15475.9
855.102	19535.6
858.925	17905.5
862.746	11385.5
866.566	7169.62
870.384	5137.84
874.2	3768.15
878.015	2955.55
881.828	2301.05
885.639	1869.64
889.448	1674.32
893.256	1502.12
897.061	1340
900.865	1189.98
904.668	1036.81
908.468	878.383
912.267	722.745
916.064	572.245
919.86	538.88
923.653	427.632
927.445	350.501
931.236	310.844
935.024	278.612
938.811	268.84
942.596	199.182
946.379	158.627
950.161	120.156
953.94	126.785
957.719	44.51
961.495	55.404
965.27	32.474
969.043	57.523
972.814	34.663
976.583	17.921
980.351	55.271
984.117	67.594
987.882	66.495
991.644	29
995.405	38.984
999.165	65.225
1002.92	73.478
1006.68	101.87
1010.43	67.76
1014.18	5.405
1017.93	94.672
1021.68	39.568
1025.43	11.184
1029.18	84.312
1032.92	48.643
1036.66	63.677
1040.4	68.067
1044.14	69.574
1047.88	71.947
1051.62	11.188
1055.35	124.447
1059.08	71.719
1062.81	37.993
1066.54	103.286
1070.27	132.595
1073.99	42.894
1077.72	35.294
1081.44	45.572
1085.16	86.833
1088.88	53.091
1092.59	1.326
1096.31	21.656
1100.02	28.802
1103.73	17.008
1107.44	20.153
1111.15	81.183
1114.86	25.157
1118.57	31.25
1122.27	489.299
1125.97	305.208
1129.67	55.045
1133.37	7.754
1137.07	12.249
1140.76	55.538
1144.45	59.218
1148.15	17.116
1151.84	37.182
1155.53	0.318
1159.21	35.842
1162.9	38.751
1166.58	70.258
1170.26	30.54
1173.94	73.482
1177.62	96.795
1181.3	13.889
1184.97	53.523
1188.65	43.358
1192.32	58
1195.99	119.824
1199.66	112.245
1203.33	121.906
1206.99	113.294
1210.65	129.94
1214.32	113.421
1217.98	127.964
1221.64	148.342
1225.29	149.634
1228.95	146.785
1232.6	161.281
1236.26	105.354
1239.91	140.379
1243.56	122.069
1247.2	102.45
1250.85	97.921
1254.49	160.401
1258.13	171.692
1261.78	116.067
1265.41	108.155
1269.05	115.868
1272.69	110.978
1276.32	130.646
1279.95	136.768
1283.59	145.184
1287.21	135.661
1290.84	77.813
1294.47	77.188
1298.09	44.763
1301.72	59.531
1305.34	40.197
1308.96	30.821
1312.58	10.387
1316.19	21.542
1319.81	34.75
1323.42	41.179
1327.03	72.314
1330.64	26.708
1334.25	4.058
1337.86	27.997
1341.46	11.12
1345.07	103.103
1348.67	22.993
1352.27	63.72
1355.87	54.203
1359.46	58.604
1363.06	54.839
1366.65	90.875
1370.25	57.64
1373.84	28.664
1377.43	51.374
1381.02	29.91
1384.6	33.644
1388.18	54.68
1391.77	45.756
1395.35	28.53
1398.93	28.486
1402.51	21.303
1406.08	13.675
1409.66	30.955
1413.23	9.378
1416.8	3.362
1420.37	52.321
1423.94	220.052
1427.51	32.481
1431.08	75.028
1434.64	131.869
1438.2	65.037
1441.76	65.71
1445.32	48.482
1448.88	0.735
1452.43	33.79
1455.99	29.956
1459.54	68.722
1463.09	41.183
1466.64	84.156
1470.19	128.567
1473.74	75.567
1477.28	98.148
1480.83	49.018
1484.37	52.801
1487.91	27.99
1491.45	29.403
1494.98	125.552
1498.52	305.78
1502.05	26.331
1505.59	35.443
1509.12	40.994
1512.65	40.73
1516.17	55.774
1519.7	89.913
1523.23	82.738
1526.75	60.135
1530.27	24.437
1533.79	22.464
1537.31	0.215
