Measurement: Raman, 514 nm, ccw, Raman Data Processed
Mineral: Crocoite
Rruff sample: R050044
Ideal chemistry: Pb^2+^Cr^6+^O_4_
Locality: Red Ledge mine, Dundas, Tasmania
Source: Eugene Schlepp
Description: Red crystal fragment
Measured chemistry: Pb_1.02_Cr_0.99_O_4_
Pin_id: L00482
Orientation: Laser parallel to (-1 0 -1). Fiducial mark perpendicular to laser is parallel to b [0 1 0]
Raman shift (cm-1)	intensity
163.613	0
167.78	59.745
171.945	63.286
176.108	61.138
180.268	81.228
184.426	91.634
188.582	113.934
192.736	62.818
196.887	117.419
201.036	49.777
205.184	120.138
209.328	59.466
213.471	83.075
217.611	60.594
221.75	85.569
225.886	104.504
230.019	38.031
234.151	70.528
238.281	55.791
242.408	128.562
246.533	108.669
250.656	86.101
254.776	65.954
258.895	27.921
263.011	21.34
267.125	63.626
271.237	1.839
275.346	13.541
279.454	48.74
283.559	40.346
287.662	4.728
291.763	0.863
295.862	16.792
299.959	21.711
304.053	43.875
308.146	85.266
312.236	140.953
316.324	193.751
320.409	163.789
324.493	229.013
328.574	248.008
332.654	333.762
336.731	409.176
340.806	592.333
344.879	900.241
348.949	1859.24
353.018	2124.86
357.084	1988.68
361.148	2432.97
365.21	2004.69
369.27	1393.19
373.328	1902.5
377.384	4336.13
381.437	4252.53
385.488	1568.56
389.538	772.029
393.585	612.323
397.63	594.433
401.672	740.767
405.713	621.042
409.752	408.168
413.788	380.833
417.822	279.121
421.854	260.858
425.884	293.446
429.912	282.981
433.938	234.801
437.962	264.458
441.983	335.028
446.003	330.665
450.02	359.346
454.035	320.125
458.048	350.593
462.059	330.358
466.068	349.81
470.075	284.068
474.08	320.77
478.082	338.435
482.083	362.559
486.081	339.407
490.077	353.429
494.072	286.005
498.064	322.441
502.054	287.569
506.041	273.027
510.027	298.776
514.011	292.28
517.993	273.273
521.972	234.889
525.95	238.004
529.925	238.372
533.898	268.875
537.869	219.655
541.839	217.003
545.806	222.924
549.771	222.424
553.734	162.508
557.694	134.18
561.653	148.422
565.61	145.253
569.565	133.659
573.517	119.656
577.468	56.251
581.416	37.393
585.362	48.083
589.307	13.325
593.249	24.064
597.189	12.12
601.127	16.717
605.064	40.941
608.998	0.032
612.93	71.625
616.86	76.954
620.787	113.996
624.713	77.691
628.637	63.354
632.559	57.598
636.479	9.831
640.396	3.04
644.312	67.851
648.226	8.151
652.137	24.711
656.047	110.531
659.954	65.915
663.86	123.258
667.763	54.761
671.665	74.938
675.564	144.051
679.462	142.894
683.357	200.456
687.25	252.953
691.142	348.664
695.031	442.265
698.918	468.526
702.804	457.928
706.687	523.31
710.568	526.368
714.447	546.406
718.325	561.646
722.2	643.816
726.073	544.486
729.944	645.105
733.814	714.585
737.681	886.492
741.546	870.493
745.409	903.664
749.27	991.471
753.13	987.71
756.987	1053.65
760.842	1134.86
764.695	1168.43
768.547	1363.99
772.396	1202.78
776.243	1332.18
780.089	1474.96
783.932	1587.78
787.773	1668.53
791.613	1952.11
795.45	2560.01
799.285	2352.57
803.119	2636.99
806.95	3048.81
810.78	3653.92
814.607	4225.97
818.433	5234.86
822.256	7262.48
826.078	10021.4
829.898	14560.8
833.715	23170.8
837.531	39941.5
841.345	54922.9
845.157	44574.9
848.966	31827.7
852.774	26561.2
856.58	24975.5
860.384	20000.7
864.186	14496.5
867.986	9922.98
871.784	7370.44
875.581	5388.42
879.375	4189.11
883.167	3336.5
886.957	3021.55
890.746	2718.51
894.532	2532.91
898.317	2276.01
902.099	2230.84
905.88	2012.47
909.659	1949.85
913.435	1686.04
917.21	1517.08
920.983	1333.91
924.754	1162.55
928.523	1007.01
932.29	981.284
936.056	805.316
939.819	647.141
943.58	620.631
947.34	595.724
951.097	441.402
954.853	386.701
958.606	290.574
962.358	318.006
966.108	341.993
969.856	393.525
973.602	374.607
977.346	280.22
981.088	377.979
984.828	299.118
988.567	120.818
992.303	132.18
996.038	227.684
999.77	117.42
1003.5	81.162
1007.23	65.231
1010.96	94.182
1014.68	12.062
1018.4	10.188
1022.13	48.274
1025.85	78.964
1029.56	58.704
1033.28	25.954
1036.99	3.392
1040.7	82.632
1044.41	63.891
1048.12	89.255
1051.83	86.019
1055.53	50.979
1059.24	185.174
1062.94	77.589
1066.63	63.199
1070.33	74.993
1074.03	109.967
1077.72	102.099
1081.41	64.373
1085.1	97.799
1088.79	109.36
1092.47	94.026
1096.16	74.777
1099.84	142.585
1103.52	183.445
1107.2	98.34
1110.87	74.255
1114.55	91.182
1118.22	60.112
1121.89	11.027
1125.56	56.921
1129.23	5.71
1132.89	61.726
1136.56	17.316
1140.22	80.305
1143.88	56.753
1147.53	35.537
1151.19	33.757
1154.84	46.38
1158.5	19.243
1162.15	51.894
1165.8	66.291
1169.44	20.359
1173.09	37.518
1176.73	27.155
1180.37	89.087
1184.01	108.445
1187.65	160.859
1191.28	225.857
1194.92	196.17
1198.55	267.053
1202.18	262.27
1205.81	303.457
1209.43	358.472
1213.06	357.41
1216.68	336.703
1220.3	341.11
1223.92	355.722
1227.54	344.761
1231.15	343.238
1234.77	321.05
1238.38	317.786
1241.99	369.775
1245.6	349.672
1249.21	387.177
1252.81	300.141
1256.41	395.957
1260.01	313.771
1263.61	307.696
1267.21	326.132
1270.81	413.885
1274.4	331.893
1277.99	315.116
1281.58	228.34
1285.17	225.384
1288.76	203.891
1292.34	207.895
1295.93	191.83
1299.51	179.665
1303.09	137.982
1306.66	198.931
1310.24	142.539
1313.82	137.967
1317.39	58.708
1320.96	32.068
1324.53	1.299
1328.09	39.238
1331.66	56.632
1335.22	88.725
1338.79	50.748
1342.35	103.016
1345.9	134.084
1349.46	101.79
1353.01	95.897
1356.57	83.225
1360.12	44.946
1363.67	108.356
1367.21	20.593
1370.76	120.462
1374.3	121.098
1377.85	38.238
1381.39	89.414
1384.93	168.815
1388.46	101.599
1392	99.756
1395.53	88.265
1399.06	71.237
1402.59	60.772
1406.12	55.41
1409.65	53.703
1413.17	132.261
1416.69	117.345
1420.22	148.11
1423.74	109.173
1427.25	82.226
1430.77	126.193
1434.28	129.417
1437.8	148.469
1441.31	100.318
1444.82	124.489
1448.32	106.387
1451.83	158.899
1455.33	123.325
1458.83	172.898
1462.34	150.125
1465.83	87.917
1469.33	79.555
1472.83	86.208
1476.32	51.915
1479.81	93.531
1483.3	85.829
1486.79	181.746
1490.28	176.987
1493.76	187.455
1497.24	141.607
1500.72	131.243
1504.2	74.597
1507.68	136.532
1511.16	98.065
1514.63	3.154
1518.1	7.842
