Measurement: Raman, 514 nm, ccw, Raman Data Processed
Mineral: Crocoite
Rruff sample: R050044
Ideal chemistry: Pb^2+^Cr^6+^O_4_
Locality: Red Ledge mine, Dundas, Tasmania
Source: Eugene Schlepp
Description: Red crystal fragment
Measured chemistry: Pb_1.02_Cr_0.99_O_4_
Pin_id: L00200
Orientation: Laser parallel to c* (0 0 1). Fiducial mark perpendicular to laser is parallel to -a [-1 0 0]
Raman shift (cm-1)	intensity
162.224	0
166.391	9.443
170.557	0.104
174.72	22.932
178.881	56.724
183.04	89.22
187.197	93.676
191.351	71.285
195.504	51.799
199.654	44.85
203.801	28.656
207.947	29.828
212.09	19.245
216.232	20.048
220.37	22.658
224.507	21.119
228.642	22.457
232.774	25.218
236.904	26.135
241.032	20.375
245.158	3.555
249.282	4.137
253.403	11.313
257.522	16.864
261.639	5.521
265.754	17.123
269.866	9.767
273.977	15.383
278.085	0.944
282.191	19.442
286.295	4.132
290.397	30.194
294.496	3.568
298.594	27.823
302.689	41.081
306.782	42.265
310.873	44.469
314.961	61.737
319.048	134.065
323.132	210.393
327.214	547.318
331.294	706.385
335.372	612.386
339.448	1489.35
343.521	1596.1
347.593	626.729
351.662	996.267
355.729	414.565
359.794	186.682
363.857	179.676
367.917	155.504
371.976	202.094
376.032	520.661
380.086	1956.96
384.138	768.797
388.188	236.703
392.236	130.434
396.282	131.177
400.325	173.811
404.366	214.175
408.406	102.423
412.443	70.217
416.478	62.495
420.511	52.951
424.541	56.325
428.57	59.34
432.596	42.359
436.621	52.895
440.643	70.874
444.663	62.616
448.681	75.784
452.697	65.823
456.711	51.693
460.723	58.146
464.732	74.434
468.74	72.88
472.745	53.512
476.748	68.661
480.749	66.343
484.749	74.954
488.745	59.479
492.74	62.137
496.733	40.118
500.724	56.392
504.712	64.9
508.699	42.985
512.683	41.095
516.666	39.402
520.646	54.53
524.624	32.762
528.6	32.43
532.574	41.02
536.546	24.544
540.516	46.979
544.484	15.345
548.449	37.638
552.413	36.865
556.374	37.024
560.334	36.115
564.291	25.143
568.247	21.107
572.2	7.013
576.151	8.867
580.1	3.66
584.047	6.48
587.992	0.989
591.935	7.604
595.876	0.202
599.815	10.126
603.752	6.393
607.686	6.404
611.619	11.302
615.55	5.326
619.478	9.444
623.405	4.272
627.329	6.097
631.252	3.599
635.172	13.857
639.091	9.195
643.007	21.552
646.921	3.857
650.834	3.123
654.744	1.211
658.652	20.337
662.558	11.414
666.462	0.675
670.365	10.815
674.265	3.061
678.163	14.037
682.059	7.64
685.953	12.405
689.845	13.176
693.735	1.629
697.623	28.333
701.509	23.785
705.393	41.441
709.275	35.107
713.155	33.671
717.032	12.263
720.908	20.884
724.782	33.513
728.654	32.881
732.524	53.326
736.392	49.219
740.258	59.105
744.122	57.624
747.984	65.893
751.844	83.502
755.701	85.764
759.557	93.358
763.411	109.789
767.263	131.118
771.113	138.265
774.961	150.292
778.807	173.548
782.651	221.36
786.493	247.783
790.333	292.936
794.171	414.177
798.007	493.501
801.841	604.851
805.673	731.059
809.504	850.911
813.332	1072.45
817.158	1407.72
820.982	2042.38
824.804	3033.65
828.625	4201.48
832.443	5263.62
836.259	8279.61
840.074	13247.7
843.886	15054.8
847.697	10692
851.505	9619.35
855.312	11016.7
859.117	10684.2
862.919	7826.78
866.72	5320.42
870.519	3867.11
874.315	2986.88
878.11	2312.74
881.903	1904.65
885.694	1550.62
889.483	1412.7
893.27	1213.84
897.056	1048.06
900.839	901.712
904.62	785.129
908.399	678.212
912.177	584.775
915.952	523.427
919.726	432.178
923.497	412.065
927.267	353.022
931.035	283.08
934.801	263.366
938.565	251.608
942.327	223.367
946.087	179.294
949.845	118.745
953.601	114.471
957.355	130.591
961.108	111.742
964.858	87.222
968.607	83.822
972.353	68.055
976.098	48.489
979.841	55.361
983.582	71.402
987.321	54.716
991.058	48.371
994.793	40.238
998.526	34.064
1002.26	20.315
1005.99	65.616
1009.72	49.995
1013.44	36.422
1017.16	13.783
1020.89	22.175
1024.61	2.396
1028.33	20.061
1032.04	22.551
1035.76	15.074
1039.47	0.277
1043.18	11.227
1046.89	13.152
1050.59	4.479
1054.3	23.131
1058	16.794
1061.7	10.454
1065.4	2.118
1069.1	6.791
1072.8	6.474
1076.49	4.164
1080.18	0.858
1083.87	9.559
1087.56	3.265
1091.24	4.985
1094.93	5.682
1098.61	3.63
1102.29	1.047
1105.97	2.289
1109.65	6.346
1113.32	7.046
1117	2.525
1120.67	17.947
1124.34	8.481
1128	21.076
1131.67	2.745
1135.33	9.539
1139	36.786
1142.66	2.627
1146.32	13.595
1149.97	13.277
1153.63	9.768
1157.28	8.201
1160.93	82.741
1164.58	102.301
1168.23	32.919
1171.87	46.914
1175.52	34.037
1179.16	30.197
1182.8	31.735
1186.43	46.696
1190.07	36.943
1193.71	104.385
1197.34	95.172
1200.97	57.917
1204.6	47.998
1208.22	31.037
1211.85	47.492
1215.47	69.296
1219.1	58.627
1222.71	52.05
1226.33	61.289
1229.95	47.033
1233.56	62.212
1237.18	63.625
1240.79	61.586
1244.4	75.204
1248	71.288
1251.61	61.278
1255.21	80.352
1258.81	83.924
1262.41	105.464
1266.01	38.774
1269.61	48.601
1273.2	53.658
1276.8	36.52
1280.39	52.412
1283.98	46.753
1287.56	37.063
1291.15	36.539
1294.73	43.728
1298.31	19.411
1301.89	32.38
1305.47	36.024
1309.05	30.241
1312.62	21.776
1316.2	43.896
1319.77	33.99
1323.34	47.016
1326.91	17.985
1330.47	17.906
1334.04	12.776
1337.6	29.564
1341.16	6.303
1344.72	24.062
1348.27	25.703
1351.83	46.294
1355.38	49.918
1358.93	25.469
1362.48	15.981
1366.03	24.414
1369.58	5.208
1373.12	4.885
1376.67	2.384
1380.21	28.127
1383.75	13.033
1387.28	9.888
1390.82	29.718
1394.35	42.553
1397.89	31.439
1401.42	23.346
1404.94	15.698
1408.47	13.562
1412	12.429
1415.52	18.804
1419.04	29.994
1422.56	12.101
1426.08	13.034
1429.6	22.124
1433.11	27.155
1436.63	28.712
1440.14	53.43
1443.65	9.702
1447.15	32.873
1450.66	5.455
1454.16	23.1
1457.67	15.616
1461.17	46.377
1464.67	32.511
1468.16	57.502
1471.66	62.884
1475.15	32.814
1478.65	46.465
1482.14	11.361
1485.63	22.199
1489.11	39.314
1492.6	0.435
1496.08	14.329
1499.56	29.613
1503.04	38.421
1506.52	20.288
1510	27.431
1513.47	22.593
1516.95	0
