Measurement: Raman, 514 nm, ccw, Raman Data Processed
Mineral: Crocoite
Rruff sample: R040053
Ideal chemistry: Pb^2+^Cr^6+^O_4_
Locality: Dundas, Tasmania
Source: Bob Downs
Description: Reddish-orange prismatic crystal
Measured chemistry: (Pb_.995_Mn_.005_)CrO_4_
Pin_id: L00292
Orientation: Laser parallel to (-1 0 -1). Fiducial mark perpendicular to laser is parallel to -b [0 -1 0]
Raman shift (cm-1)	intensity
66.157	0
70.349	37.373
74.54	155.941
78.729	175.701
82.916	235.849
87.101	300.56
91.284	322.591
95.465	435.953
99.644	437.939
103.82	448.644
107.995	460.484
112.168	589.144
116.339	855.216
120.508	902.73
124.675	957.479
128.84	1251.55
133.003	1973.32
137.164	2330.83
141.323	1862.15
145.48	1365.29
149.635	1001.4
153.788	729.154
157.939	527.707
162.088	479.861
166.235	400.192
170.38	381.774
174.523	326.279
178.664	373.759
182.803	324.727
186.94	262.762
191.076	265.349
195.209	211.683
199.34	199.112
203.47	187.604
207.597	153.127
211.722	115.664
215.846	114.193
219.967	105.701
224.087	60.188
228.204	24.69
232.32	2.039
236.434	75.296
240.545	20.624
244.655	10.196
248.763	0.859
252.869	17.632
256.973	17.937
261.075	10.286
265.175	13.651
269.273	9.17
273.369	37.21
277.463	19.656
281.556	30.642
285.646	6.86
289.734	9.294
293.821	29.677
297.905	38.95
301.988	19.428
306.069	39.948
310.147	66.579
314.224	55.285
318.299	114.856
322.372	291.679
326.443	431.693
330.512	432.449
334.579	367.765
338.645	629.764
342.708	543.471
346.769	924.988
350.829	1027.56
354.887	721.088
358.942	866.965
362.996	645.381
367.048	452.203
371.098	582.118
375.146	1703.13
379.192	1874.4
383.236	586.26
387.279	310.506
391.319	219.222
395.358	265.472
399.394	482.9
403.429	489.085
407.462	186.805
411.493	108.345
415.522	121.911
419.549	81.894
423.575	104.027
427.598	93.946
431.619	133.768
435.639	76.491
439.657	100.239
443.673	96.388
447.687	149.326
451.699	123.839
455.709	124.163
459.717	133.865
463.724	177.617
467.728	117.38
471.731	148.238
475.732	148.379
479.731	128.43
483.728	120.716
487.723	158.141
491.716	144.154
495.708	142.056
499.697	149.297
503.685	129.267
507.671	96.428
511.655	118.432
515.637	161.683
519.617	116.645
523.596	151.353
527.572	183.811
531.547	135.019
535.52	130.971
539.491	117.667
543.46	48.075
547.427	102.205
551.393	87.078
555.356	106.697
559.318	88.065
563.278	72.622
567.236	39.052
571.192	60.594
575.147	8.953
579.099	21.659
583.05	3.245
586.999	14.634
590.946	16.207
594.891	25.411
598.834	23.081
602.776	29.654
606.715	2.69
610.653	23.047
614.589	5.809
618.523	15.891
622.456	3.188
626.386	8.094
630.315	28.216
634.242	44.885
638.167	15.81
642.09	1.202
646.012	43.47
649.931	34.018
653.849	30.098
657.765	49.194
661.679	15.873
665.592	40.236
669.502	2.593
673.411	22.919
677.318	16.499
681.223	77.667
685.126	117.112
689.028	132.129
692.927	143.938
696.825	111.256
700.721	182.058
704.616	177.82
708.508	205.127
712.399	218.844
716.288	207.13
720.175	233.5
724.06	233.286
727.944	236.855
731.825	272.215
735.705	216.299
739.584	241.132
743.46	232.568
747.334	343.292
751.207	345.495
755.078	375.79
758.947	418.063
762.815	490.211
766.68	502.975
770.544	510.28
774.406	554.842
778.267	672.277
782.125	581.538
785.982	538.614
789.837	933.638
793.69	1087.61
797.542	1221.06
801.391	1386.88
805.239	1446.62
809.085	1645.38
812.93	1962.74
816.772	2268.85
820.613	3203.06
824.452	4451.96
828.29	6376.11
832.125	9834.46
835.959	19773.1
839.791	36642.1
843.621	29471.3
847.45	16490.9
851.277	13030.9
855.102	13181.2
858.925	11391.8
862.746	7922.7
866.566	5248.29
870.384	3899.05
874.2	2826.88
878.015	2233.93
881.828	1832.25
885.639	1474.26
889.448	1338.12
893.256	1247.28
897.061	1090.72
900.865	1001.45
904.668	976.456
908.468	924.811
912.267	808.48
916.064	639.512
919.86	660.864
923.653	557.57
927.445	376.59
931.236	463.999
935.024	344.715
938.811	312.758
942.596	282.134
946.379	193.792
950.161	159.705
953.94	159.854
957.719	202.363
961.495	137.254
965.27	157.345
969.043	122.936
972.814	101.491
976.583	149.83
980.351	181.617
984.117	232.502
987.882	176.984
991.644	67.704
995.405	82.362
999.165	22.505
1002.92	49.924
1006.68	91.784
1010.43	82.49
1014.18	106.508
1017.93	59.999
1021.68	1.129
1025.43	62.438
1029.18	80.452
1032.92	27.805
1036.66	111.789
1040.4	13.463
1044.14	69.288
1047.88	82.933
1051.62	41.711
1055.35	134.572
1059.08	132.561
1062.81	87.612
1066.54	39.748
1070.27	55.936
1073.99	86.172
1077.72	81.475
1081.44	54.813
1085.16	159.17
1088.88	181.584
1092.59	45.17
1096.31	23.979
1100.02	40.39
1103.73	66.86
1107.44	86.217
1111.15	111.588
1114.86	9.02
1118.57	71.263
1122.27	286.453
1125.97	195.104
1129.67	14.37
1133.37	31.144
1137.07	20.869
1140.76	17.855
1144.45	137.833
1148.15	83.949
1151.84	11.601
1155.53	8.719
1159.21	2.143
1162.9	34.371
1166.58	24.201
1170.26	33.117
1173.94	81.336
1177.62	95.577
1181.3	45.973
1184.97	66.429
1188.65	54.263
1192.32	150.165
1195.99	162.979
1199.66	213.5
1203.33	224.196
1206.99	241.508
1210.65	173.301
1214.32	244.333
1217.98	260.544
1221.64	257.97
1225.29	230.59
1228.95	203.382
1232.6	240.982
1236.26	230.515
1239.91	105.608
1243.56	236.637
1247.2	161.225
1250.85	209.849
1254.49	254.792
1258.13	156.75
1261.78	206.125
1265.41	253.409
1269.05	131.548
1272.69	288.422
1276.32	220.237
1279.95	127.073
1283.59	223.605
1287.21	158.775
1290.84	198.965
1294.47	76.577
1298.09	77.826
1301.72	66.54
1305.34	102.99
1308.96	55.286
1312.58	138.894
1316.19	12.24
1319.81	95.048
1323.42	22.041
1327.03	105.78
1330.64	66.66
1334.25	40.941
1337.86	15.473
1341.46	44.581
1345.07	34.325
1348.67	72.736
1352.27	133.792
1355.87	97.541
1359.46	133.161
1363.06	48.519
1366.65	87.082
1370.25	36.618
1373.84	60.867
1377.43	16.854
1381.02	66.369
1384.6	91.244
1388.18	56.184
1391.77	167.735
1395.35	131.786
1398.93	108.071
1402.51	125.917
1406.08	52.934
1409.66	88.269
1413.23	26.976
1416.8	28.692
1420.37	141.173
1423.94	138.638
1427.51	47.57
1431.08	155.455
1434.64	168.278
1438.2	178.341
1441.76	77.163
1445.32	101.895
1448.88	33.84
1452.43	112.917
1455.99	123.033
1459.54	111
1463.09	120.35
1466.64	234.863
1470.19	179.416
1473.74	136.705
1477.28	225.357
1480.83	102.743
1484.37	168.574
1487.91	78.113
1491.45	84.449
1494.98	67.147
1498.52	104.18
1502.05	12.643
1505.59	167.716
1509.12	71.585
1512.65	105.897
1516.17	137.669
1519.7	160.506
1523.23	98.974
1526.75	103.255
1530.27	109.116
1533.79	12.932
1537.31	0
