Measurement: Raman, 514 nm, ccw, Raman Data Processed
Mineral: Cubic zirconia
Rruff sample: R040142
Ideal chemistry: ZrO_2_
Locality: synthetic
Source: Bob Downs
Description: Fragment of a colorless single crystal
Measured chemistry: (Zr_0.86_Y_0.17_Hf_0.01_)O_2_
Pin_id: L00509
Orientation: Laser parallel to a* (1 0 0). Fiducial mark perpendicular to laser is parallel to -b [0 -1 0]
Raman shift (cm-1)	intensity
322.372	0
326.443	293.848
330.512	39.598
334.579	291.633
338.645	832.488
342.708	1410.96
346.769	2258.19
350.829	2423.71
354.887	2080.09
358.942	1402.23
362.996	1749.93
367.048	1669.07
371.098	2652.59
375.146	2919.78
379.192	3145.57
383.236	2887.6
387.279	3453.08
391.319	4179.5
395.358	3710.18
399.394	3459.89
403.429	3043.94
407.462	2726.94
411.493	2441.64
415.522	1950.25
419.549	1946.66
423.575	1524.09
427.598	1439.59
431.619	778.846
435.639	589.725
439.657	487.881
443.673	252.439
447.687	127.273
451.699	191.893
455.709	31.674
459.717	63.076
463.724	118.227
467.728	57.047
471.731	26.363
475.732	233.201
479.731	296.146
483.728	387.186
487.723	441.318
491.716	1554.84
495.708	1185.93
499.697	1000.75
503.685	1358.85
507.671	1559.92
511.655	1833.7
515.637	1769.87
519.617	1967.96
523.596	2397.92
527.572	2879.77
531.547	2893.55
535.52	3329.52
539.491	4017.58
543.46	3987.37
547.427	4397.36
551.393	4617.48
555.356	4878.26
559.318	5481.6
563.278	6158.27
567.236	6265.57
571.192	6743.72
575.147	7384.06
579.099	8240.33
583.05	8500.93
586.999	9215.73
590.946	9691.96
594.891	10479.3
598.834	11098.4
602.776	11752.8
606.715	12696.4
610.653	13151.7
614.589	14114.6
618.523	14486.3
622.456	14638.7
626.386	13989.4
630.315	12966.2
634.242	11951
638.167	10155.3
642.09	8553.2
646.012	7099.9
649.931	6363.76
653.849	5746.93
657.765	5377.17
661.679	5061.38
665.592	4938.2
669.502	4921.24
673.411	5058.76
677.318	5220
681.223	5405.86
685.126	5306.09
689.028	5219.79
692.927	4986.1
696.825	5078.55
700.721	4730.1
704.616	4516.55
708.508	4489.86
712.399	4140.16
716.288	3797.55
720.175	3622.1
724.06	3053.91
727.944	2533.29
731.825	2559.95
735.705	2384.16
739.584	2075.96
743.46	1645.4
747.334	1332.54
751.207	1137.46
755.078	1150.27
758.947	1001.11
762.815	490.297
766.68	387.973
770.544	94.117
774.406	158.457
778.267	270.744
782.125	31.033
785.982	71.662
789.837	407.869
793.69	307.455
797.542	210.471
801.391	237.064
805.239	427.168
809.085	320.859
812.93	537.74
816.772	67.883
820.613	9.35
824.452	55.6
828.29	142.266
832.125	160.549
835.959	39.705
839.791	68.727
843.621	56.613
847.45	113.459
851.277	60.645
855.102	324.34
858.925	288.551
862.746	102.082
866.566	195.02
870.384	47.436
874.2	239.416
878.015	161.029
881.828	352.355
885.639	533.471
889.448	373.576
893.256	412.191
897.061	728.189
900.865	931.332
904.668	852.459
908.468	1205.56
912.267	1184.72
916.064	1431.06
919.86	1646.47
923.653	2001.54
927.445	2737.81
931.236	3303.3
935.024	4704.54
938.811	6703.84
942.596	9388.49
946.379	13029.5
950.161	16830
953.94	19026
957.719	19259.8
961.495	17917.1
965.27	15173
969.043	11610.9
972.814	8522.18
976.583	5952.01
980.351	4334.83
984.117	3777.78
987.882	4163.81
991.644	5731.7
995.405	7736.31
999.165	10163.5
1002.92	12944.3
1006.68	15319.1
1010.43	17467.3
1014.18	19098.6
1017.93	20642.6
1021.68	20479.3
1025.43	19189
1029.18	18341.7
1032.92	17077.3
1036.66	15905.9
1040.4	14867.2
1044.14	13771.1
1047.88	12897.7
1051.62	13306.9
1055.35	13708.7
1059.08	14733
1062.81	16059.8
1066.54	16769
1070.27	17610.6
1073.99	18284.7
1077.72	18671.4
1081.44	18290.7
1085.16	17812.8
1088.88	17648
1092.59	17626.4
1096.31	17047.6
1100.02	16031.9
1103.73	15419.1
1107.44	14329.2
1111.15	13272
1114.86	11927.6
1118.57	11068.8
1122.27	10155.3
1125.97	8927.25
1129.67	7803.09
1133.37	6795.41
1137.07	5847.85
1140.76	5481.96
1144.45	5152.6
1148.15	5080.34
1151.84	4833.92
1155.53	4732.15
1159.21	4815.55
1162.9	4587.94
1166.58	4421.44
1170.26	4263.84
1173.94	4571.94
1177.62	4589.19
1181.3	4637.93
1184.97	5006.01
1188.65	4740.3
1192.32	4928.6
1195.99	4715.93
1199.66	4728.44
1203.33	4478.69
1206.99	4666.41
1210.65	4476.19
1214.32	4287.18
1217.98	4131.07
1221.64	3841.81
1225.29	3504.53
1228.95	2967.95
1232.6	2577.3
1236.26	2183.12
1239.91	2127.89
1243.56	1733.24
1247.2	1523.47
1250.85	1340.98
1254.49	784.059
1258.13	590.787
1261.78	325.223
1265.41	85.703
1269.05	63.57
1272.69	15.982
1276.32	2.543
1279.95	197.213
1283.59	180.639
1287.21	162.701
1290.84	380.834
1294.47	336.111
1298.09	397.834
1301.72	357.34
1305.34	452.082
1308.96	34.131
1312.58	11.76
1316.19	54.293
1319.81	385.721
1323.42	352.123
1327.03	204.789
1330.64	53.615
1334.25	61.305
1337.86	69.926
1341.46	252.637
1345.07	259.318
1348.67	480.203
1352.27	295.465
1355.87	385.129
1359.46	289.305
1363.06	238.006
1366.65	391.295
1370.25	189.416
1373.84	552.354
1377.43	580.342
1381.02	683.568
1384.6	624.6
1388.18	699.096
1391.77	619.123
1395.35	657.807
1398.93	899.195
1402.51	883.994
1406.08	1159.11
1409.66	1243.82
1413.23	1399.56
1416.8	1322.59
1420.37	1422.35
1423.94	1255.73
1427.51	1309.81
1431.08	1088.58
1434.64	1044.05
1438.2	1010.55
1441.76	1044.88
1445.32	1157.36
1448.88	1491.33
1452.43	1451.84
1455.99	1707.04
1459.54	1606.09
1463.09	1807.47
1466.64	1673.02
1470.19	1277.3
1473.74	1395.53
1477.28	1250.22
1480.83	1203.05
1484.37	1134.01
1487.91	1064.75
1491.45	1105.27
1494.98	1182.83
1498.52	1421.06
1502.05	1028.7
1505.59	779.719
1509.12	1008.39
1512.65	423.496
1516.17	285.203
1519.7	118.168
1523.23	62.195
1526.75	244.012
1530.27	353.805
