Measurement: Raman, 514 nm, ccw, Raman Data Processed
Mineral: Cubic zirconia
Rruff sample: R040142
Ideal chemistry: ZrO_2_
Locality: synthetic
Source: Bob Downs
Description: Fragment of a colorless single crystal
Measured chemistry: (Zr_0.86_Y_0.17_Hf_0.01_)O_2_
Pin_id: L00509
Orientation: Laser parallel to a* (1 0 0). Fiducial mark perpendicular to laser is parallel to -b [0 -1 0]
Raman shift (cm-1)	intensity
329.156	0
333.224	363.945
337.29	468.02
341.354	638.52
345.416	1660.46
349.476	2254.91
353.534	1942.1
357.591	1320.56
361.645	918.473
365.698	1608.01
369.748	1955.4
373.797	2053.08
377.844	2995.14
381.889	2979.3
385.932	2833.95
389.973	3248.63
394.012	3856.93
398.049	3789.23
402.084	2823.57
406.118	2602.49
410.15	2420.16
414.179	2410.42
418.207	1930.46
422.233	1816.71
426.257	1648.42
430.279	1119.3
434.299	940.744
438.318	381.229
442.334	149.09
446.349	174.049
450.361	55.221
454.372	218.119
458.381	386.318
462.388	140.291
466.394	81.223
470.397	25.102
474.398	40.547
478.398	368.781
482.396	382.637
486.391	744.395
490.385	343.486
494.377	583.619
498.368	921.461
502.356	893.859
506.342	1109.85
510.327	1338.67
514.31	1959.98
518.291	2163.4
522.27	2288.69
526.247	2345.38
530.222	2653.49
534.196	3273.04
538.167	3564.37
542.137	3437.46
546.105	4272.11
550.071	4696.85
554.035	4920.43
557.998	5313.72
561.958	6838.5
565.917	6235.47
569.874	7042.98
573.829	7403.58
577.782	7426.61
581.733	8306.16
585.683	9119.69
589.63	10054.9
593.576	10430.7
597.52	10990.5
601.462	12428.4
605.402	13298.1
609.341	13810.5
613.277	14120.4
617.212	14760.1
621.145	15001.6
625.076	15187.3
629.006	14281.2
632.933	12629.6
636.859	11055.1
640.783	9426.52
644.705	8037.15
648.625	6793.85
652.543	5857.31
656.46	5443.94
660.375	5273.65
664.288	5073.89
668.199	5206.13
672.108	5147.07
676.016	4989.4
679.921	5274.29
683.825	5378.45
687.727	5385.89
691.628	5394.54
695.526	5071.48
699.423	5003.32
703.318	4716.47
707.211	4551.8
711.102	4363.87
714.992	4152.81
718.879	3868.9
722.765	3611.87
726.649	3162.08
730.532	2569.51
734.412	2074.29
738.291	2086.47
742.168	1706.09
746.043	1723.2
749.916	1267.94
753.788	1040.31
757.658	800.436
761.526	908.623
765.392	635.062
769.257	369.992
773.119	66.629
776.98	15.33
780.839	143.811
784.697	509.512
788.552	93.008
792.406	97.652
796.258	391.777
800.108	309.615
803.957	231.191
807.804	176.574
811.649	405.199
815.492	247.379
819.333	62.396
823.173	99.893
827.011	150.377
830.847	28.941
834.681	144.305
838.514	279.178
842.345	4.416
846.174	316.824
850.001	448.082
853.827	181.678
857.651	57.529
861.473	225.924
865.293	373.598
869.112	320.635
872.928	127.109
876.744	13.105
880.557	58.707
884.369	134.002
888.178	447.764
891.987	640.295
895.793	419.148
899.598	757.977
903.401	703.562
907.202	1186.67
911.001	1598.94
914.799	1730.42
918.595	1799.76
922.389	1885.9
926.182	2079.87
929.972	3244.84
933.761	4386.14
937.549	6137.6
941.334	8737.05
945.118	11566.7
948.9	15263.8
952.681	18261.1
956.459	19544.4
960.236	19459.9
964.012	16388.6
967.785	12826.8
971.557	9284.86
975.327	6400.65
979.095	4796.9
982.862	4214.13
986.627	4332.79
990.39	5062.74
994.152	6838.84
997.912	9098.41
1001.67	11929.8
1005.43	14802.6
1009.18	17093
1012.93	19506.5
1016.68	20303.1
1020.43	20732.4
1024.18	19904.6
1027.93	19010.3
1031.67	17849.2
1035.42	17501
1039.16	15495.7
1042.9	13813.2
1046.63	12953.4
1050.37	12536.3
1054.11	14161.6
1057.84	15499.6
1061.57	16240.2
1065.3	16843.2
1069.03	17268.8
1072.75	17786.8
1076.47	18357.4
1080.2	18620.7
1083.92	19076.7
1087.64	18755.6
1091.36	17927.6
1095.07	17042.5
1098.79	16190.4
1102.5	15521.1
1106.21	14934.9
1109.92	14191.5
1113.62	12431.7
1117.33	11708
1121.04	10496.9
1124.74	9333.47
1128.44	8162.9
1132.14	7486.8
1135.83	6658.09
1139.53	6044.35
1143.22	5265.1
1146.92	4974.68
1150.61	4654.5
1154.3	4747.7
1157.98	4372.74
1161.67	4637.28
1165.35	4557.38
1169.04	4614.19
1172.72	4890.23
1176.4	4689.34
1180.07	4591.17
1183.75	4642.61
1187.42	4987.5
1191.1	5234.93
1194.77	5371.25
1198.44	5179.43
1202.1	4956.92
1205.77	4952.67
1209.43	4510.95
1213.1	4305.6
1216.76	3899.05
1220.42	4084.1
1224.07	3963.58
1227.73	3713.14
1231.38	3108.53
1235.04	2515.58
1238.69	1984.84
1242.34	1840.22
1245.99	1332.8
1249.63	1434.52
1253.28	1212.53
1256.92	862.619
1260.56	762.236
1264.2	617.645
1267.84	78.895
1271.48	157.854
1275.11	48.613
1278.74	272.842
1282.38	112.113
1286.01	83.221
1289.63	79.951
1293.26	112.594
1296.89	341.832
1300.51	417.217
1304.13	440.719
1307.75	299.121
1311.37	294.311
1314.99	446.064
1318.6	84.184
1322.22	41.287
1325.83	140.287
1329.44	116.977
1333.05	90.852
1336.66	41.254
1340.26	98.045
1343.87	178.932
1347.47	110.045
1351.07	615.277
1354.67	624.787
1358.27	828.551
1361.86	586.598
1365.46	499.029
1369.05	505.959
1372.64	337.514
1376.23	553.777
1379.82	485.594
1383.41	622.225
1386.99	823.68
1390.57	821.115
1394.16	1005.58
1397.74	960.693
1401.32	1171.25
1404.89	1204
1408.47	1286.65
1412.04	941.812
1415.61	1090.5
1419.18	1324.36
1422.75	1441.42
1426.32	1477.96
1429.89	1566.85
1433.45	1658.69
1437.01	1275.81
1440.58	1232.16
1444.13	1506.35
1447.69	910.047
1451.25	1107.81
1454.81	1243.3
1458.36	1490.93
1461.91	1558.74
1465.46	1882.88
1469.01	2228.36
1472.56	1887.45
1476.1	2245.41
1479.64	1559.8
1483.19	1522.95
1486.73	1149.06
1490.27	932.504
1493.81	802.375
1497.34	604.305
1500.88	591.645
1504.41	978.629
1507.94	1121.2
1511.47	1011.13
1515	1064.63
1518.53	1072.81
1522.05	930.453
1525.57	399.902
1529.1	9.156
1532.62	6.242
