Measurement: Raman, 514 nm, ccw, Raman Data Processed
Mineral: Cubic zirconia
Rruff sample: R040142
Ideal chemistry: ZrO_2_
Locality: synthetic
Source: Bob Downs
Description: Fragment of a colorless single crystal
Measured chemistry: (Zr_0.86_Y_0.17_Hf_0.01_)O_2_
Pin_id: L00509
Orientation: Laser parallel to a* (1 0 0). Fiducial mark perpendicular to laser is parallel to -b [0 -1 0]
Raman shift (cm-1)	intensity
239.175	0
243.286	8.418
247.394	80.77
251.501	485.117
255.605	347.523
259.708	613.311
263.808	869.861
267.907	1208.93
272.004	1619.16
276.099	2279.27
280.192	2817.76
284.283	2979.21
288.372	2520.04
292.459	1569.13
296.544	870.689
300.627	302.758
304.709	314.615
308.788	261.068
312.865	43.678
316.941	389.797
321.015	47.438
325.086	497.455
329.156	709.922
333.224	1395.2
337.29	1918.88
341.354	2805.37
345.416	3732.07
349.476	4266.07
353.534	4169.97
357.591	3821.6
361.645	3563.93
365.698	3857.91
369.748	3683.72
373.797	3551.34
377.844	3780.7
381.889	3541.7
385.932	2894.26
389.973	2818.27
394.012	2733.62
398.049	2240.19
402.084	1304.24
406.118	925.275
410.15	706.41
414.179	656.789
418.207	215.848
422.233	392.9
426.257	148.387
430.279	23.074
434.299	24.617
438.318	287.934
442.334	151.787
446.349	195.195
450.361	143.443
454.372	573.15
458.381	594.396
462.388	1321.53
466.394	2010.82
470.397	2022.58
474.398	2733.36
478.398	3330.12
482.396	3859.22
486.391	4312.09
490.385	4577.4
494.377	4844.22
498.368	5352.12
502.356	5530.7
506.342	5979.75
510.327	6609.44
514.31	7039.59
518.291	7490.06
522.27	7860.78
526.247	8161.72
530.222	8932.76
534.196	9703.84
538.167	10194.9
542.137	10225.8
546.105	11136.5
550.071	11827
554.035	12337.2
557.998	12597
561.958	13376.3
565.917	13905
569.874	14923.1
573.829	15760.5
577.782	16138.1
581.733	17647.4
585.683	18759.9
589.63	20833.1
593.576	21886.5
597.52	24057.3
601.462	26553.8
605.402	28994.5
609.341	30439
613.277	31712.6
617.212	32777.3
621.145	32789.2
625.076	31856.8
629.006	28516.8
632.933	23518.2
636.859	18681.2
640.783	14294
644.705	11329.6
648.625	9117.33
652.543	7567.75
656.46	6712.09
660.375	6338.97
664.288	5939.58
668.199	5592.78
672.108	5643.71
676.016	5461.11
679.921	5635.17
683.825	5574.98
687.727	5931
691.628	5282.64
695.526	4960.63
699.423	5005.19
703.318	4625.54
707.211	4102.08
711.102	3856.02
714.992	3376.75
718.879	2974.62
722.765	2819.96
726.649	2392.76
730.532	1722.99
734.412	1730.64
738.291	1295.67
742.168	957.94
746.043	747.394
749.916	654.1
753.788	358.013
757.658	148.938
761.526	216.528
765.392	30.227
769.257	80.375
773.119	375.599
776.98	336.001
780.839	201.65
784.697	612.602
788.552	279.766
792.406	302.527
796.258	290.08
800.108	302.033
803.957	178.767
807.804	200.207
811.649	226.253
815.492	166.708
819.333	30.845
823.173	151.855
827.011	101.74
830.847	189.012
834.681	53.754
838.514	86.065
842.345	356.047
846.174	453.808
850.001	379.431
853.827	422.994
857.651	464.598
861.473	464.347
865.293	512.313
869.112	458.573
872.928	473.198
876.744	496.259
880.557	507.816
884.369	537.273
888.178	785.039
891.987	807.239
895.793	863.887
899.598	1066.53
903.401	1025.67
907.202	1248.85
911.001	1563.85
914.799	1614.22
918.595	1691.16
922.389	1699.66
926.182	1804.06
929.972	2620.69
933.761	3396.49
937.549	4814.98
941.334	6487.66
945.118	8615.01
948.9	11323.3
952.681	13495.8
956.459	14603.2
960.236	14567.3
964.012	12205.8
967.785	9545.62
971.557	6994.8
975.327	4972.85
979.095	3689.26
982.862	3068.58
986.627	3099.2
990.39	3763.63
994.152	5052.03
997.912	6753.31
1001.67	8906.84
1005.43	10883.6
1009.18	12844.2
1012.93	14468
1016.68	14954.3
1020.43	15522.7
1024.18	14913.4
1027.93	14156.1
1031.67	13430.9
1035.42	13107.4
1039.16	11585.9
1042.9	10446.4
1046.63	9588.81
1050.37	9373.18
1054.11	10669.5
1057.84	11527.8
1061.57	12258.1
1065.3	12570.6
1069.03	12765.4
1072.75	13222.8
1076.47	13632.9
1080.2	13915.8
1083.92	14021.6
1087.64	13920.5
1091.36	13632.6
1095.07	12867.8
1098.79	12055.3
1102.5	11685.3
1106.21	11067.7
1109.92	10572.6
1113.62	9400.5
1117.33	8512.66
1121.04	7768.25
1124.74	6788.55
1128.44	5954.58
1132.14	5156.22
1135.83	4803.05
1139.53	4331.73
1143.22	3903.14
1146.92	3443.75
1150.61	3246.44
1154.3	3374.04
1157.98	3298.06
1161.67	3317.26
1165.35	3149.15
1169.04	3359.5
1172.72	3429.63
1176.4	3380.73
1180.07	3217.82
1183.75	3383.03
1187.42	3698.54
1191.1	3727.05
1194.77	3875.4
1198.44	3665.76
1202.1	4233.2
1205.77	3473.28
1209.43	3265.92
1213.1	3186.57
1216.76	2972.44
1220.42	3022.32
1224.07	2921.49
1227.73	2575
1231.38	2267.72
1235.04	1746.9
1238.69	1286.14
1242.34	1302.94
1245.99	1006.63
1249.63	863.687
1253.28	719.434
1256.92	482.428
1260.56	484.428
1264.2	321.735
1267.84	66.558
1271.48	49.876
1275.11	240.399
1278.74	126.478
1282.38	48.153
1286.01	95.418
1289.63	56.29
1293.26	284.276
1296.89	297.771
1300.51	307.108
1304.13	410.565
1307.75	349.815
1311.37	163.521
1314.99	182.396
1318.6	14.042
1322.22	5.701
1325.83	162.707
1329.44	5.056
1333.05	67.51
1336.66	25.071
1340.26	107.444
1343.87	115.395
1347.47	103.697
1351.07	317.508
1354.67	386.971
1358.27	602.131
1361.86	412.996
1365.46	459.57
1369.05	311.992
1372.64	310.334
1376.23	304.668
1379.82	265.438
1383.41	402.131
1386.99	515.213
1390.57	615.143
1394.16	642.146
1397.74	612.135
1401.32	703.316
1404.89	889.568
1408.47	937.969
1412.04	717.66
1415.61	766.104
1419.18	991.695
1422.75	1083.6
1426.32	1127.32
1429.89	1057.48
1433.45	1069.33
1437.01	1071.02
1440.58	1022.28
1444.13	892.162
1447.69	868.123
1451.25	831.428
1454.81	973.352
1458.36	1246.91
1461.91	1250.12
1465.46	1407.75
1469.01	1385.47
1472.56	1274.63
1476.1	1467.51
1479.64	1234.23
1483.19	1106.9
1486.73	862.594
1490.27	758.523
1493.81	525.066
1497.34	414.939
1500.88	501.977
1504.41	688.029
1507.94	627.793
1511.47	633.467
1515	763.336
1518.53	857.354
1522.05	689.311
1525.57	372.451
1529.1	55.643
1532.62	5.514
