Measurement: Raman, 514 nm, ccw, Raman Data Processed
Mineral: Cuprite
Rruff sample: R050374
Ideal chemistry: Cu^1+^_2_O
Locality: unknown
Source: Eugene Schlepp
Description: Aggregate of deep red cubes
Measured chemistry: Cu_2.00_O
Pin_id: M00318
Orientation: Laser parallel to -a* (-1 0 0). Fiducial mark perpendicular to laser is parallel to b [0 1 0]
Raman shift (cm-1)	intensity
87.308	0
92.246	2425.49
97.182	2844.28
102.116	3276.8
107.047	2985.36
111.976	2370.91
116.903	2158.58
121.827	2002.94
126.749	1729.13
131.668	3511.72
136.585	4868.06
141.5	6727.69
146.412	6120.54
151.321	4792.7
156.229	4186.84
161.134	3007.52
166.036	2662.55
170.936	3393.16
175.834	4859.07
180.729	6922.39
185.622	9589.2
190.512	9651.61
195.4	11710
200.286	12948.6
205.169	15119.3
210.049	21759.7
214.928	27591
219.803	20574.9
224.677	9866.34
229.548	5890.91
234.416	3369.99
239.282	1895.85
244.146	700.844
249.007	107.66
253.866	390.606
258.722	96.3047
263.576	414.449
268.427	809.996
273.276	475.922
278.123	349.379
282.967	46.332
287.809	255.648
292.648	218.281
297.485	212.82
302.319	297.09
307.151	195.402
311.98	251.219
316.807	357.07
321.631	198.207
326.454	48.4492
331.273	105.773
336.09	34.0977
340.905	145.469
345.717	268.34
350.527	317.527
355.334	469.996
360.139	532.223
364.941	870.688
369.741	1116.35
374.538	1347.87
379.333	1643.39
384.126	2058.3
388.916	2635.01
393.703	3140.31
398.488	3686.27
403.271	4084.66
408.051	4228.02
412.828	3928.59
417.603	3596.78
422.376	3121.05
427.146	2563.22
431.914	1859.6
436.679	1669.11
441.442	1410.19
446.202	1429.67
450.96	1387.32
455.715	1177.73
460.467	1492.77
465.218	1668.1
469.965	1649.54
474.711	1806.4
479.454	1754.4
484.194	1639.37
488.932	1383.17
493.667	1310.14
498.4	1188.73
503.13	1167.45
507.858	1054.87
512.583	1280.69
517.306	980.488
522.026	1222.79
526.744	1113.81
531.459	769.582
536.172	736.176
540.882	981.082
545.59	977.738
550.295	1265.99
554.998	981.371
559.698	986.633
564.396	1362.15
569.091	1301.24
573.784	1307.77
578.474	1531.79
583.162	1252.14
587.847	1452.31
592.529	1858.26
597.209	1703.62
601.887	2148.81
606.562	2880.98
611.235	3457.46
615.905	4595.24
620.572	5577.97
625.237	5404.56
629.9	5343.04
634.56	5021.9
639.217	4697.49
643.872	4258.64
648.524	3258.28
653.174	2542.37
657.821	1999.07
662.466	1538.07
667.108	1340.46
671.748	984.246
676.385	927.375
681.02	761.824
685.652	340.551
690.281	508.519
694.908	261.688
699.533	50.9727
704.155	463.383
708.774	260.562
713.391	135.414
718.005	285.68
722.617	34.8008
727.226	292.465
731.833	149.312
736.437	123.367
741.039	101.781
745.638	241.113
750.234	162.359
754.828	99.6289
759.419	137.652
764.008	11.0469
768.595	47.1641
773.178	189.828
777.759	306.285
782.338	363.746
786.914	218.488
791.488	1.83594
796.059	321.481
800.627	412.996
805.193	327.734
809.756	85.3438
814.317	110.394
818.875	200.109
823.431	551.449
827.984	246.367
832.534	467.848
837.082	264.844
841.627	38.3242
846.17	20
850.71	87.5195
855.248	72.457
859.783	106.512
864.316	65.207
868.846	82.4336
873.373	298.363
877.898	900.656
882.42	32.7812
886.94	89.5547
891.457	65.5039
895.971	109.008
900.483	38.3828
904.993	121.051
909.5	368.457
914.004	233.039
918.505	338.754
923.004	264.004
927.501	315.59
931.995	142.883
936.486	131.34
940.975	237.051
945.461	276.059
949.945	1030.36
954.426	402.953
958.904	301.863
963.38	325.109
967.853	255.703
972.324	572.652
976.792	514.383
981.258	523.144
985.72	697.574
990.181	583.344
994.639	622.492
999.094	445.109
1003.55	621.32
1008	573.566
1012.44	703.242
1016.89	920.516
1021.33	948.445
1025.77	1212.08
1030.21	1244.29
1034.64	1237.17
1039.07	1101.32
1043.5	677.262
1047.93	1054.12
1052.35	1049.62
1056.78	1267.43
1061.19	1155.88
1065.61	1364.69
1070.02	1114.54
1074.43	1014.38
1078.84	1557.03
1083.25	895.012
1087.65	947.098
1092.05	947.266
1096.45	574.637
1100.85	1013.2
1105.24	845.664
1109.63	1003.72
1114.02	827.34
1118.4	878.297
1122.78	967.742
1127.16	823.211
1131.54	750.578
1135.92	521.055
1140.29	545.863
1144.66	442.922
1149.02	377.746
1153.39	340.207
1157.75	528.348
1162.11	259.363
1166.46	327.883
1170.82	307.269
1175.17	162.719
1179.52	159.91
1183.86	38.0391
1188.21	77.2656
1192.55	152.898
1196.89	199.195
1201.22	7.73047
1205.55	348.938
1209.88	195.137
1214.21	79.6016
1218.54	226.559
1222.86	184.562
1227.18	61.4922
1231.5	102.953
1235.81	182.996
1240.12	15.9219
1244.43	303.461
1248.74	383.856
1253.04	348.051
1257.34	358.66
1261.64	27.6523
1265.94	293.18
1270.23	498.191
1274.52	40.9062
1278.81	406.809
1283.1	213.711
1287.38	121.859
1291.66	165.637
1295.94	58.9297
1300.21	25.8086
1304.48	124.231
1308.75	92.6797
1313.02	255.871
1317.29	581.188
1321.55	320.699
1325.81	139.68
1330.06	227.68
1334.32	31.7578
1338.57	96.6172
1342.82	78.9531
1347.06	556.992
1351.31	282.445
1355.55	461.293
1359.79	505.5
1364.02	254.824
1368.26	108.719
1372.49	291.953
1376.71	227.731
1380.94	212.019
1385.16	440.082
1389.38	312.406
1393.6	133.844
1397.81	56.7148
1402.02	67.9297
1406.23	456.961
1410.44	396.797
1414.64	552.258
1418.85	40.2773
1423.04	332.703
1427.24	161.012
1431.43	20.7148
1435.62	498.164
1439.81	349.434
1444	411.633
1448.18	421.57
1452.36	326.398
1456.54	345.434
1460.71	187.223
1464.89	120.277
1469.06	340.172
1473.22	44.793
1477.39	114.352
1481.55	528.297
1485.71	294.285
1489.86	321.633
1494.02	364.207
1498.17	217.516
1502.32	363.707
1506.46	345.859
1510.61	534.758
1514.75	297.176
1518.88	387.82
1523.02	270.918
1527.15	353.453
1531.28	349.457
1535.41	433.949
1539.53	478.031
1543.66	588.449
1547.78	181.519
1551.89	1166.23
1556.01	765.695
1560.12	4.22266
1564.23	271.508
1568.33	446.531
1572.43	0
