Measurement: Raman, 514 nm, ccw, Raman Data Processed
Mineral: Cuprite
Rruff sample: R050384
Ideal chemistry: Cu^1+^_2_O
Locality: Lavender Pit, Bisbee, Warren District, Cochise County, Arizona, USA
Source: University of Arizona Mineral Museum
Description: Deep red to nearly black cubes
Measured chemistry: Cu_2.00_O
Pin_id: M00339
Orientation: Laser parallel to b* (0 1 0). Fiducial mark perpendicular to laser is parallel to c [0 0 1]
Raman shift (cm-1)	intensity
53.91	0
58.864	262.697
63.817	49.052
68.767	206.079
73.714	448.499
78.659	872.645
83.602	1684.26
88.542	2146.29
93.48	3197.86
98.416	3842.1
103.349	5035.45
108.28	6555.79
113.208	6516.63
118.134	6086.69
123.058	5743.14
127.979	5888.36
132.898	6572.74
137.814	7294.79
142.728	7212.61
147.639	6526.74
152.549	6178.85
157.455	5940.08
162.359	5488.49
167.261	5158.08
172.161	5242.8
177.058	5856.61
181.952	6761.48
186.845	8523.37
191.734	8716.25
196.622	10383.9
201.507	10359.3
206.389	10490.5
211.269	13874.4
216.147	17358.1
221.022	12852.3
225.895	7073.9
230.765	5117.97
235.633	3825.06
240.498	2972.29
245.361	2228.67
250.222	1750
255.08	1422.27
259.936	1233.15
264.789	945.887
269.64	849.475
274.488	821.355
279.334	849.791
284.178	729.44
289.019	734.263
293.857	751.222
298.693	634.292
303.527	787.469
308.358	648.961
313.187	505.549
318.013	369.522
322.837	271.069
327.659	180.556
332.478	65.9541
337.294	0.210938
342.108	142.79
346.92	239.533
351.729	171.067
356.535	120.018
361.34	138.322
366.141	0.155273
370.94	15.1807
375.737	57.4922
380.531	366.283
385.323	426.865
390.113	609.345
394.9	764
399.684	1160.31
404.466	1340.49
409.245	1446.52
414.022	1307.4
418.797	1321.09
423.569	956.609
428.338	772.943
433.105	481.089
437.87	234.024
442.632	249.817
447.391	259.473
452.149	188.371
456.903	78.4004
461.655	153.199
466.405	289.44
471.152	402.566
475.897	300.581
480.639	556.461
485.378	455.651
490.116	425.955
494.85	347.19
499.582	200.328
504.312	202.2
509.039	187.005
513.764	130.858
518.486	39.0508
523.206	20.1201
527.923	37.1162
532.638	104.683
537.35	36.8057
542.059	189.434
546.766	210.626
551.471	212.363
556.173	226.236
560.873	428.006
565.57	331.438
570.264	310.841
574.957	341.806
579.646	219.405
584.333	27.9736
589.018	98.7647
593.7	195.963
598.379	310.688
603.056	548.054
607.73	851.727
612.402	1183.71
617.072	1726.34
621.739	2043.78
626.403	2198.83
631.065	2048.67
635.724	1829.25
640.381	1679.82
645.035	1435.73
649.687	1042.11
654.336	773.914
658.983	345.295
663.627	233.003
668.268	254.814
672.907	144.117
677.544	269.917
682.178	112.324
686.809	148.974
691.438	15.6299
696.065	108.427
700.688	2.63477
705.31	142.358
709.929	55.7256
714.545	142.65
719.158	3.95508
723.77	161.19
728.378	24.7129
732.984	110.137
737.588	78.8047
742.189	100.931
746.787	60.0107
751.383	47.9092
755.976	6.29883
760.567	195.072
765.155	235.356
769.741	309.792
774.324	159.267
778.904	334.281
783.482	153.411
788.058	231.981
792.631	253.041
797.201	232.769
801.769	175.463
806.334	276.523
810.897	91.2705
815.457	264.147
820.014	298.577
824.569	205.858
829.122	288.071
833.671	78.0225
838.219	55.5185
842.763	31.9453
847.306	24.9658
851.845	138.072
856.382	16.4014
860.917	137.315
865.448	44.5518
869.978	10.9014
874.505	163.644
879.029	94.668
883.55	41.3389
888.069	53.335
892.586	57.5928
897.1	47.2148
901.611	57.2139
906.12	114.367
910.626	43.3076
915.129	155.615
919.63	109.672
924.129	131.316
928.625	15.0645
933.118	36.3096
937.609	40.3086
942.097	5.39844
946.582	93.7559
951.065	210.449
955.546	112.695
960.023	49.3594
964.499	30.834
968.971	216.32
973.441	230.449
977.909	261.512
982.374	193.322
986.836	193.477
991.295	254.639
995.753	235.199
1000.21	85.5234
1004.66	251.242
1009.11	242.885
1013.55	418.066
1018	377.598
1022.44	249.139
1026.88	280.125
1031.32	500.848
1035.75	512.107
1040.18	520.521
1044.61	447.914
1049.04	487.84
1053.46	512.496
1057.88	425.336
1062.3	473.394
1066.71	602.193
1071.13	516.834
1075.54	307.049
1079.94	396.721
1084.35	533.549
1088.75	356.353
1093.15	249.356
1097.55	501.471
1101.94	339.08
1106.34	321.731
1110.73	182.412
1115.11	293.853
1119.5	428.092
1123.88	393.131
1128.26	352.871
1132.63	187.307
1137.01	88.0762
1141.38	39.623
1145.75	64.6523
1150.12	78.2051
1154.48	85.7871
1158.84	236.174
1163.2	30.7773
1167.55	222.26
1171.91	315.74
1176.26	126.287
1180.61	32.1133
1184.95	325.281
1189.29	33.1484
1193.63	105.674
1197.97	164.438
1202.31	328.016
1206.64	220.078
1210.97	237.027
1215.29	184.484
1219.62	26.7461
1223.94	197.965
1228.26	444.857
1232.57	378.606
1236.89	361.574
1241.2	272.365
1245.51	212.877
1249.81	340.863
1254.12	134.576
1258.42	361.664
1262.72	562.412
1267.01	526.805
1271.3	670.223
1275.59	552.621
1279.88	298.424
1284.17	433.586
1288.45	476.769
1292.73	533.894
1297.01	410.418
1301.28	561.383
1305.55	580.402
1309.82	609.191
1314.09	355.789
1318.35	372.324
1322.61	446.949
1326.87	405.473
1331.13	424.191
1335.38	358.82
1339.63	434.305
1343.88	579.195
1348.12	380.828
1352.37	594.754
1356.61	154.836
1360.85	286.461
1365.08	369.984
1369.31	284.07
1373.54	214.055
1377.77	185.09
1381.99	114.441
1386.22	258.609
1390.43	323.93
1394.65	138.621
1398.87	180.309
1403.08	48.6797
1407.29	212.836
1411.49	401.394
1415.69	369.383
1419.89	211.301
1424.09	473.188
1428.29	297.598
1432.48	328.254
1436.67	680.934
1440.86	739.574
1445.04	754.082
1449.23	1080
1453.4	705.461
1457.58	532.863
1461.76	635.746
1465.93	554.164
1470.1	524.527
1474.26	552.945
1478.43	282.863
1482.59	497.863
1486.75	443.703
1490.9	277.715
1495.06	340.477
1499.21	354.859
1503.35	795.578
1507.5	31.3047
1511.64	165.723
1515.78	166.129
1519.92	278.242
