Measurement: Raman, 514 nm, ccw, Raman Data Processed
Mineral: Cuprite
Rruff sample: R050374
Ideal chemistry: Cu^1+^_2_O
Locality: unknown
Source: Eugene Schlepp
Description: Aggregate of deep red cubes
Measured chemistry: Cu_2.00_O
Pin_id: M00318
Orientation: Laser parallel to -a* (-1 0 0). Fiducial mark perpendicular to laser is parallel to b [0 1 0]
Raman shift (cm-1)	intensity
86.072	0
91.012	1937.69
95.948	3492.94
100.883	4791.85
105.815	7747.86
110.744	6992
115.671	6400.97
120.596	3632.13
125.519	2899.46
130.439	4692.56
135.356	6632.18
140.271	8255.52
145.184	8491.36
150.094	6727.3
155.002	5572.66
159.908	4164.27
164.811	3136.62
169.711	3622.95
174.61	5197.28
179.505	7958.65
184.399	11380.1
189.29	11977.6
194.178	13629.8
199.064	15510.3
203.948	17624.8
208.829	25247.6
213.708	33679.8
218.585	28037.9
223.459	13481.4
228.33	8030.53
233.199	4957.94
238.066	2905.83
242.93	1386.52
247.792	395.785
252.651	344.781
257.508	269.852
262.363	441.131
267.215	640.943
272.064	655.389
276.912	347.486
281.756	483.852
286.598	139.606
291.438	256.137
296.276	286.125
301.111	257.215
305.943	334.353
310.773	333.752
315.601	415.371
320.426	323.084
325.248	226.477
330.068	56.0254
334.886	96.2715
339.701	114.127
344.514	87.8516
349.324	25.1992
354.132	287.162
358.938	394.647
363.741	491.299
368.541	991.689
373.339	1175.25
378.135	1374.67
382.928	1907.7
387.718	2601.66
392.506	3503.07
397.292	4001.11
402.075	4757.33
406.856	4876.07
411.634	4802.34
416.41	4415.9
421.183	3568.13
425.954	3100.55
430.722	2516.85
435.488	2105.63
440.251	1832.54
445.012	1675.17
449.77	1685.63
454.526	1581.75
459.28	1545.65
464.03	1783.25
468.779	2072.64
473.525	2263.58
478.268	2225.04
483.009	2162.15
487.747	1940.44
492.483	1666.81
497.217	1641.28
501.948	1786.83
506.676	1888.11
511.402	1746.67
516.125	1731.23
520.846	1726.37
525.565	1632.12
530.281	1628.52
534.994	1459.63
539.705	2149.05
544.413	1750.99
549.119	1938.74
553.822	2096.43
558.523	2059.28
563.222	2199.41
567.917	2361.45
572.611	2266.36
577.302	2164.34
581.99	1469.15
586.676	1449.04
591.359	1159.77
596.04	1705.52
600.718	2191.68
605.394	2681.29
610.067	3755.47
614.737	4869.54
619.406	6263.64
624.071	6483.31
628.734	6193.18
633.395	5801.67
638.053	5333.98
642.708	4820.96
647.361	4326.35
652.012	3325.69
656.66	2276.63
661.305	1824.98
665.948	1277.72
670.588	1051.85
675.226	687.348
679.861	654.186
684.494	677.166
689.124	595.557
693.752	376.139
698.377	290.848
702.999	305.943
707.619	236.06
712.237	45.5859
716.852	8.41992
721.464	148.537
726.074	100.486
730.681	26.8613
735.286	114.293
739.888	39.8379
744.488	158.008
749.085	112.625
753.68	7.59375
758.272	131.451
762.861	0.486328
767.448	179.137
772.033	221.435
776.614	219.732
781.194	66.3828
785.77	398.006
790.345	574.869
794.916	771.176
799.485	232.707
804.052	360.42
808.616	221.943
813.177	293.607
817.736	115.682
822.292	376.039
826.846	112.633
831.397	192.6
835.945	97.9043
840.491	57.6348
845.035	189.504
849.576	160.975
854.114	134.549
858.65	46.7441
863.183	27.5996
867.713	83.6465
872.241	39.9766
876.767	67.459
881.29	65.2832
885.81	41.3145
890.328	15.7949
894.843	25.377
899.356	137.068
903.866	133.33
908.373	332.324
912.878	166.144
917.38	219.242
921.88	386.941
926.377	471.484
930.872	392.01
935.364	347.232
939.853	297.644
944.34	484.103
948.824	308.559
953.306	212.043
957.785	476.717
962.261	517.33
966.735	508.053
971.207	617.889
975.675	715.846
980.141	590.939
984.605	504.168
989.066	957.621
993.524	851.338
997.98	831.93
1002.43	530.209
1006.88	989.363
1011.33	893.182
1015.78	975.295
1020.22	939.012
1024.66	1022.75
1029.1	1169.71
1033.53	970.604
1037.97	1308.75
1042.4	1044.5
1046.82	1344.92
1051.25	1344.84
1055.67	1440.53
1060.09	1214.55
1064.51	1114.8
1068.92	1182.36
1073.33	1110.76
1077.74	941.838
1082.15	939.902
1086.55	898.582
1090.95	1182.58
1095.35	930.531
1099.75	887.316
1104.14	748.053
1108.53	865.881
1112.92	523.74
1117.31	785.039
1121.69	987.883
1126.07	1104.4
1130.45	601.336
1134.82	525.867
1139.19	416.227
1143.57	410.272
1147.93	259.941
1152.3	275.519
1156.66	111.547
1161.02	270.047
1165.38	213.816
1169.73	128.242
1174.08	125.238
1178.43	70.7305
1182.78	83.082
1187.12	47.6367
1191.46	168.734
1195.8	163.215
1200.14	232.922
1204.47	87.3477
1208.8	40.8867
1213.13	399.738
1217.46	139.691
1221.78	40.4102
1226.1	330.754
1230.42	376.273
1234.73	316.891
1239.04	149.106
1243.35	236.406
1247.66	425.418
1251.97	517.144
1256.27	143.41
1260.57	213.504
1264.86	333.184
1269.16	203.879
1273.45	165.578
1277.74	238.637
1282.03	136.598
1286.31	152.617
1290.59	259.547
1294.87	317.984
1299.14	237.031
1303.42	109.715
1307.69	74.6719
1311.95	26.7422
1316.22	284.746
1320.48	324.188
1324.74	40.8906
1329	25.582
1333.26	67.2969
1337.51	51.1602
1341.76	202.438
1346	83.3906
1350.25	157.715
1354.49	160.699
1358.73	60.7109
1362.96	55.8008
1367.2	155.078
1371.43	76.332
1375.66	101.367
1379.88	50.9648
1384.11	34.5781
1388.33	53.9414
1392.54	159.84
1396.76	171.519
1400.97	87.207
1405.18	322.25
1409.39	197.176
1413.59	209.102
1417.8	337.695
1421.99	252.801
1426.19	114.894
1430.38	22.0508
1434.58	253.621
1438.77	315.613
1442.95	384.106
1447.13	192.406
1451.32	378.269
1455.49	323.574
1459.67	192.019
1463.84	224.914
1468.01	443.902
1472.18	358.93
1476.35	255.898
1480.51	57.4375
1484.67	73.0156
1488.83	294.793
1492.98	171.492
1497.13	146.215
1501.28	467.715
1505.43	284.336
1509.57	333.102
1513.71	88.1172
1517.85	234.289
1521.99	334.312
1526.12	334.629
1530.25	594.164
1534.38	464.109
1538.5	36.4297
1542.62	55.7461
1546.74	503.519
1550.86	563.477
1554.98	725.262
1559.09	220.75
1563.2	399.375
1567.31	361.481
1571.41	51.0898
