Measurement: Raman, 514 nm, ccw, Raman Data Processed
Mineral: Cuprite
Rruff sample: R050384
Ideal chemistry: Cu^1+^_2_O
Locality: Lavender Pit, Bisbee, Warren District, Cochise County, Arizona, USA
Source: University of Arizona Mineral Museum
Description: Deep red to nearly black cubes
Measured chemistry: Cu_2.00_O
Pin_id: M00339
Orientation: Laser parallel to b* (0 1 0). Fiducial mark perpendicular to laser is parallel to c [0 0 1]
Raman shift (cm-1)	intensity
53.91	0
58.864	155.998
63.817	39.3214
68.767	365.832
73.714	881.129
78.659	1684.18
83.602	3134.45
88.542	3818.09
93.48	4774.53
98.416	5419.07
103.349	6448.08
108.28	11395
113.208	7277.04
118.134	6201.14
123.058	5970.35
127.979	6395.26
132.898	7698.32
137.814	9097.07
142.728	10017
147.639	9526.55
152.549	8122.15
157.455	7486.53
162.359	6294.03
167.261	5542.36
172.161	6081.88
177.058	7260.51
181.952	8897.17
186.845	11396.8
191.734	10881.3
196.622	12951.5
201.507	13824.6
206.389	15426.1
211.269	22350
216.147	28743.8
221.022	20325.5
225.895	10039.2
230.765	6708.69
235.633	4855.43
240.498	3237.07
245.361	2178.31
250.222	1449.97
255.08	1031.84
259.936	786.353
264.789	585.396
269.64	357.875
274.488	382.96
279.334	358.451
284.178	431.255
289.019	522.326
293.857	532.645
298.693	596.189
303.527	624.929
308.358	509.19
313.187	455.873
318.013	387.018
322.837	246.24
327.659	210.513
332.478	105.208
337.294	82.3369
342.108	177.935
346.92	178.666
351.729	126.91
356.535	129.311
361.34	103.666
366.141	78.3027
370.94	207.297
375.737	484.43
380.531	635.65
385.323	969.43
390.113	1422.78
394.9	1868.65
399.684	2291.03
404.466	2763.87
409.245	2998.2
414.022	2784.52
418.797	2551.33
423.569	2164
428.338	1696.54
433.105	1274.93
437.87	984.169
442.632	818.256
447.391	703.19
452.149	657.97
456.903	571.599
461.655	565.084
466.405	695.443
471.152	775.692
475.897	955.209
480.639	1039.61
485.378	859.087
490.116	739.887
494.85	530.038
499.582	373.178
504.312	335.884
509.039	258.948
513.764	268.377
518.486	70.8882
523.206	11.5107
527.923	44.8457
532.638	2.23291
537.35	6.29199
542.059	35.792
546.766	38.1968
551.471	46.2827
556.173	122.221
560.873	70.8198
565.57	197.522
570.264	360.336
574.957	299.293
579.646	483.463
584.333	561.882
589.018	697.449
593.7	847.409
598.379	996.066
603.056	1413.35
607.73	1933.24
612.402	2602.36
617.072	3559.41
621.739	4289.38
626.403	4519.27
631.065	4138.85
635.724	3836.78
640.381	3686.26
645.035	3215.47
649.687	2896.25
654.336	1979.15
658.983	1513.99
663.627	1228.27
668.268	1023.11
672.907	854.639
677.544	615.084
682.178	598.195
686.809	603.927
691.438	492.185
696.065	867.315
700.688	282.047
705.31	254.109
709.929	173.89
714.545	210.643
719.158	174.708
723.77	207.369
728.378	160.95
732.984	153.746
737.588	152.131
742.189	94.6514
746.787	54.2075
751.383	6.10986
755.976	36.9238
760.567	77.4702
765.155	54.8652
769.741	156.337
774.324	224.718
778.904	212.478
783.482	307.178
788.058	203.398
792.631	381.043
797.201	249.801
801.769	283.443
806.334	243.369
810.897	256.301
815.457	189.152
820.014	168.88
824.569	183.667
829.122	152.84
833.671	173.885
838.219	185.416
842.763	119.344
847.306	144.426
851.845	10.4648
856.382	76.5059
860.917	142.977
865.448	20.2979
869.978	74.0801
874.505	106.53
879.029	27.8447
883.55	20.7588
888.069	103.456
892.586	48.4639
897.1	27.9092
901.611	95.415
906.12	60.1836
910.626	79.3926
915.129	111.758
919.63	61.0781
924.129	3.66602
928.625	88.0684
933.118	77.2852
937.609	102.804
942.097	130.959
946.582	165.715
951.065	42.3789
955.546	175.906
960.023	87.0039
964.499	202.706
968.971	59.9844
973.441	124.57
977.909	278.699
982.374	320.891
986.836	238.338
991.295	352.844
995.753	212.829
1000.21	435.741
1004.66	262.643
1009.11	608.011
1013.55	609.833
1018	510.891
1022.44	458.325
1026.88	628.07
1031.32	508.197
1035.75	679.755
1040.18	739.827
1044.61	697.707
1049.04	615.354
1053.46	706.14
1057.88	695.114
1062.3	520.418
1066.71	755.058
1071.13	466.898
1075.54	553.042
1079.94	411.384
1084.35	271.37
1088.75	523.211
1093.15	532.479
1097.55	227.303
1101.94	253.057
1106.34	253.185
1110.73	216.912
1115.11	452.555
1119.5	682.697
1123.88	611.773
1128.26	459.016
1132.63	126.481
1137.01	329.059
1141.38	17.7793
1145.75	2.9707
1150.12	201.643
1154.48	96.8242
1158.84	176.701
1163.2	219.174
1167.55	156.385
1171.91	29.4375
1176.26	227.502
1180.61	267.541
1184.95	41.9219
1189.29	116.043
1193.63	197.484
1197.97	205.69
1202.31	82.7578
1206.64	111.019
1210.97	165.33
1215.29	260.185
1219.62	181.973
1223.94	198.756
1228.26	316.818
1232.57	239.264
1236.89	63.4395
1241.2	298.231
1245.51	381.807
1249.81	213.887
1254.12	451.266
1258.42	239.463
1262.72	231.312
1267.01	492.728
1271.3	711.914
1275.59	500.082
1279.88	619.264
1284.17	580.91
1288.45	481.725
1292.73	595.604
1297.01	651.857
1301.28	567.516
1305.55	610.486
1309.82	589.144
1314.09	340.533
1318.35	731.312
1322.61	287.272
1326.87	411.572
1331.13	380.719
1335.38	400.32
1339.63	413.746
1343.88	561.606
1348.12	520.172
1352.37	344.352
1356.61	528.805
1360.85	214.117
1365.08	477.703
1369.31	82.5078
1373.54	130.414
1377.77	51.4375
1381.99	222.367
1386.22	99.043
1390.43	105.293
1394.65	4.37109
1398.87	156.91
1403.08	114.188
1407.29	127.008
1411.49	144.672
1415.69	320.633
1419.89	179.227
1424.09	358.566
1428.29	311.891
1432.48	757.898
1436.67	642.785
1440.86	606.191
1445.04	925.695
1449.23	570.234
1453.4	932.082
1457.58	864.449
1461.76	549.09
1465.93	679.062
1470.1	608.391
1474.26	285.012
1478.43	758.856
1482.59	518.25
1486.75	698.996
1490.9	401.098
1495.06	362.387
1499.21	401.402
1503.35	40.9375
1507.5	376.016
1511.64	340.188
1515.78	511.863
1519.92	2.89453
