Measurement: Raman, 514 nm, ccw, Raman Data Processed
Mineral: Cuprite
Rruff sample: R050374
Ideal chemistry: Cu^1+^_2_O
Locality: unknown
Source: Eugene Schlepp
Description: Aggregate of deep red cubes
Measured chemistry: Cu_2.00_O
Pin_id: M00318
Orientation: Laser parallel to -a* (-1 0 0). Fiducial mark perpendicular to laser is parallel to b [0 1 0]
Raman shift (cm-1)	intensity
88.542	0
93.48	2004.44
98.416	3153.85
103.349	3351.04
108.28	2517.14
113.208	2449.53
118.134	2300.59
123.058	2685.99
127.979	2309.28
132.898	3637.2
137.814	5298.26
142.728	5379.85
147.639	4712.14
152.549	3877.71
157.455	3503.7
162.359	2432.02
167.261	2707.26
172.161	3395.51
177.058	4618.22
181.952	7082.43
186.845	9850.67
191.734	10559.9
196.622	13447.8
201.507	13966.2
206.389	16071.1
211.269	22093.7
216.147	25535.4
221.022	15399.8
225.895	8158.99
230.765	5045.55
235.633	3565.44
240.498	1938.75
245.361	766.676
250.222	147.691
255.08	282.359
259.936	796.328
264.789	632.723
269.64	529.332
274.488	484.445
279.334	575.75
284.178	112.152
289.019	130.918
293.857	185.191
298.693	8.42969
303.527	141.703
308.358	208.055
313.187	474.609
318.013	295.328
322.837	270.606
327.659	134.344
332.478	131.805
337.294	8.83203
342.108	225.203
346.92	9.15625
351.729	210.543
356.535	113.047
361.34	397.477
366.141	473.676
370.94	858.949
375.737	998.535
380.531	1326.71
385.323	1908.2
390.113	2212.42
394.9	2805.98
399.684	3311.34
404.466	3401.5
409.245	3792.06
414.022	3700.25
418.797	3214.05
423.569	2681.59
428.338	2262.94
433.105	2002.95
437.87	1716.65
442.632	1427.28
447.391	1537
452.149	1189.03
456.903	1552.88
461.655	1273.26
466.405	1663.12
471.152	1617.84
475.897	1938.33
480.639	2036.69
485.378	2101.88
490.116	1708.99
494.85	1655.34
499.582	1388
504.312	1482.14
509.039	1523.73
513.764	1340.3
518.486	1315.14
523.206	1338.02
527.923	1449.96
532.638	1339.02
537.35	1183.26
542.059	1189.84
546.766	1287.02
551.471	1717.29
556.173	1718.54
560.873	1611.65
565.57	1500.82
570.264	2099.09
574.957	1429.38
579.646	1297.69
584.333	1045.79
589.018	962.992
593.7	1173.09
598.379	1555.88
603.056	1786.83
607.73	2689.88
612.402	3231.47
617.072	4493.16
621.739	4815.53
626.403	5057.12
631.065	4823.44
635.724	4112.05
640.381	3868.83
645.035	3063.47
649.687	2513.75
654.336	1597.62
658.983	1357.38
663.627	1131.29
668.268	996.672
672.907	960.117
677.544	595.434
682.178	484.234
686.809	314.371
691.438	173.934
696.065	144.633
700.688	125.508
705.31	165.379
709.929	114.602
714.545	126.559
719.158	70.1602
723.77	27.6836
728.378	301.93
732.984	50.3242
737.588	155.094
742.189	35.3359
746.787	128.641
751.383	50.4688
755.976	2.59766
760.567	444.043
765.155	29.5469
769.741	109.988
774.324	217.617
778.904	518.856
783.482	302.832
788.058	557.809
792.631	300.738
797.201	224.852
801.769	428.984
806.334	175.949
810.897	246.894
815.457	406.066
820.014	322.981
824.569	115.211
829.122	225.172
833.671	302.078
838.219	146.945
842.763	78.7109
847.306	147.32
851.845	46.4258
856.382	171.473
860.917	5.8125
865.448	301.559
869.978	182.484
874.505	148.875
879.029	135.273
883.55	44.7578
888.069	136.668
892.586	20.7891
897.1	81.2734
901.611	415.535
906.12	53.4844
910.626	115.715
915.129	316.356
919.63	326.066
924.129	249.184
928.625	93.2695
933.118	411.973
937.609	409.047
942.097	314.219
946.582	175.867
951.065	225.938
955.546	601.938
960.023	437.012
964.499	274.031
968.971	306.246
973.441	533.242
977.909	440.793
982.374	593.606
986.836	839.512
991.295	790.789
995.753	501.207
1000.21	701.629
1004.66	678.602
1009.11	720.996
1013.55	873.008
1018	1061.39
1022.44	1047.06
1026.88	1023.03
1031.32	1282.61
1035.75	1007.78
1040.18	1195.03
1044.61	1135.51
1049.04	1546.12
1053.46	1471.72
1057.88	1512.76
1062.3	1363.47
1066.71	1353.99
1071.13	1613.67
1075.54	1353.84
1079.94	1303.74
1084.35	1054.03
1088.75	1095.54
1093.15	1192
1097.55	1024.31
1101.94	1137.61
1106.34	1016.47
1110.73	1175.5
1115.11	1018.72
1119.5	1142.02
1123.88	1009.41
1128.26	484.719
1132.63	512.238
1137.01	953.012
1141.38	945.215
1145.75	1047.27
1150.12	458.488
1154.48	359.445
1158.84	388.074
1163.2	571.617
1167.55	305.031
1171.91	256.602
1176.26	171.938
1180.61	421.422
1184.95	69.0039
1189.29	152.613
1193.63	146.242
1197.97	175.195
1202.31	162.184
1206.64	278.215
1210.97	423.644
1215.29	702.754
1219.62	208.113
1223.94	362.66
1228.26	94.1133
1232.57	457.188
1236.89	460.984
1241.2	385.051
1245.51	253.281
1249.81	264.141
1254.12	432.93
1258.42	198.629
1262.72	397.551
1267.01	271.676
1271.3	352.684
1275.59	90.8398
1279.88	95.0352
1284.17	245.25
1288.45	230.844
1292.73	271.977
1297.01	324.691
1301.28	72.8828
1305.55	169.867
1309.82	349.438
1314.09	346.109
1318.35	273.164
1322.61	108.219
1326.87	225.82
1331.13	287.379
1335.38	552.551
1339.63	309.289
1343.88	128.555
1348.12	454.945
1352.37	146.852
1356.61	191.195
1360.85	505.695
1365.08	15.4258
1369.31	612.34
1373.54	654.82
1377.77	141.211
1381.99	524.93
1386.22	486.859
1390.43	408.336
1394.65	187.051
1398.87	573.606
1403.08	163.051
1407.29	374.762
1411.49	261.023
1415.69	403.738
1419.89	572.398
1424.09	165.242
1428.29	68.0195
1432.48	160.789
1436.67	422.644
1440.86	109.086
1445.04	172.324
1449.23	108.676
1453.4	303.742
1457.58	241.684
1461.76	125.566
1465.93	177.953
1470.1	219.426
1474.26	295.203
1478.43	166.953
1482.59	168.633
1486.75	180.625
1490.9	310.945
1495.06	410.418
1499.21	102.836
1503.35	237.184
1507.5	26.8008
1511.64	155.93
1515.78	564.422
1519.92	616.07
1524.05	552.551
1528.18	440.004
1532.31	307.547
1536.44	218.738
1540.56	188.41
1544.69	237.504
1548.8	296.266
1552.92	1314.5
1557.03	608.273
1561.14	435.844
1565.25	376.891
1569.36	50.9961
