Measurement: Raman, 514 nm, ccw, Raman Data Processed
Mineral: Cuprite
Rruff sample: R050384
Ideal chemistry: Cu^1+^_2_O
Locality: Lavender Pit, Bisbee, Warren District, Cochise County, Arizona, USA
Source: University of Arizona Mineral Museum
Description: Deep red to nearly black cubes
Measured chemistry: Cu_2.00_O
Pin_id: M00339
Orientation: Laser parallel to b* (0 1 0). Fiducial mark perpendicular to laser is parallel to c [0 0 1]
Raman shift (cm-1)	intensity
53.91	0
58.864	235.025
63.817	74.4149
68.767	265.846
73.714	532.188
78.659	1253.99
83.602	2390.59
88.542	2867.47
93.48	3670.96
98.416	4078.08
103.349	5097.9
108.28	6877.85
113.208	5438.34
118.134	5118.4
123.058	4883.64
127.979	5076.67
132.898	6278.55
137.814	7319.64
142.728	7872.42
147.639	7755.83
152.549	6342.16
157.455	5873.53
162.359	5076.99
167.261	4569.54
172.161	4927.11
177.058	5737.65
181.952	7056.09
186.845	8861.38
191.734	8558.45
196.622	10226.5
201.507	10780.3
206.389	12159.3
211.269	17217.7
216.147	22063.3
221.022	15179.4
225.895	7880.48
230.765	5362.85
235.633	3916.11
240.498	2660.95
245.361	1754.16
250.222	1311.49
255.08	901.794
259.936	1389.01
264.789	483.953
269.64	471.539
274.488	425.662
279.334	385.167
284.178	421.992
289.019	476.109
293.857	524.508
298.693	513.168
303.527	497.757
308.358	479.182
313.187	412.49
318.013	295.968
322.837	287.596
327.659	84.3564
332.478	50.794
337.294	147.068
342.108	154.066
346.92	172.804
351.729	153.695
356.535	97.2568
361.34	45.2803
366.141	66.5288
370.94	91.4419
375.737	312.624
380.531	430.986
385.323	758.017
390.113	1043.09
394.9	1413.95
399.684	1744.15
404.466	2165.7
409.245	2184.61
414.022	2101.72
418.797	1831.69
423.569	1571.64
428.338	1294.68
433.105	858.69
437.87	690.709
442.632	494.73
447.391	454.757
452.149	405.803
456.903	484.854
461.655	451.969
466.405	558.054
471.152	625.404
475.897	678.468
480.639	631.689
485.378	629.95
490.116	458.461
494.85	412.177
499.582	356.752
504.312	233.536
509.039	144.288
513.764	95.8931
518.486	8.67334
523.206	58.6206
527.923	9.2915
532.638	14.0132
537.35	24.7744
542.059	20.6636
546.766	40.1397
551.471	31.7817
556.173	69.5879
560.873	113.565
565.57	276.741
570.264	270.106
574.957	281.741
579.646	241.529
584.333	472.479
589.018	504.719
593.7	464.493
598.379	720.043
603.056	1014.15
607.73	1451.31
612.402	2061.1
617.072	2591.94
621.739	3090.84
626.403	3275.32
631.065	3185.77
635.724	2844.51
640.381	2670.63
645.035	2393.84
649.687	1885.19
654.336	1336.25
658.983	1031.07
663.627	878.434
668.268	752.379
672.907	569.294
677.544	374.781
682.178	365.899
686.809	445.655
691.438	308.133
696.065	271.548
700.688	188.95
705.31	175.165
709.929	160.583
714.545	53.3901
719.158	134.814
723.77	81.2217
728.378	65.4263
732.984	127.168
737.588	51.0679
742.189	41.333
746.787	83.1367
751.383	47.9482
755.976	3.0835
760.567	58.1597
765.155	97.9761
769.741	57.2398
774.324	122.938
778.904	151.857
783.482	176.591
788.058	217.799
792.631	161.451
797.201	310.478
801.769	175.987
806.334	180.9
810.897	185.522
815.457	103.381
820.014	183.69
824.569	200.136
829.122	171.136
833.671	147.305
838.219	139.679
842.763	11.3208
847.306	23.9873
851.845	201.816
856.382	47.7456
860.917	134.516
865.448	82.7729
869.978	14.5645
874.505	66.6973
879.029	141.584
883.55	78.4873
888.069	105.274
892.586	5.42871
897.1	40.75
901.611	129.447
906.12	3.71387
910.626	58.8594
915.129	83.46
919.63	17.8604
924.129	115.449
928.625	58.5889
933.118	83.5986
937.609	39.4424
942.097	36.6367
946.582	79.0068
951.065	113.857
955.546	83.791
960.023	153.101
964.499	42.5967
968.971	122.381
973.441	27.7432
977.909	124.331
982.374	208.017
986.836	293.851
991.295	127.885
995.753	330.685
1000.21	252.757
1004.66	219.883
1009.11	288.848
1013.55	241.542
1018	304.66
1022.44	400.163
1026.88	404.291
1031.32	463.649
1035.75	409.328
1040.18	469.493
1044.61	484.146
1049.04	450.876
1053.46	619.226
1057.88	488.576
1062.3	363.188
1066.71	445.595
1071.13	412.58
1075.54	410.269
1079.94	407.733
1084.35	245.154
1088.75	309.757
1093.15	244.728
1097.55	333.463
1101.94	216.722
1106.34	184.886
1110.73	153.065
1115.11	207.535
1119.5	539.81
1123.88	462.39
1128.26	313.069
1132.63	183.788
1137.01	160.803
1141.38	1.26758
1145.75	138.744
1150.12	71.8242
1154.48	164.49
1158.84	154.701
1163.2	169.893
1167.55	238.988
1171.91	363.742
1176.26	8.19727
1180.61	124.787
1184.95	108.508
1189.29	34.9824
1193.63	83.9258
1197.97	26.1367
1202.31	47.2559
1206.64	163.371
1210.97	202.143
1215.29	159.148
1219.62	12.584
1223.94	291.467
1228.26	244.815
1232.57	135.031
1236.89	332.602
1241.2	129.83
1245.51	299.353
1249.81	286.701
1254.12	403.971
1258.42	323.568
1262.72	374.586
1267.01	600.178
1271.3	365.086
1275.59	480.107
1279.88	479.69
1284.17	334.537
1288.45	155.324
1292.73	551.809
1297.01	623.564
1301.28	433.473
1305.55	379.496
1309.82	346.578
1314.09	295.894
1318.35	497.457
1322.61	338.965
1326.87	373.488
1331.13	427.527
1335.38	139.74
1339.63	504.441
1343.88	412.938
1348.12	235.312
1352.37	49.959
1356.61	543.85
1360.85	162.893
1365.08	162.176
1369.31	166.412
1373.54	53.8672
1377.77	31.1992
1381.99	91.0781
1386.22	293.035
1390.43	112.816
1394.65	63.8516
1398.87	4.44922
1403.08	131.691
1407.29	340.352
1411.49	169.938
1415.69	243.07
1419.89	137.766
1424.09	579.082
1428.29	407.195
1432.48	484.305
1436.67	267.758
1440.86	793.039
1445.04	633.867
1449.23	555.418
1453.4	665.973
1457.58	662.324
1461.76	456.812
1465.93	840.059
1470.1	358.867
1474.26	155.301
1478.43	577.477
1482.59	213.992
1486.75	113.57
1490.9	162.16
1495.06	168.324
1499.21	44.5391
1503.35	44.3828
1507.5	314.207
1511.64	62.043
1515.78	215.762
1519.92	128.883
