Measurement: Raman, 514 nm, ccw, Raman Data Processed
Mineral: Danburite
Rruff sample: R040013
Ideal chemistry: CaB_2_Si_2_O_8_
Locality: Charcas, San Luis Potosi, Mexico
Source: Marcus Origlieri
Description: Colorless prismatic single crystal
Measured chemistry: Ca_1.00_B_2.00_Si_2.00_O_8_
Pin_id: M00012
Orientation: Laser parallel to c* (0 0 1). Fiducial mark perpendicular to laser is parallel to a [1 0 0]
Raman shift (cm-1)	intensity
110.209	0
114.384	1121.81
118.556	1177.98
122.727	4386.9
126.895	7426.97
131.062	6986.02
135.226	1538.26
139.388	1870.77
143.549	358.197
147.707	32.511
151.863	101.172
156.018	39.209
160.17	1244.93
164.32	9093.65
168.469	4430.29
172.615	478.553
176.759	20.175
180.901	106.958
185.041	204.864
189.18	1269.32
193.316	997.713
197.45	38.326
201.582	74.676
205.712	376.882
209.84	1402.48
213.967	732.151
218.091	13.804
222.213	98.643
226.333	121.136
230.451	68.687
234.567	127.707
238.682	750.149
242.794	3947.01
246.904	5248.21
251.012	1655.77
255.118	695.818
259.223	326.061
263.325	136.513
267.425	134.694
271.523	210.736
275.62	928.432
279.714	986.488
283.806	208.743
287.897	75.1
291.985	62.186
296.072	14.759
300.156	77.781
304.239	484.616
308.319	1744.23
312.398	3217.31
316.474	1430.8
320.549	379.728
324.622	184.396
328.692	162.827
332.761	303.653
336.828	521.244
340.893	1739.75
344.956	7870.12
349.017	12115.3
353.076	3593.53
357.133	1229.57
361.188	549.679
365.241	270.813
369.292	156.833
373.341	16.14
377.388	48.826
381.434	25.471
385.477	50.644
389.519	41.919
393.558	41.68
397.596	56.656
401.631	124.041
405.665	474.945
409.697	292.574
413.727	284.812
417.755	508.107
421.781	1281.27
425.805	1710.31
429.827	650.23
433.847	177.064
437.865	142.896
441.882	361.682
445.896	163.732
449.909	48.251
453.919	61.661
457.928	279.955
461.935	471.148
465.94	312.24
469.943	355.226
473.944	1075.12
477.943	4684.92
481.94	4468.6
485.935	1097.18
489.929	293.65
493.92	141.014
497.91	70.268
501.898	15.391
505.883	19.654
509.867	18.881
513.849	36.755
517.829	14.831
521.808	39.224
525.784	61.702
529.758	45.949
533.731	65.61
537.701	10.189
541.67	52.339
545.637	62.181
549.602	71.774
553.565	134.934
557.526	300.07
561.486	1039.18
565.443	924.569
569.399	498.532
573.352	455.969
577.304	559.695
581.254	783.322
585.202	1015.24
589.148	1356.09
593.093	1875.52
597.035	3075.12
600.976	6183.25
604.914	15606.9
608.851	37395.4
612.786	28913.8
616.719	11892.1
620.651	5734.43
624.58	4193.53
628.507	4143.54
632.433	2506.46
636.357	1678.28
640.279	1268.64
644.199	1055.87
648.117	845.461
652.034	736.264
655.948	541.375
659.861	429.353
663.772	273.796
667.681	184.417
671.588	126.046
675.493	119.686
679.397	100.038
683.298	94.737
687.198	29.761
691.096	36.431
694.992	35.868
698.886	80.438
702.779	40.906
706.669	6.736
710.558	11.496
714.445	17.648
718.33	0.701
722.214	33.341
726.095	8.481
729.975	52.217
733.852	24.869
737.728	41.425
741.603	26.096
745.475	17.288
749.345	62.333
753.214	79.878
757.081	43.092
760.946	63.252
764.809	62.908
768.671	58.424
772.53	147.44
776.388	168.413
780.244	22.347
784.098	36.264
787.951	7.173
791.801	35.092
795.65	76.005
799.497	24.902
803.342	12.237
807.186	0.424
811.027	35.654
814.867	38.92
818.705	11.767
822.541	27.445
826.375	23.92
830.208	41.22
834.039	14.904
837.868	64.028
841.695	80.939
845.521	184.046
849.344	189.845
853.166	218.646
856.986	296.432
860.804	388.681
864.621	421.312
868.436	166.174
872.248	144.852
876.06	195.259
879.869	196.612
883.677	174.017
887.482	250.706
891.287	307.418
895.089	353.158
898.889	481.827
902.688	731.625
906.485	855.455
910.28	1036.32
914.074	1189.22
917.865	1161.15
921.655	728.113
925.443	525.103
929.23	566.159
933.014	694.258
936.797	889.102
940.578	1332.48
944.358	2438.68
948.135	3322.73
951.911	2534.44
955.685	1558.85
959.458	1224.12
963.228	1268.9
966.997	1904.62
970.764	4315.3
974.529	5130.03
978.293	3075.86
982.055	1728.78
985.815	1233.79
989.573	898.875
993.33	769.043
997.085	917.302
1000.84	1448.59
1004.59	2399.1
1008.34	4016.62
1012.09	2212.87
1015.83	949.97
1019.58	723.979
1023.32	858.838
1027.06	933.771
1030.8	730.777
1034.54	405.858
1038.27	143.012
1042.01	80.241
1045.74	67.543
1049.47	68.918
1053.2	80.54
1056.93	83.882
1060.65	126.472
1064.38	29.132
1068.1	119.863
1071.82	209.708
1075.54	423.662
1079.25	629.769
1082.97	652.982
1086.68	540.248
1090.39	466.823
1094.11	593.289
1097.81	903.856
1101.52	1293.52
1105.22	1761.29
1108.93	1748.78
1112.63	1248.7
1116.33	800.676
1120.03	541.712
1123.72	457.817
1127.42	333.957
1131.11	264.151
1134.8	163.401
1138.49	120.7
1142.18	38.045
1145.87	36.559
1149.55	16.148
1153.23	11.481
1156.91	55.005
1160.59	115.5
1164.27	232.231
1167.95	381.822
1171.62	676.57
1175.3	756.345
1178.97	588.004
1182.64	396.681
1186.3	303.371
1189.97	289.073
1193.63	117.786
1197.3	84.504
1200.96	16.23
1204.62	34.331
1208.27	5.756
1211.93	5.518
1215.58	104.833
1219.24	25.516
1222.89	47.983
1226.54	26.104
1230.18	54.018
1233.83	29.525
1237.47	28.486
1241.12	87.857
1244.76	98.103
1248.4	161.914
1252.04	87.4
1255.67	155.126
1259.31	180.565
1262.94	146.96
1266.57	117.431
1270.2	137.082
1273.83	169.716
1277.45	210.064
1281.08	110.738
1284.7	94.835
1288.32	79.728
1291.94	146.014
1295.56	48.993
1299.17	17.867
1302.79	39.61
1306.4	116.191
1310.01	234.63
1313.62	224.96
1317.23	287.213
1320.84	316.382
1324.44	190.444
1328.04	118.353
1331.64	9.911
1335.24	78.873
1338.84	71.049
1342.44	14.858
1346.03	36.25
1349.63	53.223
1353.22	91.829
1356.81	11.498
1360.4	16.969
1363.98	28.567
1367.57	10.826
1371.15	1.008
1374.73	23.639
1378.32	48.376
1381.89	30.811
1385.47	191.17
1389.05	86.431
1392.62	160.576
1396.19	74.364
1399.76	74.117
1403.33	62.229
1406.9	16.33
1410.46	13.01
1414.03	8.591
1417.59	129.136
1421.15	106.791
1424.71	199.893
1428.27	257.431
1431.82	254.747
1435.38	392.292
1438.93	475.463
1442.48	609.605
1446.03	777.126
1449.58	818.995
1453.13	817.354
1456.67	836.779
1460.21	863.397
1463.76	764.556
1467.3	527.622
1470.83	430.011
1474.37	377.431
1477.91	302.216
1481.44	247.159
1484.97	264.976
1488.5	181.201
1492.03	108.924
1495.56	0.236
1499.08	30.256
1502.61	5.162
