Measurement: Raman, 514 nm, ccw, Raman Data Processed
Mineral: Danburite
Rruff sample: R040013
Ideal chemistry: CaB_2_Si_2_O_8_
Locality: Charcas, San Luis Potosi, Mexico
Source: Marcus Origlieri
Description: Colorless prismatic single crystal
Measured chemistry: Ca_1.00_B_2.00_Si_2.00_O_8_
Pin_id: M00009
Orientation: Laser parallel to b* (0 1 0). Fiducial mark perpendicular to laser is parallel to -c [0 0 -1]
Raman shift (cm-1)	intensity
110.209	0
114.384	549.311
118.556	2613.71
122.727	8470.75
126.895	3387.98
131.062	624.764
135.226	314.307
139.388	380.934
143.549	25.181
147.707	74.246
151.863	43.592
156.018	22.061
160.17	874.157
164.32	4507.92
168.469	1333.17
172.615	198.84
176.759	624.03
180.901	2034.69
185.041	996.682
189.18	1250.89
193.316	1333.36
197.45	506.998
201.582	983.753
205.712	4232.47
209.84	11528.1
213.967	4388.86
218.091	1196.09
222.213	1055.16
226.333	1709.38
230.451	1408.78
234.567	2908.52
238.682	10938.3
242.794	37702.4
246.904	26854.7
251.012	7318.19
255.118	2710.72
259.223	1234.63
263.325	679.679
267.425	451.284
271.523	410.861
275.62	601.325
279.714	314.364
283.806	153.009
287.897	307.831
291.985	999.814
296.072	1067.99
300.156	336.117
304.239	210.43
308.319	531.871
312.398	597.396
316.474	229.996
320.549	20.336
324.622	12.387
328.692	120.162
332.761	62.98
336.828	36.839
340.893	346.732
344.956	1552.64
349.017	1320.95
353.076	321.245
357.133	112.014
361.188	5.846
365.241	0.494
369.292	3.101
373.341	11.742
377.388	8.382
381.434	0.361
385.477	26.273
389.519	97.593
393.558	125.71
397.596	221.658
401.631	294.655
405.665	521.586
409.697	640.501
413.727	1213.4
417.755	2556.28
421.781	5489.13
425.805	4739.97
429.827	1692.81
433.847	1390.63
437.865	4509.44
441.882	5510.27
445.896	1964.14
449.909	664.03
453.919	467.917
457.928	902.778
461.935	442.61
465.94	178.188
469.943	94.954
473.944	105.686
477.943	336.381
481.94	243.038
485.935	44.656
489.929	9.78
493.92	29.319
497.91	49.991
501.898	32.832
505.883	49.838
509.867	1.425
513.849	21.327
517.829	5.702
521.808	2.95
525.784	1.537
529.758	16.065
533.731	5.442
537.701	65.01
541.67	22.419
545.637	33.794
549.602	95.126
553.565	101.408
557.526	192.64
561.486	239.824
565.443	233.956
569.399	367.037
573.352	361.401
577.304	429.375
581.254	611.295
585.202	819.791
589.148	1235.67
593.093	1753.83
597.035	2973.53
600.976	6338.16
604.914	17669.7
608.851	35480.3
612.786	21100.7
616.719	8471.15
620.651	5418.51
624.58	8181.81
628.507	8822.05
632.433	3992.73
636.357	2148.04
640.279	1292.31
644.199	1024.96
648.117	772.739
652.034	636.632
655.948	438.526
659.861	325.294
663.772	277.118
667.681	253.745
671.588	275.118
675.493	185.694
679.397	94.36
683.298	58.064
687.198	86.318
691.096	70.881
694.992	108.54
698.886	39.022
702.779	86.672
706.669	85.078
710.558	59.446
714.445	59.773
718.33	35.058
722.214	12.692
726.095	16.508
729.975	6.67
733.852	70.793
737.728	47.878
741.603	71.933
745.475	59.959
749.345	84.958
753.214	86.93
757.081	153.876
760.946	85.798
764.809	275.697
768.671	542.573
772.53	856.442
776.388	559.33
780.244	214.248
784.098	82.213
787.951	18.221
791.801	68.244
795.65	26.253
799.497	0.227
803.342	21.839
807.186	11.057
811.027	14.059
814.867	1.247
818.705	27.482
822.541	9.772
826.375	48.91
830.208	2.578
834.039	53.24
837.868	12.102
841.695	67.548
845.521	97.199
849.344	98.852
853.166	149.172
856.986	226.832
860.804	280.977
864.621	230.522
868.436	335.065
872.248	306.447
876.06	256.153
879.869	388.871
883.677	408.603
887.482	485.35
891.287	724.115
895.089	1143.9
898.889	1517.7
902.688	1590.53
906.485	1119.37
910.28	713.241
914.074	522.134
917.865	407.052
921.655	238.993
925.443	144.96
929.23	107.583
933.014	66.499
936.797	66.891
940.578	64.586
944.358	81.427
948.135	116.925
951.911	117.835
955.685	132.49
959.458	132.336
963.228	328.169
966.997	917.512
970.764	2532.77
974.529	2551
978.293	1146.48
982.055	625.001
985.815	483.569
989.573	480.185
993.33	489.849
997.085	604.56
1000.84	623.328
1004.59	413.146
1008.34	355.016
1012.09	230.171
1015.83	142.899
1019.58	165.912
1023.32	261.992
1027.06	263.17
1030.8	125.413
1034.54	136.709
1038.27	253.056
1042.01	297.468
1045.74	99.927
1049.47	86.44
1053.2	29.997
1056.93	25.598
1060.65	81.243
1064.38	41.938
1068.1	160.687
1071.82	226.494
1075.54	324.378
1079.25	457.335
1082.97	447.497
1086.68	570.617
1090.39	854.812
1094.11	1384.6
1097.81	2216.73
1101.52	3195.11
1105.22	4103.26
1108.93	3705.74
1112.63	2658.25
1116.33	1770.85
1120.03	1309.45
1123.72	932.094
1127.42	737.74
1131.11	530.415
1134.8	318.57
1138.49	206.302
1142.18	148.152
1145.87	67.918
1149.55	81.82
1153.23	116.11
1156.91	136.431
1160.59	97.524
1164.27	56.573
1167.95	161.917
1171.62	189.326
1175.3	281.209
1178.97	220.663
1182.64	140.469
1186.3	106.359
1189.97	98.144
1193.63	73.067
1197.3	13.821
1200.96	20.696
1204.62	6.806
1208.27	53.655
1211.93	22.219
1215.58	29.852
1219.24	46.811
1222.89	12.903
1226.54	7.601
1230.18	21.9
1233.83	27.403
1237.47	40.252
1241.12	91.18
1244.76	9.024
1248.4	47.651
1252.04	59.03
1255.67	32.212
1259.31	29.529
1262.94	10.771
1266.57	60.276
1270.2	8.594
1273.83	97.582
1277.45	37.815
1281.08	49.63
1284.7	10.685
1288.32	25.083
1291.94	25.416
1295.56	8.192
1299.17	9.09
1302.79	60.268
1306.4	51.288
1310.01	101.195
1313.62	70
1317.23	104.692
1320.84	156.286
1324.44	99.78
1328.04	29.165
1331.64	25.453
1335.24	4.642
1338.84	29.28
1342.44	65.671
1346.03	23.384
1349.63	32.128
1353.22	62.457
1356.81	8.771
1360.4	8.582
1363.98	39.941
1367.57	4.668
1371.15	13.555
1374.73	59.782
1378.32	5.897
1381.89	89.985
1385.47	125.293
1389.05	106.848
1392.62	78.284
1396.19	24.999
1399.76	30.146
1403.33	8.507
1406.9	144.409
1410.46	58.004
1414.03	107.421
1417.59	93.763
1421.15	159.832
1424.71	122.454
1428.27	266.659
1431.82	145.547
1435.38	195.331
1438.93	282.242
1442.48	318.875
1446.03	339.845
1449.58	351.445
1453.13	351.115
1456.67	398.379
1460.21	407.499
1463.76	333.227
1467.3	256.919
1470.83	278.945
1474.37	127.087
1477.91	147.357
1481.44	66.846
1484.97	133.554
1488.5	61.667
1492.03	64.312
1495.56	93.822
1499.08	0.099
1502.61	0
