Measurement: Raman, 514 nm, ccw, Raman Data Processed
Mineral: Danburite
Rruff sample: R040013
Ideal chemistry: CaB_2_Si_2_O_8_
Locality: Charcas, San Luis Potosi, Mexico
Source: Marcus Origlieri
Description: Colorless prismatic single crystal
Measured chemistry: Ca_1.00_B_2.00_Si_2.00_O_8_
Pin_id: M00009
Orientation: Laser parallel to b* (0 1 0). Fiducial mark perpendicular to laser is parallel to -c [0 0 -1]
Raman shift (cm-1)	intensity
104.64	0
108.817	304.433
112.992	2831.45
117.166	1601.7
121.337	5960.25
125.506	5262.77
129.673	807.053
133.838	279.808
138.001	156.078
142.162	53.171
146.321	19.019
150.478	91.691
154.633	80.012
158.786	332.859
162.937	2592.89
167.086	2154.02
171.233	201.558
175.378	475.321
179.521	2430.21
183.662	2452.04
187.8	883.887
191.937	2691.69
196.072	838.362
200.205	482.895
204.336	2101.05
208.465	9215.96
212.591	6386.8
216.716	1231.09
220.839	1034.91
224.96	2784.74
229.079	1511.32
233.195	1862.52
237.31	5702.46
241.423	22778.5
245.534	34969.3
249.643	8853.04
253.75	2924.39
257.855	1358.53
261.958	739.717
266.059	551.657
270.158	438.233
274.255	210.514
278.35	164.065
282.443	271.297
286.534	398.534
290.623	1491.76
294.71	2826.51
298.795	961.819
302.878	366.257
306.959	452.771
311.038	769.803
315.116	368.779
319.191	145.695
323.264	45.532
327.336	282.276
331.405	292.931
335.473	81.495
339.538	164.962
343.602	889.656
347.663	1783.69
351.723	444.25
355.78	110.078
359.836	35.489
363.89	20.634
367.942	14.183
371.992	28.785
376.04	23.044
380.086	104.46
384.13	66.929
388.172	118.602
392.212	138.428
396.25	224.684
400.286	295.022
404.321	339.239
408.353	456.103
412.384	804.808
416.412	1759.39
420.439	3950.84
424.464	5243.2
428.486	2061.47
432.507	1018.67
436.526	2522.8
440.543	5978.83
444.558	2286.81
448.572	776.734
452.583	507.561
456.592	892.278
460.6	771.896
464.605	298.394
468.609	171.381
472.61	157.627
476.61	560.741
480.608	588.617
484.604	158.166
488.598	79
492.59	9.561
496.58	0.922
500.569	45.932
504.555	22.067
508.54	5.928
512.522	35.817
516.503	80.161
520.482	76.511
524.459	54.157
528.434	24.165
532.407	3.764
536.378	1.346
540.348	62.846
544.315	51.312
548.281	84.676
552.244	172.112
556.206	217.72
560.166	196.898
564.124	215.206
568.08	405.91
572.035	427.157
575.987	425.4
579.938	511.659
583.886	774.385
587.833	1079.45
591.778	1498.5
595.721	2358.11
599.662	4436.53
603.602	10998.7
607.539	29194.4
611.475	24678.9
615.408	9493.3
619.34	5193.57
623.27	6361.74
627.199	9935.81
631.125	4953.28
635.049	2323.91
638.972	1587.14
642.893	1343
646.811	1143.74
650.728	915.009
654.644	666.13
658.557	511.078
662.468	280.218
666.378	228.3
670.286	285.061
674.192	220.298
678.096	132.121
681.998	98.831
685.898	51.786
689.797	1.124
693.694	530.975
697.589	21.007
701.482	14.962
705.373	37.43
709.262	43.41
713.15	72.78
717.035	39.312
720.919	31.962
724.801	32.709
728.682	38.465
732.56	37.596
736.437	71.68
740.311	31.669
744.184	21.58
748.055	22.429
751.925	8.237
755.792	62.015
759.658	121.767
763.522	225.496
767.384	372.203
771.244	713.896
775.102	617.584
778.959	238.303
782.814	113.046
786.667	5.167
790.518	6.655
794.367	40.494
798.215	39.339
802.061	110.185
805.905	42.032
809.747	75.886
813.587	9.755
817.426	93.646
821.263	58.557
825.098	123.389
828.931	148.924
832.762	147.752
836.592	144.165
840.42	195.865
844.246	340.396
848.07	403.29
851.892	425.011
855.713	558.116
859.532	760.521
863.349	762.193
867.164	744.327
870.978	601.536
874.789	527.105
878.599	516.793
882.408	541.696
886.214	634.949
890.019	825.388
893.822	1236.9
897.623	1757.49
901.422	1805.14
905.22	1418.84
909.015	933.633
912.809	694.428
916.602	537.31
920.392	303.308
924.181	202.027
927.968	248.127
931.753	257.264
935.536	193.402
939.318	150.677
943.098	153.031
946.876	222.476
950.653	161.875
954.427	200.456
958.2	246.11
961.971	348.835
965.741	737.638
969.508	2041.52
973.274	2957.49
977.039	1447.53
980.801	729.671
984.562	526.919
988.321	547.281
992.078	524.771
995.833	584.363
999.587	1021.05
1003.34	979.829
1007.09	476.677
1010.84	243.606
1014.58	212.647
1018.33	282.771
1022.07	439.743
1025.81	354.725
1029.55	290.331
1033.29	213.755
1037.03	358.248
1040.76	501.859
1044.5	134.485
1048.23	64.174
1051.96	77.928
1055.68	178.979
1059.41	59.847
1063.13	52.76
1066.86	66.395
1070.58	80.654
1074.3	224.508
1078.02	396.318
1081.73	609.29
1085.44	691.63
1089.16	900.354
1092.87	1202.84
1096.58	1732.44
1100.28	2613.83
1103.99	3601.62
1107.69	3738.46
1111.39	2845.38
1115.1	1890.34
1118.8	1356.34
1122.49	1016.36
1126.19	632.415
1129.88	550.493
1133.57	392.592
1137.26	264.712
1140.95	194.871
1144.64	118.051
1148.32	104.248
1152.01	71.464
1155.69	29.674
1159.37	18.878
1163.05	68.06
1166.72	92.22
1170.4	115.38
1174.07	157.533
1177.74	50.677
1181.41	35.809
1185.08	14.076
1188.75	52.959
1192.41	19.268
1196.08	10.718
1199.74	10.715
1203.4	1.353
1207.06	13.748
1210.71	26.832
1214.37	106.259
1218.02	68.935
1221.67	96.329
1225.32	80.417
1228.97	65.607
1232.62	216.436
1236.26	237.604
1239.9	143.623
1243.55	101.186
1247.18	181.541
1250.82	156.749
1254.46	255.922
1258.1	260.207
1261.73	250.36
1265.36	368.416
1268.99	286.689
1272.62	338.199
1276.24	314.42
1279.87	156.74
1283.49	127.6
1287.11	181.614
1290.73	100.634
1294.35	270.956
1297.97	173.411
1301.58	213.706
1305.2	188.667
1308.81	265.471
1312.42	296.109
1316.03	382.424
1319.63	365.876
1323.24	247.215
1326.84	203.19
1330.44	90.54
1334.05	77.378
1337.64	22.405
1341.24	5.367
1344.84	9.964
1348.43	4.304
1352.02	42.107
1355.61	62.904
1359.2	77.118
1362.79	81.845
1366.37	67.401
1369.96	14.956
1373.54	47.597
1377.12	85.386
1380.7	120.015
1384.28	35.539
1387.85	55.933
1391.43	148.177
1395	150.294
1398.57	11.334
1402.14	37.305
1405.71	69.181
1409.28	62.98
1412.84	131.726
1416.4	137.432
1419.96	120.146
1423.52	183.464
1427.08	148.63
1430.64	325.14
1434.19	428.442
1437.75	621.521
1441.3	940.471
1444.85	933.879
1448.4	1121.97
1451.94	1170.06
1455.49	1094.67
1459.03	1169.17
1462.58	838.003
1466.12	793.663
1469.65	525.639
1473.19	557.081
1476.73	364.082
1480.26	421.519
1483.8	323.523
1487.33	168.332
1490.86	139.051
1494.38	15.419
1497.91	100.607
1501.43	0
