Measurement: Raman, 514 nm, ccw, Raman Data Processed
Mineral: Danburite
Rruff sample: R040013
Ideal chemistry: CaB_2_Si_2_O_8_
Locality: Charcas, San Luis Potosi, Mexico
Source: Marcus Origlieri
Description: Colorless prismatic single crystal
Measured chemistry: Ca_1.00_B_2.00_Si_2.00_O_8_
Pin_id: M00010
Orientation: Laser parallel to a* (1 0 0). Fiducial mark perpendicular to laser is parallel to b [0 1 0]
Raman shift (cm-1)	intensity
117.166	0
121.337	1443.37
125.506	2244.93
129.673	1396.32
133.838	38.543
138.001	305.586
142.162	15.009
146.321	99.499
150.478	1411.67
154.633	49.391
158.786	70.768
162.937	1960.21
167.086	1389.58
171.233	190.047
175.378	1131.51
179.521	5765.52
183.662	2512.91
187.8	663.534
191.937	875.115
196.072	522.842
200.205	2267.91
204.336	3226.1
208.465	2030.67
212.591	1415.12
216.716	274.427
220.839	66.101
224.96	231.314
229.079	70.516
233.195	159.687
237.31	730.814
241.423	3824.65
245.534	7230.56
249.643	2247.27
253.75	653.229
257.855	252.982
261.958	56.694
266.059	10.328
270.158	33.161
274.255	152.564
278.35	354.362
282.443	27.27
286.534	54.17
290.623	97.101
294.71	339.472
298.795	208.739
302.878	933.902
306.959	1063.16
311.038	1541.32
315.116	652.43
319.191	110.48
323.264	58.47
327.336	39.399
331.405	96.265
335.473	173.066
339.538	637.79
343.602	2925.42
347.663	4940.97
351.723	1278.34
355.78	349.618
359.836	117.019
363.89	19.303
367.942	14.19
371.992	25.734
376.04	30.99
380.086	22.871
384.13	17.863
388.172	142.119
392.212	625.472
396.25	446.799
400.286	132.481
404.321	256.662
408.353	170.7
412.384	184.758
416.412	319.214
420.439	857.866
424.464	1169.64
428.486	505.94
432.507	201.607
436.526	401.253
440.543	1009.79
444.558	485.259
448.572	165.66
452.583	102.047
456.592	189.378
460.6	329.64
464.605	224.833
468.609	240.691
472.61	866.107
476.61	4037.03
480.608	4122.95
484.604	906.795
488.598	318.572
492.59	98.28
496.58	101.922
500.569	54.497
504.555	18.994
508.54	14.785
512.522	19.609
516.503	19.244
520.482	2.441
524.459	34.688
528.434	17.802
532.407	15.945
536.378	42.683
540.348	22.372
544.315	85.018
548.281	66.631
552.244	121.21
556.206	204.808
560.166	506.386
564.124	372.856
568.08	155.28
572.035	213.665
575.987	261.053
579.938	342.431
583.886	485.76
587.833	621.117
591.778	960.35
595.721	1575.54
599.662	3120.74
603.602	8080.95
607.539	20497.1
611.475	16451.1
615.408	6517.16
619.34	3309.14
623.27	3371.01
627.199	3753.84
631.125	1969.62
635.049	1065.37
638.972	682.065
642.893	482.663
646.811	388.943
650.728	295.672
654.644	190.902
658.557	162.94
662.468	124.453
666.378	146.662
670.286	106.043
674.192	87.267
678.096	91.984
681.998	66.469
685.898	61.905
689.797	68.324
693.694	37.893
697.589	36.702
701.482	49.089
705.373	81.672
709.262	65.297
713.15	209.878
717.035	182.063
720.919	72.214
724.801	50.333
728.682	37.419
732.56	32.472
736.437	70.494
740.311	29.485
744.184	9.443
748.055	13.369
751.925	17.264
755.792	13.13
759.658	57.966
763.522	73.777
767.384	100.561
771.244	215.32
775.102	323.055
778.959	173.766
782.814	56.455
786.667	7.865
790.518	4.802
794.367	0.531
798.215	29.111
802.061	8.739
805.905	8.64
809.747	8.969
813.587	1.439
817.426	22.108
821.263	22.409
825.098	8.01
828.931	30.663
832.762	15.627
836.592	27.836
840.42	45.007
844.246	0.222
848.07	11.583
851.892	7.583
855.713	18.737
859.532	42.882
863.349	51.153
867.164	84.071
870.978	81.194
874.789	108.311
878.599	78.359
882.408	123.268
886.214	135.315
890.019	167.383
893.822	181.4
897.623	342.508
901.422	401.619
905.22	451.734
909.015	498.854
912.809	603.981
916.602	773.661
920.392	915.26
924.181	803.137
927.968	522.24
931.753	382.31
935.536	311.621
939.318	429.79
943.098	767.22
946.876	1014.99
950.653	864.413
954.427	524.86
958.2	393.51
961.971	470.886
965.741	842.696
969.508	1611.59
973.274	2034.52
977.039	1130.86
980.801	616.959
984.562	395.843
988.321	343.211
992.078	280.737
995.833	331.292
999.587	468.88
1003.34	650.5
1007.09	1066.15
1010.84	603.839
1014.58	270.573
1018.33	208.344
1022.07	277.155
1025.81	365.008
1029.55	268.91
1033.29	182.864
1037.03	121.891
1040.76	112.984
1044.5	95.138
1048.23	64.35
1051.96	38.609
1055.68	69.907
1059.41	49.249
1063.13	60.641
1066.86	125.073
1070.58	149.075
1074.3	187.077
1078.02	206.645
1081.73	287.258
1085.44	285.911
1089.16	286.628
1092.87	480.425
1096.58	666.294
1100.28	979.279
1103.99	1292.27
1107.69	1345.27
1111.39	1064.32
1115.1	677.383
1118.8	453.475
1122.49	397.659
1126.19	307.81
1129.88	242.984
1133.57	151.178
1137.26	114.393
1140.95	87.139
1144.64	62.676
1148.32	41.184
1152.01	5.812
1155.69	85.254
1159.37	67.78
1163.05	121.699
1166.72	162.858
1170.4	233.309
1174.07	335.216
1177.74	238.558
1181.41	172.452
1185.08	153.949
1188.75	88.079
1192.41	115.885
1196.08	31.942
1199.74	74.89
1203.4	13.323
1207.06	53.754
1210.71	64.252
1214.37	42.523
1218.02	83.951
1221.67	30.579
1225.32	44.238
1228.97	0.326
1232.62	29.384
1236.26	55.41
1239.9	11.728
1243.55	47.691
1247.18	46.614
1250.82	5.64
1254.46	70.955
1258.1	57.016
1261.73	55.269
1265.36	48.692
1268.99	17.535
1272.62	21.273
1276.24	2.078
1279.87	0.479
1283.49	22.892
1287.11	43.223
1290.73	43.48
1294.35	9.254
1297.97	74.11
1301.58	39.135
1305.2	44.265
1308.81	35.483
1312.42	73.217
1316.03	50.843
1319.63	21.382
1323.24	20.158
1326.84	9.213
1330.44	12.508
1334.05	31.729
1337.64	9.877
1341.24	30.361
1344.84	21.956
1348.43	4.105
1352.02	94.753
1355.61	56.538
1359.2	46.259
1362.79	68.211
1366.37	15.587
1369.96	36.157
1373.54	45.519
1377.12	14.899
1380.7	44.724
1384.28	13.533
1387.85	54.233
1391.43	40.737
1395	30.7
1398.57	81.915
1402.14	17.914
1405.71	54.187
1409.28	26.554
1412.84	77.255
1416.4	53.55
1419.96	78.248
1423.52	83.839
1427.08	74.96
1430.64	57.063
1434.19	62.66
1437.75	126.486
1441.3	171.5
1444.85	164.047
1448.4	160.494
1451.94	195.495
1455.49	148.648
1459.03	151.237
1462.58	136.545
1466.12	133.901
1469.65	96.489
1473.19	91.974
1476.73	89.549
1480.26	74.239
1483.8	50.011
1487.33	20.921
1490.86	1.986
1494.38	0.808
1497.91	37.661
1501.43	0
