Measurement: Raman, 514 nm, ccw, Raman Data Processed
Mineral: Danburite
Rruff sample: R040013
Ideal chemistry: CaB_2_Si_2_O_8_
Locality: Charcas, San Luis Potosi, Mexico
Source: Marcus Origlieri
Description: Colorless prismatic single crystal
Measured chemistry: Ca_1.00_B_2.00_Si_2.00_O_8_
Pin_id: M00009
Orientation: Laser parallel to b* (0 1 0). Fiducial mark perpendicular to laser is parallel to -c [0 0 -1]
Raman shift (cm-1)	intensity
106.032	0
110.209	1309.54
114.384	2336.56
118.556	768.404
122.727	2017.22
126.895	714.859
131.062	267.57
135.226	98.726
139.388	52.763
143.549	31.589
147.707	45.823
151.863	34.686
156.018	21.195
160.17	173.476
164.32	1107.25
168.469	424.086
172.615	777.069
176.759	4010.33
180.901	15798.1
185.041	4485.84
189.18	2427.61
193.316	4445.27
197.45	658.752
201.582	366.998
205.712	920.853
209.84	2757.45
213.967	809.945
218.091	273.341
222.213	1257.64
226.333	4495.83
230.451	790.913
234.567	588.898
238.682	2028.52
242.794	8124.61
246.904	6037.98
251.012	1458.72
255.118	563.687
259.223	307.629
263.325	192.618
267.425	144.981
271.523	152.838
275.62	117.257
279.714	164.04
283.806	391.559
287.897	1166.07
291.985	3860.32
296.072	4482.09
300.156	1202.43
304.239	669.749
308.319	1334.9
312.398	1742.15
316.474	608.351
320.549	316.482
324.622	325.536
328.692	879.495
332.761	489.36
336.828	392.127
340.893	1049.8
344.956	4141.37
349.017	3712.84
353.076	829.224
357.133	274.758
361.188	109.306
365.241	1.031
369.292	20.152
373.341	105.854
377.388	76.01
381.434	65.396
385.477	51.982
389.519	33.344
393.558	31.419
397.596	44.164
401.631	101.821
405.665	3.614
409.697	132.475
413.727	197.364
417.755	622.149
421.781	1336.85
425.805	1241.46
429.827	349.026
433.847	256.545
437.865	1110.01
441.882	1419.45
445.896	425.855
449.909	224.214
453.919	454.501
457.928	1889.7
461.935	691.793
465.94	305.79
469.943	491.687
473.944	1776.48
477.943	7831.17
481.94	4511.76
485.935	1070.24
489.929	358.621
493.92	213.894
497.91	166.062
501.898	113.123
505.883	71.069
509.867	63.216
513.849	63.583
517.829	118.396
521.808	48.292
525.784	121.689
529.758	90.322
533.731	34.02
537.701	58.549
541.67	4.747
545.637	61.448
549.602	57.579
553.565	239.501
557.526	314.187
561.486	722.602
565.443	484.563
569.399	567.606
573.352	462.961
577.304	353.574
581.254	483.411
585.202	709.85
589.148	923.522
593.093	1440.36
597.035	2326.33
600.976	4726.05
604.914	12578.9
608.851	26748.1
612.786	15436.7
616.719	6165.5
620.651	3745.85
624.58	4718.12
628.507	5059.32
632.433	2329.43
636.357	1340.46
640.279	1025.41
644.199	996.052
648.117	766.369
652.034	654.524
655.948	527.402
659.861	309.118
663.772	275.481
667.681	284.288
671.588	381.916
675.493	332.018
679.397	121.345
683.298	104.47
687.198	32.96
691.096	97.146
694.992	64.613
698.886	25.991
702.779	33.698
706.669	16.509
710.558	40.615
714.445	29.509
718.33	24.749
722.214	49.128
726.095	18.63
729.975	12.781
733.852	81.133
737.728	24.578
741.603	0.362
745.475	7.197
749.345	45.914
753.214	64.979
757.081	53.997
760.946	86.976
764.809	186.921
768.671	275.833
772.53	368.716
776.388	220.57
780.244	108.396
784.098	37.199
787.951	15.989
791.801	12.777
795.65	80.544
799.497	46.285
803.342	24.012
807.186	47.722
811.027	33.416
814.867	26.1
818.705	92.776
822.541	57.442
826.375	146.266
830.208	145.309
834.039	153.208
837.868	258.808
841.695	241.464
845.521	276.076
849.344	382.57
853.166	384.497
856.986	553.947
860.804	676.428
864.621	712.514
868.436	748.097
872.248	695.051
876.06	573.949
879.869	517.344
883.677	515.839
887.482	641.434
891.287	876.213
895.089	1371.79
898.889	1474.73
902.688	1141.71
906.485	807.729
910.28	681.777
914.074	509.862
917.865	362.982
921.655	242.14
925.443	321.422
929.23	206.701
933.014	143.699
936.797	179.096
940.578	197.537
944.358	414.059
948.135	547.644
951.911	427.272
955.685	369.952
959.458	373.609
963.228	526.426
966.997	1017.31
970.764	2733.25
974.529	2519.25
978.293	934.32
982.055	485.458
985.815	487.681
989.573	573.007
993.33	743.431
997.085	835.946
1000.84	937.751
1004.59	644.184
1008.34	317.887
1012.09	197.373
1015.83	172.497
1019.58	363.112
1023.32	362.341
1027.06	300.392
1030.8	207.392
1034.54	292.432
1038.27	649.511
1042.01	526.628
1045.74	251.817
1049.47	140.006
1053.2	117.23
1056.93	123.486
1060.65	62.764
1064.38	13.867
1068.1	102.92
1071.82	184.384
1075.54	210.782
1079.25	365.427
1082.97	542.962
1086.68	494.718
1090.39	599.681
1094.11	793.382
1097.81	1135.12
1101.52	1704.79
1105.22	2044.49
1108.93	1891.24
1112.63	1353.99
1116.33	894.749
1120.03	641.5
1123.72	477.247
1127.42	415.985
1131.11	307.774
1134.8	164.496
1138.49	61.204
1142.18	46.902
1145.87	7.409
1149.55	24.243
1153.23	54.865
1156.91	51.458
1160.59	55.006
1164.27	16.525
1167.95	35.017
1171.62	164.584
1175.3	14.009
1178.97	120.395
1182.64	42.74
1186.3	78.042
1189.97	87.298
1193.63	43.603
1197.3	31.546
1200.96	27.554
1204.62	3.254
1208.27	25.737
1211.93	33.223
1215.58	91.005
1219.24	37.75
1222.89	30.236
1226.54	64.588
1230.18	56.985
1233.83	148.584
1237.47	276.835
1241.12	261.995
1244.76	165.288
1248.4	255.183
1252.04	118.024
1255.67	184.814
1259.31	46.879
1262.94	144.552
1266.57	217.165
1270.2	335.797
1273.83	236.009
1277.45	266.697
1281.08	155.066
1284.7	60.61
1288.32	88.549
1291.94	147.609
1295.56	194.646
1299.17	51.57
1302.79	168.306
1306.4	212.811
1310.01	385.171
1313.62	261.432
1317.23	337.61
1320.84	310.69
1324.44	179.478
1328.04	37.776
1331.64	36.683
1335.24	27.116
1338.84	42.78
1342.44	43.754
1346.03	85.93
1349.63	0.787
1353.22	59.677
1356.81	20.851
1360.4	36.84
1363.98	130.421
1367.57	29.755
1371.15	26.919
1374.73	66.845
1378.32	100.431
1381.89	48.478
1385.47	185.346
1389.05	175.155
1392.62	140.827
1396.19	31.392
1399.76	10.121
1403.33	31.884
1406.9	32.387
1410.46	94.575
1414.03	81.709
1417.59	188.732
1421.15	144.347
1424.71	196.162
1428.27	282.76
1431.82	305.77
1435.38	469.678
1438.93	662.745
1442.48	1011.36
1446.03	1060.94
1449.58	1193.89
1453.13	1357.45
1456.67	1341.91
1460.21	1265.04
1463.76	960.795
1467.3	655.675
1470.83	611.617
1474.37	399.723
1477.91	480.684
1481.44	333.275
1484.97	360.599
1488.5	267.863
1492.03	67.416
1495.56	92.178
1499.08	2.044
1502.61	0
