Measurement: Raman, 514 nm, ccw, Raman Data Processed
Mineral: Danburite
Rruff sample: R040013
Ideal chemistry: CaB_2_Si_2_O_8_
Locality: Charcas, San Luis Potosi, Mexico
Source: Marcus Origlieri
Description: Colorless prismatic single crystal
Measured chemistry: Ca_1.00_B_2.00_Si_2.00_O_8_
Pin_id: M00012
Orientation: Laser parallel to c* (0 0 1). Fiducial mark perpendicular to laser is parallel to a [1 0 0]
Raman shift (cm-1)	intensity
115.775	0
119.947	5139.91
124.116	5915.11
128.284	1972.85
132.45	133.853
136.614	1006.21
140.775	1182.09
144.935	23.88
149.093	135.551
153.248	132.16
157.402	120.904
161.554	768.647
165.703	5021.76
169.851	957.891
173.996	34.67
178.14	195.987
182.281	812.706
186.421	567.12
190.558	1677.74
194.694	667.164
198.827	273.077
202.959	833.05
207.088	3817.67
211.216	11575.6
215.341	3469.62
219.465	910.999
223.586	561.126
227.706	691.904
231.823	1239.67
235.939	2830.06
240.052	10695
244.164	37726.4
248.274	22716.6
252.381	6382.86
256.487	2532.11
260.59	1346.66
264.692	771.604
268.791	620.778
272.889	756.666
276.985	1629.35
281.078	870.802
285.17	251.164
289.26	202.104
293.348	71.908
297.433	58.992
301.517	100.555
305.599	198.486
309.679	574.677
313.757	672.275
317.833	237.647
321.907	93.771
325.979	38.974
330.049	9.616
334.117	76.759
338.183	185.733
342.247	427.231
346.31	1521.28
350.37	1268.04
354.428	376.723
358.484	79.093
362.539	11.92
366.591	26.114
370.642	7.432
374.691	32.208
378.737	22.825
382.782	94.907
386.825	181.812
390.865	283.979
394.904	201.233
398.941	302.104
402.976	535.695
407.009	840.822
411.04	705.816
415.07	1167.99
419.097	2608.56
423.122	5398.66
427.146	4142.41
431.167	1583.55
435.187	1431.52
439.204	4478.22
443.22	4820.01
447.234	1669.1
451.246	671.376
455.256	575.35
459.264	570.74
463.27	578.17
467.274	310.992
471.277	250.293
475.277	244.75
479.275	382.625
483.272	158.179
487.267	45.476
491.26	74.477
495.25	5.717
499.239	25.155
503.226	5.938
507.212	56.688
511.195	27.872
515.176	74.98
519.156	158.503
523.133	130.873
527.109	70.416
531.083	83.995
535.055	61.476
539.025	51.91
542.993	75.609
546.959	87.578
550.923	54.292
554.886	152.134
558.846	218.07
562.805	286.906
566.762	234.57
570.717	276.34
574.67	425.725
578.621	574.932
582.57	797.979
586.518	1031.62
590.463	1339.64
594.407	1984.41
598.349	3258.01
602.289	6512.46
606.227	17539.8
610.163	32967
614.097	18484.1
618.03	8101.08
621.961	5580.01
625.889	8854.84
629.816	8580.25
633.741	4038.16
637.664	2279.71
641.586	1747.72
645.505	1552.98
649.423	1475.34
653.339	1243.82
657.253	823.783
661.165	461.171
665.075	323.609
668.983	267.723
672.89	223.665
676.795	90.763
680.697	26.427
684.598	21.271
688.498	5.965
692.395	12.237
696.29	44.285
700.184	78.565
704.076	82.992
707.966	50.621
711.854	46.481
715.74	69.611
719.625	66.977
723.508	12.565
727.388	12.694
731.267	115.867
735.145	65.962
739.02	36.982
742.894	33.931
746.765	76.811
750.635	183.625
754.503	121.377
758.37	106.068
762.234	159.7
766.097	272.276
769.958	682.809
773.817	913.326
777.674	592.825
781.529	261.311
785.383	200.801
789.235	292.301
793.084	305.797
796.933	261.276
800.779	150.731
804.624	78.161
808.466	90.569
812.307	153.962
816.146	238.297
819.984	168.354
823.819	72.36
827.653	163.694
831.485	339.244
835.315	312.887
839.144	411.217
842.97	385.2
846.795	427.078
850.618	646.071
854.44	837.707
858.259	1192.05
862.077	1181.67
865.893	676.768
869.707	455.258
873.519	606.782
877.33	721.387
881.138	704.04
884.945	618.76
888.751	613.539
892.554	846.378
896.356	1227.28
900.156	1678.23
903.954	1695.25
907.75	1258.67
911.545	836.575
915.338	600.789
919.129	514.47
922.918	347.004
926.706	278.961
930.491	214.653
934.276	156.217
938.058	80.855
941.838	184.59
945.617	327.43
949.394	414.352
953.169	338.358
956.943	193.447
960.715	199.629
964.485	265.928
968.253	808.346
972.019	1667.89
975.784	1401.58
979.547	691.402
983.308	379.379
987.068	408.535
990.826	305.875
994.582	374.384
998.336	649.055
1002.09	1014.75
1005.84	600.726
1009.59	410.709
1013.34	316.846
1017.08	423.029
1020.83	718.547
1024.57	961.412
1028.31	893.884
1032.05	477.453
1035.78	199.118
1039.52	143.879
1043.25	121.733
1046.98	38.66
1050.71	71.675
1054.44	80.225
1058.17	106.069
1061.89	22.866
1065.62	119.42
1069.34	359.8
1073.06	443.617
1076.78	678.024
1080.49	902.908
1084.21	882.76
1087.92	862.619
1091.63	1112.58
1095.34	1546.04
1099.05	2341.95
1102.76	3126.26
1106.46	3774.7
1110.16	3459.26
1113.86	2338.9
1117.56	1711.61
1121.26	1370.39
1124.95	937.234
1128.65	731.146
1132.34	529.121
1136.03	227.158
1139.72	78.264
1143.41	1.451
1147.1	39.727
1150.78	36.048
1154.46	96.399
1158.14	148.796
1161.82	149.239
1165.5	281.733
1169.17	522.275
1172.85	802.865
1176.52	938.157
1180.19	650.073
1183.86	496.784
1187.53	378.164
1191.19	122.283
1194.86	26.816
1198.52	28.667
1202.18	99.548
1205.84	119.645
1209.49	125.727
1213.15	149.287
1216.8	165.16
1220.45	47.674
1224.11	25.852
1227.75	43.185
1231.4	43.378
1235.05	268.459
1238.69	377.591
1242.33	357.518
1245.97	378.459
1249.61	293.425
1253.25	234.387
1256.88	167.367
1260.52	209.363
1264.15	386.374
1267.78	516.397
1271.41	605.508
1275.04	638.883
1278.66	397.002
1282.29	285.062
1285.91	90.229
1289.53	124.818
1293.15	322.895
1296.76	324.95
1300.38	375.98
1303.99	414.92
1307.61	500.734
1311.22	547.417
1314.83	501.088
1318.43	499.758
1322.04	472.432
1325.64	342.061
1329.24	239.544
1332.85	91.978
1336.44	15
1340.04	76.471
1343.64	70.502
1347.23	62.62
1350.83	49.226
1354.42	104.501
1358.01	83.168
1361.59	43.161
1365.18	75.162
1368.76	44.01
1372.35	180.309
1375.93	213.842
1379.51	249.187
1383.09	133.293
1386.66	125.394
1390.24	69.445
1393.81	74.389
1397.38	20.651
1400.95	43.703
1404.52	92.227
1408.09	159.147
1411.65	163.074
1415.21	251.008
1418.78	279.959
1422.34	199.826
1425.9	228.796
1429.45	340.223
1433.01	405.67
1436.56	731.559
1440.12	1293.52
1443.67	1722.37
1447.21	1982.1
1450.76	2189.62
1454.31	2418.77
1457.85	2196.65
1461.39	1809.33
1464.94	1455.45
1468.47	1061.43
1472.01	741.5
1475.55	694.674
1479.08	549.603
1482.62	565.899
1486.15	515.049
1489.68	387.411
1493.21	236.608
1496.73	217.751
1500.26	60.948
1503.78	0
