Measurement: Raman, 514 nm, ccw, Raman Data Processed
Mineral: Danburite
Rruff sample: R040013
Ideal chemistry: CaB_2_Si_2_O_8_
Locality: Charcas, San Luis Potosi, Mexico
Source: Marcus Origlieri
Description: Colorless prismatic single crystal
Measured chemistry: Ca_1.00_B_2.00_Si_2.00_O_8_
Pin_id: M00012
Orientation: Laser parallel to c* (0 0 1). Fiducial mark perpendicular to laser is parallel to a [1 0 0]
Raman shift (cm-1)	intensity
100.461	0
104.64	417.578
108.817	609.676
112.992	1377.2
117.166	3751.55
121.337	7716.08
125.506	9592.19
129.673	1942.72
133.838	700.054
138.001	745.592
142.162	247.033
146.321	39.089
150.478	37.961
154.633	106.413
158.786	11.396
162.937	1865.77
167.086	4219.96
171.233	461.951
175.378	118.066
179.521	626.894
183.662	679.624
187.8	375.244
191.937	705.693
196.072	316.516
200.205	276.851
204.336	1647.74
208.465	7912.59
212.591	11020
216.716	2544.17
220.839	850.582
224.96	731.405
229.079	967.322
233.195	1759.35
237.31	5162.54
241.423	20016.8
245.534	47091.6
249.643	16684.4
253.75	5295.53
257.855	2314.16
261.958	1204.83
266.059	744.267
270.158	542.046
274.255	521.438
278.35	666.599
282.443	238.606
286.534	84.554
290.623	17.598
294.71	2.873
298.795	41.896
302.878	115.807
306.959	234.8
311.038	705.99
315.116	530.043
319.191	202.951
323.264	31.301
327.336	35.749
331.405	8.596
335.473	70.736
339.538	46.816
343.602	536.453
347.663	1830.7
351.723	814.041
355.78	110.117
359.836	21.957
363.89	21.563
367.942	3.671
371.992	25.951
376.04	60.98
380.086	44.896
384.13	113.514
388.172	147.857
392.212	184.939
396.25	297.768
400.286	370.495
404.321	447.085
408.353	584.209
412.384	925.171
416.412	1769.98
420.439	3865.64
424.464	6429.18
428.486	3507.61
432.507	1490.65
436.526	2363.58
440.543	6643.29
444.558	3998.61
448.572	1410.52
452.583	590.995
456.592	395.569
460.6	437.959
464.605	385.167
468.609	247.135
472.61	179.405
476.61	214.824
480.608	273.93
484.604	150.053
488.598	26.155
492.59	26.033
496.58	18.685
500.569	9.986
504.555	44.517
508.54	10.32
512.522	57.156
516.503	163.797
520.482	214.463
524.459	92.461
528.434	93.509
532.407	140.103
536.378	155.754
540.348	160.381
544.315	107.963
548.281	143.493
552.244	196.638
556.206	238.366
560.166	283.724
564.124	288.33
568.08	305.69
572.035	464.188
575.987	518.652
579.938	599.684
583.886	1012.26
587.833	1285.26
591.778	1723.03
595.721	2585.58
599.662	4492.92
603.602	10171.1
607.539	28301.1
611.475	33671
615.408	14990.8
619.34	7190.42
623.27	7119.98
627.199	12049.3
631.125	7787.08
635.049	3497.51
638.972	2229.44
642.893	2039.31
646.811	2039.52
650.728	1621.07
654.644	1196.78
658.557	729.196
662.468	503.737
666.378	428.912
670.286	260.069
674.192	174.221
678.096	107.177
681.998	70.135
685.898	114.867
689.797	14.541
693.694	35.686
697.589	57.084
701.482	10.667
705.373	33.426
709.262	45.402
713.15	98.622
717.035	84.103
720.919	48.809
724.801	78.302
728.682	59.3
732.56	30.218
736.437	38.06
740.311	31.833
744.184	119.541
748.055	197.186
751.925	183.773
755.792	105.305
759.658	241.784
763.522	292.212
767.384	554.593
771.244	865.947
775.102	962.293
778.959	505.638
782.814	405.002
786.667	408.394
790.518	362.81
794.367	256.218
798.215	234.606
802.061	205.97
805.905	293.314
809.747	182.643
813.587	112.956
817.426	75.259
821.263	174.359
825.098	259.463
828.931	358.059
832.762	354.182
836.592	256.141
840.42	326.907
844.246	546.68
848.07	801.818
851.892	863.731
855.713	906.134
859.532	1194.37
863.349	1002.67
867.164	816.902
870.978	690.2
874.789	689.75
878.599	664.341
882.408	582.042
886.214	608.805
890.019	857.656
893.822	1100.57
897.623	1573.55
901.422	1726.59
905.22	1648.7
909.015	1175.36
912.809	908.451
916.602	697.924
920.392	488.509
924.181	283.544
927.968	113.181
931.753	175.805
935.536	206.507
939.318	304.291
943.098	248.169
946.876	150.153
950.653	162.224
954.427	139.38
958.2	225.629
961.971	306.977
965.741	520.448
969.508	1000.03
973.274	1649.76
977.039	1107.62
980.801	523.621
984.562	401.796
988.321	421.154
992.078	299.698
995.833	271.4
999.587	798.249
1003.34	1225.21
1007.09	509.268
1010.84	365.431
1014.58	250.927
1018.33	499.466
1022.07	622.078
1025.81	684.644
1029.55	632.309
1033.29	400.072
1037.03	204.934
1040.76	69.895
1044.5	25.942
1048.23	17.937
1051.96	21.731
1055.68	88.552
1059.41	8.105
1063.13	130.298
1066.86	162.829
1070.58	254.418
1074.3	385.567
1078.02	701.132
1081.73	991.602
1085.44	1123.61
1089.16	1126.73
1092.87	1429.5
1096.58	1839.57
1100.28	2727.01
1103.99	3834.57
1107.69	4280.27
1111.39	3639.05
1115.1	2483.91
1118.8	1752.85
1122.49	1289.86
1126.19	914.943
1129.88	605.089
1133.57	450.296
1137.26	369.566
1140.95	210.915
1144.64	159.345
1148.32	40.83
1152.01	20.632
1155.69	5.923
1159.37	71.514
1163.05	229.16
1166.72	436.857
1170.4	692.601
1174.07	903.389
1177.74	833.748
1181.41	506.628
1185.08	248.352
1188.75	207.29
1192.41	128.648
1196.08	0.372
1199.74	130.668
1203.4	104.734
1207.06	3.984
1210.71	34.004
1214.37	50.358
1218.02	69.34
1221.67	18.069
1225.32	44.008
1228.97	155.051
1232.62	286.842
1236.26	425.543
1239.9	350.106
1243.55	159.547
1247.18	178.206
1250.82	216.384
1254.46	249.581
1258.1	330.795
1261.73	427.025
1265.36	543.27
1268.99	564.514
1272.62	498.485
1276.24	472.833
1279.87	212.896
1283.49	141.822
1287.11	313.254
1290.73	398.573
1294.35	583.103
1297.97	433.323
1301.58	339.471
1305.2	373.491
1308.81	415.394
1312.42	457.281
1316.03	515.159
1319.63	663.034
1323.24	592.865
1326.84	375.587
1330.44	334.249
1334.05	126.86
1337.64	41.054
1341.24	8.893
1344.84	38.444
1348.43	64.031
1352.02	57.948
1355.61	14.817
1359.2	60.86
1362.79	11.346
1366.37	63.975
1369.96	22.937
1373.54	95.489
1377.12	98.891
1380.7	45.295
1384.28	40.701
1387.85	45.056
1391.43	149.367
1395	41.694
1398.57	93.032
1402.14	53.366
1405.71	130.716
1409.28	54.094
1412.84	124.506
1416.4	20.972
1419.96	10.42
1423.52	74.081
1427.08	193.642
1430.64	336.404
1434.19	576.653
1437.75	1091.48
1441.3	1546.72
1444.85	1812.81
1448.4	1927.7
1451.94	2049.06
1455.49	1929.84
1459.03	1854.89
1462.58	1379.92
1466.12	1113.12
1469.65	917.625
1473.19	757.131
1476.73	667.187
1480.26	693.88
1483.8	738.529
1487.33	462.721
1490.86	250.398
1494.38	102.274
1497.91	4.155
