Measurement: Raman, 514 nm, ccw, Raman Data Processed
Mineral: Danburite
Rruff sample: R040013
Ideal chemistry: CaB_2_Si_2_O_8_
Locality: Charcas, San Luis Potosi, Mexico
Source: Marcus Origlieri
Description: Colorless prismatic single crystal
Measured chemistry: Ca_1.00_B_2.00_Si_2.00_O_8_
Pin_id: M00012
Orientation: Laser parallel to c* (0 0 1). Fiducial mark perpendicular to laser is parallel to a [1 0 0]
Raman shift (cm-1)	intensity
103.247	0
107.425	184.292
111.601	276.99
115.775	547.414
119.947	1758.4
124.116	7987.33
128.284	11709.7
132.45	5072.83
136.614	1185.28
140.775	624.64
144.935	17.923
149.093	18.692
153.248	47.59
157.402	189.761
161.554	2258.03
165.703	14064.7
169.851	2903.2
173.996	287.758
178.14	10.212
182.281	150.828
186.421	38.765
190.558	467.205
194.694	104.103
198.827	70.184
202.959	84.01
207.088	543.778
211.216	1778.48
215.341	474.985
219.465	16.25
223.586	77.654
227.706	16.925
231.823	8.424
235.939	206.977
240.052	1422.41
244.164	6098.57
248.274	4134.81
252.381	1217.82
256.487	583.343
260.59	346.346
264.692	116.086
268.791	163.448
272.889	136.429
276.985	492.854
281.078	234.821
285.17	33.532
289.26	69.304
293.348	29.418
297.433	30.34
301.517	280.87
305.599	1021.4
309.679	3128.86
313.757	3437.21
317.833	1127.77
321.907	449.213
325.979	235.972
330.049	210.828
334.117	424.218
338.183	985.211
342.247	3488.04
346.31	13450.4
350.37	10888.1
354.428	3149.8
358.484	1051.6
362.539	505.745
366.591	300.54
370.642	154.876
374.691	90.271
378.737	37.107
382.782	34.126
386.825	57.451
390.865	73.707
394.904	55.02
398.941	58.867
402.976	148.436
407.009	199.496
411.04	120.988
415.07	281.379
419.097	823.355
423.122	1811.49
427.146	1483.52
431.167	440.037
435.187	170.96
439.204	157.258
443.22	184.121
447.234	52.699
451.246	20.148
455.256	25.441
459.264	200.61
463.27	253.677
467.274	301.636
471.277	540.508
475.277	2041.3
479.275	7076.99
483.272	3581.59
487.267	915.074
491.26	333.504
495.25	77.9
499.239	49.192
503.226	13.361
507.212	27.398
511.195	3.312
515.176	16.858
519.156	23.607
523.133	22.374
527.109	6.629
531.083	5.993
535.055	11.44
539.025	14.595
542.993	30.081
546.959	23.587
550.923	96.737
554.886	216.471
558.846	581.768
562.805	1431.26
566.762	795.678
570.717	584.096
574.67	593.769
578.621	731.033
582.57	1015.35
586.518	1256.04
590.463	1642.96
594.407	2662.61
598.349	4489.8
602.289	9222.8
606.227	25136.6
610.163	47330.3
614.097	27103.9
618.03	11188.6
621.961	5901.94
625.889	5155.2
629.816	4491.36
633.741	2676.42
637.664	1746.35
641.586	1435.68
645.505	1343.61
649.423	1221.31
653.339	996.117
657.253	707.448
661.165	461.084
665.075	346.793
668.983	291.229
672.89	183.602
676.795	143.853
680.697	51.085
684.598	16.609
688.498	67.604
692.395	17.357
696.29	32.126
700.184	39.199
704.076	23.663
707.966	27.274
711.854	17.047
715.74	12.008
719.625	42.083
723.508	8.348
727.388	20.329
731.267	47.906
735.145	12.439
739.02	9.073
742.894	13.336
746.765	28.684
750.635	93.981
754.503	44.231
758.37	4.412
762.234	64.536
766.097	54.62
769.958	176.667
773.817	177.678
777.674	80.655
781.529	11.606
785.383	73.54
789.235	100.467
793.084	150.382
796.933	48.302
800.779	47.218
804.624	24.873
808.466	4.975
812.307	32.92
816.146	32.817
819.984	3.712
823.819	29.861
827.653	81.735
831.485	156.26
835.315	98.32
839.144	175.482
842.97	243.904
846.795	272.872
850.618	355.081
854.44	546.274
858.259	686.207
862.077	635.901
865.893	435.859
869.707	288.823
873.519	337.872
877.33	385.551
881.138	353.933
884.945	226.159
888.751	269.507
892.554	369.859
896.356	565.008
900.156	776.507
903.954	1049.06
907.75	998.666
911.545	1159.33
915.338	1497.05
919.129	1344.83
922.918	871.743
926.706	640.051
930.491	590.021
934.276	702.056
938.058	1059.16
941.838	1967.95
945.617	3416.17
949.394	4008.52
953.169	2586.93
956.943	1548.17
960.715	1200.74
964.485	1523.4
968.253	3080.14
972.019	6160.96
975.784	5419.88
979.547	2896.92
983.308	1656.09
987.068	1241.39
990.826	970.816
994.582	1034.38
998.336	1359.06
1002.09	2304.84
1005.84	3316.71
1009.59	4348.88
1013.34	1993.28
1017.08	1082.11
1020.83	999.834
1024.57	926.799
1028.31	875.192
1032.05	592.686
1035.78	242.26
1039.52	138.916
1043.25	70.652
1046.98	72.468
1050.71	75.364
1054.44	9.662
1058.17	37.612
1061.89	15.503
1065.62	105.695
1069.34	196.962
1073.06	262.325
1076.78	521.082
1080.49	608.721
1084.21	608.336
1087.92	520.031
1091.63	572.123
1095.34	818.989
1099.05	1139.95
1102.76	1593.02
1106.46	1860.2
1110.16	1659.45
1113.86	1174.8
1117.56	810.199
1121.26	665.658
1124.95	464.171
1128.65	272.737
1132.34	199.354
1136.03	86.02
1139.72	19.264
1143.41	27.503
1147.1	52.174
1150.78	6.899
1154.46	44.087
1158.14	40.739
1161.82	117.924
1165.5	275.506
1169.17	403.445
1172.85	717.417
1176.52	751.421
1180.19	590.451
1183.86	382.506
1187.53	173.519
1191.19	139.24
1194.86	26.338
1198.52	63.477
1202.18	45.631
1205.84	24.211
1209.49	10.341
1213.15	106.739
1216.8	88.896
1220.45	17.979
1224.11	29.479
1227.75	9.637
1231.4	98.724
1235.05	194.229
1238.69	228.406
1242.33	192.4
1245.97	236.635
1249.61	159.74
1253.25	178.849
1256.88	129.96
1260.52	105.075
1264.15	259.189
1267.78	315.303
1271.41	427.602
1275.04	334.901
1278.66	253.273
1282.29	103.394
1285.91	80.435
1289.53	133.521
1293.15	201.609
1296.76	174.643
1300.38	241.64
1303.99	209.551
1307.61	317.295
1311.22	360.934
1314.83	339.531
1318.43	323.103
1322.04	310.646
1325.64	217.145
1329.24	169.542
1332.85	87.889
1336.44	58.77
1340.04	38.043
1343.64	7.927
1347.23	31.162
1350.83	10.111
1354.42	35.107
1358.01	85.145
1361.59	87.224
1365.18	5.667
1368.76	7.412
1372.35	2.611
1375.93	67.91
1379.51	124.736
1383.09	71.534
1386.66	102.302
1390.24	86.024
1393.81	95.736
1397.38	1.519
1400.95	10.204
1404.52	29.895
1408.09	92.567
1411.65	116.234
1415.21	80.901
1418.78	87.559
1422.34	74.113
1425.9	91.073
1429.45	247.7
1433.01	284.789
1436.56	492.016
1440.12	844.357
1443.67	1071.71
1447.21	1212.88
1450.76	1332.18
1454.31	1396.5
1457.85	1243.27
1461.39	1047.7
1464.94	811.847
1468.47	650.094
1472.01	454.544
1475.55	432.063
1479.08	353.637
1482.62	371.048
1486.15	318.353
1489.68	214.865
1493.21	37.281
1496.73	53.992
1500.26	62.646
