Measurement: Raman, 514 nm, ccw, Raman Data Processed
Mineral: Danburite
Rruff sample: R040013
Ideal chemistry: CaB_2_Si_2_O_8_
Locality: Charcas, San Luis Potosi, Mexico
Source: Marcus Origlieri
Description: Colorless prismatic single crystal
Measured chemistry: Ca_1.00_B_2.00_Si_2.00_O_8_
Pin_id: M00012
Orientation: Laser parallel to c* (0 0 1). Fiducial mark perpendicular to laser is parallel to a [1 0 0]
Raman shift (cm-1)	intensity
99.067	0
103.247	53.613
107.425	416.006
111.601	1257.66
115.775	1604.58
119.947	2407.94
124.116	5947.21
128.284	5622.38
132.45	2454.33
136.614	2743.89
140.775	3165.7
144.935	480.185
149.093	24.454
153.248	20.903
157.402	75.373
161.554	1199.37
165.703	7164.18
169.851	1254.79
173.996	60.827
178.14	22.244
182.281	327.566
186.421	962.251
190.558	4065.77
194.694	1425.17
198.827	308.321
202.959	333.233
207.088	1168.72
211.216	3536.32
215.341	993.045
219.465	139.836
223.586	17.49
227.706	102.016
231.823	209.497
235.939	695.024
240.052	3158.76
244.164	11922.2
248.274	7258.88
252.381	2127.55
256.487	1084.16
260.59	573.755
264.692	286.179
268.791	267.397
272.889	923.407
276.985	3313.81
281.078	1503.01
285.17	182.095
289.26	23.972
293.348	26.329
297.433	93.442
301.517	53.949
305.599	382.311
309.679	1280.25
313.757	1406.98
317.833	394.568
321.907	89.003
325.979	38.583
330.049	34.335
334.117	217.551
338.183	405.278
342.247	1463.83
346.31	5764.02
350.37	4418.44
354.428	1223.75
358.484	335.953
362.539	142.231
366.591	56.64
370.642	44.392
374.691	24.018
378.737	53.937
382.782	22.616
386.825	30.103
390.865	73.462
394.904	91.337
398.941	138.969
402.976	551.907
407.009	957.973
411.04	389.983
415.07	416.632
419.097	966.111
423.122	2056.43
427.146	1583.6
431.167	542.664
435.187	414.64
439.204	1205.71
443.22	1229.28
447.234	472.781
451.246	250.183
455.256	455.492
459.264	962.639
463.27	925.61
467.274	457.236
471.277	404.808
475.277	903.186
479.275	3041.48
483.272	1482.61
487.267	422.56
491.26	195.336
495.25	16.935
499.239	4.326
503.226	8.485
507.212	52.41
511.195	30.067
515.176	27.961
519.156	35.004
523.133	65.199
527.109	96.147
531.083	92.389
535.055	20.5
539.025	41.849
542.993	63.485
546.959	120.202
550.923	80.539
554.886	169.645
558.846	327.645
562.805	646.258
566.762	408.78
570.717	296.886
574.67	430.684
578.621	552.428
582.57	829.51
586.518	937.399
590.463	1126.33
594.407	1603.01
598.349	2765.43
602.289	5560.85
606.227	15320.1
610.163	28041
614.097	15851.6
618.03	6822.39
621.961	3943.09
625.889	4505.46
629.816	4185.59
633.741	2336.57
637.664	1562.26
641.586	1087.22
645.505	923.24
649.423	830.132
653.339	719.095
657.253	509.025
661.165	272.329
665.075	242.041
668.983	177.024
672.89	169.754
676.795	86.893
680.697	3.543
684.598	45.179
688.498	35.312
692.395	1.496
696.29	10.375
700.184	6.149
704.076	7.932
707.966	47.333
711.854	66.09
715.74	63.853
719.625	40.021
723.508	58.399
727.388	66.032
731.267	81.346
735.145	48.548
739.02	6.143
742.894	29.586
746.765	98.443
750.635	157.204
754.503	101.875
758.37	24.453
762.234	28.937
766.097	94.333
769.958	244.648
773.817	333.884
777.674	131.053
781.529	35.17
785.383	77.251
789.235	111.294
793.084	150.293
796.933	26.248
800.779	19.153
804.624	61.984
808.466	0.789
812.307	36.399
816.146	15.897
819.984	9.234
823.819	13.978
827.653	28.881
831.485	97.662
835.315	74.937
839.144	159.928
842.97	175.88
846.795	179.131
850.618	296.104
854.44	417.706
858.259	580.714
862.077	559.307
865.893	361.243
869.707	229.249
873.519	258.272
877.33	367.28
881.138	338.495
884.945	257.719
888.751	253.121
892.554	305.542
896.356	503.705
900.156	763.948
903.954	927.443
907.75	896.999
911.545	768.557
915.338	844.149
919.129	786.778
922.918	500.444
926.706	415.393
930.491	349.409
934.276	404.193
938.058	463.018
941.838	994.447
945.617	1719.02
949.394	1979.6
953.169	1337.38
956.943	771.168
960.715	599.041
964.485	913.344
968.253	1692.74
972.019	3257.21
975.784	2839.78
979.547	1438.43
983.308	863.188
987.068	670.085
990.826	501.136
994.582	479.335
998.336	834.658
1002.09	1539.08
1005.84	1646.59
1009.59	1979.39
1013.34	998.236
1017.08	712.766
1020.83	948.947
1024.57	1147.87
1028.31	1149.88
1032.05	645.967
1035.78	278.137
1039.52	192.389
1043.25	115.72
1046.98	140.13
1050.71	46.621
1054.44	49.191
1058.17	29.157
1061.89	27.434
1065.62	37.361
1069.34	257.234
1073.06	394.872
1076.78	664.813
1080.49	834.989
1084.21	771.632
1087.92	628.997
1091.63	647.472
1095.34	868.324
1099.05	1244.08
1102.76	1701.84
1106.46	2066.72
1110.16	1841.7
1113.86	1312.77
1117.56	932.893
1121.26	738.086
1124.95	497.343
1128.65	363.662
1132.34	294.04
1136.03	105.477
1139.72	7.029
1143.41	15.483
1147.1	19.876
1150.78	45.759
1154.46	77.426
1158.14	120.142
1161.82	299.909
1165.5	425.725
1169.17	663.589
1172.85	999.498
1176.52	1171.42
1180.19	900.412
1183.86	554.442
1187.53	335.51
1191.19	246.413
1194.86	118.279
1198.52	66.407
1202.18	4.394
1205.84	63.826
1209.49	74.487
1213.15	128.46
1216.8	130.459
1220.45	21.438
1224.11	20.219
1227.75	59.529
1231.4	3.712
1235.05	180.357
1238.69	322.77
1242.33	265.551
1245.97	313.885
1249.61	255.215
1253.25	155.564
1256.88	168.93
1260.52	129.313
1264.15	198.712
1267.78	400.126
1271.41	593.496
1275.04	481.399
1278.66	321.959
1282.29	229.858
1285.91	146.005
1289.53	81.5
1293.15	224
1296.76	241.446
1300.38	348.854
1303.99	235.201
1307.61	434.437
1311.22	497.567
1314.83	466.686
1318.43	409.797
1322.04	431.901
1325.64	168.996
1329.24	134
1332.85	106.922
1336.44	79.233
1340.04	73.231
1343.64	111.081
1347.23	113.542
1350.83	86.637
1354.42	26.875
1358.01	27.394
1361.59	11.55
1365.18	20.644
1368.76	48.369
1372.35	82.644
1375.93	196.336
1379.51	205.869
1383.09	229.405
1386.66	176.942
1390.24	87.476
1393.81	50
1397.38	36.553
1400.95	36.103
1404.52	52.653
1408.09	136.218
1411.65	47.812
1415.21	208.439
1418.78	180.111
1422.34	168.052
1425.9	205.266
1429.45	277.123
1433.01	417.936
1436.56	644.445
1440.12	1036.22
1443.67	1437.87
1447.21	1583.4
1450.76	1902.78
1454.31	1962.42
1457.85	1807.16
1461.39	1561.34
1464.94	1241.4
1468.47	889.881
1472.01	632.582
1475.55	557.566
1479.08	568.813
1482.62	626.399
1486.15	473.385
1489.68	370.272
1493.21	227.16
1496.73	149.145
1500.26	132.708
