Measurement: Raman, 514 nm, ccw, Raman Data Processed
Mineral: Danburite
Rruff sample: R040013
Ideal chemistry: CaB_2_Si_2_O_8_
Locality: Charcas, San Luis Potosi, Mexico
Source: Marcus Origlieri
Description: Colorless prismatic single crystal
Measured chemistry: Ca_1.00_B_2.00_Si_2.00_O_8_
Pin_id: M00010
Orientation: Laser parallel to a* (1 0 0). Fiducial mark perpendicular to laser is parallel to b [0 1 0]
Raman shift (cm-1)	intensity
110.209	0
114.384	1164.18
118.556	845.645
122.727	5458.28
126.895	7521.48
131.062	2664.74
135.226	444.164
139.388	433.483
143.549	77.186
147.707	103.456
151.863	371.878
156.018	60.555
160.17	1397.12
164.32	10020.3
168.469	1323.65
172.615	0.247
176.759	70.609
180.901	961.545
185.041	204.44
189.18	767.044
193.316	433.807
197.45	345.004
201.582	1867.12
205.712	1254.35
209.84	1899.65
213.967	343.007
218.091	61.699
222.213	65.482
226.333	166.705
230.451	50.154
234.567	136.944
238.682	1162.11
242.794	6041.26
246.904	3736.79
251.012	930.823
255.118	341.617
259.223	105.747
263.325	14.731
267.425	11.91
271.523	34.338
275.62	425.37
279.714	150.959
283.806	41.53
287.897	51.167
291.985	184.084
296.072	257.541
300.156	282.343
304.239	1064.37
308.319	1977.76
312.398	2113.22
316.474	606.313
320.549	166.947
324.622	94.663
328.692	199.417
332.761	241.11
336.828	573.704
340.893	2295.17
344.956	9745.55
349.017	7452.71
353.076	1778.92
357.133	611.334
361.188	322.154
365.241	151.401
369.292	102.829
373.341	66.979
377.388	16.182
381.434	0.656
385.477	27.497
389.519	128.86
393.558	347.55
397.596	140.756
401.631	126.559
405.665	225.689
409.697	137.155
413.727	271.17
417.755	572.93
421.781	1491.65
425.805	1181.28
429.827	361.26
433.847	133.273
437.865	314.24
441.882	333.54
445.896	94.751
449.909	27.87
453.919	120.882
457.928	241.798
461.935	228.631
465.94	159.385
469.943	402.092
473.944	1486.72
477.943	5854.27
481.94	2699.74
485.935	596.13
489.929	247.442
493.92	76.678
497.91	22.835
501.898	3.897
505.883	36.188
509.867	6.414
513.849	41.676
517.829	8.176
521.808	0.638
525.784	34.561
529.758	16.744
533.731	1.957
537.701	2.179
541.67	16.309
545.637	66.364
549.602	70.362
553.565	186.319
557.526	368.239
561.486	933.12
565.443	535.942
569.399	340.697
573.352	419.406
577.304	516.122
581.254	652.809
585.202	824.431
589.148	1228.99
593.093	1833.95
597.035	3174.9
600.976	6753.28
604.914	18684.6
608.851	36416.9
612.786	19159.1
616.719	7619.24
620.651	4169.32
624.58	3956.34
628.507	3327.3
632.433	1805.21
636.357	1156.06
640.279	822.509
644.199	688.678
648.117	522.068
652.034	407.465
655.948	314.385
659.861	258.578
663.772	206.809
667.681	185.735
671.588	160.76
675.493	155.138
679.397	83.306
683.298	105.562
687.198	96.634
691.096	119.644
694.992	48.531
698.886	84.812
702.779	55.33
706.669	102.394
710.558	99.416
714.445	218.396
718.33	146.533
722.214	86.43
726.095	37.286
729.975	75.101
733.852	57.883
737.728	29.634
741.603	43.893
745.475	65.025
749.345	59.665
753.214	71.271
757.081	84.843
760.946	79.383
764.809	75.891
768.671	123.368
772.53	247.815
776.388	263.235
780.244	105.63
784.098	2.109
787.951	0.589
791.801	3.798
795.65	21.814
799.497	6.552
803.342	0.111
807.186	9.496
811.027	30.506
814.867	3.293
818.705	56.868
822.541	18.996
826.375	18.9
830.208	6.859
834.039	14.131
837.868	1.904
841.695	16.041
845.521	23.972
849.344	35.895
853.166	12.188
856.986	126.717
860.804	64.619
864.621	105.517
868.436	46.415
872.248	90.313
876.06	132.106
879.869	111.004
883.677	135.518
887.482	181.769
891.287	219.689
895.089	352.612
898.889	530.544
902.688	659.495
906.485	682.46
910.28	865.438
914.074	1145.43
917.865	1174.44
921.655	1066.32
925.443	822.83
929.23	587.346
933.014	629.724
936.797	900.122
940.578	1470.36
944.358	2439.75
948.135	2696.3
951.911	1791.12
955.685	1136.38
959.458	950.499
963.228	1268.67
966.997	2354.55
970.764	4755.41
974.529	4065.67
978.293	2064.79
982.055	1222.3
985.815	916.865
989.573	756.268
993.33	766.913
997.085	856.6
1000.84	1186.33
1004.59	2306.11
1008.34	3096.93
1012.09	1311.81
1015.83	663.736
1019.58	447.733
1023.32	432.907
1027.06	424.058
1030.8	275.268
1034.54	171.529
1038.27	151.854
1042.01	135.244
1045.74	133.698
1049.47	113.764
1053.2	120.751
1056.93	57.35
1060.65	60.999
1064.38	120.701
1068.1	160.458
1071.82	200.289
1075.54	227.177
1079.25	274.923
1082.97	266.931
1086.68	347.027
1090.39	466.196
1094.11	661.203
1097.81	873.503
1101.52	1371.86
1105.22	1585.29
1108.93	1359.75
1112.63	1050.27
1116.33	689.013
1120.03	566.627
1123.72	434.247
1127.42	354.897
1131.11	212.574
1134.8	112.498
1138.49	74.292
1142.18	93.252
1145.87	48.62
1149.55	55.843
1153.23	10.799
1156.91	35.549
1160.59	49.014
1164.27	75.875
1167.95	118.694
1171.62	244.234
1175.3	304.652
1178.97	253.675
1182.64	115.049
1186.3	116.005
1189.97	93.897
1193.63	46.787
1197.3	82.875
1200.96	8.688
1204.62	75.727
1208.27	34.464
1211.93	83.74
1215.58	74.602
1219.24	54.524
1222.89	17.904
1226.54	22.585
1230.18	14.773
1233.83	93.771
1237.47	109.259
1241.12	55.806
1244.76	26.16
1248.4	44.359
1252.04	43.688
1255.67	110.249
1259.31	26.427
1262.94	28.56
1266.57	78.069
1270.2	76.598
1273.83	0.413
1277.45	46.372
1281.08	7.923
1284.7	19.289
1288.32	1.244
1291.94	29.674
1295.56	7.761
1299.17	29.51
1302.79	41.621
1306.4	6.619
1310.01	74.503
1313.62	28.279
1317.23	26.959
1320.84	42.55
1324.44	46.028
1328.04	24.414
1331.64	11.703
1335.24	50.883
1338.84	15.961
1342.44	8.135
1346.03	32.983
1349.63	14.208
1353.22	25.566
1356.81	1.844
1360.4	39.99
1363.98	27.375
1367.57	70.643
1371.15	64.811
1374.73	3.177
1378.32	57.613
1381.89	26.521
1385.47	54.094
1389.05	99.226
1392.62	3.223
1396.19	6.951
1399.76	42.74
1403.33	55.852
1406.9	83.253
1410.46	46.775
1414.03	24.064
1417.59	69.076
1421.15	8.773
1424.71	127.881
1428.27	103.512
1431.82	112.356
1435.38	96.743
1438.93	134.505
1442.48	241.817
1446.03	176.548
1449.58	234.865
1453.13	183.763
1456.67	296.579
1460.21	201.743
1463.76	179.243
1467.3	165.666
1470.83	145.573
1474.37	82.882
1477.91	161.253
1481.44	76.642
1484.97	94.206
1488.5	30.96
1492.03	26.685
1495.56	21.389
1499.08	1.843
