Measurement: Raman, 514 nm, ccw, Raman Data Processed
Mineral: Danburite
Rruff sample: R040013
Ideal chemistry: CaB_2_Si_2_O_8_
Locality: Charcas, San Luis Potosi, Mexico
Source: Marcus Origlieri
Description: Colorless prismatic single crystal
Measured chemistry: Ca_1.00_B_2.00_Si_2.00_O_8_
Pin_id: M00012
Orientation: Laser parallel to c* (0 0 1). Fiducial mark perpendicular to laser is parallel to a [1 0 0]
Raman shift (cm-1)	intensity
103.247	0
107.425	294.26
111.601	1165.84
115.775	1771.47
119.947	2827.11
124.116	6593.51
128.284	3843.81
132.45	1615.67
136.614	2556.21
140.775	3021.59
144.935	395.55
149.093	69.889
153.248	71.791
157.402	58.833
161.554	956.312
165.703	5530.31
169.851	990.944
173.996	72.229
178.14	13.379
182.281	467.814
186.421	985.992
190.558	3983.08
194.694	1358.95
198.827	327.777
202.959	460.081
207.088	1954.67
211.216	5808.94
215.341	1719.36
219.465	330.619
223.586	134.004
227.706	285.264
231.823	525.47
235.939	1322.09
240.052	5476.04
244.164	19378.6
248.274	11655.1
252.381	3366.4
256.487	1544.99
260.59	846.924
264.692	402.645
268.791	373.849
272.889	1027.62
276.985	3193.69
281.078	1472.59
285.17	207.351
289.26	23.991
293.348	34.56
297.433	71.348
301.517	16.558
305.599	188.506
309.679	769.164
313.757	863.65
317.833	281.968
321.907	16.106
325.979	7.959
330.049	9.284
334.117	165.165
338.183	241.419
342.247	879.482
346.31	3325.63
350.37	2550.56
354.428	726.644
358.484	184.4
362.539	17.722
366.591	3.453
370.642	0.382
374.691	70.527
378.737	39.953
382.782	2.186
386.825	79.431
390.865	149.159
394.904	106.663
398.941	164.381
402.976	611.177
407.009	1018.23
411.04	518.165
415.07	657.571
419.097	1407.78
423.122	2901.82
427.146	2296.7
431.167	819.421
435.187	805.253
439.204	2206.84
443.22	2410.59
447.234	854.461
451.246	443.746
455.256	521.64
459.264	936.327
463.27	907.805
467.274	479.838
471.277	314.595
475.277	599.402
479.275	1603.5
483.272	765.937
487.267	245.161
491.26	70.17
495.25	26.936
499.239	11.556
503.226	10.667
507.212	61.204
511.195	5.302
515.176	23.763
519.156	82.88
523.133	142.111
527.109	122.927
531.083	5.689
535.055	60.599
539.025	57.565
542.993	54.895
546.959	104.986
550.923	90.789
554.886	199.339
558.846	279.589
562.805	462.465
566.762	304.579
570.717	329.18
574.67	375.063
578.621	534.737
582.57	756.888
586.518	947.557
590.463	1135.92
594.407	1558.07
598.349	2613.56
602.289	5268.32
606.227	14015.6
610.163	26094.5
614.097	14673.4
618.03	6298.23
621.961	4038.12
625.889	5538.45
629.816	5289.6
633.741	2780.8
637.664	1736.78
641.586	1314.83
645.505	1078.95
649.423	1006.03
653.339	916.443
657.253	606.005
661.165	327.216
665.075	255.542
668.983	242.591
672.89	150.436
676.795	107.034
680.697	5.375
684.598	8.415
688.498	30.14
692.395	12.263
696.29	35.303
700.184	5.241
704.076	52.003
707.966	0.041
711.854	19.675
715.74	27.872
719.625	53.697
723.508	2.243
727.388	21.005
731.267	45.626
735.145	12.882
739.02	26.467
742.894	36.691
746.765	96.802
750.635	165.808
754.503	139.713
758.37	3.484
762.234	128.208
766.097	200.807
769.958	338.316
773.817	419.745
777.674	261.112
781.529	120.43
785.383	95.708
789.235	193.951
793.084	177.149
796.933	107.303
800.779	28.408
804.624	10.459
808.466	69.458
812.307	67.404
816.146	26.957
819.984	17.98
823.819	12.628
827.653	20.967
831.485	153.807
835.315	203.947
839.144	172.048
842.97	215.705
846.795	238.212
850.618	309.082
854.44	481.311
858.259	601.875
862.077	682.306
865.893	412.844
869.707	313.089
873.519	328.647
877.33	427.845
881.138	378.158
884.945	344.876
888.751	344.626
892.554	429.408
896.356	652.654
900.156	900.502
903.954	1015.39
907.75	907.318
911.545	687.29
915.338	725.308
919.129	590.373
922.918	407.499
926.706	256.951
930.491	279.422
934.276	278.89
938.058	339.222
941.838	649.595
945.617	1058.07
949.394	1202.58
953.169	884.509
956.943	539.195
960.715	396.549
964.485	544.433
968.253	1226.42
972.019	2281.53
975.784	1995.76
979.547	978.113
983.308	570.626
987.068	521.281
990.826	376.102
994.582	350.081
998.336	608.191
1002.09	1298.41
1005.84	1162.73
1009.59	1217.16
1013.34	694.987
1017.08	590.292
1020.83	916.427
1024.57	1120.31
1028.31	1100.21
1032.05	734.204
1035.78	267.298
1039.52	164.485
1043.25	82.765
1046.98	107.138
1050.71	47.603
1054.44	1.162
1058.17	34.187
1061.89	30.453
1065.62	120.365
1069.34	245.273
1073.06	428.987
1076.78	698.524
1080.49	916.752
1084.21	865.083
1087.92	634.527
1091.63	867.533
1095.34	1056.6
1099.05	1471.89
1102.76	2070.77
1106.46	2503.77
1110.16	2291.89
1113.86	1575.11
1117.56	1101.41
1121.26	908.79
1124.95	633.241
1128.65	498.763
1132.34	293.357
1136.03	180.019
1139.72	15.771
1143.41	51.398
1147.1	46.459
1150.78	44.352
1154.46	72.286
1158.14	154.273
1161.82	248.32
1165.5	377.427
1169.17	666.59
1172.85	1081.81
1176.52	1162.08
1180.19	853.396
1183.86	608.763
1187.53	400.163
1191.19	101.333
1194.86	111.579
1198.52	9.115
1202.18	21.497
1205.84	75.015
1209.49	37.01
1213.15	149.535
1216.8	168.444
1220.45	11.085
1224.11	27.5
1227.75	33.367
1231.4	78.883
1235.05	253.895
1238.69	333.166
1242.33	281.655
1245.97	299.461
1249.61	279.293
1253.25	165.151
1256.88	51.033
1260.52	136.939
1264.15	275.866
1267.78	538.814
1271.41	564.133
1275.04	562.516
1278.66	374.533
1282.29	204.877
1285.91	125.502
1289.53	144.494
1293.15	243.546
1296.76	317.553
1300.38	309.526
1303.99	336.456
1307.61	460.282
1311.22	518.988
1314.83	509.676
1318.43	449.358
1322.04	402.036
1325.64	247.624
1329.24	141.173
1332.85	76.687
1336.44	46.439
1340.04	80.427
1343.64	54.792
1347.23	65.132
1350.83	13.559
1354.42	17.121
1358.01	82.342
1361.59	27.026
1365.18	15.337
1368.76	22.792
1372.35	88.439
1375.93	213.522
1379.51	230.678
1383.09	183.841
1386.66	117.01
1390.24	91.11
1393.81	68.266
1397.38	97.544
1400.95	6.647
1404.52	28.843
1408.09	95.056
1411.65	127.299
1415.21	225.582
1418.78	242.913
1422.34	125.177
1425.9	128.632
1429.45	317.671
1433.01	393.149
1436.56	596.346
1440.12	1204.37
1443.67	1552.52
1447.21	1862.52
1450.76	2177.68
1454.31	2191.85
1457.85	2030.78
1461.39	1700.05
1464.94	1250.24
1468.47	947.651
1472.01	681.17
1475.55	599.908
1479.08	513.17
1482.62	589.559
1486.15	414.214
1489.68	337.658
1493.21	134.888
1496.73	116.833
1500.26	97.619
