Measurement: Raman, 514 nm, ccw, Raman Data Processed
Mineral: Danburite
Rruff sample: R040013
Ideal chemistry: CaB_2_Si_2_O_8_
Locality: Charcas, San Luis Potosi, Mexico
Source: Marcus Origlieri
Description: Colorless prismatic single crystal
Measured chemistry: Ca_1.00_B_2.00_Si_2.00_O_8_
Pin_id: M00009
Orientation: Laser parallel to b* (0 1 0). Fiducial mark perpendicular to laser is parallel to -c [0 0 -1]
Raman shift (cm-1)	intensity
106.032	0
110.209	1295.03
114.384	2176.11
118.556	1466.4
122.727	5472.73
126.895	1975.13
131.062	344.309
135.226	128.88
139.388	37.851
143.549	19.931
147.707	32.694
151.863	37.71
156.018	8.174
160.17	357.764
164.32	2708.03
168.469	694.555
172.615	234.574
176.759	1282.79
180.901	5740.2
185.041	2297.51
189.18	1656.84
193.316	3504.17
197.45	689.489
201.582	542.74
205.712	2065.84
209.84	7330.93
213.967	2433.05
218.091	612.184
222.213	1373.33
226.333	3963.49
230.451	1155.66
234.567	1628.85
238.682	5587.49
242.794	21567.7
246.904	16243.8
251.012	3821.58
255.118	1452.75
259.223	711.311
263.325	466.512
267.425	488.501
271.523	310.167
275.62	193.362
279.714	197.292
283.806	326.255
287.897	949.3
291.985	3091.64
296.072	3582.99
300.156	954.232
304.239	431.692
308.319	604.894
312.398	766.099
316.474	214.302
320.549	139.496
324.622	153.665
328.692	597.797
332.761	279.894
336.828	126.954
340.893	358.975
344.956	1479.96
349.017	1394.9
353.076	293.745
357.133	46.735
361.188	29.275
365.241	55.887
369.292	30.404
373.341	85.297
377.388	48.675
381.434	1.693
385.477	19.858
389.519	42.576
393.558	78.036
397.596	125.165
401.631	144.819
405.665	204.672
409.697	334.323
413.727	626.779
417.755	1419.17
421.781	3182.51
425.805	2919.8
429.827	931.051
433.847	717.262
437.865	2495.44
441.882	3353.59
445.896	1063.71
449.909	459.779
453.919	466.785
457.928	1510.72
461.935	605.593
465.94	163.394
469.943	234.13
473.944	413.789
477.943	1736.37
481.94	1111.87
485.935	289.296
489.929	79.64
493.92	31.904
497.91	15.073
501.898	28.115
505.883	44.34
509.867	2.137
513.849	18.279
517.829	61.2
521.808	29.999
525.784	10.789
529.758	15.347
533.731	7.826
537.701	6.048
541.67	40.184
545.637	45.369
549.602	27.36
553.565	120.89
557.526	196.529
561.486	227.992
565.443	280.112
569.399	432.896
573.352	383.111
577.304	311
581.254	396.405
585.202	548.741
589.148	814.177
593.093	1261.72
597.035	2080.12
600.976	4319.29
604.914	11439.3
608.851	24578
612.786	14415.8
616.719	5657.61
620.651	3644.3
624.58	5296.92
628.507	5997.47
632.433	2675.95
636.357	1338.21
640.279	931.468
644.199	726.728
648.117	626.852
652.034	514.097
655.948	400.694
659.861	299.205
663.772	219.926
667.681	208.996
671.588	335.226
675.493	299.289
679.397	110.655
683.298	81.477
687.198	69.392
691.096	160.9
694.992	79.677
698.886	3.424
702.779	2.895
706.669	28.717
710.558	1.759
714.445	70.661
718.33	89.004
722.214	52.205
726.095	22.36
729.975	55.457
733.852	139.503
737.728	25.49
741.603	29.572
745.475	48.295
749.345	33.111
753.214	83.871
757.081	130.59
760.946	100.273
764.809	167.919
768.671	393.531
772.53	558.11
776.388	374.658
780.244	154.186
784.098	46.713
787.951	8.244
791.801	77.762
795.65	27.276
799.497	52.247
803.342	36.882
807.186	25.591
811.027	22.638
814.867	8.827
818.705	17.998
822.541	29.156
826.375	61.174
830.208	26.302
834.039	96.804
837.868	144.672
841.695	107.165
845.521	181.148
849.344	142.812
853.166	201.557
856.986	336.807
860.804	401.665
864.621	489.368
868.436	555.35
872.248	511.1
876.06	492.895
879.869	469.031
883.677	424.046
887.482	500.357
891.287	833.505
895.089	1282.66
898.889	1475.85
902.688	1277.06
906.485	998.295
910.28	686.548
914.074	508.823
917.865	402.123
921.655	259.461
925.443	215.779
929.23	168.139
933.014	123.57
936.797	107.101
940.578	130.14
944.358	173.265
948.135	215.41
951.911	280.751
955.685	341.358
959.458	329.001
963.228	474.773
966.997	1098.6
970.764	2772.48
974.529	2676.41
978.293	1077.38
982.055	581.406
985.815	529.5
989.573	538.659
993.33	701.885
997.085	729.18
1000.84	857.524
1004.59	534.915
1008.34	335.354
1012.09	170.843
1015.83	143.381
1019.58	234.974
1023.32	212.626
1027.06	249.664
1030.8	114.422
1034.54	218.223
1038.27	570.077
1042.01	509.978
1045.74	168.923
1049.47	104.905
1053.2	110.98
1056.93	87.038
1060.65	24.131
1064.38	28.468
1068.1	81.784
1071.82	131.878
1075.54	232.419
1079.25	363.953
1082.97	452.108
1086.68	508.674
1090.39	670.349
1094.11	1026.2
1097.81	1473.8
1101.52	2311.23
1105.22	2735.11
1108.93	2552.94
1112.63	1737.79
1116.33	1247.66
1120.03	898.54
1123.72	680.429
1127.42	535.325
1131.11	354.385
1134.8	279.324
1138.49	112.238
1142.18	61.155
1145.87	15.077
1149.55	101.999
1153.23	111.138
1156.91	86.721
1160.59	106.614
1164.27	68.511
1167.95	40.441
1171.62	36.568
1175.3	10.631
1178.97	56.411
1182.64	11.836
1186.3	22.871
1189.97	73.531
1193.63	42.157
1197.3	29.729
1200.96	66.509
1204.62	62.37
1208.27	40.916
1211.93	57.032
1215.58	47.715
1219.24	61.122
1222.89	28.896
1226.54	82.844
1230.18	19.244
1233.83	18.047
1237.47	172.206
1241.12	170.25
1244.76	80.12
1248.4	231.89
1252.04	96.595
1255.67	56.249
1259.31	19.938
1262.94	48.451
1266.57	116.08
1270.2	105.535
1273.83	167.966
1277.45	101.749
1281.08	94.851
1284.7	53.177
1288.32	70.328
1291.94	53.95
1295.56	83.664
1299.17	29.732
1302.79	46.694
1306.4	168.906
1310.01	230.929
1313.62	167.589
1317.23	213.096
1320.84	195.351
1324.44	126.959
1328.04	18.227
1331.64	70.42
1335.24	44.246
1338.84	0.588
1342.44	61.911
1346.03	60.484
1349.63	42.111
1353.22	6.478
1356.81	44.731
1360.4	60.597
1363.98	58.514
1367.57	47.403
1371.15	35.877
1374.73	28.735
1378.32	33.664
1381.89	35.317
1385.47	121.983
1389.05	130.557
1392.62	109.995
1396.19	52.03
1399.76	34.118
1403.33	1.749
1406.9	85.884
1410.46	13.667
1414.03	32.391
1417.59	43.699
1421.15	104.992
1424.71	68.245
1428.27	127.026
1431.82	260.646
1435.38	315.727
1438.93	440.623
1442.48	641.698
1446.03	659.463
1449.58	797.253
1453.13	853.398
1456.67	870.076
1460.21	780.178
1463.76	654.848
1467.3	487.619
1470.83	454.339
1474.37	308.999
1477.91	318.554
1481.44	205.477
1484.97	254.031
1488.5	218.187
1492.03	100.279
1495.56	0.067
1499.08	3.144
