Measurement: Raman, 514 nm, ccw, Raman Data Processed
Mineral: Danburite
Rruff sample: R040013
Ideal chemistry: CaB_2_Si_2_O_8_
Locality: Charcas, San Luis Potosi, Mexico
Source: Marcus Origlieri
Description: Colorless prismatic single crystal
Measured chemistry: Ca_1.00_B_2.00_Si_2.00_O_8_
Pin_id: M00009
Orientation: Laser parallel to b* (0 1 0). Fiducial mark perpendicular to laser is parallel to -c [0 0 -1]
Raman shift (cm-1)	intensity
103.247	0
107.425	121.463
111.601	384.843
115.775	1351.99
119.947	3205.53
124.116	9992.99
128.284	2186.81
132.45	491.449
136.614	222.815
140.775	119.046
144.935	34.96
149.093	12.375
153.248	4.819
157.402	77.299
161.554	882.745
165.703	4759.58
169.851	685.579
173.996	172.067
178.14	426.747
182.281	1085.37
186.421	295.988
190.558	369.633
194.694	408.315
198.827	448.039
202.959	1079.8
207.088	5024.57
211.216	11776.4
215.341	2834.62
219.465	913.147
223.586	718.41
227.706	925.297
231.823	1335.29
235.939	3382.86
240.052	13140
244.164	42327.2
248.274	19352.3
252.381	5367.72
256.487	2170.55
260.59	997.87
264.692	572.455
268.791	390.198
272.889	239.055
276.985	181.987
281.078	92.924
285.17	55.922
289.26	91.967
293.348	214.046
297.433	180.129
301.517	74.943
305.599	157.501
309.679	615.637
313.757	522.771
317.833	118.899
321.907	12.985
325.979	6.106
330.049	6.17
334.117	41.207
338.183	94.209
342.247	342.129
346.31	1479.75
350.37	818.953
354.428	163.302
358.484	32.965
362.539	6.396
366.591	8.519
370.642	12.312
374.691	21.546
378.737	3.584
382.782	70.67
386.825	71.619
390.865	109.548
394.904	163.109
398.941	205.335
402.976	264.614
407.009	412.691
411.04	659.725
415.07	1355.71
419.097	2914.65
423.122	5807.54
427.146	3632.38
431.167	1309.16
435.187	1622.89
439.204	5432.57
443.22	4356.2
447.234	1400.76
451.246	529.28
455.256	343.742
459.264	236.041
463.27	196.481
467.274	142.509
471.277	104.65
475.277	67.207
479.275	147.547
483.272	89.385
487.267	10.701
491.26	15.103
495.25	1.195
499.239	21.393
503.226	10.133
507.212	3.128
511.195	23.99
515.176	36.129
519.156	13.48
523.133	18.372
527.109	62.135
531.083	17.837
535.055	20.474
539.025	34.046
542.993	35.561
546.959	76.031
550.923	104.45
554.886	116.81
558.846	142.148
562.805	186.966
566.762	157.144
570.717	278.298
574.67	324.635
578.621	410.339
582.57	646.645
586.518	793.517
590.463	1181.33
594.407	1810.1
598.349	3208.84
602.289	7144.46
606.227	20595
610.163	32405.5
614.097	15186
618.03	6506.4
621.961	5011.76
625.889	9107.07
629.816	7295.7
633.741	3061.72
637.664	1631.32
641.586	1286.29
645.505	1009.01
649.423	806.707
653.339	570.698
657.253	438.441
661.165	307.183
665.075	228.165
668.983	163.508
672.89	174.577
676.795	146.049
680.697	123.452
684.598	127.501
688.498	89.404
692.395	28.225
696.29	16.51
700.184	20.173
704.076	39.791
707.966	81.372
711.854	23.924
715.74	22.441
719.625	16.924
723.508	55.362
727.388	14.768
731.267	21.151
735.145	38.488
739.02	59.822
742.894	83.112
746.765	108.383
750.635	113.637
754.503	72.875
758.37	68.099
762.234	249.307
766.097	344.504
769.958	680.706
773.817	718.917
777.674	381.137
781.529	175.37
785.383	67.624
789.235	25.906
793.084	2.769
796.933	5.429
800.779	13.904
804.624	35.249
808.466	20.404
812.307	32.073
816.146	34.771
819.984	23.491
823.819	50.768
827.653	2.011
831.485	2.2
835.315	21.367
839.144	74.556
842.97	32.204
846.795	165.425
850.618	148.616
854.44	190.576
858.259	241.109
862.077	251.011
865.893	199.283
869.707	279.585
873.519	253.868
877.33	214.171
881.138	262.529
884.945	382.91
888.751	520.312
892.554	710.74
896.356	1080.2
900.156	1427.69
903.954	1369.2
907.75	940.746
911.545	638.317
915.338	436.917
919.129	313.545
922.918	240.203
926.706	158.893
930.491	95.571
934.276	54.961
938.058	53.75
941.838	35.158
945.617	65.546
949.394	124.238
953.169	59.837
956.943	114.194
960.715	203.309
964.485	391.072
968.253	981.079
972.019	2131.61
975.784	1514.77
979.547	786.986
983.308	488.248
987.068	305.553
990.826	306.908
994.582	364.314
998.336	446.773
1002.09	487.281
1005.84	363.834
1009.59	256.438
1013.34	152.095
1017.08	199.816
1020.83	149.606
1024.57	149.452
1028.31	70.368
1032.05	50
1035.78	136.984
1039.52	225.013
1043.25	199.084
1046.98	70.202
1050.71	88.901
1054.44	63.579
1058.17	24.829
1061.89	127.68
1065.62	156.11
1069.34	181.484
1073.06	174.908
1076.78	271.64
1080.49	386.181
1084.21	500.799
1087.92	685.484
1091.63	1008.27
1095.34	1501.11
1099.05	2292.04
1102.76	3180.01
1106.46	3730.05
1110.16	3218.13
1113.86	2300.23
1117.56	1573.41
1121.26	1155.57
1124.95	779.748
1128.65	554.071
1132.34	434.477
1136.03	263.728
1139.72	160.998
1143.41	145.286
1147.1	103.015
1150.78	99.84
1154.46	61.175
1158.14	2.209
1161.82	33.867
1165.5	20.505
1169.17	107.997
1172.85	109.33
1176.52	103.815
1180.19	66.448
1183.86	46.339
1187.53	65.639
1191.19	15.073
1194.86	42.189
1198.52	10.446
1202.18	73.271
1205.84	51.509
1209.49	39.042
1213.15	33.655
1216.8	61.364
1220.45	2.988
1224.11	60.317
1227.75	14.201
1231.4	39.388
1235.05	62.832
1238.69	133.771
1242.33	63.541
1245.97	17.556
1249.61	79.578
1253.25	44.317
1256.88	50.283
1260.52	63.345
1264.15	127.069
1267.78	95.984
1271.41	149.503
1275.04	54.305
1278.66	21.255
1282.29	37.407
1285.91	40.286
1289.53	41.942
1293.15	113.565
1296.76	59.486
1300.38	55.437
1303.99	46.223
1307.61	2.853
1311.22	8.623
1314.83	76.811
1318.43	104.161
1322.04	84.19
1325.64	111.023
1329.24	78.991
1332.85	58.953
1336.44	54.799
1340.04	11.276
1343.64	29.11
1347.23	5.39
1350.83	85.24
1354.42	46.966
1358.01	27.815
1361.59	19.243
1365.18	38.203
1368.76	67.092
1372.35	36.173
1375.93	96.69
1379.51	67.288
1383.09	21.676
1386.66	51.901
1390.24	35.219
1393.81	70.029
1397.38	54.518
1400.95	8.362
1404.52	101.965
1408.09	89.293
1411.65	141.915
1415.21	136.488
1418.78	87.09
1422.34	155.434
1425.9	112.517
1429.45	108.871
1433.01	156.954
1436.56	290.104
1440.12	361.679
1443.67	431.3
1447.21	462.091
1450.76	526.993
1454.31	519.531
1457.85	449.538
1461.39	381.725
1464.94	354.697
1468.47	247.051
1472.01	210.994
1475.55	231.816
1479.08	169.62
1482.62	155.572
1486.15	65.902
1489.68	120.546
1493.21	56.691
1496.73	6.324
1500.26	18.039
