Measurement: Raman, 514 nm, ccw, Raman Data Processed
Mineral: Danburite
Rruff sample: R040013
Ideal chemistry: CaB_2_Si_2_O_8_
Locality: Charcas, San Luis Potosi, Mexico
Source: Marcus Origlieri
Description: Colorless prismatic single crystal
Measured chemistry: Ca_1.00_B_2.00_Si_2.00_O_8_
Pin_id: M00012
Orientation: Laser parallel to c* (0 0 1). Fiducial mark perpendicular to laser is parallel to a [1 0 0]
Raman shift (cm-1)	intensity
97.673	0
101.854	291.111
106.032	346.834
110.209	509.796
114.384	691.875
118.556	1594.41
122.727	5684.51
126.895	9830.63
131.062	9706.45
135.226	1707.19
139.388	568.04
143.549	142.002
147.707	15.656
151.863	16.524
156.018	100.485
160.17	1594.36
164.32	10479.6
168.469	6342.12
172.615	756.607
176.759	39.121
180.901	73.804
185.041	17.109
189.18	77.771
193.316	34.469
197.45	108.85
201.582	5.081
205.712	365.924
209.84	1509.7
213.967	905.335
218.091	101.797
222.213	13.963
226.333	68.151
230.451	36.443
234.567	167.213
238.682	876.246
242.794	4135.2
246.904	6010.55
251.012	1975.72
255.118	714.029
259.223	365.934
263.325	218.777
267.425	112.357
271.523	68.754
275.62	99.878
279.714	119.763
283.806	14.604
287.897	80.269
291.985	50.288
296.072	28.2
300.156	226.175
304.239	681.845
308.319	2272.72
312.398	4314.31
316.474	1963.5
320.549	627.481
324.622	283.361
328.692	270.49
332.761	335.407
336.828	702.499
340.893	2284.79
344.956	9915.68
349.017	16051.1
353.076	4971.87
357.133	1517.34
361.188	680.035
365.241	334.731
369.292	172.889
373.341	118.653
377.388	50.812
381.434	42.229
385.477	41.306
389.519	80.759
393.558	105.525
397.596	58.336
401.631	71.441
405.665	75.93
409.697	149.141
413.727	235.215
417.755	501.979
421.781	1460.79
425.805	1974.5
429.827	765.39
433.847	198.341
437.865	102.737
441.882	220.434
445.896	31.575
449.909	30.31
453.919	6.362
457.928	65.448
461.935	207.159
465.94	178.765
469.943	320.269
473.944	1241.67
477.943	5835.98
481.94	5956.2
485.935	1471.32
489.929	403.367
493.92	168.405
497.91	60.355
501.898	10.186
505.883	6.868
509.867	11.393
513.849	21.801
517.829	73.134
521.808	45.756
525.784	27.09
529.758	70.194
533.731	38.662
537.701	5.258
541.67	7.651
545.637	78.752
549.602	145.197
553.565	146.841
557.526	395.256
561.486	1288.28
565.443	1156.99
569.399	665.322
573.352	590.72
577.304	640.267
581.254	918.924
585.202	1262.6
589.148	1636.6
593.093	2281.15
597.035	3758.75
600.976	7587.23
604.914	18931.1
608.851	46075.3
612.786	37170.2
616.719	15294.6
620.651	7478.5
624.58	5598.25
628.507	5244.9
632.433	3148.46
636.357	2072.91
640.279	1646.15
644.199	1579.36
648.117	1376.39
652.034	1109.34
655.948	889.364
659.861	586.888
663.772	388.143
667.681	273.284
671.588	220.435
675.493	183.598
679.397	139.965
683.298	113.286
687.198	47.465
691.096	18.386
694.992	49.794
698.886	14.888
702.779	7.121
706.669	8.283
710.558	50.571
714.445	28.023
718.33	6.63
722.214	16.387
726.095	6.277
729.975	22.264
733.852	14.679
737.728	15.438
741.603	0.642
745.475	1.067
749.345	29.284
753.214	55.293
757.081	2.82
760.946	107.292
764.809	129.724
768.671	147.116
772.53	187.473
776.388	217.796
780.244	115.089
784.098	137.364
787.951	79.642
791.801	74.919
795.65	142.192
799.497	79.47
803.342	43.738
807.186	29.998
811.027	21.744
814.867	1.498
818.705	57.755
822.541	143.017
826.375	151.112
830.208	64.476
834.039	113.261
837.868	202.22
841.695	332.274
845.521	377.899
849.344	410.863
853.166	412.202
856.986	621.361
860.804	745.694
864.621	767.454
868.436	512.804
872.248	313.158
876.06	281.489
879.869	318.725
883.677	328.883
887.482	395.853
891.287	462.705
895.089	541.098
898.889	664.062
902.688	924.085
906.485	1179.17
910.28	1341.31
914.074	1588.53
917.865	1484.8
921.655	959.232
925.443	663.865
929.23	702.504
933.014	800.058
936.797	1131.68
940.578	1638.39
944.358	2937.17
948.135	4050.78
951.911	3298.72
955.685	1994.68
959.458	1512.8
963.228	1470.01
966.997	2291.31
970.764	5100.71
974.529	6451.2
978.293	3862.8
982.055	2170.53
985.815	1526.38
989.573	1119.37
993.33	904.492
997.085	1142.75
1000.84	1914.04
1004.59	3060.61
1008.34	5080.22
1012.09	2993.57
1015.83	1171.91
1019.58	917.785
1023.32	972.121
1027.06	1020.23
1030.8	753.418
1034.54	339.7
1038.27	131.066
1042.01	47.516
1045.74	15.049
1049.47	57.666
1053.2	85.364
1056.93	84.141
1060.65	18.993
1064.38	28.919
1068.1	49.939
1071.82	171.019
1075.54	380.186
1079.25	696.807
1082.97	770.724
1086.68	616.168
1090.39	548.71
1094.11	630.725
1097.81	945.672
1101.52	1399.5
1105.22	1909.44
1108.93	1977.46
1112.63	1517.56
1116.33	970.729
1120.03	663.967
1123.72	414.261
1127.42	345.611
1131.11	276.012
1134.8	217.463
1138.49	107.966
1142.18	8.521
1145.87	46.881
1149.55	101.276
1153.23	33.7
1156.91	33.847
1160.59	153.407
1164.27	234.005
1167.95	356.637
1171.62	603.302
1175.3	602.996
1178.97	554.717
1182.64	329.461
1186.3	218.227
1189.97	252.926
1193.63	75.51
1197.3	52.061
1200.96	43.007
1204.62	3.852
1208.27	68.376
1211.93	30.036
1215.58	147.288
1219.24	87.555
1222.89	123.442
1226.54	89.251
1230.18	59.844
1233.83	96.3
1237.47	194.913
1241.12	140.48
1244.76	209.369
1248.4	267.278
1252.04	302.049
1255.67	256.821
1259.31	179.592
1262.94	165.361
1266.57	243.127
1270.2	289.32
1273.83	380.574
1277.45	331.815
1281.08	278.268
1284.7	255.44
1288.32	223.346
1291.94	257.084
1295.56	229.767
1299.17	119.381
1302.79	143.906
1306.4	250.301
1310.01	383.592
1313.62	438.805
1317.23	470.992
1320.84	445.151
1324.44	392.263
1328.04	183.288
1331.64	111.225
1335.24	32.877
1338.84	47.414
1342.44	19.224
1346.03	27.479
1349.63	13.133
1353.22	35.737
1356.81	11.926
1360.4	23.734
1363.98	29.174
1367.57	30.552
1371.15	44.758
1374.73	45.527
1378.32	37.929
1381.89	131.356
1385.47	171.751
1389.05	203.095
1392.62	97.419
1396.19	18.849
1399.76	49.298
1403.33	0.279
1406.9	11.866
1410.46	88.55
1414.03	61.977
1417.59	43.429
1421.15	110.546
1424.71	181.079
1428.27	237.144
1431.82	314.39
1435.38	477.482
1438.93	742.403
1442.48	944.481
1446.03	990.377
1449.58	1117.06
1453.13	1241.74
1456.67	1341.5
1460.21	1301.65
1463.76	1036.49
1467.3	832.658
1470.83	655.87
1474.37	509.418
1477.91	478.066
1481.44	385.818
1484.97	318.759
1488.5	215.331
1492.03	32.52
1495.56	40.319
1499.08	43.333
