Measurement: Raman, 514 nm, ccw, Raman Data Processed
Mineral: Danburite
Rruff sample: R040013
Ideal chemistry: CaB_2_Si_2_O_8_
Locality: Charcas, San Luis Potosi, Mexico
Source: Marcus Origlieri
Description: Colorless prismatic single crystal
Measured chemistry: Ca_1.00_B_2.00_Si_2.00_O_8_
Pin_id: M00010
Orientation: Laser parallel to a* (1 0 0). Fiducial mark perpendicular to laser is parallel to b [0 1 0]
Raman shift (cm-1)	intensity
117.166	0
121.337	700.266
125.506	685.968
129.673	386.025
133.838	8.471
138.001	371.648
142.162	33.136
146.321	81.811
150.478	916.957
154.633	54.194
158.786	56.754
162.937	971.167
167.086	679.259
171.233	618.771
175.378	3210.52
179.521	14764.6
183.662	6400.9
187.8	1403.51
191.937	978.532
196.072	526.39
200.205	1591.66
204.336	2291.77
208.465	1490.06
212.591	727.296
216.716	95.466
220.839	4.596
224.96	232.681
229.079	38.716
233.195	47.696
237.31	479.612
241.423	2819.46
245.534	4251.06
249.643	1110.94
253.75	367.449
257.855	133.707
261.958	52.916
266.059	3.911
270.158	16.527
274.255	152.742
278.35	268.538
282.443	23.477
286.534	35.279
290.623	164.621
294.71	299.126
298.795	235.083
302.878	797.992
306.959	1306.71
311.038	2339.5
315.116	1047.23
319.191	311.873
323.264	142.441
327.336	152.947
331.405	205.401
335.473	297.793
339.538	969.115
343.602	4270.35
347.663	7058.51
351.723	1797.47
355.78	505.38
359.836	201.241
363.89	101.237
367.942	1.533
371.992	13.089
376.04	40.622
380.086	57.964
384.13	9.758
388.172	125.181
392.212	390.179
396.25	258.632
400.286	102.005
404.321	126.051
408.353	77.917
412.384	102.092
416.412	313.174
420.439	683.864
424.464	944.595
428.486	337.054
432.507	170.634
436.526	493.83
440.543	974.402
444.558	344.928
448.572	87.407
452.583	82.853
456.592	224.261
460.6	285.625
464.605	270.944
468.609	506.22
472.61	1764.45
476.61	8318.65
480.608	8967.8
484.604	1944.9
488.598	633.971
492.59	329
496.58	164.991
500.569	78.947
504.555	61.867
508.54	17.75
512.522	7.071
516.503	7.029
520.482	9.511
524.459	4.905
528.434	0.816
532.407	27.547
536.378	6.183
540.348	16.81
544.315	39.429
548.281	73.048
552.244	173.663
556.206	290.268
560.166	763.867
564.124	510.448
568.08	227.009
572.035	265.558
575.987	290.154
579.938	464.759
583.886	632.343
587.833	882.931
591.778	1286.49
595.721	2221.33
599.662	4457.84
603.602	11432.3
607.539	29297.8
611.475	22843.3
615.408	8848.73
619.34	4377.15
623.27	4267.55
627.199	4940.94
631.125	2595.3
635.049	1328.66
638.972	925.995
642.893	645.318
646.811	498.625
650.728	366.843
654.644	328.58
658.557	238.985
662.468	178.583
666.378	135.066
670.286	132.563
674.192	106.611
678.096	108.577
681.998	72.833
685.898	56.486
689.797	59.893
693.694	78.933
697.589	79.455
701.482	65.728
705.373	28.982
709.262	80.218
713.15	106.839
717.035	149.155
720.919	79.333
724.801	29.493
728.682	34.632
732.56	20.751
736.437	51.848
740.311	36.918
744.184	59.971
748.055	28.004
751.925	54.018
755.792	45.014
759.658	27.991
763.522	74.95
767.384	136.892
771.244	276.817
775.102	372.724
778.959	218.614
782.814	68.488
786.667	15.345
790.518	15.184
794.367	46
798.215	48.766
802.061	5.526
805.905	20.734
809.747	1.026
813.587	25.481
817.426	27.736
821.263	43.185
825.098	13.707
828.931	26.286
832.762	0.088
836.592	15.44
840.42	27.776
844.246	30.1
848.07	38.412
851.892	12.704
855.713	47.979
859.532	72.241
863.349	34.495
867.164	76.717
870.978	114.935
874.789	92.854
878.599	68.077
882.408	78.292
886.214	114.504
890.019	140.676
893.822	176.88
897.623	255.08
901.422	307.28
905.22	296.478
909.015	360.676
912.809	437.875
916.602	560.074
920.392	727.277
924.181	609.481
927.968	406.463
931.753	293.869
935.536	263.036
939.318	268.171
943.098	503.352
946.876	687.291
950.653	633.92
954.427	375.761
958.2	290.567
961.971	311.991
965.741	523.617
969.508	1008.12
973.274	1151.3
977.039	693.687
980.801	352.095
984.562	292.525
988.321	184.572
992.078	200.929
995.833	176.426
999.587	317.947
1003.34	346.492
1007.09	463.062
1010.84	291.661
1014.58	100.287
1018.33	117.948
1022.07	165.65
1025.81	183.394
1029.55	152.173
1033.29	130.979
1037.03	89.821
1040.76	76.7
1044.5	64.61
1048.23	9.555
1051.96	62.532
1055.68	77.543
1059.41	77.583
1063.13	29.667
1066.86	79.792
1070.58	95.365
1074.3	214.573
1078.02	265.822
1081.73	274.287
1085.44	324.64
1089.16	379.453
1092.87	576.926
1096.58	875.513
1100.28	1288.31
1103.99	1723.92
1107.69	1726.57
1111.39	1291.24
1115.1	863.934
1118.8	620.65
1122.49	489.393
1126.19	331.157
1129.88	232.942
1133.57	194.746
1137.26	152.567
1140.95	131.403
1144.64	65.283
1148.32	40.338
1152.01	46.7
1155.69	67.721
1159.37	44.192
1163.05	39.17
1166.72	115.415
1170.4	143.177
1174.07	185.427
1177.74	113.635
1181.41	114.435
1185.08	60.69
1188.75	48.809
1192.41	75.643
1196.08	73.186
1199.74	14.485
1203.4	31.483
1207.06	16.707
1210.71	10.917
1214.37	27.969
1218.02	32.886
1221.67	32.352
1225.32	34.254
1228.97	22.349
1232.62	79.188
1236.26	64.464
1239.9	41.621
1243.55	37.35
1247.18	45.755
1250.82	47.147
1254.46	41.863
1258.1	85.644
1261.73	35.372
1265.36	33.014
1268.99	19.586
1272.62	10.098
1276.24	38.834
1279.87	26.735
1283.49	1.326
1287.11	17.056
1290.73	12.315
1294.35	3.527
1297.97	0.665
1301.58	2.267
1305.2	4.251
1308.81	12.299
1312.42	22.594
1316.03	9.435
1319.63	6.223
1323.24	4.951
1326.84	0.38
1330.44	13.226
1334.05	1.625
1337.64	33.865
1341.24	14.869
1344.84	25.494
1348.43	5.816
1352.02	11.68
1355.61	8.885
1359.2	28.987
1362.79	7.44
1366.37	7.368
1369.96	24.569
1373.54	1.694
1377.12	15.316
1380.7	15.288
1384.28	25.207
1387.85	46.072
1391.43	34.853
1395	66.472
1398.57	70.156
1402.14	104.287
1405.71	55.853
1409.28	45.014
1412.84	78.215
1416.4	46.542
1419.96	57.445
1423.52	52.581
1427.08	52.657
1430.64	136.098
1434.19	108.157
1437.75	123.657
1441.3	154.081
1444.85	186.792
1448.4	205.928
1451.94	152.537
1455.49	169.415
1459.03	168.583
1462.58	140.928
1466.12	124.361
1469.65	153.845
1473.19	123.365
1476.73	67.872
1480.26	66.432
1483.8	82.131
1487.33	16.059
1490.86	3.897
1494.38	42.098
1497.91	7.497
1501.43	0.156
