Measurement: Raman, 514 nm, ccw, Raman Data Processed
Mineral: Danburite
Rruff sample: R040013
Ideal chemistry: CaB_2_Si_2_O_8_
Locality: Charcas, San Luis Potosi, Mexico
Source: Marcus Origlieri
Description: Colorless prismatic single crystal
Measured chemistry: Ca_1.00_B_2.00_Si_2.00_O_8_
Pin_id: M00010
Orientation: Laser parallel to a* (1 0 0). Fiducial mark perpendicular to laser is parallel to b [0 1 0]
Raman shift (cm-1)	intensity
110.209	0
114.384	1236.09
118.556	719.248
122.727	4279.81
126.895	6497.18
131.062	2743.38
135.226	296.469
139.388	96.624
143.549	42.124
147.707	411.955
151.863	850.498
156.018	126.441
160.17	1286.23
164.32	8066.48
168.469	1557.17
172.615	196.646
176.759	405.091
180.901	1356.42
185.041	269.617
189.18	130.233
193.316	163.473
197.45	504.413
201.582	2874.91
205.712	1715.42
209.84	1217.84
213.967	273.317
218.091	11.791
222.213	51.758
226.333	75.339
230.451	34.964
234.567	48.352
238.682	758.65
242.794	3544.83
246.904	2461.24
251.012	659.39
255.118	207.374
259.223	56.484
263.325	4.099
267.425	24.79
271.523	21.236
275.62	28.657
279.714	1.594
283.806	69.907
287.897	62.351
291.985	16.687
296.072	86.928
300.156	316.056
304.239	1267.44
308.319	1786.68
312.398	1971.53
316.474	644.022
320.549	206.147
324.622	116.193
328.692	147.18
332.761	199.111
336.828	553.958
340.893	1985.69
344.956	8277.29
349.017	6793.66
353.076	1819.96
357.133	621.636
361.188	284.586
365.241	177.988
369.292	117.174
373.341	86.789
377.388	45.623
381.434	28.363
385.477	112.471
389.519	252.542
393.558	589.199
397.596	245.294
401.631	116.424
405.665	102.992
409.697	141.833
413.727	248.604
417.755	443.249
421.781	1051.88
425.805	935.5
429.827	317.441
433.847	136.994
437.865	171.319
441.882	237.053
445.896	27.832
449.909	26.613
453.919	51.139
457.928	51.672
461.935	103.133
465.94	130.528
469.943	363.858
473.944	1382.12
477.943	5236.33
481.94	2548.47
485.935	638.547
489.929	250.564
493.92	84.523
497.91	48.426
501.898	70.267
505.883	0.971
509.867	8.298
513.849	21.687
517.829	18.111
521.808	17.677
525.784	27.481
529.758	8.242
533.731	31.082
537.701	1.656
541.67	26.519
545.637	64.626
549.602	93.676
553.565	151.687
557.526	362.671
561.486	833.636
565.443	493.578
569.399	267.48
573.352	316.375
577.304	353.294
581.254	498.217
585.202	679.104
589.148	972.809
593.093	1498.24
597.035	2624.77
600.976	5635.42
604.914	15600.1
608.851	29779.7
612.786	16179.4
616.719	6585.92
620.651	3636.45
624.58	3490.95
628.507	2749.41
632.433	1527.84
636.357	993.233
640.279	673.565
644.199	575.482
648.117	439.591
652.034	358.504
655.948	268.304
659.861	206.718
663.772	211.845
667.681	167.309
671.588	167.652
675.493	140.042
679.397	125.109
683.298	81.909
687.198	126.558
691.096	113.863
694.992	69.339
698.886	73.688
702.779	130.813
706.669	135.774
710.558	138.747
714.445	187.862
718.33	180.687
722.214	104.91
726.095	49.632
729.975	65.606
733.852	69.433
737.728	68.248
741.603	22.049
745.475	49.836
749.345	66.61
753.214	93.37
757.081	64.119
760.946	81.856
764.809	92.584
768.671	142.302
772.53	234.012
776.388	251.715
780.244	82.412
784.098	21.107
787.951	18.813
791.801	15.469
795.65	42.253
799.497	63.003
803.342	14.278
807.186	1.556
811.027	8.145
814.867	10.83
818.705	9.491
822.541	13.19
826.375	2.878
830.208	4.432
834.039	16.247
837.868	55.08
841.695	21.564
845.521	3.783
849.344	44.878
853.166	8.455
856.986	32.215
860.804	26.894
864.621	37.586
868.436	20.294
872.248	68.017
876.06	64.757
879.869	114.515
883.677	87.292
887.482	132.094
891.287	170.925
895.089	265.777
898.889	356.653
902.688	517.554
906.485	606.481
910.28	727.435
914.074	1028.42
917.865	1169.43
921.655	1067.05
925.443	795.537
929.23	621.122
933.014	585.968
936.797	718.698
940.578	1196.14
944.358	2038.84
948.135	2326.13
951.911	1494.38
955.685	981.372
959.458	866.062
963.228	1103.49
966.997	1975.62
970.764	3887.72
974.529	3340.76
978.293	1758.35
982.055	1103.94
985.815	777.619
989.573	691.048
993.33	591.634
997.085	724.447
1000.84	1021.31
1004.59	1847.24
1008.34	2567.21
1012.09	1160.24
1015.83	504.312
1019.58	371.566
1023.32	439.402
1027.06	391.663
1030.8	274.995
1034.54	201.389
1038.27	174.845
1042.01	139.373
1045.74	119.955
1049.47	84.581
1053.2	107.256
1056.93	87.999
1060.65	109.796
1064.38	89.636
1068.1	152.527
1071.82	287.472
1075.54	269.469
1079.25	214.669
1082.97	222.874
1086.68	286.044
1090.39	350.256
1094.11	564.509
1097.81	783.795
1101.52	1055.6
1105.22	1214.98
1108.93	1118.39
1112.63	800.847
1116.33	564.375
1120.03	491.874
1123.72	409.648
1127.42	334.199
1131.11	148.764
1134.8	117.85
1138.49	135.852
1142.18	63.164
1145.87	41.96
1149.55	52.611
1153.23	32.967
1156.91	86.146
1160.59	119.59
1164.27	73.417
1167.95	65.207
1171.62	202.028
1175.3	224.658
1178.97	195.346
1182.64	200.218
1186.3	121.382
1189.97	86.903
1193.63	78.535
1197.3	7.317
1200.96	34.925
1204.62	114.692
1208.27	79.331
1211.93	7.963
1215.58	57.217
1219.24	80.512
1222.89	78.772
1226.54	19.463
1230.18	44.646
1233.83	33.316
1237.47	78.918
1241.12	152
1244.76	100.029
1248.4	92.066
1252.04	4.032
1255.67	80.989
1259.31	35.898
1262.94	15.368
1266.57	11.3
1270.2	21.928
1273.83	23.708
1277.45	55.036
1281.08	17.294
1284.7	20.695
1288.32	76.297
1291.94	37.356
1295.56	47.516
1299.17	15.228
1302.79	7.877
1306.4	56.406
1310.01	20.827
1313.62	35.168
1317.23	18.591
1320.84	59.537
1324.44	53.57
1328.04	13.514
1331.64	13.374
1335.24	10.146
1338.84	48.844
1342.44	24.737
1346.03	81.757
1349.63	63.213
1353.22	9.621
1356.81	43.936
1360.4	7.812
1363.98	49.111
1367.57	51.003
1371.15	35.365
1374.73	109.141
1378.32	93.536
1381.89	41.888
1385.47	123.521
1389.05	118.562
1392.62	96.391
1396.19	50.294
1399.76	0.849
1403.33	93.288
1406.9	101.16
1410.46	73.672
1414.03	118.643
1417.59	142.398
1421.15	137.32
1424.71	101.777
1428.27	121.572
1431.82	129.118
1435.38	136.767
1438.93	174.461
1442.48	143.297
1446.03	76.899
1449.58	145.71
1453.13	221.582
1456.67	190.574
1460.21	144.644
1463.76	188.613
1467.3	118.498
1470.83	142.562
1474.37	63.682
1477.91	18.952
1481.44	27.426
1484.97	77.076
1488.5	96.021
1492.03	31.08
1495.56	103.935
1499.08	2.93
