Measurement: Raman, 514 nm, ccw, Raman Data Processed
Mineral: Danburite
Rruff sample: R040013
Ideal chemistry: CaB_2_Si_2_O_8_
Locality: Charcas, San Luis Potosi, Mexico
Source: Marcus Origlieri
Description: Colorless prismatic single crystal
Measured chemistry: Ca_1.00_B_2.00_Si_2.00_O_8_
Pin_id: M00010
Orientation: Laser parallel to a* (1 0 0). Fiducial mark perpendicular to laser is parallel to b [0 1 0]
Raman shift (cm-1)	intensity
115.775	0
119.947	379.915
124.116	618.609
128.284	79.166
132.45	12.049
136.614	161.044
140.775	1.146
144.935	20.893
149.093	262.672
153.248	96.58
157.402	60.815
161.554	495.32
165.703	1018.91
169.851	700.548
173.996	2647.22
178.14	14289.9
182.281	17095.8
186.421	2728.38
190.558	1730.88
194.694	722.666
198.827	536.432
202.959	1137.36
207.088	1553.5
211.216	1542.58
215.341	262.616
219.465	129.631
223.586	697.621
227.706	400.587
231.823	162.528
235.939	504.442
240.052	2783.33
244.164	6589.19
248.274	2294.27
252.381	714.737
256.487	296.204
260.59	141.837
264.692	71.943
268.791	36.299
272.889	54.101
276.985	127.447
281.078	14.628
285.17	68.332
289.26	386.62
293.348	1049.11
297.433	532.786
301.517	424.552
305.599	1138.11
309.679	2940.86
313.757	2193.61
317.833	679.352
321.907	266.079
325.979	260.793
330.049	288.493
334.117	376.17
338.183	842.821
342.247	3381.44
346.31	9686.03
350.37	3804.59
354.428	1049.13
358.484	344.643
362.539	127.136
366.591	45.635
370.642	20.946
374.691	9.309
378.737	14.825
382.782	24.939
386.825	2.961
390.865	25.868
394.904	84.237
398.941	32.168
402.976	49.044
407.009	117.903
411.04	168.745
415.07	319.481
419.097	776.181
423.122	1310.93
427.146	602.501
431.167	219.898
435.187	441.603
439.204	1428.33
443.22	752.051
447.234	181.758
451.246	105.451
455.256	274.127
459.264	404.785
463.27	288.427
467.274	477.053
471.277	1346.66
475.277	6588.26
479.275	15301.8
483.272	4280.39
487.267	1158.94
491.26	535.463
495.25	272.975
499.239	156.47
503.226	87.951
507.212	18.416
511.195	2.866
515.176	14.565
519.156	26.792
523.133	18.662
527.109	2.711
531.083	26.851
535.055	4.436
539.025	14.975
542.993	52.381
546.959	91.618
550.923	174.073
554.886	303.54
558.846	735.014
562.805	942.5
566.762	329.99
570.717	354.478
574.67	351.967
578.621	508.453
582.57	681.934
586.518	987.41
590.463	1530.88
594.407	2332.35
598.349	4424.82
602.289	10446.3
606.227	30080.8
610.163	38175.4
614.097	15899.8
618.03	6830.23
621.961	4809.66
625.889	6513.08
629.816	4428.5
633.741	2054.91
637.664	1244.31
641.586	954.71
645.505	693.102
649.423	488.489
653.339	367.802
657.253	324.554
661.165	257.115
665.075	239.065
668.983	228.49
672.89	196.322
676.795	174.375
680.697	128.503
684.598	104.304
688.498	78.634
692.395	78.093
696.29	98.33
700.184	74.651
704.076	46.004
707.966	66.443
711.854	75.853
715.74	87.246
719.625	49.621
723.508	80.977
727.388	22.316
731.267	36.636
735.145	34.938
739.02	49.222
742.894	60.487
746.765	18.732
750.635	38.955
754.503	44.157
758.37	47.341
762.234	103.507
766.097	182.654
769.958	313.782
773.817	389.892
777.674	231.984
781.529	112.058
785.383	61.114
789.235	42.152
793.084	1.171
796.933	7.835
800.779	0.886
804.624	19.019
808.466	14.878
812.307	69.301
816.146	51.564
819.984	16.905
823.819	25.314
827.653	11.776
831.485	14.282
835.315	13.834
839.144	21.566
842.97	2.935
846.795	42.274
850.618	47.598
854.44	48.556
858.259	77.205
862.077	110.488
865.893	112.615
869.707	158.018
873.519	153.262
877.33	148.489
881.138	124.718
884.945	124.875
888.751	171.963
892.554	344.17
896.356	386.373
900.156	452.571
903.954	339.766
907.75	325.958
911.545	383.149
915.338	435.34
919.129	432.531
922.918	404.724
926.706	241.918
930.491	185.997
934.276	205.54
938.058	195.732
941.838	335.393
945.617	543.947
949.394	569.952
953.169	367.778
956.943	222.127
960.715	239.922
964.485	373.893
968.253	704.01
972.019	1179.6
975.784	610.923
979.547	347.916
983.308	267.318
987.068	215.016
990.826	226.199
994.582	256.677
998.336	268.181
1002.09	215.712
1005.84	191.273
1009.59	164.861
1013.34	128.484
1017.08	118.151
1020.83	147.858
1024.57	126.605
1028.31	130.41
1032.05	159.267
1035.78	182.162
1039.52	249.115
1043.25	90.11
1046.98	72.142
1050.71	77.205
1054.44	37.307
1058.17	77.442
1061.89	127.609
1065.62	149.81
1069.34	118.048
1073.06	183.34
1076.78	201.677
1080.49	228.153
1084.21	359.594
1087.92	493.109
1091.63	676.82
1095.34	1031.94
1099.05	1488.63
1102.76	2003.37
1106.46	2267.14
1110.16	1824.95
1113.86	1307.8
1117.56	944.667
1121.26	731.728
1124.95	516.636
1128.65	375.563
1132.34	287.509
1136.03	203.779
1139.72	182.756
1143.41	83.246
1147.1	113.493
1150.78	27.945
1154.46	33.369
1158.14	59.574
1161.82	70.568
1165.5	67.773
1169.17	174.834
1172.85	154.229
1176.52	186.945
1180.19	102.094
1183.86	98.918
1187.53	99.176
1191.19	42.452
1194.86	65.721
1198.52	52.812
1202.18	36.264
1205.84	52.961
1209.49	65.14
1213.15	39.17
1216.8	73.934
1220.45	42.861
1224.11	46.49
1227.75	37.787
1231.4	58.472
1235.05	101.246
1238.69	115.019
1242.33	61.853
1245.97	35.737
1249.61	2.607
1253.25	36.028
1256.88	79.655
1260.52	59.25
1264.15	12.807
1267.78	32.308
1271.41	22.825
1275.04	41.171
1278.66	51.56
1282.29	8.341
1285.91	19.195
1289.53	7.888
1293.15	20.881
1296.76	25.806
1300.38	13.35
1303.99	16.381
1307.61	60.03
1311.22	8.619
1314.83	23.147
1318.43	37.613
1322.04	4.015
1325.64	80.354
1329.24	9.632
1332.85	7.422
1336.44	16.999
1340.04	17.087
1343.64	68.034
1347.23	23.006
1350.83	28.077
1354.42	74.794
1358.01	53.111
1361.59	72.856
1365.18	72.555
1368.76	36.191
1372.35	19.822
1375.93	48.362
1379.51	67.936
1383.09	61.622
1386.66	34.909
1390.24	62.899
1393.81	81.973
1397.38	70.573
1400.95	50.231
1404.52	91.869
1408.09	98.563
1411.65	90.998
1415.21	69.838
1418.78	51.837
1422.34	114.277
1425.9	83.018
1429.45	99.158
1433.01	135.562
1436.56	102.182
1440.12	145.097
1443.67	140.412
1447.21	141.423
1450.76	200.332
1454.31	187.151
1457.85	160.187
1461.39	190.161
1464.94	122.102
1468.47	115.212
1472.01	62.485
1475.55	64.774
1479.08	30.16
1482.62	89.674
1486.15	71.392
1489.68	88.343
1493.21	13.71
1496.73	114.5
1500.26	10.734
