Measurement: Raman, 514 nm, ccw, Raman Data Processed
Mineral: Danburite
Rruff sample: R040013
Ideal chemistry: CaB_2_Si_2_O_8_
Locality: Charcas, San Luis Potosi, Mexico
Source: Marcus Origlieri
Description: Colorless prismatic single crystal
Measured chemistry: Ca_1.00_B_2.00_Si_2.00_O_8_
Pin_id: M00009
Orientation: Laser parallel to b* (0 1 0). Fiducial mark perpendicular to laser is parallel to -c [0 0 -1]
Raman shift (cm-1)	intensity
107.425	0
111.601	558.875
115.775	1348.38
119.947	3828.97
124.116	10454.5
128.284	2111.65
132.45	451.333
136.614	205.755
140.775	73.2
144.935	33.454
149.093	48.364
153.248	35.69
157.402	109.391
161.554	1262.72
165.703	5089.4
169.851	659.242
173.996	137.466
178.14	745.453
182.281	1920.5
186.421	506.668
190.558	912.008
194.694	814.384
198.827	508.68
202.959	1332.78
207.088	6301.44
211.216	12747.9
215.341	2967.75
219.465	1024.09
223.586	1185.65
227.706	1561.01
231.823	1664.47
235.939	4092.22
240.052	16353.3
244.164	48077.7
248.274	20156.7
252.381	5682.99
256.487	2245.77
260.59	1125.9
264.692	615.988
268.791	463.612
272.889	293.708
276.985	242.147
281.078	126.62
285.17	140.913
289.26	423.238
293.348	993.383
297.433	676.239
301.517	241.105
305.599	281.868
309.679	728.168
313.757	597.44
317.833	173.679
321.907	17.122
325.979	58.006
330.049	116.072
334.117	28.078
338.183	93.009
342.247	407.409
346.31	1741.56
350.37	890.302
354.428	198.614
358.484	42.198
362.539	3.519
366.591	32.05
370.642	26.421
374.691	31.201
378.737	15.848
382.782	23.328
386.825	81.408
390.865	147.202
394.904	188.071
398.941	277.633
402.976	396.884
407.009	539.156
411.04	802.117
415.07	1570.96
419.097	3525.69
423.122	6664.32
427.146	4027.87
431.167	1431.35
435.187	1946.76
439.204	6365.1
443.22	4665.41
447.234	1534.7
451.246	595.989
455.256	470.184
459.264	665.287
463.27	251.295
467.274	201.253
471.277	96.38
475.277	172.088
479.275	312.284
483.272	101.276
487.267	50.673
491.26	37.061
495.25	38.962
499.239	11.032
503.226	28.438
507.212	2.432
511.195	9.701
515.176	4.895
519.156	38.165
523.133	116.144
527.109	41.588
531.083	13.147
535.055	25.631
539.025	57.251
542.993	67.777
546.959	68.24
550.923	90.627
554.886	167.025
558.846	152.341
562.805	200.57
566.762	194.932
570.717	378.384
574.67	389.885
578.621	523.073
582.57	641.102
586.518	956.009
590.463	1390.05
594.407	2184.53
598.349	3818.92
602.289	8613.99
606.227	24844.3
610.163	36634.4
614.097	16864.5
618.03	7314.51
621.961	5813.45
625.889	10564.3
629.816	7973.43
633.741	3479.51
637.664	1841.1
641.586	1369.69
645.505	1121.82
649.423	931.15
653.339	715.701
657.253	470.623
661.165	337.951
665.075	295.323
668.983	230.759
672.89	274.978
676.795	140.084
680.697	36.004
684.598	92.1
688.498	49.081
692.395	66.03
696.29	57.121
700.184	41.201
704.076	25.201
707.966	2.137
711.854	14.004
715.74	27.2
719.625	16.511
723.508	12.828
727.388	57.769
731.267	113.31
735.145	42.816
739.02	29.707
742.894	7.72
746.765	82.121
750.635	136.497
754.503	67.85
758.37	97.182
762.234	190.494
766.097	367.788
769.958	674.073
773.817	907.367
777.674	411.678
781.529	155.011
785.383	64.366
789.235	74.749
793.084	17.139
796.933	27.448
800.779	20.039
804.624	6.65
808.466	20.718
812.307	2.091
816.146	18.233
819.984	9.861
823.819	64.755
827.653	2.568
831.485	82.888
835.315	3.883
839.144	99.351
842.97	166.583
846.795	153.514
850.618	202.469
854.44	266.514
858.259	488.279
862.077	426.999
865.893	357.594
869.707	336.573
873.519	406.057
877.33	416.802
881.138	383.308
884.945	408.875
888.751	632.472
892.554	870.105
896.356	1422.77
900.156	1767.48
903.954	1604.21
907.75	1137.98
911.545	777.795
915.338	487.642
919.129	367.527
922.918	229.45
926.706	125.412
930.491	49.364
934.276	86.904
938.058	7.686
941.838	101.017
945.617	103.869
949.394	106.769
953.169	127.109
956.943	119.5
960.715	207.547
964.485	520.484
968.253	1384.02
972.019	2901.58
975.784	1937.23
979.547	930.934
983.308	600.708
987.068	535.545
990.826	395.463
994.582	534.452
998.336	628.502
1002.09	640.624
1005.84	427.81
1009.59	302.052
1013.34	235.353
1017.08	188.718
1020.83	238.138
1024.57	171.618
1028.31	69.583
1032.05	44.184
1035.78	149.838
1039.52	324.546
1043.25	199.308
1046.98	66.122
1050.71	48.989
1054.44	58.908
1058.17	32.256
1061.89	57.9
1065.62	98.13
1069.34	155.979
1073.06	159.274
1076.78	299.929
1080.49	425.268
1084.21	628.681
1087.92	779.589
1091.63	1184.21
1095.34	1747.84
1099.05	2636.58
1102.76	3701.37
1106.46	4261.22
1110.16	3620.1
1113.86	2521.02
1117.56	1831.98
1121.26	1364.97
1124.95	933.994
1128.65	637.044
1132.34	533.126
1136.03	276.244
1139.72	249.407
1143.41	161.603
1147.1	126.829
1150.78	90.102
1154.46	5.421
1158.14	32.387
1161.82	19.899
1165.5	79.2
1169.17	60.511
1172.85	90.831
1176.52	109.153
1180.19	52.478
1183.86	55.801
1187.53	72.124
1191.19	68.342
1194.86	35.754
1198.52	54.046
1202.18	23.35
1205.84	31.68
1209.49	38.969
1213.15	11.157
1216.8	113.447
1220.45	1.678
1224.11	43.705
1227.75	36.516
1231.4	44.913
1235.05	53.444
1238.69	147.84
1242.33	127.762
1245.97	136.732
1249.61	103.154
1253.25	91.998
1256.88	97.738
1260.52	131.628
1264.15	176.325
1267.78	214.6
1271.41	222.315
1275.04	120.323
1278.66	81.96
1282.29	51.742
1285.91	2.2
1289.53	60.213
1293.15	138.855
1296.76	85.1
1300.38	111.238
1303.99	114.251
1307.61	108.101
1311.22	131.864
1314.83	136.554
1318.43	146.174
1322.04	118.708
1325.64	152.085
1329.24	108.178
1332.85	27.604
1336.44	16.524
1340.04	38.962
1343.64	28.182
1347.23	58.483
1350.83	8.483
1354.42	15.06
1358.01	27.254
1361.59	0.58
1365.18	7.623
1368.76	63.04
1372.35	67.184
1375.93	13.857
1379.51	44.687
1383.09	69.398
1386.66	46.017
1390.24	10.486
1393.81	54.808
1397.38	104.922
1400.95	17.941
1404.52	104.105
1408.09	42.076
1411.65	116.978
1415.21	109.817
1418.78	42.563
1422.34	97.92
1425.9	128.357
1429.45	134.784
1433.01	204.374
1436.56	378.151
1440.12	487.153
1443.67	614.904
1447.21	668.396
1450.76	778.736
1454.31	723.692
1457.85	644.77
1461.39	553.169
1464.94	518.26
1468.47	372.298
1472.01	222.817
1475.55	249.961
1479.08	253.77
1482.62	230.716
1486.15	165.708
1489.68	154.073
1493.21	121.098
1496.73	80.131
1500.26	32.706
1503.78	0
