Measurement: Raman, 514 nm, ccw, Raman Data Processed
Mineral: Danburite
Rruff sample: R040013
Ideal chemistry: CaB_2_Si_2_O_8_
Locality: Charcas, San Luis Potosi, Mexico
Source: Marcus Origlieri
Description: Colorless prismatic single crystal
Measured chemistry: Ca_1.00_B_2.00_Si_2.00_O_8_
Pin_id: M00010
Orientation: Laser parallel to a* (1 0 0). Fiducial mark perpendicular to laser is parallel to b [0 1 0]
Raman shift (cm-1)	intensity
117.166	0
121.337	724.716
125.506	1047.04
129.673	794.228
133.838	58.023
138.001	392.143
142.162	22.871
146.321	167.696
150.478	1378.62
154.633	112.175
158.786	70.894
162.937	1235.11
167.086	885.751
171.233	393.921
175.378	2174.64
179.521	10550.2
183.662	4757.71
187.8	1076.34
191.937	912.238
196.072	577.063
200.205	2222.81
204.336	3331.82
208.465	1429.19
212.591	648.528
216.716	79.8
220.839	20.901
224.96	167.313
229.079	1.531
233.195	36.567
237.31	369.597
241.423	2192.72
245.534	3709.44
249.643	974.717
253.75	297.543
257.855	99.982
261.958	3.633
266.059	24.586
270.158	9.803
274.255	159.773
278.35	232.357
282.443	23.617
286.534	38.816
290.623	96.82
294.71	270.485
298.795	225.883
302.878	945.198
306.959	1220.38
311.038	1910.52
315.116	859.559
319.191	257.432
323.264	68.155
327.336	116.762
331.405	160.309
335.473	274.791
339.538	799.172
343.602	3586.43
347.663	6418.62
351.723	1643.61
355.78	424.527
359.836	158.48
363.89	45.594
367.942	8.689
371.992	7.779
376.04	23.585
380.086	10.413
384.13	11.228
388.172	172.653
392.212	582.038
396.25	427.735
400.286	98.946
404.321	140.128
408.353	113.335
412.384	108.306
416.412	233.548
420.439	613.066
424.464	788.787
428.486	281.937
432.507	101.063
436.526	314.684
440.543	739.184
444.558	238.623
448.572	58.003
452.583	59.347
456.592	180.639
460.6	263.875
464.605	218.056
468.609	416.148
472.61	1357.22
476.61	6360.24
480.608	7123.22
484.604	1541.14
488.598	477.02
492.59	237.849
496.58	146.633
500.569	67.372
504.555	38.066
508.54	36.577
512.522	42.434
516.503	8.732
520.482	14.692
524.459	23.788
528.434	9.391
532.407	4.272
536.378	2.977
540.348	17.278
544.315	12.52
548.281	89.742
552.244	149.938
556.206	245.131
560.166	658.318
564.124	443.492
568.08	223.648
572.035	227.785
575.987	288.946
579.938	397.114
583.886	525.102
587.833	729.367
591.778	1131.44
595.721	1918.45
599.662	3820.54
603.602	9574.55
607.539	24761.6
611.475	19948.6
615.408	7666.52
619.34	3966.46
623.27	3862.34
627.199	4332.19
631.125	2188.02
635.049	1201.83
638.972	740.613
642.893	562.376
646.811	423.971
650.728	316.609
654.644	279.224
658.557	190.843
662.468	137.215
666.378	122.683
670.286	131.491
674.192	107.028
678.096	88.651
681.998	80.701
685.898	71.28
689.797	60.757
693.694	57.631
697.589	34.709
701.482	33.02
705.373	86.386
709.262	104.336
713.15	198.875
717.035	213.39
720.919	114.883
724.801	42.355
728.682	47.806
732.56	45.836
736.437	23.648
740.311	20.039
744.184	10.409
748.055	31.798
751.925	23.089
755.792	30.4
759.658	26.691
763.522	59.964
767.384	120.22
771.244	244.458
775.102	383.679
778.959	196.885
782.814	58.074
786.667	4.751
790.518	11.594
794.367	15.544
798.215	11.675
802.061	11.185
805.905	21.07
809.747	5.015
813.587	1.916
817.426	8.875
821.263	25.882
825.098	14.952
828.931	0.631
832.762	12.821
836.592	11.322
840.42	13.5
844.246	14.713
848.07	15.047
851.892	42.796
855.713	58.537
859.532	61.27
863.349	51.997
867.164	87.717
870.978	90.431
874.789	53.141
878.599	34.786
882.408	114.45
886.214	119.15
890.019	120.804
893.822	154.472
897.623	237.127
901.422	320.825
905.22	336.525
909.015	414.228
912.809	551.934
916.602	691.646
920.392	918.362
924.181	826.912
927.968	504.268
931.753	320.877
935.536	271.597
939.318	384.042
943.098	647.184
946.876	851.808
950.653	734.52
954.427	469.225
958.2	366.961
961.971	416.61
965.741	664.378
969.508	1334.04
973.274	1555.2
977.039	915.347
980.801	476.468
984.562	365.351
988.321	267.323
992.078	221.322
995.833	258.344
999.587	337.389
1003.34	484.458
1007.09	676.553
1010.84	455.673
1014.58	187.82
1018.33	142.999
1022.07	154.208
1025.81	241.449
1029.55	183.74
1033.29	129.077
1037.03	72.452
1040.76	92.873
1044.5	70.346
1048.23	39.858
1051.96	42.402
1055.68	77.974
1059.41	78.579
1063.13	63.219
1066.86	66.891
1070.58	103.591
1074.3	156.32
1078.02	205.498
1081.73	250.31
1085.44	265.16
1089.16	397.055
1092.87	488.002
1096.58	771.002
1100.28	1085.03
1103.99	1494.09
1107.69	1471.19
1111.39	1088.75
1115.1	765.935
1118.8	537.143
1122.49	442.373
1126.19	334.626
1129.88	253.898
1133.57	163.189
1137.26	137.556
1140.95	98.888
1144.64	64.28
1148.32	44.081
1152.01	21.673
1155.69	29.186
1159.37	36.859
1163.05	55.087
1166.72	72.742
1170.4	119.167
1174.07	168.744
1177.74	141.143
1181.41	122.468
1185.08	72.97
1188.75	39.404
1192.41	68.494
1196.08	61.999
1199.74	43.921
1203.4	24.021
1207.06	73.545
1210.71	4.039
1214.37	39.484
1218.02	30.027
1221.67	44.745
1225.32	26.548
1228.97	22.924
1232.62	39.355
1236.26	49.053
1239.9	30.42
1243.55	32.739
1247.18	71.353
1250.82	53.667
1254.46	36.21
1258.1	21.41
1261.73	45.673
1265.36	21.844
1268.99	49.355
1272.62	41.562
1276.24	19.656
1279.87	3.608
1283.49	19.532
1287.11	5.475
1290.73	17.688
1294.35	13.096
1297.97	19.146
1301.58	47.463
1305.2	33.845
1308.81	24.291
1312.42	34.18
1316.03	74.605
1319.63	19.017
1323.24	9.303
1326.84	10.565
1330.44	21.783
1334.05	16.955
1337.64	39.082
1341.24	24.76
1344.84	12.793
1348.43	3.22
1352.02	24.721
1355.61	37.618
1359.2	36.008
1362.79	6.174
1366.37	12.605
1369.96	6.256
1373.54	8.608
1377.12	23.125
1380.7	22.746
1384.28	69.318
1387.85	17.777
1391.43	44.192
1395	64.752
1398.57	8.847
1402.14	25.957
1405.71	39.938
1409.28	24.617
1412.84	67.386
1416.4	29.761
1419.96	44.224
1423.52	48.482
1427.08	37.208
1430.64	74.679
1434.19	86.067
1437.75	101.066
1441.3	147.125
1444.85	144.204
1448.4	144.568
1451.94	143.144
1455.49	161.073
1459.03	165.408
1462.58	113.806
1466.12	129.981
1469.65	104.153
1473.19	100.442
1476.73	59.79
1480.26	84.299
1483.8	16.145
1487.33	41.54
1490.86	36.424
1494.38	16.887
1497.91	30.333
1501.43	4.572
