Measurement: Raman, 514 nm, ccw, Raman Data Processed
Mineral: Danburite
Rruff sample: R040013
Ideal chemistry: CaB_2_Si_2_O_8_
Locality: Charcas, San Luis Potosi, Mexico
Source: Marcus Origlieri
Description: Colorless prismatic single crystal
Measured chemistry: Ca_1.00_B_2.00_Si_2.00_O_8_
Pin_id: M00012
Orientation: Laser parallel to c* (0 0 1). Fiducial mark perpendicular to laser is parallel to a [1 0 0]
Raman shift (cm-1)	intensity
104.64	0
108.817	204.149
112.992	1256.11
117.166	4271.49
121.337	5213.31
125.506	6818.98
129.673	2173.81
133.838	1144.26
138.001	2904.3
142.162	1194.5
146.321	193.889
150.478	10.73
154.633	108.937
158.786	61.948
162.937	1905
167.086	3754.85
171.233	291.403
175.378	38.628
179.521	405.631
183.662	604.509
187.8	1317.43
191.937	2865.25
196.072	673.974
200.205	238.371
204.336	1161.17
208.465	5122.22
212.591	7145.72
216.716	1565.66
220.839	518.747
224.96	441.026
229.079	567.308
233.195	1050.69
237.31	3340.39
241.423	13094.1
245.534	31035
249.643	11119.3
253.75	3606.36
257.855	1720.11
261.958	854.771
266.059	560.806
270.158	608.966
274.255	1284.46
278.35	2536.61
282.443	727.539
286.534	171.333
290.623	17.104
294.71	46.763
298.795	6.542
302.878	52.823
306.959	225.581
311.038	636.089
315.116	483.411
319.191	193.551
323.264	20.849
327.336	30.743
331.405	78.697
335.473	140.902
339.538	169.888
343.602	833.969
347.663	2575.85
351.723	1053.59
355.78	223.658
359.836	43.559
363.89	9.396
367.942	18.825
371.992	39.129
376.04	0.759
380.086	43.307
384.13	92.528
388.172	114.039
392.212	142.528
396.25	292.304
400.286	300.681
404.321	760.513
408.353	783.166
412.384	666.524
416.412	1172.48
420.439	2638.25
424.464	4283.84
428.486	2355.29
432.507	1035.47
436.526	1591.2
440.543	4307.14
444.558	2687.58
448.572	963.61
452.583	552.465
456.592	548.048
460.6	907.425
464.605	693.597
468.609	314.781
472.61	229.798
476.61	394.308
480.608	831.572
484.604	287.04
488.598	22.008
492.59	5.258
496.58	7.217
500.569	91.424
504.555	66.378
508.54	31.357
512.522	79.957
516.503	181.072
520.482	131.061
524.459	102.196
528.434	55.188
532.407	87.3
536.378	72.401
540.348	56.761
544.315	99.231
548.281	132.24
552.244	198.511
556.206	190.35
560.166	246.171
564.124	354.227
568.08	323.266
572.035	389.14
575.987	461.444
579.938	610.616
583.886	892.992
587.833	1118.51
591.778	1412.96
595.721	2003.01
599.662	3478.75
603.602	7764.66
607.539	21423
611.475	26061.2
615.408	11779.3
619.34	5682.23
623.27	5374.03
627.199	8302.68
631.125	5575.15
635.049	2742.66
638.972	1711.41
642.893	1557.68
646.811	1499.17
650.728	1197.3
654.644	884.45
658.557	622.466
662.468	410.52
666.378	330.551
670.286	196.408
674.192	86.845
678.096	90.646
681.998	136.801
685.898	99.292
689.797	17.136
693.694	22.936
697.589	16.093
701.482	64.102
705.373	3.126
709.262	23.606
713.15	53.354
717.035	40.354
720.919	15.628
724.801	23.141
728.682	52.168
732.56	90.345
736.437	90.413
740.311	54.376
744.184	93.232
748.055	133.987
751.925	214.649
755.792	72.222
759.658	144.708
763.522	177.107
767.384	332.425
771.244	565.671
775.102	577.866
778.959	296.028
782.814	235.159
786.667	256.242
790.518	280.286
794.367	197.294
798.215	64.255
802.061	93.164
805.905	106.022
809.747	65.831
813.587	75.474
817.426	14.111
821.263	76.482
825.098	144.553
828.931	224.878
832.762	210.652
836.592	195.563
840.42	252.754
844.246	386.76
848.07	481.662
851.892	527.336
855.713	585.401
859.532	831.733
863.349	715.013
867.164	560.12
870.978	505.415
874.789	463.845
878.599	466.337
882.408	335.699
886.214	382.409
890.019	600.163
893.822	769.955
897.623	990.787
901.422	1226.66
905.22	1159.58
909.015	995.574
912.809	754.12
916.602	672.424
920.392	450.846
924.181	287.187
927.968	127.618
931.753	196.95
935.536	209.295
939.318	351.704
943.098	502.185
946.876	599.739
950.653	534.354
954.427	452.045
958.2	384.817
961.971	372.694
965.741	589.709
969.508	1143.84
973.274	1957.08
977.039	1209.45
980.801	654.968
984.562	408.636
988.321	299.265
992.078	237.452
995.833	209.611
999.587	638.904
1003.34	1043.32
1007.09	851.827
1010.84	703.465
1014.58	363.774
1018.33	432.533
1022.07	779.265
1025.81	913.513
1029.55	931.576
1033.29	559.73
1037.03	250.974
1040.76	61.31
1044.5	19.265
1048.23	28.763
1051.96	34.182
1055.68	19.479
1059.41	7.226
1063.13	87.056
1066.86	147.97
1070.58	152.972
1074.3	377.491
1078.02	664.447
1081.73	1021.77
1085.44	921.209
1089.16	857.747
1092.87	1025.17
1096.58	1349.16
1100.28	1987.02
1103.99	2784
1107.69	3189.08
1111.39	2687.25
1115.1	1895.49
1118.8	1308.81
1122.49	977.192
1126.19	522.645
1129.88	491.161
1133.57	286.741
1137.26	264.382
1140.95	205.102
1144.64	48.891
1148.32	26.732
1152.01	35.394
1155.69	25.494
1159.37	206.446
1163.05	228.44
1166.72	462.483
1170.4	799.577
1174.07	1015.72
1177.74	891.724
1181.41	621.328
1185.08	295.303
1188.75	281.591
1192.41	130.763
1196.08	21.933
1199.74	128.294
1203.4	81.733
1207.06	71.808
1210.71	22.988
1214.37	30.032
1218.02	55.885
1221.67	25.511
1225.32	10.061
1228.97	164.401
1232.62	204.926
1236.26	374.759
1239.9	240.161
1243.55	183.799
1247.18	189.377
1250.82	203.96
1254.46	295.563
1258.1	293.185
1261.73	389.823
1265.36	400.478
1268.99	421.118
1272.62	462.6
1276.24	447.788
1279.87	261.139
1283.49	270.662
1287.11	246.681
1290.73	293.427
1294.35	501.15
1297.97	438.799
1301.58	226.404
1305.2	201.913
1308.81	367.3
1312.42	517.65
1316.03	517.996
1319.63	555.333
1323.24	529.66
1326.84	433.911
1330.44	252.102
1334.05	178.251
1337.64	62.922
1341.24	45.792
1344.84	49.816
1348.43	38.877
1352.02	51.029
1355.61	12.13
1359.2	32.748
1362.79	28.375
1366.37	37.526
1369.96	75.516
1373.54	88.998
1377.12	70.229
1380.7	124.985
1384.28	154.742
1387.85	129.492
1391.43	130.181
1395	85.875
1398.57	40.607
1402.14	139.333
1405.71	131.057
1409.28	127.794
1412.84	112.553
1416.4	93.337
1419.96	106.161
1423.52	159.896
1427.08	315.031
1430.64	450.009
1434.19	638.104
1437.75	1106.94
1441.3	1649.47
1444.85	1853.08
1448.4	2069.52
1451.94	2179.38
1455.49	2128.83
1459.03	1900.88
1462.58	1555.58
1466.12	1244.39
1469.65	962.659
1473.19	874.951
1476.73	725.174
1480.26	784.825
1483.8	700.587
1487.33	447.545
1490.86	266.03
1494.38	158.009
1497.91	89.031
1501.43	11.063
