Measurement: Raman, 514 nm, ccw, Raman Data Processed
Mineral: Danburite
Rruff sample: R040013
Ideal chemistry: CaB_2_Si_2_O_8_
Locality: Charcas, San Luis Potosi, Mexico
Source: Marcus Origlieri
Description: Colorless prismatic single crystal
Measured chemistry: Ca_1.00_B_2.00_Si_2.00_O_8_
Pin_id: M00009
Orientation: Laser parallel to b* (0 1 0). Fiducial mark perpendicular to laser is parallel to -c [0 0 -1]
Raman shift (cm-1)	intensity
75.916	0
80.114	89.139
84.31	141.846
88.503	117.125
92.695	220.866
96.884	264.256
101.072	301.116
105.258	373.054
109.441	402.759
113.623	1232.61
117.802	1146.23
121.98	643.781
126.155	801.319
130.329	219.364
134.5	5.35
138.669	17.222
142.837	11.053
147.002	17.472
151.166	77.013
155.327	20.265
159.486	10.438
163.644	352.596
167.799	838.645
171.952	795.639
176.104	3241.02
180.253	17378.2
184.4	24552
188.546	5685.56
192.689	3210.05
196.83	2008.28
200.97	537.195
205.107	410.001
209.243	939.724
213.376	1283.35
217.507	310.877
221.637	295.311
225.764	1627.39
229.89	1741.76
234.013	400.448
238.135	346.308
242.254	1736.2
246.372	4772.21
250.487	2307.5
254.601	731.374
258.712	267.248
262.822	169.027
266.93	72.657
271.036	12.154
275.139	13.527
279.241	23.233
283.341	100.782
287.439	360.184
291.535	1259.55
295.629	3291.85
299.72	2107.08
303.811	861.246
307.899	1397.76
311.985	3622.26
316.069	2880
320.151	1073.85
324.231	516.686
328.31	581.411
332.386	693.05
336.46	603.602
340.533	1026.93
344.603	4330.05
348.672	11296.1
352.738	5466.07
356.803	1460.08
360.866	532.979
364.927	193.978
368.986	93.202
373.043	2.181
377.098	11.031
381.151	29.584
385.202	70.206
389.251	11.861
393.298	8.718
397.344	13.752
401.387	9.431
405.429	25.765
409.468	70.909
413.506	142.969
417.542	260.988
421.575	644.951
425.607	1153.88
429.637	669.695
433.666	225.221
437.692	405.11
441.716	1315.51
445.738	842.629
449.759	224.129
453.777	159.566
457.794	669.94
461.809	1184.25
465.822	528.505
469.832	639.698
473.842	1882.86
477.849	8735.02
481.854	19253.2
485.857	6521.29
489.859	1820.42
493.858	707.5
497.856	376.545
501.852	277.603
505.846	129.697
509.838	104.771
513.828	64.817
517.816	66.835
521.802	34.838
525.787	35.797
529.769	0.343
533.75	1.039
537.729	58.615
541.706	106.149
545.681	65.073
549.654	123.222
553.625	221.726
557.595	350.6
561.562	965.817
565.528	1194.85
569.492	550.578
573.454	510.441
577.414	503.94
581.372	576.841
585.328	828.188
589.283	1201.47
593.235	1750.75
597.186	2765.07
601.135	5420.41
605.082	12617.7
609.027	34575
612.971	43362.3
616.912	19869.5
620.852	8896.72
624.79	5893.9
628.726	7391.04
632.66	5100.15
636.592	2642.23
640.522	1664.33
644.451	1249.91
648.378	997.402
652.303	805.064
656.226	661.573
660.147	490.889
664.066	368.107
667.984	319.612
671.899	279.39
675.813	378.939
679.725	213.296
683.635	139.741
687.544	104.662
691.45	123.279
695.355	91.573
699.258	70.211
703.159	85.829
707.058	58.62
710.956	53.396
714.851	2.577
718.745	21.868
722.637	40.475
726.527	8
730.415	50.462
734.302	12.824
738.187	23.077
742.07	63.245
745.951	33.384
749.83	39.496
753.707	49.578
757.583	71.631
761.457	104.66
765.329	163.663
769.199	219.64
773.067	391.59
776.934	439.517
780.799	232.421
784.662	124.302
788.523	66.163
792.383	2.999
796.24	12.799
800.096	3.488
803.95	19.124
807.802	0.296
811.653	39.815
815.502	0.482
819.348	47.343
823.194	36.727
827.037	46.227
830.878	45.265
834.718	50.615
838.556	29.491
842.392	74.368
846.227	147.254
850.059	171.145
853.89	175.999
857.719	286.886
861.547	371.943
865.372	406.134
869.196	492.925
873.018	507.926
876.838	375.423
880.657	318.453
884.473	366.685
888.288	372.565
892.101	464.184
895.913	701.324
899.722	1029.48
903.53	951.664
907.336	745.866
911.141	552.094
914.943	515.675
918.744	430
922.543	174.368
926.341	132.773
930.136	135.226
933.93	110.714
937.722	156.236
941.512	165.795
945.301	358.907
949.088	993.975
952.873	968.618
956.656	553.318
960.438	364.107
964.218	338.95
967.996	474.86
971.772	1110.54
975.547	2314.89
979.32	1233.01
983.091	481.296
986.861	350.454
990.628	332.676
994.394	367.964
998.158	539.321
1001.92	723.749
1005.68	524.243
1009.44	222.807
1013.2	79.468
1016.95	64.795
1020.71	34.49
1024.46	205.147
1028.21	129.669
1031.96	90.861
1035.71	50.147
1039.45	216.793
1043.19	517.2
1046.94	326.709
1050.68	210.342
1054.41	70.13
1058.15	72.905
1061.89	19.242
1065.62	31.164
1069.35	79.282
1073.08	140.421
1076.81	210.224
1080.54	291.799
1084.26	440.171
1087.98	520.653
1091.71	556.265
1095.42	783.919
1099.14	1138.62
1102.86	1803.43
1106.57	2667.29
1110.29	2762.22
1114	2183.41
1117.71	1395.6
1121.41	963.888
1125.12	795.249
1128.83	551.654
1132.53	420.131
1136.23	331.786
1139.93	194.353
1143.63	177.187
1147.32	58.328
1151.02	8.233
1154.71	87.879
1158.4	25.02
1162.09	37.384
1165.78	113.667
1169.46	87.294
1173.15	31.186
1176.83	30.738
1180.51	68.341
1184.19	12.997
1187.87	50.269
1191.54	81.804
1195.22	69.303
1198.89	74.202
1202.56	44.765
1206.23	43.018
1209.9	47.724
1213.56	16.429
1217.23	122.133
1220.89	151.167
1224.55	79.319
1228.21	101.644
1231.87	122.864
1235.52	186.398
1239.18	243.067
1242.83	284.203
1246.48	232.645
1250.13	356.739
1253.78	330.406
1257.42	242.706
1261.07	279.113
1264.71	239.708
1268.35	143.444
1271.99	174.748
1275.63	250.033
1279.27	200.951
1282.9	237.894
1286.53	200.682
1290.16	109.407
1293.79	78.793
1297.42	124.995
1301.05	41.942
1304.67	41.706
1308.29	104.131
1311.92	125.721
1315.54	205.899
1319.15	256.807
1322.77	220.181
1326.38	163.981
1330	189.834
1333.61	14.546
1337.22	44.586
1340.83	8.036
1344.43	64.439
1348.04	108.587
1351.64	92.646
1355.24	183.534
1358.85	49.655
1362.44	43.365
1366.04	39.797
1369.63	45.365
1373.23	9.697
1376.82	48.002
1380.41	159.379
1384	241.973
1387.59	191.446
1391.17	211.594
1394.76	198.68
1398.34	146.569
1401.92	139.298
1405.5	39.584
1409.08	50.782
1412.65	79.348
1416.23	187.064
1419.8	265.039
1423.37	284.153
1426.94	224.232
1430.51	210.328
1434.08	195.586
1437.64	304.975
1441.2	215.595
1444.77	309
1448.33	364.839
1451.88	495.357
1455.44	566.762
1459	748.649
1462.55	684.444
1466.1	607.654
1469.65	516.075
1473.2	403.921
1476.75	315.109
1480.29	203.662
1483.84	185.578
1487.38	266.628
1490.92	151.716
1494.46	202.44
1498	146.083
1501.54	164.996
1505.07	155.445
1508.6	158.946
1512.13	167.53
1515.66	133.476
1519.19	38.202
