Measurement: Raman, 514 nm, ccw, Raman Data Processed
Mineral: Danburite
Rruff sample: R040013
Ideal chemistry: CaB_2_Si_2_O_8_
Locality: Charcas, San Luis Potosi, Mexico
Source: Marcus Origlieri
Description: Colorless prismatic single crystal
Measured chemistry: Ca_1.00_B_2.00_Si_2.00_O_8_
Pin_id: M00010
Orientation: Laser parallel to a* (1 0 0). Fiducial mark perpendicular to laser is parallel to b [0 1 0]
Raman shift (cm-1)	intensity
115.775	0
119.947	269.135
124.116	567.684
128.284	47.759
132.45	1.891
136.614	93.268
140.775	11.849
144.935	23.278
149.093	166.786
153.248	59.081
157.402	50.673
161.554	482.496
165.703	1019.34
169.851	745.178
173.996	2976.01
178.14	15023.8
182.281	18010.8
186.421	2881.26
190.558	1656.85
194.694	747.004
198.827	432.525
202.959	852.069
207.088	1421.15
211.216	1523.16
215.341	276.134
219.465	140.081
223.586	716.001
227.706	437.894
231.823	148.76
235.939	525.598
240.052	2739.41
244.164	6470.12
248.274	2226.83
252.381	717.476
256.487	309.096
260.59	131.866
264.692	38.186
268.791	60.829
272.889	24.709
276.985	117.991
281.078	0.395
285.17	46.139
289.26	434.528
293.348	994.346
297.433	508.861
301.517	425.576
305.599	1169.14
309.679	3096.84
313.757	2256.52
317.833	748.195
321.907	309.853
325.979	270.499
330.049	314.13
334.117	390.741
338.183	925.327
342.247	3577.88
346.31	10168.4
350.37	4091.89
354.428	989.356
358.484	326.804
362.539	96.234
366.591	70.648
370.642	17.947
374.691	2.44
378.737	57.215
382.782	50.196
386.825	27.959
390.865	5.307
394.904	34.752
398.941	15.713
402.976	38.616
407.009	104.502
411.04	123.317
415.07	340.004
419.097	830.609
423.122	1313.39
427.146	677.56
431.167	220.172
435.187	478.932
439.204	1384.71
443.22	754.491
447.234	181.261
451.246	87.02
455.256	292.767
459.264	414.511
463.27	280.246
467.274	487.972
471.277	1505.69
475.277	7010.4
479.275	16047.1
483.272	4508.78
487.267	1276.45
491.26	578.118
495.25	255.771
499.239	197.413
503.226	95.045
507.212	65.668
511.195	47.281
515.176	13.077
519.156	16.671
523.133	8.167
527.109	5.808
531.083	10.434
535.055	28.91
539.025	27.502
542.993	45.814
546.959	108.388
550.923	135.062
554.886	297.748
558.846	760.445
562.805	983.152
566.762	377.86
570.717	366.574
574.67	360.293
578.621	506.013
582.57	738.731
586.518	1038.47
590.463	1563.22
594.407	2517.93
598.349	4681.89
602.289	11101.2
606.227	31336.9
610.163	39723.2
614.097	16558.9
618.03	7040.6
621.961	4992.29
625.889	6834.98
629.816	4637.67
633.741	2210.35
637.664	1335.03
641.586	1005.7
645.505	747.37
649.423	554.034
653.339	403.79
657.253	334.927
661.165	296.037
665.075	233.483
668.983	194.963
672.89	172.988
676.795	141.265
680.697	120.796
684.598	100.757
688.498	100.181
692.395	102.782
696.29	119.876
700.184	64.565
704.076	50.293
707.966	73.995
711.854	84.674
715.74	106.562
719.625	83.981
723.508	8.609
727.388	52.219
731.267	19.81
735.145	29.384
739.02	20.064
742.894	52.448
746.765	25.941
750.635	40.403
754.503	21.841
758.37	39.261
762.234	94.662
766.097	209.045
769.958	346.409
773.817	415.755
777.674	255.225
781.529	104.393
785.383	57.685
789.235	25.958
793.084	20.211
796.933	17.564
800.779	14.387
804.624	27.731
808.466	4.809
812.307	39.152
816.146	40.18
819.984	17.284
823.819	22.442
827.653	2.337
831.485	5.936
835.315	24.243
839.144	28.406
842.97	16.033
846.795	56.643
850.618	76.238
854.44	44.818
858.259	58.384
862.077	102.917
865.893	134.457
869.707	179.95
873.519	179.467
877.33	96.165
881.138	110.663
884.945	137.097
888.751	239.007
892.554	306.484
896.356	436.957
900.156	444.924
903.954	403.892
907.75	363.356
911.545	349.82
915.338	400.283
919.129	392.747
922.918	349.793
926.706	248.681
930.491	123.055
934.276	142.528
938.058	222.643
941.838	295.547
945.617	515.732
949.394	532.119
953.169	396.4
956.943	249.865
960.715	254.116
964.485	286.579
968.253	623.164
972.019	1078
975.784	652.263
979.547	325.895
983.308	280.558
987.068	239.25
990.826	207.965
994.582	247.704
998.336	258.468
1002.09	218.256
1005.84	179.073
1009.59	117.921
1013.34	69.806
1017.08	59.741
1020.83	122.726
1024.57	196.77
1028.31	140.875
1032.05	109.027
1035.78	120.209
1039.52	219.432
1043.25	99.703
1046.98	60.01
1050.71	83.353
1054.44	50.727
1058.17	69.128
1061.89	149.557
1065.62	123.015
1069.34	136.515
1073.06	145.423
1076.78	255.017
1080.49	295.663
1084.21	394.36
1087.92	466.113
1091.63	729.934
1095.34	1049.79
1099.05	1527.97
1102.76	2082.92
1106.46	2318.89
1110.16	1925.9
1113.86	1358.93
1117.56	928.99
1121.26	724.069
1124.95	539.167
1128.65	355.285
1132.34	268.421
1136.03	230.616
1139.72	149.245
1143.41	122.709
1147.1	124.643
1150.78	54.106
1154.46	38.014
1158.14	40.951
1161.82	55.865
1165.5	85.437
1169.17	211.468
1172.85	178.923
1176.52	170.909
1180.19	64.657
1183.86	63.345
1187.53	54.636
1191.19	54.852
1194.86	97.076
1198.52	90.623
1202.18	43.914
1205.84	70.445
1209.49	18.065
1213.15	40.538
1216.8	14.968
1220.45	25.194
1224.11	37.414
1227.75	21.718
1231.4	17.875
1235.05	73.038
1238.69	24.277
1242.33	43.444
1245.97	19.492
1249.61	18.528
1253.25	110.526
1256.88	51.459
1260.52	77.37
1264.15	9.274
1267.78	7.024
1271.41	9.787
1275.04	36.502
1278.66	35.97
1282.29	50.506
1285.91	40.098
1289.53	11.654
1293.15	1.542
1296.76	21.849
1300.38	4.605
1303.99	16.919
1307.61	14.097
1311.22	0.947
1314.83	17.951
1318.43	28.795
1322.04	55.584
1325.64	24.32
1329.24	78.004
1332.85	64.638
1336.44	20.854
1340.04	22.38
1343.64	22.852
1347.23	7.273
1350.83	28.143
1354.42	19.963
1358.01	50.248
1361.59	29.204
1365.18	57.66
1368.76	9.943
1372.35	31.019
1375.93	26.889
1379.51	45.014
1383.09	47.081
1386.66	23.984
1390.24	64.165
1393.81	63.191
1397.38	16.667
1400.95	67.172
1404.52	54.225
1408.09	34.205
1411.65	75.849
1415.21	12.79
1418.78	96.067
1422.34	20.554
1425.9	71.067
1429.45	71.327
1433.01	57.24
1436.56	152.648
1440.12	122.404
1443.67	147.998
1447.21	171.52
1450.76	187.931
1454.31	189.508
1457.85	193.526
1461.39	137.115
1464.94	105.868
1468.47	70.715
1472.01	72.59
1475.55	115.526
1479.08	56.583
1482.62	66.725
1486.15	30.017
1489.68	109.499
1493.21	70.252
1496.73	56.428
1500.26	44.206
