Measurement: Raman, 514 nm, ccw, Raman Data Processed
Mineral: Danburite
Rruff sample: R040013
Ideal chemistry: CaB_2_Si_2_O_8_
Locality: Charcas, San Luis Potosi, Mexico
Source: Marcus Origlieri
Description: Colorless prismatic single crystal
Measured chemistry: Ca_1.00_B_2.00_Si_2.00_O_8_
Pin_id: M00012
Orientation: Laser parallel to c* (0 0 1). Fiducial mark perpendicular to laser is parallel to a [1 0 0]
Raman shift (cm-1)	intensity
115.775	0
119.947	464.497
124.116	5098.52
128.284	7127.28
132.45	2910.33
136.614	2130.38
140.775	2317.33
144.935	225.026
149.093	33.484
153.248	80.816
157.402	11.586
161.554	1552.46
165.703	9724.39
169.851	1770.16
173.996	138.785
178.14	30.166
182.281	339.694
186.421	817.358
190.558	3197
194.694	1128.69
198.827	164.987
202.959	241.792
207.088	766.899
211.216	2213.85
215.341	671.432
219.465	24.972
223.586	67.657
227.706	42.167
231.823	73.863
235.939	337.349
240.052	1903.82
244.164	7628.47
248.274	4750.1
252.381	1473.66
256.487	842.81
260.59	485.053
264.692	173.097
268.791	173.061
272.889	704.801
276.985	2583.59
281.078	1170.64
285.17	175.339
289.26	67.805
293.348	25.245
297.433	60.473
301.517	172.842
305.599	629.527
309.679	2043.51
313.757	2215.4
317.833	738.853
321.907	223.576
325.979	159.572
330.049	208.205
334.117	363.894
338.183	733.957
342.247	2269.85
346.31	8885.84
350.37	6877.5
354.428	2008.58
358.484	651.673
362.539	347.89
366.591	177.609
370.642	68.956
374.691	11.17
378.737	27.229
382.782	53.89
386.825	40.229
390.865	95.227
394.904	74.848
398.941	127.208
402.976	367.469
407.009	759.941
411.04	316.697
415.07	326.259
419.097	750.679
423.122	1714.8
427.146	1355.66
431.167	466.873
435.187	278.733
439.204	571.375
443.22	640.545
447.234	263.166
451.246	155.622
455.256	284.967
459.264	683.17
463.27	706.257
467.274	401.181
471.277	415.051
475.277	1313.18
479.275	4639.82
483.272	2262.32
487.267	591.687
491.26	184.911
495.25	107.02
499.239	4.979
503.226	33.26
507.212	6.722
511.195	34.464
515.176	8.282
519.156	7.66
523.133	29.611
527.109	50.558
531.083	46.474
535.055	28.822
539.025	60.995
542.993	45.301
546.959	72.703
550.923	59.219
554.886	112.802
558.846	397.209
562.805	921.893
566.762	559.371
570.717	374.933
574.67	362.098
578.621	594.84
582.57	756.804
586.518	968.606
590.463	1283.17
594.407	1842.73
598.349	3227.85
602.289	6708.38
606.227	18435.8
610.163	34102.2
614.097	19208.4
618.03	7924.64
621.961	4372.71
625.889	4100.95
629.816	3708.66
633.741	2204.24
637.664	1470.31
641.586	1097.34
645.505	973.197
649.423	771.68
653.339	653.663
657.253	408.449
661.165	262.824
665.075	194.876
668.983	186.188
672.89	155.41
676.795	96.42
680.697	42.91
684.598	33.164
688.498	29.687
692.395	48.592
696.29	4.593
700.184	13.221
704.076	8.777
707.966	17.196
711.854	34.52
715.74	19.419
719.625	13.475
723.508	19.683
727.388	41.934
731.267	24.422
735.145	25.79
739.02	39.952
742.894	26.845
746.765	35.11
750.635	96.973
754.503	27.746
758.37	30.427
762.234	40.021
766.097	67.525
769.958	152.941
773.817	192.278
777.674	134.543
781.529	13.746
785.383	20.914
789.235	24.038
793.084	49.128
796.933	73.19
800.779	52.788
804.624	59.852
808.466	16.997
812.307	65.213
816.146	13.512
819.984	8.83
823.819	35.199
827.653	14.5
831.485	61.55
835.315	64.871
839.144	138.845
842.97	146.132
846.795	179.528
850.618	206.703
854.44	290.428
858.259	352.248
862.077	374.474
865.893	297.622
869.707	129.118
873.519	137.573
877.33	222.244
881.138	228.773
884.945	246.86
888.751	242.021
892.554	306.111
896.356	452.143
900.156	626.299
903.954	801.196
907.75	875.346
911.545	941.602
915.338	1029.88
919.129	962.109
922.918	648.049
926.706	578.327
930.491	432.725
934.276	623.128
938.058	781.333
941.838	1413.23
945.617	2390.29
949.394	2633.84
953.169	1789.12
956.943	1081.17
960.715	916.213
964.485	1118.29
968.253	2260.21
972.019	4286.2
975.784	3753.13
979.547	2010.27
983.308	1169.49
987.068	928.808
990.826	745.235
994.582	695.76
998.336	959.391
1002.09	1690.12
1005.84	2401.95
1009.59	2927.98
1013.34	1473.32
1017.08	862.576
1020.83	873.041
1024.57	1033.34
1028.31	1074.72
1032.05	721.192
1035.78	299.745
1039.52	211.384
1043.25	132.107
1046.98	116.912
1050.71	90.798
1054.44	100.766
1058.17	62.818
1061.89	60.955
1065.62	70.32
1069.34	235.624
1073.06	272.025
1076.78	633.759
1080.49	741.542
1084.21	684.37
1087.92	579.404
1091.63	624.463
1095.34	751.414
1099.05	1141.91
1102.76	1517.39
1106.46	1893.96
1110.16	1581.64
1113.86	1126.42
1117.56	761.269
1121.26	629.182
1124.95	418.158
1128.65	297.267
1132.34	229.36
1136.03	108.51
1139.72	14.285
1143.41	22.971
1147.1	2.726
1150.78	9.617
1154.46	67.048
1158.14	88.322
1161.82	150.303
1165.5	323.817
1169.17	512.404
1172.85	886.091
1176.52	1007.71
1180.19	793.348
1183.86	495.011
1187.53	314.692
1191.19	198.391
1194.86	58.104
1198.52	105.824
1202.18	85.989
1205.84	39.475
1209.49	1.491
1213.15	127.215
1216.8	105.068
1220.45	9.603
1224.11	24.103
1227.75	4.094
1231.4	87.938
1235.05	117.5
1238.69	211.228
1242.33	179.973
1245.97	174.011
1249.61	112.496
1253.25	124.023
1256.88	2.493
1260.52	90.951
1264.15	171.398
1267.78	318.82
1271.41	261.284
1275.04	293.659
1278.66	172.64
1282.29	60.957
1285.91	24.852
1289.53	9.591
1293.15	79.6
1296.76	125
1300.38	155.809
1303.99	97.437
1307.61	222.909
1311.22	224.201
1314.83	243.4
1318.43	208.523
1322.04	164.564
1325.64	132.508
1329.24	0.797
1332.85	5.915
1336.44	45.477
1340.04	51.665
1343.64	5.819
1347.23	47.932
1350.83	50.095
1354.42	4.665
1358.01	57.311
1361.59	43.242
1365.18	20.685
1368.76	40.714
1372.35	11.853
1375.93	77.051
1379.51	96.563
1383.09	152.927
1386.66	123.29
1390.24	157.573
1393.81	59.732
1397.38	43.216
1400.95	78.193
1404.52	66.917
1408.09	101.749
1411.65	119.538
1415.21	212.294
1418.78	167.733
1422.34	170.487
1425.9	117.084
1429.45	241.796
1433.01	274.049
1436.56	456.021
1440.12	668.057
1443.67	901.577
1447.21	1055.69
1450.76	1147.22
1454.31	1124.77
1457.85	1157.61
1461.39	1003.41
1464.94	781.439
1468.47	544.643
1472.01	444.783
1475.55	385.806
1479.08	295.705
1482.62	343.03
1486.15	242.481
1489.68	175.781
1493.21	138.711
1496.73	26.469
1500.26	36.298
