Measurement: Raman, 514 nm, ccw, Raman Data Processed
Mineral: Danburite
Rruff sample: R040013
Ideal chemistry: CaB_2_Si_2_O_8_
Locality: Charcas, San Luis Potosi, Mexico
Source: Marcus Origlieri
Description: Colorless prismatic single crystal
Measured chemistry: Ca_1.00_B_2.00_Si_2.00_O_8_
Pin_id: M00010
Orientation: Laser parallel to a* (1 0 0). Fiducial mark perpendicular to laser is parallel to b [0 1 0]
Raman shift (cm-1)	intensity
115.775	0
119.947	719.007
124.116	2690.14
128.284	2993.58
132.45	450.509
136.614	241.356
140.775	29.671
144.935	22.376
149.093	1017.73
153.248	283.595
157.402	14.827
161.554	1282.58
165.703	3259.86
169.851	190.944
173.996	249.213
178.14	1949.87
182.281	2376.37
186.421	447.878
190.558	708.413
194.694	407.373
198.827	1141.89
202.959	3687.34
207.088	1472.64
211.216	1456.92
215.341	188.183
219.465	5.132
223.586	146.038
227.706	121.134
231.823	14.188
235.939	337.188
240.052	1953.26
244.164	6102.75
248.274	2139.67
252.381	562.464
256.487	182.204
260.59	53.914
264.692	11.276
268.791	8.864
272.889	80.467
276.985	280.481
281.078	34.397
285.17	39.827
289.26	53.526
293.348	321.027
297.433	229.503
301.517	529.905
305.599	1054.62
309.679	1432.02
313.757	826.173
317.833	216.15
321.907	29.004
325.979	36.756
330.049	70.434
334.117	166.046
338.183	435.568
342.247	1966.95
346.31	5780.26
350.37	2155.38
354.428	527.703
358.484	198.485
362.539	61.698
366.591	26.272
370.642	32.163
374.691	5.185
378.737	1.259
382.782	35.426
386.825	99.993
390.865	405.94
394.904	548.683
398.941	137.543
402.976	129.978
407.009	145.985
411.04	144.039
415.07	250.492
419.097	660.823
423.122	1175.58
427.146	637.014
431.167	233.375
435.187	198.998
439.204	764.513
443.22	516.977
447.234	155.368
451.246	53.864
455.256	129.941
459.264	272.119
463.27	175.23
467.274	157.97
471.277	388.572
475.277	1839.42
479.275	4062.26
483.272	1050.04
487.267	280.748
491.26	111.395
495.25	62.979
499.239	18.5
503.226	1.063
507.212	5.211
511.195	11.984
515.176	31.666
519.156	2.819
523.133	12.738
527.109	9.988
531.083	32.57
535.055	10.32
539.025	3.995
542.993	23.601
546.959	46.167
550.923	128.685
554.886	133.187
558.846	359.671
562.805	491.123
566.762	238.552
570.717	214.91
574.67	246.259
578.621	328.611
582.57	426.918
586.518	575.178
590.463	819.393
594.407	1288.47
598.349	2369.49
602.289	5562.69
606.227	15949.8
610.163	19833.8
614.097	8298.79
618.03	3665.73
621.961	2840.63
625.889	3621.48
629.816	2312.3
633.741	1123.08
637.664	693.828
641.586	516.057
645.505	403.746
649.423	286.759
653.339	227.967
657.253	211.053
661.165	157.949
665.075	123.522
668.983	136.061
672.89	85.971
676.795	72.264
680.697	79.084
684.598	38.188
688.498	82.683
692.395	35.989
696.29	62.166
700.184	73.023
704.076	17.362
707.966	108.74
711.854	159.048
715.74	209.321
719.625	116.572
723.508	86.802
727.388	38.012
731.267	44.202
735.145	28.374
739.02	38.531
742.894	59.669
746.765	0.787
750.635	37.887
754.503	47.972
758.37	47.043
762.234	60.1
766.097	128.145
769.958	140.178
773.817	261.2
777.674	188.212
781.529	116.219
785.383	45.23
789.235	2.751
793.084	22.73
796.933	11.725
800.779	2.72
804.624	13.287
808.466	20.305
812.307	6.656
816.146	16.619
819.984	35.585
823.819	16.411
827.653	1.619
831.485	37.668
835.315	9.75
839.144	12.161
842.97	38.042
846.795	1.049
850.618	59.862
854.44	20.778
858.259	45.7
862.077	32.629
865.893	122.565
869.707	64.51
873.519	58.465
877.33	75.43
881.138	51.282
884.945	79.186
888.751	118.19
892.554	211.208
896.356	318.242
900.156	441.293
903.954	420.362
907.75	469.448
911.545	592.554
915.338	814.68
919.129	873.826
922.918	831.994
926.706	580.106
930.491	419.454
934.276	362.106
938.058	470.97
941.838	796.418
945.617	1203.73
949.394	1091.95
953.169	683.684
956.943	526.834
960.715	538.865
964.485	821.078
968.253	1590.89
972.019	2587.27
975.784	1586.46
979.547	881.036
983.308	565.571
987.068	399.215
990.826	392.894
994.582	425.702
998.336	492.355
1002.09	670.147
1005.84	1329.99
1009.59	1061.88
1013.34	417.804
1017.08	298.807
1020.83	221.868
1024.57	237.973
1028.31	216.115
1032.05	165.294
1035.78	101.511
1039.52	167.766
1043.25	88.07
1046.98	49.417
1050.71	32.82
1054.44	52.271
1058.17	45.756
1061.89	95.281
1065.62	96.853
1069.34	122.935
1073.06	125.149
1076.78	176.864
1080.49	194.782
1084.21	236.56
1087.92	246.377
1091.63	433.236
1095.34	551.149
1099.05	858.101
1102.76	1137.17
1106.46	1246.2
1110.16	993.266
1113.86	749.355
1117.56	525.471
1121.26	458.611
1124.95	288.773
1128.65	179.966
1132.34	113.323
1136.03	126.123
1139.72	93.161
1143.41	58.436
1147.1	0.052
1150.78	21.956
1154.46	25.283
1158.14	16.75
1161.82	97.151
1165.5	64.551
1169.17	141.167
1172.85	201.193
1176.52	162.23
1180.19	145.432
1183.86	129.595
1187.53	38.055
1191.19	73.437
1194.86	19.336
1198.52	48.772
1202.18	33.134
1205.84	28.608
1209.49	20.895
1213.15	11.152
1216.8	70.471
1220.45	17.819
1224.11	12.206
1227.75	21.414
1231.4	75.783
1235.05	50.929
1238.69	83.054
1242.33	51.266
1245.97	20.479
1249.61	30.69
1253.25	63.734
1256.88	77.754
1260.52	73.736
1264.15	81.73
1267.78	23.573
1271.41	47.924
1275.04	25.024
1278.66	45.276
1282.29	23.679
1285.91	17.856
1289.53	14.329
1293.15	16.586
1296.76	11.252
1300.38	48.601
1303.99	22.9
1307.61	35.146
1311.22	36.66
1314.83	4.458
1318.43	11.525
1322.04	15.456
1325.64	13.505
1329.24	21.372
1332.85	68.2
1336.44	23.979
1340.04	45.71
1343.64	28.225
1347.23	8.931
1350.83	7.521
1354.42	23.063
1358.01	2.563
1361.59	32.019
1365.18	44.557
1368.76	22.936
1372.35	12.152
1375.93	17.338
1379.51	77.667
1383.09	43.933
1386.66	52.27
1390.24	35.461
1393.81	52.055
1397.38	40.246
1400.95	0.274
1404.52	73.875
1408.09	22.179
1411.65	56.193
1415.21	73.804
1418.78	3.928
1422.34	30.605
1425.9	49.217
1429.45	19.662
1433.01	61.022
1436.56	91.596
1440.12	80.571
1443.67	124.66
1447.21	200.845
1450.76	161.007
1454.31	144.95
1457.85	131.109
1461.39	93.037
1464.94	132.201
1468.47	57.282
1472.01	47.285
1475.55	78.254
1479.08	10.295
1482.62	37.502
1486.15	79.754
1489.68	19.455
1493.21	5.741
1496.73	53.057
1500.26	7.334
