Measurement: Raman, 514 nm, ccw, Raman Data Processed
Mineral: Danburite
Rruff sample: R040013
Ideal chemistry: CaB_2_Si_2_O_8_
Locality: Charcas, San Luis Potosi, Mexico
Source: Marcus Origlieri
Description: Colorless prismatic single crystal
Measured chemistry: Ca_1.00_B_2.00_Si_2.00_O_8_
Pin_id: M00010
Orientation: Laser parallel to a* (1 0 0). Fiducial mark perpendicular to laser is parallel to b [0 1 0]
Raman shift (cm-1)	intensity
117.166	0
121.337	606.114
125.506	376.513
129.673	80.81
133.838	20.006
138.001	245.839
142.162	21.046
146.321	29.56
150.478	417.51
154.633	7.857
158.786	132.607
162.937	884.587
167.086	582.642
171.233	769.743
175.378	4250.87
179.521	18014
183.662	7860.57
187.8	1761.7
191.937	1229.92
196.072	478.592
200.205	924.866
204.336	1425.91
208.465	1753.47
212.591	772.982
216.716	158.443
220.839	213.867
224.96	365.541
229.079	122.61
233.195	182.927
237.31	857.206
241.423	3966.45
245.534	4736.5
249.643	1313.98
253.75	462.372
257.855	219.099
261.958	79.826
266.059	39.965
270.158	28.078
274.255	151.878
278.35	133.368
282.443	16.17
286.534	117.255
290.623	448.529
294.71	681.883
298.795	329.975
302.878	597.962
306.959	1471.74
311.038	2686.8
315.116	1280.84
319.191	409.858
323.264	208.857
327.336	215.832
331.405	280.782
335.473	415.695
339.538	1180.57
343.602	4779.39
347.663	7647.18
351.723	2003.92
355.78	534.629
359.836	180.305
363.89	72.06
367.942	19.329
371.992	8.63
376.04	18.962
380.086	55.303
384.13	73.445
388.172	24.054
392.212	194.318
396.25	82.124
400.286	49.003
404.321	110.84
408.353	86.651
412.384	173.327
416.412	419.681
420.439	892.377
424.464	1059.04
428.486	366.436
432.507	188.863
436.526	710.433
440.543	1270
444.558	417.539
448.572	89.044
452.583	128.521
456.592	319.967
460.6	357.379
464.605	266.757
468.609	621.107
472.61	2065.43
476.61	9532.71
480.608	10115
484.604	2239.18
488.598	765.37
492.59	320.523
496.58	198.645
500.569	82.735
504.555	67.792
508.54	42.821
512.522	19.945
516.503	44.571
520.482	39.956
524.459	5.829
528.434	30.841
532.407	2.261
536.378	6.015
540.348	33.787
544.315	71.509
548.281	64.286
552.244	230.056
556.206	331.814
560.166	900.561
564.124	590.333
568.08	231.103
572.035	306.807
575.987	365.497
579.938	548.169
583.886	706.824
587.833	973.494
591.778	1519.11
595.721	2644.89
599.662	5264.48
603.602	13466
607.539	33717.6
611.475	25739.7
615.408	9921.24
619.34	5015.74
623.27	4728.22
627.199	5752.69
631.125	2902.13
635.049	1576.57
638.972	1019.98
642.893	754.382
646.811	552.767
650.728	407.488
654.644	308.219
658.557	282.53
662.468	180.913
666.378	224.01
670.286	172.491
674.192	129.139
678.096	101.247
681.998	84.847
685.898	93.915
689.797	81.179
693.694	67.027
697.589	51.491
701.482	21.887
705.373	6.906
709.262	79.262
713.15	114.601
717.035	103.921
720.919	51.223
724.801	10.508
728.682	18.773
732.56	2.979
736.437	50.246
740.311	50.453
744.184	43.643
748.055	19.184
751.925	20.958
755.792	53.082
759.658	45.188
763.522	87.279
767.384	190.354
771.244	349.415
775.102	364.461
778.959	192.493
782.814	80.511
786.667	14.484
790.518	7.495
794.367	67.456
798.215	29.605
802.061	3.304
805.905	35.794
809.747	47.929
813.587	22.109
817.426	34.327
821.263	37.619
825.098	1.984
828.931	3.384
832.762	6.067
836.592	18.734
840.42	28.727
844.246	60.697
848.07	23.199
851.892	30.695
855.713	66.183
859.532	71.666
863.349	99.117
867.164	128.583
870.978	162.879
874.789	155.341
878.599	126.805
882.408	95.269
886.214	117.194
890.019	179.659
893.822	240.061
897.623	346.532
901.422	368.009
905.22	378.492
909.015	313.982
912.809	355.479
916.602	416.985
920.392	460.499
924.181	401.631
927.968	303.087
931.753	155.177
935.536	249.761
939.318	257.142
943.098	405.854
946.876	556.76
950.653	513.452
954.427	317.868
958.2	269.925
961.971	247.796
965.741	436.674
969.508	801.081
973.274	1080.8
977.039	520.946
980.801	314.765
984.562	239.612
988.321	226.487
992.078	238.391
995.833	259.324
999.587	246.287
1003.34	294.286
1007.09	261.325
1010.84	201.4
1014.58	130.668
1018.33	127.686
1022.07	180.9
1025.81	209.195
1029.55	219.562
1033.29	162.976
1037.03	158.435
1040.76	234.938
1044.5	57.477
1048.23	71.046
1051.96	82.645
1055.68	93.277
1059.41	97.945
1063.13	46.646
1066.86	80.383
1070.58	101.25
1074.3	211.07
1078.02	311.389
1081.73	349.294
1085.44	354.257
1089.16	477.287
1092.87	667.399
1096.58	1009.54
1100.28	1616.94
1103.99	2093.16
1107.69	2060.4
1111.39	1544.69
1115.1	1024.98
1118.8	720.318
1122.49	600.647
1126.19	350.039
1129.88	295.46
1133.57	245.872
1137.26	186.152
1140.95	116.756
1144.64	17.411
1148.32	48.01
1152.01	87.879
1155.69	99.916
1159.37	101.634
1163.05	140.625
1166.72	146.978
1170.4	136.362
1174.07	193.488
1177.74	167.967
1181.41	117.46
1185.08	103.967
1188.75	141.806
1192.41	39.114
1196.08	101.457
1199.74	35.371
1203.4	21.865
1207.06	30.095
1210.71	55.519
1214.37	26.113
1218.02	24.09
1221.67	18.086
1225.32	14.302
1228.97	70.009
1232.62	18.489
1236.26	106.011
1239.9	17.033
1243.55	78.872
1247.18	19.305
1250.82	63.191
1254.46	98.93
1258.1	27.682
1261.73	65.443
1265.36	9.962
1268.99	0.556
1272.62	2.841
1276.24	13.439
1279.87	49.284
1283.49	13.862
1287.11	47.077
1290.73	16.542
1294.35	29.329
1297.97	9.1
1301.58	9.213
1305.2	13.973
1308.81	53.883
1312.42	40.309
1316.03	98.66
1319.63	80.933
1323.24	65.131
1326.84	20.254
1330.44	15.301
1334.05	34.166
1337.64	32.042
1341.24	11.378
1344.84	86.096
1348.43	29.74
1352.02	56.297
1355.61	75.781
1359.2	99.215
1362.79	62.357
1366.37	81.774
1369.96	102.004
1373.54	11.826
1377.12	50.783
1380.7	77.313
1384.28	30.703
1387.85	15.896
1391.43	40.675
1395	92.127
1398.57	68.176
1402.14	54.156
1405.71	14.501
1409.28	90.652
1412.84	10.026
1416.4	6.135
1419.96	105.668
1423.52	112.087
1427.08	110.485
1430.64	143.56
1434.19	122.687
1437.75	208.593
1441.3	158.145
1444.85	159.648
1448.4	225.79
1451.94	216.663
1455.49	165.195
1459.03	129.401
1462.58	140.287
1466.12	228.448
1469.65	122.671
1473.19	139.991
1476.73	34.322
1480.26	109.691
1483.8	93.289
1487.33	66.119
1490.86	20.218
1494.38	23.455
1497.91	64.876
1501.43	42.775
