Measurement: Raman, 514 nm, ccw, Raman Data Processed
Mineral: Danburite
Rruff sample: R040013
Ideal chemistry: CaB_2_Si_2_O_8_
Locality: Charcas, San Luis Potosi, Mexico
Source: Marcus Origlieri
Description: Colorless prismatic single crystal
Measured chemistry: Ca_1.00_B_2.00_Si_2.00_O_8_
Pin_id: M00009
Orientation: Laser parallel to b* (0 1 0). Fiducial mark perpendicular to laser is parallel to -c [0 0 -1]
Raman shift (cm-1)	intensity
101.854	0
106.032	154.357
110.209	1294.57
114.384	1180.63
118.556	773.163
122.727	658.724
126.895	406.609
131.062	200.311
135.226	50.52
139.388	57.891
143.549	16.497
147.707	52.214
151.863	23.641
156.018	8.681
160.17	107.573
164.32	549.837
168.469	415.827
172.615	1211.77
176.759	6916.22
180.901	24001.8
185.041	5861.49
189.18	1569.43
193.316	1848.23
197.45	376.041
201.582	137.253
205.712	301.058
209.84	939.616
213.967	269.952
218.091	52.068
222.213	379.959
226.333	1537.62
230.451	204.049
234.567	73.813
238.682	528.667
242.794	2752.31
246.904	2253.15
251.012	609.4
255.118	307.327
259.223	230.017
263.325	153.106
267.425	83.204
271.523	58.78
275.62	69.381
279.714	21.438
283.806	69.268
287.897	410.383
291.985	1450.02
296.072	1677.76
300.156	490.59
304.239	682.922
308.319	2112.47
312.398	3017.28
316.474	1092.96
320.549	398.475
324.622	323.83
328.692	473.019
332.761	372.028
336.828	557.832
340.893	1884.38
344.956	7482.74
349.017	6547.94
353.076	1496.99
357.133	464.874
361.188	120.644
365.241	20.546
369.292	12.213
373.341	78.989
377.388	38.072
381.434	80.674
385.477	37.82
389.519	104.045
393.558	58.849
397.596	0.854
401.631	4.922
405.665	3.971
409.697	11.945
413.727	99.646
417.755	317.245
421.781	711.096
425.805	607.972
429.827	157.613
433.847	128.347
437.865	690.032
441.882	797.631
445.896	146.119
449.909	56.486
453.919	275.706
457.928	858.775
461.935	437.693
465.94	397.458
469.943	946.069
473.944	3434.52
477.943	14573.8
481.94	8366.95
485.935	1925.94
489.929	730.766
493.92	407.441
497.91	218.963
501.898	168.333
505.883	132.392
509.867	198.22
513.849	127.938
517.829	162.871
521.808	130.629
525.784	112.307
529.758	102.592
533.731	131.876
537.701	45.76
541.67	125.654
545.637	152.148
549.602	173.374
553.565	222.065
557.526	612.882
561.486	982.647
565.443	593.139
569.399	489.31
573.352	487.305
577.304	555.411
581.254	750.279
585.202	1046.06
589.148	1343.55
593.093	1936.78
597.035	3274.53
600.976	6662.41
604.914	17982.2
608.851	37981.9
612.786	21850.8
616.719	8729.66
620.651	5160.4
624.58	5855.98
628.507	5755.46
632.433	2922.83
636.357	1850.1
640.279	1507.26
644.199	1397.32
648.117	1297.29
652.034	1204.17
655.948	883.817
659.861	505.634
663.772	290.441
667.681	249.183
671.588	320.764
675.493	187.335
679.397	120.516
683.298	28.95
687.198	24.522
691.096	18.073
694.992	0.289
698.886	8.456
702.779	19.337
706.669	25.404
710.558	18.688
714.445	25.192
718.33	140.156
722.214	64.588
726.095	9.515
729.975	128.537
733.852	146.485
737.728	13.637
741.603	15.838
745.475	6.113
749.345	66.546
753.214	119.149
757.081	61.706
760.946	134.218
764.809	145.689
768.671	377.122
772.53	455.52
776.388	319.884
780.244	120.218
784.098	2.475
787.951	123.806
791.801	186.063
795.65	224.301
799.497	170.519
803.342	86.717
807.186	56.897
811.027	116.064
814.867	175.22
818.705	210.365
822.541	173.1
826.375	253.676
830.208	293.522
834.039	360.501
837.868	451.382
841.695	515.49
845.521	474.634
849.344	523.972
853.166	686.101
856.986	1094.29
860.804	1231.68
864.621	1001.48
868.436	771.049
872.248	656.116
876.06	692.459
879.869	670.23
883.677	680.287
887.482	645.554
891.287	675.189
895.089	1005.8
898.889	1043.51
902.688	916.313
906.485	777.167
910.28	716.073
914.074	516.032
917.865	357.047
921.655	186.416
925.443	291.543
929.23	312.731
933.014	256.023
936.797	257.372
940.578	309.798
944.358	467.335
948.135	734.936
951.911	649.603
955.685	438.335
959.458	276.14
963.228	378.041
966.997	631.032
970.764	1549.13
974.529	1308.33
978.293	488.632
982.055	272.073
985.815	305.657
989.573	420.388
993.33	550.209
997.085	763.133
1000.84	1189.35
1004.59	694.261
1008.34	122.442
1012.09	45.871
1015.83	170.514
1019.58	533.865
1023.32	573.438
1027.06	411.781
1030.8	204.393
1034.54	147.073
1038.27	329.813
1042.01	385.611
1045.74	177.468
1049.47	240.383
1053.2	127.354
1056.93	25.373
1060.65	9.443
1064.38	0.082
1068.1	124.331
1071.82	205.884
1075.54	352.542
1079.25	551.883
1082.97	648.281
1086.68	542.742
1090.39	650.445
1094.11	848.018
1097.81	1200.66
1101.52	1759.37
1105.22	2076.12
1108.93	1888.91
1112.63	1209.74
1116.33	870.592
1120.03	619.473
1123.72	513.379
1127.42	487.309
1131.11	358.259
1134.8	171.229
1138.49	50.22
1142.18	104.771
1145.87	14.81
1149.55	11.854
1153.23	19.93
1156.91	62.912
1160.59	45.712
1164.27	53.492
1167.95	28.269
1171.62	36.051
1175.3	88.834
1178.97	69.62
1182.64	183.405
1186.3	120.187
1189.97	80.561
1193.63	11.336
1197.3	98.919
1200.96	16.231
1204.62	61.965
1208.27	75.386
1211.93	91.837
1215.58	233.743
1219.24	163.248
1222.89	64.33
1226.54	21.448
1230.18	99.973
1233.83	171.417
1237.47	312.348
1241.12	365.292
1244.76	361.709
1248.4	419.116
1252.04	264.507
1255.67	202.884
1259.31	172.243
1262.94	234.587
1266.57	380.914
1270.2	551.518
1273.83	544.651
1277.45	515.73
1281.08	401.739
1284.7	238.937
1288.32	218.404
1291.94	348.851
1295.56	256.051
1299.17	174.192
1302.79	303.25
1306.4	570.209
1310.01	701.134
1313.62	501.039
1317.23	565.929
1320.84	502.808
1324.44	398.663
1328.04	229.908
1331.64	129.395
1335.24	12.219
1338.84	3.422
1342.44	51.323
1346.03	146.061
1349.63	35.8
1353.22	45.352
1356.81	43.892
1360.4	24.875
1363.98	19.289
1367.57	20.345
1371.15	11.236
1374.73	107.529
1378.32	263.346
1381.89	250.271
1385.47	240.166
1389.05	181.019
1392.62	76.918
1396.19	10.094
1399.76	32.008
1403.33	36.551
1406.9	47.255
1410.46	23.39
1414.03	131.541
1417.59	135.776
1421.15	190.069
1424.71	185.822
1428.27	344.513
1431.82	405.465
1435.38	571.463
1438.93	1006.27
1442.48	1406
1446.03	1508.7
1449.58	1819.36
1453.13	2098.23
1456.67	2118.68
1460.21	1980
1463.76	1555.29
1467.3	1089.06
1470.83	839.801
1474.37	641.886
1477.91	585.374
1481.44	533.555
1484.97	472.786
1488.5	338.397
1492.03	201.896
1495.56	63.425
1499.08	21.214
1502.61	0
