Measurement: Raman, 514 nm, ccw, Raman Data Processed
Mineral: Danburite
Rruff sample: R040013
Ideal chemistry: CaB_2_Si_2_O_8_
Locality: Charcas, San Luis Potosi, Mexico
Source: Marcus Origlieri
Description: Colorless prismatic single crystal
Measured chemistry: Ca_1.00_B_2.00_Si_2.00_O_8_
Pin_id: M00009
Orientation: Laser parallel to b* (0 1 0). Fiducial mark perpendicular to laser is parallel to -c [0 0 -1]
Raman shift (cm-1)	intensity
97.673	0
101.854	262.005
106.032	446.329
110.209	1641.96
114.384	3094.66
118.556	1334.26
122.727	4034.25
126.895	1570.15
131.062	393.281
135.226	152.321
139.388	175.274
143.549	54.964
147.707	92.861
151.863	47.495
156.018	9.075
160.17	221.339
164.32	952.993
168.469	490.336
172.615	431.035
176.759	2335.81
180.901	10785.6
185.041	3324.51
189.18	2259.16
193.316	4493.24
197.45	566.024
201.582	335.259
205.712	1256.02
209.84	4956.61
213.967	1428.26
218.091	355.473
222.213	1205.5
226.333	4803.35
230.451	1042
234.567	1043.55
238.682	3625.58
242.794	15073.2
246.904	10717.9
251.012	2426.01
255.118	885.565
259.223	491.167
263.325	319.824
267.425	133.83
271.523	133.369
275.62	184.114
279.714	183.321
283.806	312.459
287.897	1168.51
291.985	4040.44
296.072	4664.05
300.156	1129.59
304.239	534.476
308.319	911.575
312.398	1218.94
316.474	312.172
320.549	173.244
324.622	248.148
328.692	795.881
332.761	308.442
336.828	274.815
340.893	666.017
344.956	2681.05
349.017	2332.1
353.076	516.508
357.133	78.245
361.188	6.195
365.241	112.748
369.292	44.838
373.341	50.612
377.388	59.712
381.434	68.216
385.477	52.574
389.519	151.711
393.558	89.422
397.596	32.78
401.631	82.029
405.665	177.481
409.697	283.501
413.727	360.305
417.755	981.709
421.781	2262.53
425.805	2039.5
429.827	566.599
433.847	542.573
437.865	1849.41
441.882	2395.12
445.896	732.72
449.909	250.201
453.919	543.581
457.928	2004.78
461.935	684.8
465.94	227.632
469.943	363.101
473.944	1133.58
477.943	4409.87
481.94	2551.97
485.935	603.888
489.929	281.621
493.92	92.166
497.91	94.508
501.898	36.216
505.883	138.127
509.867	131.056
513.849	78.174
517.829	67.517
521.808	61.264
525.784	111.98
529.758	100.751
533.731	15.157
537.701	12.551
541.67	74.12
545.637	95.782
549.602	81.608
553.565	73.635
557.526	240.565
561.486	547.847
565.443	393.745
569.399	478.495
573.352	384.386
577.304	465.917
581.254	605.194
585.202	792.134
589.148	986.895
593.093	1335.43
597.035	2326.76
600.976	4480.63
604.914	11822.6
608.851	25310.3
612.786	14497.1
616.719	6030.52
620.651	3887.9
624.58	5244.08
628.507	5616.12
632.433	2602.04
636.357	1628.32
640.279	1216.29
644.199	1099.37
648.117	847.139
652.034	918.238
655.948	734.392
659.861	378.176
663.772	208.028
667.681	215.098
671.588	421.032
675.493	363.754
679.397	134.489
683.298	19.682
687.198	13.862
691.096	42.334
694.992	13.923
698.886	6.596
702.779	56.896
706.669	46.58
710.558	42.461
714.445	8.446
718.33	42.821
722.214	36.247
726.095	5.208
729.975	142.583
733.852	195.88
737.728	22.087
741.603	14.214
745.475	39.275
749.345	74.272
753.214	137.199
757.081	140.074
760.946	124.905
764.809	130.694
768.671	292.446
772.53	533.163
776.388	394.853
780.244	111.524
784.098	10.183
787.951	58.835
791.801	140.49
795.65	214.146
799.497	159.794
803.342	90.432
807.186	54.06
811.027	109.68
814.867	181.294
818.705	167.912
822.541	195.285
826.375	164.165
830.208	202.677
834.039	302.673
837.868	297.969
841.695	469.396
845.521	548.758
849.344	485.005
853.166	622.966
856.986	997.03
860.804	1205.46
864.621	1054.85
868.436	944.608
872.248	810.292
876.06	804.993
879.869	798.136
883.677	891.215
887.482	808.443
891.287	1021.46
895.089	1598.76
898.889	1801.07
902.688	1541.52
906.485	1244.04
910.28	908.617
914.074	567.261
917.865	367.97
921.655	237.76
925.443	407.627
929.23	413.207
933.014	257.298
936.797	196.424
940.578	242.592
944.358	266.902
948.135	485.287
951.911	547.749
955.685	403.292
959.458	332.909
963.228	490.635
966.997	1096.46
970.764	3042.41
974.529	2735.48
978.293	1088.67
982.055	602.999
985.815	509.478
989.573	596.093
993.33	755.844
997.085	1109.71
1000.84	1392.95
1004.59	820.733
1008.34	313.879
1012.09	154.957
1015.83	163.825
1019.58	527.118
1023.32	621.048
1027.06	452.63
1030.8	295.814
1034.54	232.13
1038.27	581.442
1042.01	616.311
1045.74	269.249
1049.47	229.254
1053.2	269.963
1056.93	104.562
1060.65	56.27
1064.38	5.77
1068.1	3.301
1071.82	288.936
1075.54	409.037
1079.25	546.524
1082.97	670.183
1086.68	635.804
1090.39	622.862
1094.11	887.629
1097.81	1563.72
1101.52	2096.93
1105.22	2557.92
1108.93	2274.98
1112.63	1631.08
1116.33	985.214
1120.03	748.375
1123.72	662.562
1127.42	604.771
1131.11	459.002
1134.8	229.253
1138.49	124.536
1142.18	48.15
1145.87	27.844
1149.55	40.458
1153.23	60.746
1156.91	75.001
1160.59	94.232
1164.27	31.573
1167.95	27.41
1171.62	54.734
1175.3	110.875
1178.97	99.007
1182.64	166.13
1186.3	187.233
1189.97	144.3
1193.63	44.292
1197.3	32.377
1200.96	10.464
1204.62	0.426
1208.27	92.981
1211.93	181.837
1215.58	193.765
1219.24	219.65
1222.89	64.178
1226.54	1.069
1230.18	1.663
1233.83	132.892
1237.47	320.252
1241.12	352.354
1244.76	256.74
1248.4	438.091
1252.04	299.415
1255.67	315.709
1259.31	177.974
1262.94	184.205
1266.57	420.618
1270.2	456.167
1273.83	627.353
1277.45	603.046
1281.08	464.989
1284.7	351.132
1288.32	209.692
1291.94	265.645
1295.56	262.4
1299.17	203.668
1302.79	302.314
1306.4	463.793
1310.01	699.13
1313.62	661.419
1317.23	653.021
1320.84	565.742
1324.44	351.807
1328.04	196.794
1331.64	152.43
1335.24	18.783
1338.84	68.339
1342.44	174.01
1346.03	106.51
1349.63	120.049
1353.22	32.146
1356.81	10.688
1360.4	63.603
1363.98	109.249
1367.57	56.883
1371.15	96.811
1374.73	108.224
1378.32	260.539
1381.89	195.788
1385.47	242.966
1389.05	213.013
1392.62	143.004
1396.19	44.012
1399.76	23.011
1403.33	63.988
1406.9	114.947
1410.46	115.881
1414.03	119.858
1417.59	213.925
1421.15	156.357
1424.71	320.722
1428.27	365.451
1431.82	408.737
1435.38	414.998
1438.93	727.843
1442.48	1141.54
1446.03	1265.04
1449.58	1473.45
1453.13	1711.86
1456.67	1621
1460.21	1521.7
1463.76	1291.06
1467.3	902.846
1470.83	750.734
1474.37	429.627
1477.91	523.899
1481.44	507.941
1484.97	449.954
1488.5	285.205
1492.03	203.325
1495.56	135.401
1499.08	95.698
