Measurement: Raman, 514 nm, ccw, Raman Data Processed
Mineral: Danburite
Rruff sample: R040013
Ideal chemistry: CaB_2_Si_2_O_8_
Locality: Charcas, San Luis Potosi, Mexico
Source: Marcus Origlieri
Description: Colorless prismatic single crystal
Measured chemistry: Ca_1.00_B_2.00_Si_2.00_O_8_
Pin_id: M00010
Orientation: Laser parallel to a* (1 0 0). Fiducial mark perpendicular to laser is parallel to b [0 1 0]
Raman shift (cm-1)	intensity
107.425	0
111.601	510.323
115.775	458.009
119.947	2522.8
124.116	6916.52
128.284	9904.11
132.45	1443.74
136.614	455.331
140.775	67.104
144.935	64.343
149.093	284.053
153.248	57.001
157.402	382.124
161.554	4204.79
165.703	8879.85
169.851	512.814
173.996	11.658
178.14	309.847
182.281	533.336
186.421	60.881
190.558	392.687
194.694	71.987
198.827	325.539
202.959	1130.43
207.088	1045.4
211.216	1210.44
215.341	88.526
219.465	34.383
223.586	14.723
227.706	35.171
231.823	5.921
235.939	373.024
240.052	2255.08
244.164	6602.45
248.274	2050.76
252.381	611.898
256.487	234.884
260.59	76.66
264.692	15.001
268.791	21.551
272.889	2.885
276.985	211.076
281.078	38.234
285.17	55.63
289.26	9.61
293.348	162.211
297.433	187.865
301.517	455.683
305.599	1330.75
309.679	3091.45
313.757	1877.94
317.833	526.253
321.907	196.281
325.979	153.461
330.049	225.637
334.117	440.776
338.183	1077.8
342.247	4870.76
346.31	14476.6
350.37	5286.29
354.428	1404.04
358.484	601.025
362.539	340.067
366.591	169.169
370.642	98.158
374.691	59.041
378.737	15.473
382.782	45.657
386.825	58.58
390.865	165.821
394.904	153.974
398.941	80.532
402.976	105.901
407.009	157.115
411.04	213.711
415.07	396.345
419.097	954.75
423.122	1792.72
427.146	882.627
431.167	242.764
435.187	146.364
439.204	379.114
443.22	251.827
447.234	37.484
451.246	46.08
455.256	62.615
459.264	197.096
463.27	143.525
467.274	242.904
471.277	658.237
475.277	3081.52
479.275	6505.75
483.272	1571.93
487.267	416.058
491.26	151.14
495.25	76.174
499.239	45.16
503.226	19.909
507.212	30.062
511.195	38.713
515.176	18.513
519.156	37.826
523.133	8.538
527.109	6.877
531.083	11.823
535.055	7.47
539.025	9.795
542.993	24.017
546.959	76.202
550.923	90.348
554.886	235.46
558.846	672.56
562.805	980.664
566.762	479.742
570.717	416.781
574.67	504.808
578.621	600.852
582.57	816.003
586.518	1092.83
590.463	1598.71
594.407	2425.31
598.349	4602.15
602.289	11022
606.227	31486.7
610.163	36921.5
614.097	14766.1
618.03	6304.76
621.961	4065.36
625.889	4316.91
629.816	2881.43
633.741	1553.91
637.664	1140.35
641.586	847.693
645.505	676.904
649.423	497.599
653.339	406.416
657.253	337.946
661.165	253.323
665.075	251.626
668.983	236.839
672.89	157.644
676.795	117.373
680.697	176.68
684.598	97.014
688.498	131.409
692.395	76.937
696.29	120.846
700.184	72.411
704.076	76.179
707.966	94.312
711.854	83.18
715.74	155.054
719.625	120.845
723.508	62.609
727.388	60.343
731.267	38.051
735.145	27.736
739.02	86.395
742.894	43.029
746.765	14.639
750.635	32.603
754.503	62.786
758.37	63.325
762.234	71.843
766.097	92.339
769.958	180.816
773.817	208.274
777.674	114.714
781.529	47.136
785.383	23.551
789.235	9.971
793.084	14.373
796.933	21.232
800.779	8.844
804.624	38.557
808.466	28.039
812.307	34.665
816.146	32.316
819.984	7.987
823.819	17.289
827.653	1.54
831.485	4.768
835.315	16.03
839.144	0.135
842.97	30.284
846.795	73.412
850.618	7.532
854.44	31.651
858.259	91.769
862.077	68.889
865.893	49.012
869.707	55.139
873.519	57.272
877.33	82.411
881.138	56.557
884.945	116.688
888.751	192.853
892.554	284.03
896.356	447.221
900.156	593.426
903.954	720.647
907.75	810.885
911.545	1111.14
915.338	1301.41
919.129	1199.71
922.918	868.024
926.706	660.36
930.491	633.722
934.276	757.281
938.058	1149.09
941.838	2038.48
945.617	3143.8
949.394	2792.59
953.169	1626.8
956.943	1196.22
960.715	1185.57
964.485	1691.8
968.253	3609.91
972.019	5711.3
975.784	3533.73
979.547	2026.63
983.308	1326.18
987.068	943.993
990.826	785.817
994.582	812.735
998.336	1004.7
1002.09	1648.7
1005.84	3609.75
1009.59	2821.84
1013.34	1091.97
1017.08	631.184
1020.83	421.437
1024.57	379.758
1028.31	330.249
1032.05	204.731
1035.78	138.271
1039.52	173.872
1043.25	100.526
1046.98	117.229
1050.71	47.98
1054.44	51.777
1058.17	99.625
1061.89	121.552
1065.62	116.507
1069.34	123.515
1073.06	162.625
1076.78	205.742
1080.49	225.914
1084.21	286.155
1087.92	409.458
1091.63	530.826
1095.34	793.27
1099.05	1063.77
1102.76	1479.32
1106.46	1636.92
1110.16	1354.58
1113.86	962.3
1117.56	667.07
1121.26	605.881
1124.95	332.728
1128.65	229.612
1132.34	158.531
1136.03	100.484
1139.72	83.47
1143.41	81.49
1147.1	33.725
1150.78	40.245
1154.46	35.59
1158.14	5.924
1161.82	34.219
1165.5	73.13
1169.17	134.39
1172.85	165.276
1176.52	163.735
1180.19	102.2
1183.86	58.448
1187.53	39.922
1191.19	29.551
1194.86	24.85
1198.52	34.132
1202.18	77.858
1205.84	3.148
1209.49	10.511
1213.15	36.965
1216.8	25.256
1220.45	61.635
1224.11	66.415
1227.75	19.461
1231.4	17.786
1235.05	51.385
1238.69	49.995
1242.33	45.477
1245.97	52.633
1249.61	42.959
1253.25	33.185
1256.88	100.457
1260.52	78.678
1264.15	58.909
1267.78	34.105
1271.41	6.32
1275.04	5.661
1278.66	4.336
1282.29	20.398
1285.91	40.503
1289.53	55.705
1293.15	11.972
1296.76	6.893
1300.38	10.843
1303.99	0.946
1307.61	8.628
1311.22	21.145
1314.83	41.607
1318.43	7.973
1322.04	47.401
1325.64	38.699
1329.24	22.982
1332.85	71.219
1336.44	73.374
1340.04	30.529
1343.64	27.641
1347.23	10.715
1350.83	31.751
1354.42	17.251
1358.01	12.704
1361.59	51.63
1365.18	58.532
1368.76	15.445
1372.35	43.454
1375.93	74.203
1379.51	67.949
1383.09	16.654
1386.66	34.317
1390.24	58.728
1393.81	30.984
1397.38	34.915
1400.95	22.109
1404.52	63.096
1408.09	17.624
1411.65	107.749
1415.21	34.488
1418.78	47.583
1422.34	103.148
1425.9	72.422
1429.45	110.027
1433.01	151.021
1436.56	107.953
1440.12	183.864
1443.67	179.414
1447.21	236.012
1450.76	277.431
1454.31	244.917
1457.85	180.744
1461.39	205.413
1464.94	213.942
1468.47	106.444
1472.01	91.058
1475.55	132.829
1479.08	104.683
1482.62	131.756
1486.15	121.011
1489.68	126.585
1493.21	37.612
1496.73	79.374
1500.26	52.352
