Measurement: Raman, 514 nm, ccw, Raman Data Processed
Mineral: Danburite
Rruff sample: R040013
Ideal chemistry: CaB_2_Si_2_O_8_
Locality: Charcas, San Luis Potosi, Mexico
Source: Marcus Origlieri
Description: Colorless prismatic single crystal
Measured chemistry: Ca_1.00_B_2.00_Si_2.00_O_8_
Pin_id: M00012
Orientation: Laser parallel to c* (0 0 1). Fiducial mark perpendicular to laser is parallel to a [1 0 0]
Raman shift (cm-1)	intensity
104.64	0
108.817	157.013
112.992	545.012
117.166	2441.76
121.337	3095.08
125.506	8249.94
129.673	12049.1
133.838	2944.47
138.001	1107.72
142.162	348.888
146.321	20.601
150.478	10.576
154.633	3.312
158.786	484.016
162.937	4905.78
167.086	11480.6
171.233	1347.19
175.378	57.258
179.521	79.214
183.662	72.439
187.8	180.057
191.937	547.853
196.072	56.894
200.205	75.135
204.336	243.873
208.465	1058.08
212.591	1436.17
216.716	212.026
220.839	6.398
224.96	44.017
229.079	67.059
233.195	13.314
237.31	412.301
241.423	2429.66
245.534	6801.61
249.643	2752.94
253.75	988.99
257.855	523.393
261.958	247.346
266.059	171.77
270.158	204.537
274.255	273.713
278.35	531.812
282.443	166.346
286.534	0.509
290.623	27.886
294.71	18.597
298.795	131.103
302.878	510.356
306.959	1478.17
311.038	3644.57
315.116	2594.65
319.191	864.257
323.264	365.188
327.336	255.024
331.405	312.379
335.473	603.932
339.538	1330.9
343.602	5653.88
347.663	16700.2
351.723	7490.12
355.78	2095.95
359.836	802.233
363.89	463.527
367.942	256.231
371.992	123.129
376.04	43.697
380.086	34.265
384.13	28.231
388.172	43.465
392.212	65.796
396.25	97.271
400.286	65.061
404.321	135.797
408.353	193.209
412.384	180.374
416.412	400.326
420.439	1032.11
424.464	1916.8
428.486	1083.33
432.507	325.943
436.526	139.318
440.543	223.479
444.558	127.586
448.572	20.719
452.583	5.689
456.592	104.491
460.6	235.177
464.605	290.747
468.609	349.201
472.61	744.569
476.61	3370.84
480.608	7464.01
484.604	2255.07
488.598	578.014
492.59	198.915
496.58	66.758
500.569	28.478
504.555	31.055
508.54	24.48
512.522	56.797
516.503	19.93
520.482	48.175
524.459	37.014
528.434	10.331
532.407	16.005
536.378	70.279
540.348	77.364
544.315	51.024
548.281	74.642
552.244	161.43
556.206	283.189
560.166	844.549
564.124	1300.58
568.08	670.772
572.035	593.5
575.987	634.783
579.938	774.862
583.886	1006.21
587.833	1456.84
591.778	1997.9
595.721	3049.16
599.662	5521.38
603.602	12548.8
607.539	35752
611.475	44345
615.408	19927.9
619.34	8581.55
623.27	5522.29
627.199	5608.86
631.125	3947.33
635.049	2258.7
638.972	1665.81
642.893	1518.11
646.811	1477.94
650.728	1255.5
654.644	911.599
658.557	637.826
662.468	437.665
666.378	303.362
670.286	254.15
674.192	132.408
678.096	67.799
681.998	69.613
685.898	28.742
689.797	75.871
693.694	14.973
697.589	1.979
701.482	22.118
705.373	6.359
709.262	5.762
713.15	82.325
717.035	35.087
720.919	8.998
724.801	30.042
728.682	18.764
732.56	9.487
736.437	11.832
740.311	17.778
744.184	14.315
748.055	19.791
751.925	36.211
755.792	5.416
759.658	16.894
763.522	98.145
767.384	95.352
771.244	157.521
775.102	146.657
778.959	54.761
782.814	56.843
786.667	80.915
790.518	185.981
794.367	113.037
798.215	65.09
802.061	101.138
805.905	71.181
809.747	59.221
813.587	16.245
817.426	24.266
821.263	42.289
825.098	139.403
828.931	178.244
832.762	153.634
836.592	108.006
840.42	182.242
844.246	317.641
848.07	430.442
851.892	523.828
855.713	564.492
859.532	762.873
863.349	667.871
867.164	451.877
870.978	397.326
874.789	390.157
878.599	341.74
882.408	331.933
886.214	320.255
890.019	331.791
893.822	532.205
897.623	705.108
901.422	901.742
905.22	960.503
909.015	1160.73
912.809	1404.66
916.602	1658.61
920.392	1209.84
924.181	758.943
927.968	580.247
931.753	575.459
935.536	850.762
939.318	1471.15
943.098	2552.62
946.876	3661.17
950.653	3473.05
954.427	2162.76
958.2	1449.54
961.971	1333.41
965.741	1984.38
969.508	3960.43
973.274	6534.58
977.039	4393.83
980.801	2332.21
984.562	1579.72
988.321	1210.37
992.078	1006.17
995.833	965.087
999.587	1600.13
1003.34	2562.3
1007.09	4300.57
1010.84	3799.42
1014.58	1649.98
1018.33	1000.45
1022.07	884.621
1025.81	942.139
1029.55	767.958
1033.29	467.872
1037.03	319.875
1040.76	148.962
1044.5	74.123
1048.23	64.361
1051.96	20.32
1055.68	19.074
1059.41	10.546
1063.13	67.095
1066.86	91.102
1070.58	112.355
1074.3	292.789
1078.02	458.805
1081.73	745.765
1085.44	715.847
1089.16	591.012
1092.87	641.262
1096.58	885.848
1100.28	1221.29
1103.99	1655.83
1107.69	1895.45
1111.39	1633.17
1115.1	1076.95
1118.8	760.802
1122.49	576.707
1126.19	375.665
1129.88	193.674
1133.57	176.733
1137.26	79.846
1140.95	64.014
1144.64	6.246
1148.32	34.475
1152.01	51.292
1155.69	35.065
1159.37	57.172
1163.05	227.443
1166.72	320.749
1170.4	585.087
1174.07	897.455
1177.74	765.44
1181.41	492.812
1185.08	261.079
1188.75	163.489
1192.41	51.939
1196.08	36.273
1199.74	136.767
1203.4	91.238
1207.06	23.329
1210.71	56.099
1214.37	39.293
1218.02	73.815
1221.67	11.556
1225.32	60.719
1228.97	32.927
1232.62	130.834
1236.26	253.121
1239.9	254.047
1243.55	158.002
1247.18	182.098
1250.82	206.493
1254.46	198.891
1258.1	182.289
1261.73	246.685
1265.36	347.564
1268.99	359.149
1272.62	379.327
1276.24	285.716
1279.87	155.062
1283.49	138.071
1287.11	132.362
1290.73	224.483
1294.35	387.812
1297.97	237.052
1301.58	199.222
1305.2	184.28
1308.81	287.22
1312.42	362.083
1316.03	321.913
1319.63	388.72
1323.24	389.476
1326.84	260.11
1330.44	175.292
1334.05	117.235
1337.64	56.57
1341.24	70.776
1344.84	85.486
1348.43	5.269
1352.02	43.908
1355.61	0.054
1359.2	2.055
1362.79	21.088
1366.37	92.298
1369.96	71.667
1373.54	19.421
1377.12	69.633
1380.7	105.752
1384.28	71.844
1387.85	49.884
1391.43	19.854
1395	18.877
1398.57	19.926
1402.14	44.95
1405.71	85.958
1409.28	74.965
1412.84	66.979
1416.4	46.023
1419.96	33.675
1423.52	102.44
1427.08	94.792
1430.64	247.451
1434.19	373.811
1437.75	742.081
1441.3	1072.56
1444.85	1216.27
1448.4	1312.64
1451.94	1410.84
1455.49	1355.88
1459.03	1228.33
1462.58	985.728
1466.12	808.339
1469.65	679.724
1473.19	530.703
1476.73	505.626
1480.26	517.804
1483.8	458.275
1487.33	341.486
1490.86	165.371
1494.38	139.536
1497.91	49.793
1501.43	0
