Measurement: Raman, 514 nm, ccw, Raman Data Processed
Mineral: Danburite
Rruff sample: R040013
Ideal chemistry: CaB_2_Si_2_O_8_
Locality: Charcas, San Luis Potosi, Mexico
Source: Marcus Origlieri
Description: Colorless prismatic single crystal
Measured chemistry: Ca_1.00_B_2.00_Si_2.00_O_8_
Pin_id: M00009
Orientation: Laser parallel to b* (0 1 0). Fiducial mark perpendicular to laser is parallel to -c [0 0 -1]
Raman shift (cm-1)	intensity
99.067	0
103.247	318.716
107.425	698.629
111.601	1349.38
115.775	789.857
119.947	1387.73
124.116	776.138
128.284	339.168
132.45	195.101
136.614	232.272
140.775	64.651
144.935	13.343
149.093	41.253
153.248	122.914
157.402	39.75
161.554	204.587
165.703	714.093
169.851	634.441
173.996	2622.71
178.14	14534.8
182.281	22007
186.421	3221.66
190.558	1145.8
194.694	568.384
198.827	193.181
202.959	189.752
207.088	565.148
211.216	871.353
215.341	66.361
219.465	53.83
223.586	275.768
227.706	317.147
231.823	5.357
235.939	106.015
240.052	952.966
244.164	3294.85
248.274	1418.86
252.381	503.447
256.487	349.963
260.59	224.821
264.692	115.632
268.791	139.037
272.889	51.697
276.985	49.099
281.078	12.699
285.17	17.35
289.26	105.613
293.348	550.295
297.433	335.148
301.517	303.404
305.599	1146.86
309.679	3258.51
313.757	2610.28
317.833	909.891
321.907	374.348
325.979	251.643
330.049	266.773
334.117	466.733
338.183	976.481
342.247	3515.89
346.31	10897.1
350.37	4730.19
354.428	1084.11
358.484	338.877
362.539	129.488
366.591	33.893
370.642	12.793
374.691	104.729
378.737	88.123
382.782	24.562
386.825	19.472
390.865	124.229
394.904	76.757
398.941	48.5
402.976	10.078
407.009	15.02
411.04	46.618
415.07	169.063
419.097	407.062
423.122	804.724
427.146	429.491
431.167	98.66
435.187	229.777
439.204	931.532
443.22	528.159
447.234	150.638
451.246	48.959
455.256	206.09
459.264	347.058
463.27	372.881
467.274	625.551
471.277	1522.06
475.277	7048.4
479.275	18838.6
483.272	5736.61
487.267	1581.48
491.26	677.19
495.25	344.745
499.239	234.145
503.226	185.39
507.212	146.438
511.195	91.365
515.176	154.796
519.156	153.228
523.133	190.311
527.109	189.147
531.083	141.08
535.055	175.547
539.025	75.826
542.993	84.499
546.959	135.022
550.923	274.768
554.886	394.236
558.846	897.819
562.805	1202.75
566.762	462.892
570.717	487.598
574.67	531.617
578.621	623.542
582.57	903.991
586.518	1316.09
590.463	1817.79
594.407	2731.53
598.349	4777.96
602.289	10576.2
606.227	29883.1
610.163	41739
614.097	18384.9
618.03	8040.58
621.961	5736.13
625.889	7541.56
629.816	5419.87
633.741	2704.07
637.664	1806.16
641.586	1715.14
645.505	1766.02
649.423	1635.79
653.339	1264.11
657.253	780.718
661.165	494.308
665.075	386.92
668.983	280.48
672.89	201.079
676.795	94.611
680.697	9.153
684.598	32.824
688.498	65.77
692.395	32.059
696.29	70.008
700.184	29.953
704.076	41.258
707.966	81.7
711.854	52.392
715.74	44.274
719.625	38.351
723.508	8.399
727.388	94.023
731.267	104.562
735.145	6.949
739.02	29.472
742.894	79.819
746.765	170.07
750.635	128.255
754.503	33.386
758.37	93.466
762.234	174.499
766.097	288.487
769.958	428.434
773.817	386.34
777.674	147.211
781.529	142.047
785.383	168.852
789.235	202.627
793.084	235.388
796.933	124.139
800.779	150.867
804.624	204.573
808.466	224.257
812.307	224.922
816.146	151.567
819.984	190.167
823.819	266.121
827.653	319.762
831.485	357.755
835.315	315.626
839.144	458.706
842.97	577.419
846.795	694.099
850.618	803.761
854.44	1119.33
858.259	1294.91
862.077	1293.96
865.893	898.479
869.707	873.06
873.519	828.417
877.33	662.182
881.138	536.13
884.945	500.286
888.751	602.298
892.554	852.364
896.356	1078.58
900.156	1037.85
903.954	805.186
907.75	736.571
911.545	764.016
915.338	702.517
919.129	545.075
922.918	341.7
926.706	316.94
930.491	244.574
934.276	289.376
938.058	374.24
941.838	586.196
945.617	742.232
949.394	812.346
953.169	487.526
956.943	347.794
960.715	399.152
964.485	582.603
968.253	711.161
972.019	1079.82
975.784	502.59
979.547	181.478
983.308	347.527
987.068	404.724
990.826	398.053
994.582	440.518
998.336	893.096
1002.09	1555.77
1005.84	501.756
1009.59	264.205
1013.34	329.989
1017.08	461.911
1020.83	593.971
1024.57	476.451
1028.31	325.102
1032.05	176.591
1035.78	252.574
1039.52	290.224
1043.25	273.629
1046.98	228.141
1050.71	115.71
1054.44	2.336
1058.17	12.984
1061.89	81.742
1065.62	157.656
1069.34	185.448
1073.06	248.845
1076.78	358.744
1080.49	524.987
1084.21	750.007
1087.92	757.072
1091.63	835.474
1095.34	1088.67
1099.05	1551.99
1102.76	1984.36
1106.46	2311.81
1110.16	1942.3
1113.86	1346.83
1117.56	1056.38
1121.26	855.946
1124.95	508.538
1128.65	304.147
1132.34	230.773
1136.03	193.412
1139.72	15.072
1143.41	50.759
1147.1	11.435
1150.78	35.045
1154.46	8.603
1158.14	67.881
1161.82	12.416
1165.5	8.041
1169.17	179.491
1172.85	211.924
1176.52	241.348
1180.19	203.757
1183.86	150.155
1187.53	70.533
1191.19	25.8
1194.86	40.7
1198.52	75.143
1202.18	148.455
1205.84	124.214
1209.49	39.417
1213.15	124.732
1216.8	54.836
1220.45	50.458
1224.11	35.877
1227.75	90.437
1231.4	218.682
1235.05	367.717
1238.69	519.642
1242.33	351.482
1245.97	353.306
1249.61	344.108
1253.25	178.888
1256.88	250.644
1260.52	399.376
1264.15	534.081
1267.78	723.763
1271.41	751.479
1275.04	558.806
1278.66	290.536
1282.29	170.188
1285.91	196.768
1289.53	300.531
1293.15	488.814
1296.76	449.261
1300.38	433.979
1303.99	522.132
1307.61	558.926
1311.22	568.89
1314.83	518.824
1318.43	602.726
1322.04	536.58
1325.64	462.23
1329.24	303.653
1332.85	248.177
1336.44	144.077
1340.04	15.473
1343.64	101.528
1347.23	120.827
1350.83	50.173
1354.42	89.902
1358.01	132.618
1361.59	3.335
1365.18	83.125
1368.76	159.883
1372.35	148.321
1375.93	266.508
1379.51	245.657
1383.09	285.768
1386.66	64.813
1390.24	109.763
1393.81	15.796
1397.38	45.083
1400.95	115.049
1404.52	45.197
1408.09	133.367
1411.65	195.559
1415.21	143.799
1418.78	118.379
1422.34	156.33
1425.9	125.477
1429.45	252.711
1433.01	443.819
1436.56	918.211
1440.12	1380.52
1443.67	1839.73
1447.21	2068.84
1450.76	2354.27
1454.31	2340.92
1457.85	2093.13
1461.39	1717.93
1464.94	1327.8
1468.47	980.24
1472.01	666.831
1475.55	714.548
1479.08	660.72
1482.62	657.616
1486.15	509.087
1489.68	309.838
1493.21	119.757
1496.73	120.878
