Measurement: Raman, 514 nm, ccw, Raman Data Processed
Mineral: Datolite
Rruff sample: R050136
Ideal chemistry: CaBSiO_4_(OH)
Locality: Charcas, San Luis Potosi, Mexico
Source: Dave Bunk Minerals
Description: Pale green tabular crystals
Measured chemistry: Ca_1.00_BSi_1.00_O_4_(OH) ; trace amounts of Fe; B and OH estimated by stoichiometry end charge balance
Pin_id: L00270
Orientation: Laser parallel to -c* (0 0 -1). Fiducial mark perpendicular to laser is parallel to -a [-1 0 0]
Raman shift (cm-1)	intensity
96.858	0
101.036	64.323
105.212	60.228
109.387	94.993
113.559	144.757
117.729	207.512
121.897	161.259
126.063	468.858
130.228	1444.08
134.39	2363.26
138.55	800.174
142.709	246.085
146.865	200.818
151.019	322.805
155.171	711.538
159.322	3658.16
163.47	10117.7
167.617	9943.37
171.761	2698.51
175.904	1557.01
180.044	1216.89
184.183	426.64
188.319	378.698
192.454	504.972
196.586	381.486
200.717	321.238
204.846	309.802
208.972	488.93
213.097	1115.92
217.22	2608.09
221.341	1995.42
225.46	750.918
229.577	819.809
233.692	480.016
237.805	94.65
241.916	34.809
246.025	23.864
250.132	60.543
254.237	64.263
258.34	6.137
262.442	14.306
266.541	56.477
270.639	282.66
274.734	449.6
278.828	158.033
282.919	105.822
287.009	456.873
291.097	1271.12
295.183	861.517
299.266	198.035
303.348	60.63
307.428	6.771
311.507	21.923
315.583	3.502
319.657	188.08
323.729	385.676
327.8	458.291
331.868	751.927
335.935	574.538
339.999	197.001
344.062	217.235
348.123	433.154
352.182	784.184
356.239	1928.47
360.294	4029.55
364.347	4204
368.398	2024.42
372.448	1251.75
376.495	1470.74
380.54	1669.77
384.584	1553.32
388.626	2988.11
392.666	4720.21
396.704	2743.3
400.74	1041.36
404.774	396.12
408.806	139.028
412.836	178.044
416.865	280.008
420.891	800.829
424.916	1570.66
428.939	827.07
432.959	502.919
436.978	1133.77
440.996	1621.61
445.011	689.429
449.024	302.208
453.036	385.939
457.045	793.622
461.053	582.251
465.059	208.845
469.063	151.774
473.065	71.402
477.065	65.472
481.063	239.115
485.06	636.828
489.054	1663.65
493.047	1894.5
497.038	671.361
501.027	231.235
505.014	77.048
508.999	22.784
512.982	30.576
516.964	15.137
520.944	78.058
524.921	74.098
528.897	28.982
532.871	10.696
536.844	5.045
540.814	9.084
544.783	28.888
548.749	154.541
552.714	505.108
556.677	448.594
560.638	306.995
564.597	182.315
568.555	124.571
572.511	146.765
576.464	240.937
580.416	280.095
584.366	631.221
588.315	1848.43
592.261	3459.97
596.206	2771.65
600.148	1885.12
604.089	1304.1
608.028	638.713
611.965	328.233
615.901	159.656
619.834	168.195
623.766	195.375
627.696	274.328
631.624	209.053
635.551	226.046
639.475	441.51
643.398	606.487
647.318	848.634
651.237	1615.08
655.155	2366.18
659.07	2098.1
662.984	2505.43
666.895	4287.4
670.805	4898.73
674.713	3820.38
678.62	3815.27
682.524	5539.6
686.427	12775.8
690.328	36186.1
694.227	51879.2
698.124	20250.5
702.02	7268.53
705.913	3260.07
709.805	1843.83
713.695	1063.49
717.584	760.053
721.47	635.54
725.355	360.84
729.238	348.944
733.119	286.153
736.998	192.296
740.876	141.343
744.752	100.303
748.626	61.156
752.498	53.86
756.368	74.436
760.237	292.907
764.104	698.287
767.969	500.578
771.832	220.782
775.693	32.898
779.553	54.144
783.411	20.558
787.267	51.9
791.122	49.666
794.974	46.791
798.825	59.268
802.674	25.871
806.522	73.792
810.367	53.463
814.211	144.041
818.053	138.558
821.893	471.031
825.732	1003.51
829.568	1260.02
833.403	653.54
837.236	154.055
841.068	172.55
844.898	175.091
848.726	166.748
852.552	250.446
856.376	429.188
860.199	1068.91
864.02	1954.61
867.839	1621.27
871.656	1357.58
875.472	1945.47
879.286	2573.67
883.098	2710.5
886.909	1921.81
890.717	1292.38
894.524	873.577
898.33	742.883
902.133	764.686
905.935	1060.38
909.735	1693.3
913.533	3587.71
917.33	7377.2
921.124	6507.69
924.918	3359.18
928.709	1867.1
932.499	1472.29
936.286	1105.27
940.073	1026.04
943.857	721.82
947.64	610.104
951.421	495.835
955.2	453.574
958.978	402.765
962.753	414.567
966.527	525.464
970.3	672.437
974.071	1034.95
977.84	2064.11
981.607	4656.35
985.372	8215.68
989.136	5168.12
992.898	2361.62
996.659	1314.2
1000.42	1124.9
1004.17	1025.73
1007.93	878.704
1011.68	510.772
1015.43	279.956
1019.18	127.287
1022.93	63.66
1026.68	142.063
1030.42	55.498
1034.17	53.023
1037.91	0.459
1041.65	9.974
1045.39	30.516
1049.12	95.099
1052.86	107.732
1056.59	266.438
1060.33	496.202
1064.06	715.002
1067.78	1312.83
1071.51	2959.68
1075.23	8740.55
1078.96	12590.4
1082.68	8408.68
1086.4	3366.28
1090.12	1341.74
1093.83	587.455
1097.55	305.274
1101.26	163.122
1104.97	6.897
1108.68	31.388
1112.39	60.025
1116.1	36.672
1119.8	51.555
1123.5	103.583
1127.2	54.692
1130.9	56.682
1134.6	180.546
1138.3	309.761
1141.99	257.264
1145.69	390.442
1149.38	732.43
1153.07	985.193
1156.76	1513.6
1160.44	2324.94
1164.13	3584.64
1167.81	5470.57
1171.49	7578.86
1175.17	7636.05
1178.85	5477.07
1182.52	3257.8
1186.2	2027.59
1189.87	1277.09
1193.54	924.479
1197.21	674.657
1200.88	462.834
1204.55	469.796
1208.21	342.329
1211.88	253.186
1215.54	273.178
1219.2	158.798
1222.86	148.332
1226.51	132.837
1230.17	41.428
1233.82	77.689
1237.47	133.009
1241.12	46.865
1244.77	139.578
1248.42	146.24
1252.06	78.548
1255.71	119.782
1259.35	52.717
1262.99	46.533
1266.63	61.069
1270.26	45.201
1273.9	108.307
1277.53	12.064
1281.16	94.038
1284.8	17.917
1288.42	14.574
1292.05	55.002
1295.68	35.116
1299.3	25.052
1302.92	17.489
1306.55	104.82
1310.16	108.857
1313.78	7.626
1317.4	141.188
1321.01	22.546
1324.62	1.698
1328.24	194.626
1331.85	153.352
1335.45	156.888
1339.06	72.252
1342.66	80.434
1346.27	108.442
1349.87	310.278
1353.47	173.941
1357.07	160.457
1360.66	179.837
1364.26	144.176
1367.85	127.333
1371.44	229.628
1375.04	181.025
1378.62	234.301
1382.21	227.76
1385.8	265.595
1389.38	149.906
1392.96	217.105
1396.54	178.669
1400.12	190.359
1403.7	152.027
1407.28	94.694
1410.85	160.951
1414.42	203.47
1417.99	142.121
1421.56	241.426
1425.13	101.083
1428.7	117.467
1432.26	214.208
1435.83	233.702
1439.39	310.001
1442.95	225
1446.51	274.081
1450.06	251
1453.62	374.847
1457.17	393.457
1460.73	328.927
1464.28	125.178
1467.83	277.615
1471.37	268.699
1474.92	250.781
1478.46	243.766
1482.01	227.812
1485.55	66.097
1489.09	65.442
1492.63	97.963
1496.16	163.866
1499.7	123.489
1503.23	108.143
1506.76	126.577
1510.29	8.092
1513.82	88.22
1517.35	6.639
1520.88	72.781
1524.4	60.621
