Measurement: Raman, 514 nm, ccw, Raman Data Processed
Mineral: Datolite
Rruff sample: R050033
Ideal chemistry: CaBSiO_4_(OH)
Locality: Westfield, Massachusetts, USA
Source: University of Arizona Mineral Museum
Description: Group of pale green single crystals
Measured chemistry: Ca_1.00_B_1.00_Si_1.00_O_4_(OH) ; trace amounts of Al and Na; B measured and corrected according to stoichiometry;  OH estimated by stoichiometry end charge balance
Pin_id: L00095
Orientation: Laser parallel to -b* (0 -1 0). Fiducial mark perpendicular to laser is parallel to c [0 0 1]
Raman shift (cm-1)	intensity
52.937	0
57.132	124.011
61.325	380.931
65.515	473.215
69.704	249.909
73.891	234.537
78.076	202.039
82.26	138.012
86.441	97.471
90.62	20.731
94.797	12.791
98.973	5.856
103.146	20.339
107.318	29.907
111.487	414.467
115.655	139.259
119.821	101.438
123.984	43.989
128.146	159.134
132.306	766.707
136.464	659.823
140.62	136.211
144.774	175.906
148.927	764.908
153.077	2636.52
157.226	1718.61
161.372	1977.04
165.517	5306.16
169.659	1761.25
173.8	1476.26
177.939	3570.23
182.076	841.166
186.211	152.048
190.344	147.863
194.475	146.601
198.605	22.266
202.732	15.923
206.858	71.418
210.981	389.724
215.103	2591.67
219.223	6757.1
223.341	1465.52
227.457	433.165
231.571	386.837
235.684	182.507
239.794	14.072
243.902	20.341
248.009	10.246
252.114	5.83
256.217	10.457
260.318	6.707
264.417	100.993
268.514	361.355
272.609	1166.69
276.703	1000.71
280.794	529.861
284.884	1195.31
288.972	5063.12
293.058	10788.5
297.142	3741.22
301.224	1103.9
305.304	531.468
309.383	324.615
313.46	304.032
317.534	270.142
321.607	365.981
325.678	818.705
329.747	2557.39
333.815	3698.03
337.88	1249.64
341.944	281.351
346.005	123.819
350.065	16.183
354.123	43.523
358.179	93.244
362.234	134.23
366.286	93.001
370.337	113.176
374.386	492.333
378.432	1351.43
382.478	818.467
386.521	437.367
390.562	809.127
394.602	798.758
398.639	267.272
402.675	93.474
406.709	45.638
410.742	6.572
414.772	3.297
418.8	9.73
422.827	122.719
426.852	106.468
430.875	52.447
434.896	65.448
438.916	147.4
442.933	285.297
446.949	513.146
450.963	1363.95
454.975	5181.72
458.985	8518.45
462.994	2551.16
467	720.873
471.005	298.618
475.008	219.384
479.009	102.161
483.009	94.954
487.006	235.753
491.002	576.575
494.996	284.379
498.988	85.159
502.978	9.103
506.967	36.442
510.953	22.81
514.938	40.448
518.921	3.075
522.903	18.836
526.882	30.548
530.86	29.296
534.836	60.086
538.81	141.839
542.782	358.556
546.753	866.238
550.721	2666.89
554.688	4534.5
558.653	1926.09
562.617	729.621
566.578	325.749
570.538	117.362
574.496	75.435
578.452	46.528
582.407	100.133
586.359	212.892
590.31	489.471
594.259	672.958
598.206	433.657
602.152	215.335
606.096	108.046
610.038	39.686
613.978	38.307
617.916	25.715
621.853	107.535
625.788	83.837
629.721	115.568
633.652	153.936
637.582	224.353
641.51	281.969
645.436	355.991
649.36	457.331
653.282	712.74
657.203	956.081
661.122	1110.46
665.039	1670.07
668.955	1988.28
672.869	1692.12
676.781	1819.56
680.691	2875.85
684.599	5878.76
688.506	17751.7
692.411	51096.8
696.314	33181.9
700.216	10517.1
704.115	4342.23
708.013	2357.37
711.91	1558.5
715.804	1041.63
719.697	737.747
723.588	501.868
727.477	328.001
731.365	306.174
735.25	273.399
739.134	244.668
743.017	168.947
746.897	97.227
750.776	60.51
754.653	75.791
758.529	33.071
762.402	21.35
766.274	18.628
770.144	12.091
774.013	17.847
777.88	8.689
781.745	21.479
785.608	15.745
789.47	35.962
793.329	47.285
797.188	11.274
801.044	10.233
804.899	24.154
808.752	9.526
812.603	47.893
816.452	91.285
820.3	257.727
824.146	532.256
827.991	948.912
831.834	737.695
835.675	297.541
839.514	160.421
843.352	177.334
847.187	177.282
851.022	205.265
854.854	279.285
858.685	450.342
862.514	797.439
866.341	1085.58
870.167	1267.76
873.991	2053.99
877.813	3677.77
881.634	5003.25
885.453	4218.64
889.27	2755.22
893.086	1770.85
896.9	1441.07
900.712	1445.69
904.522	1857.29
908.331	2703.93
912.138	5084.63
915.944	11160.3
919.747	12586.1
923.549	6692.83
927.35	3645.6
931.148	2902.88
934.945	2896.43
938.741	2447.69
942.534	1760.8
946.326	1390.42
950.117	1302.8
953.905	1117.69
957.692	874.165
961.478	703.694
965.261	660.376
969.043	731.163
972.823	1007.06
976.602	1664.06
980.379	3376.15
984.154	7406.37
987.928	6550.68
991.7	2695.1
995.47	1203.65
999.239	619.333
1003.01	399.153
1006.77	238.084
1010.53	93.134
1014.3	35.321
1018.06	9.603
1021.82	49.983
1025.57	36.448
1029.33	23.986
1033.08	5.413
1036.83	41.788
1040.59	33.166
1044.33	24.518
1048.08	23.188
1051.83	80.972
1055.57	148.858
1059.31	150.826
1063.05	243.871
1066.79	527.996
1070.53	1306.2
1074.27	4383.48
1078	9920.86
1081.73	4286.37
1085.46	1500.03
1089.19	663.822
1092.92	451.754
1096.64	331.812
1100.37	298.871
1104.09	242.167
1107.81	248.688
1111.53	241.804
1115.25	208.276
1118.97	204.011
1122.68	280.656
1126.39	304.352
1130.1	369.582
1133.81	507.369
1137.52	614.794
1141.23	698.74
1144.93	853.666
1148.64	1089.1
1152.34	1413.02
1156.04	2043.55
1159.74	2811.05
1163.43	3986.52
1167.13	5615.87
1170.82	7619.14
1174.51	8272.44
1178.2	6155.12
1181.89	3651.06
1185.58	2175.97
1189.26	1364.38
1192.95	903.922
1196.63	637.177
1200.31	496.328
1203.99	426.745
1207.67	321.073
1211.34	291.359
1215.02	209.631
1218.69	204.869
1222.36	113.162
1226.03	153.418
1229.7	69.855
1233.36	83.184
1237.03	63.419
1240.69	74.736
1244.35	57.891
1248.01	27.031
1251.67	10.193
1255.33	21.275
1258.98	45.252
1262.64	2.229
1266.29	2.137
1269.94	0.93
1273.59	5.083
1277.23	1.462
1280.88	57.819
1284.53	31.531
1288.17	7.09
1291.81	8.774
1295.45	2.815
1299.09	5.698
1302.72	8.867
1306.36	3.13
1309.99	44.534
1313.62	50.002
1317.25	34.393
1320.88	96.714
1324.51	87.975
1328.13	74.196
1331.75	96.388
1335.38	24.474
1339	39.507
1342.62	41.603
1346.23	39.569
1349.85	71.346
1353.46	106.103
1357.08	60.573
1360.69	68.206
1364.3	44.701
1367.9	52.161
1371.51	33.613
1375.12	46.888
1378.72	94.895
1382.32	133.65
1385.92	132.018
1389.52	124.392
1393.12	112.715
1396.71	58.047
1400.31	76.793
1403.9	55.845
1407.49	32.722
1411.08	56.544
1414.67	1.241
1418.25	48.866
1421.84	39.247
1425.42	50.194
1429	42.165
1432.58	46.703
1436.16	61.096
1439.74	16.197
1443.32	23.336
1446.89	22.266
1450.46	26.643
1454.03	71.128
1457.6	64.246
1461.17	122.195
1464.74	121.179
1468.3	101.039
1471.87	84.676
1475.43	62.627
1478.99	33.134
1482.55	5.242
1486.1	11.346
1489.66	41.956
1493.21	30.947
1496.77	41.877
1500.32	55.623
1503.87	65.24
1507.41	62.36
1510.96	59.018
1514.51	39.087
1518.05	74.742
1521.59	36.221
