Measurement: Raman, 514 nm, ccw, Raman Data Processed
Mineral: Datolite
Rruff sample: R050136
Ideal chemistry: CaBSiO_4_(OH)
Locality: Charcas, San Luis Potosi, Mexico
Source: Dave Bunk Minerals
Description: Pale green tabular crystals
Measured chemistry: Ca_1.00_BSi_1.00_O_4_(OH) ; trace amounts of Fe; B and OH estimated by stoichiometry end charge balance
Pin_id: L00270
Orientation: Laser parallel to -c* (0 0 -1). Fiducial mark perpendicular to laser is parallel to -a [-1 0 0]
Raman shift (cm-1)	intensity
96.858	0
101.036	17.092
105.212	8.914
109.387	49.87
113.559	67.414
117.729	105.286
121.897	128.934
126.063	402.149
130.228	1095.39
134.39	2067.05
138.55	825.506
142.709	205.013
146.865	107.043
151.019	163.548
155.171	311.735
159.322	1390.23
163.47	3803.23
167.617	3990.39
171.761	1042.74
175.904	576.811
180.044	352.267
184.183	116.069
188.319	27.831
192.454	53.626
196.586	87.488
200.717	36.43
204.846	82.995
208.972	123.292
213.097	119.311
217.22	234.415
221.341	294.709
225.46	378.048
229.577	810.274
233.692	607.758
237.805	156.544
241.916	52.491
246.025	11.822
250.132	27.603
254.237	39.511
258.34	2.285
262.442	16.223
266.541	47.56
270.639	201.753
274.734	309.442
278.828	146.479
282.919	137.772
287.009	515.263
291.097	1245.91
295.183	1040.68
299.266	325.55
303.348	67.501
307.428	56.509
311.507	8.606
315.583	1.683
319.657	62.777
323.729	32.902
327.8	189.051
331.868	355.22
335.935	175.406
339.999	20.559
344.062	36.364
348.123	72.852
352.182	81.6
356.239	246.604
360.294	402.062
364.347	419.273
368.398	265.757
372.448	516.106
376.495	1442.29
380.54	1357.34
384.584	523.301
388.626	396.209
392.666	436.109
396.704	260.998
400.74	66.871
404.774	28.279
408.806	12.49
412.836	30.638
416.865	39.228
420.891	44.137
424.916	61.304
428.939	29.725
432.959	46.154
436.978	116.582
440.996	163.005
445.011	71.42
449.024	80.821
453.036	295.205
457.045	721.578
461.053	547.939
465.059	209.34
469.063	86.674
473.065	60.192
477.065	27.454
481.063	153.976
485.06	363.495
489.054	1000
493.047	1207.53
497.038	472.024
501.027	231.496
505.014	112.067
508.999	72.285
512.982	36.668
516.964	9.993
520.944	18.227
524.921	16.638
528.897	56.656
532.871	76.144
536.844	28.104
540.814	43.509
544.783	75.089
548.749	200.644
552.714	473.173
556.677	387.678
560.638	178.158
564.597	108.233
568.555	85.121
572.511	130.385
576.464	191.65
580.416	231.083
584.366	520.507
588.315	1338.92
592.261	2535.31
596.206	2186.7
600.148	1051.27
604.089	497.628
608.028	286.972
611.965	163.304
615.901	96.46
619.834	139.405
623.766	172.461
627.696	203.972
631.624	171.989
635.551	207.646
639.475	248.586
643.398	274.832
647.318	385.413
651.237	526.614
655.155	769.792
659.07	962.947
662.984	1738.11
666.895	3115.1
670.805	3742.55
674.713	3067.42
678.62	3197.31
682.524	4827.6
686.427	11551.7
690.328	32707.8
694.227	49773.2
698.124	19931.7
702.02	7076.75
705.913	3100.81
709.805	1761.87
713.695	1080.92
717.584	753.983
721.47	571.074
725.355	402.22
729.238	326.454
733.119	228.768
736.998	150.125
740.876	122.515
744.752	74.969
748.626	68.428
752.498	78.892
756.368	61.355
760.237	118.821
764.104	82.293
767.969	11.227
771.832	30.235
775.693	13.335
779.553	18.03
783.411	61.194
787.267	9.622
791.122	9.408
794.974	6.346
798.825	20.734
802.674	53.135
806.522	46.964
810.367	58.808
814.211	75.683
818.053	152.584
821.893	386.505
825.732	833.45
829.568	916.436
833.403	418.468
837.236	98.577
841.068	99.776
844.898	25.044
848.726	85.367
852.552	173.754
856.376	351.168
860.199	711.609
864.02	1401.08
867.839	1256.58
871.656	1179.99
875.472	1724.68
879.286	2464.62
883.098	2634.24
886.909	1757.12
890.717	1062.53
894.524	680.602
898.33	501.328
902.133	449.079
905.935	555.854
909.735	864.454
913.533	1787.28
917.33	3942.13
921.124	3553.18
924.918	1832.08
928.709	1042.43
932.499	826.354
936.286	785.354
940.073	641.89
943.857	444.104
947.64	353.734
951.421	286.573
955.2	278.731
958.978	259.975
962.753	200.988
966.527	294.442
970.3	390.822
974.071	681.246
977.84	1443.72
981.607	3320.23
985.372	5912.8
989.136	3670.45
992.898	1606.15
996.659	844.934
1000.42	500.837
1004.17	348.811
1007.93	252.868
1011.68	134.031
1015.43	86.26
1019.18	79.576
1022.93	59.933
1026.68	64.309
1030.42	39.679
1034.17	52.931
1037.91	4.603
1041.65	52.265
1045.39	5
1049.12	45.232
1052.86	49.527
1056.59	94.854
1060.33	176.214
1064.06	347.604
1067.78	674.023
1071.51	1803.66
1075.23	4788.99
1078.96	6298.56
1082.68	2897.23
1086.4	1215.95
1090.12	473.744
1093.83	240.647
1097.55	165.608
1101.26	64.695
1104.97	46.857
1108.68	2.96
1112.39	25.216
1116.1	26.3
1119.8	59.432
1123.5	93.545
1127.2	121.142
1130.9	132.348
1134.6	277.674
1138.3	347.156
1141.99	349.323
1145.69	502.321
1149.38	734.989
1153.07	1053.63
1156.76	1593.26
1160.44	2419.28
1164.13	3564.83
1167.81	5477.52
1171.49	7618.71
1175.17	7643.65
1178.85	5393.58
1182.52	3286.35
1186.2	1986.59
1189.87	1258.31
1193.54	903.667
1197.21	656.258
1200.88	451.174
1204.55	437.066
1208.21	344.933
1211.88	209.78
1215.54	246.735
1219.2	228.69
1222.86	196.606
1226.51	166.577
1230.17	102.339
1233.82	88.014
1237.47	121.011
1241.12	117.665
1244.77	114.235
1248.42	28.786
1252.06	59.446
1255.71	116.85
1259.35	56.79
1262.99	42.27
1266.63	108.648
1270.26	133.206
1273.9	87.581
1277.53	6.857
1281.16	69.627
1284.8	7.306
1288.42	25.107
1292.05	88.568
1295.68	34.838
1299.3	36.926
1302.92	31.824
1306.55	53.143
1310.16	23.978
1313.78	29.788
1317.4	149.487
1321.01	21.125
1324.62	12.708
1328.24	159.216
1331.85	85.682
1335.45	91.084
1339.06	25.482
1342.66	77.833
1346.27	138.094
1349.87	133.302
1353.47	120.457
1357.07	106.561
1360.66	66.623
1364.26	94.956
1367.85	23.108
1371.44	141.13
1375.04	75.153
1378.62	127.593
1382.21	90.338
1385.8	152.658
1389.38	95.08
1392.96	41.478
1396.54	178.841
1400.12	117.146
1403.7	91.529
1407.28	64.668
1410.85	7.484
1414.42	119.393
1417.99	143.612
1421.56	79.594
1425.13	73.869
1428.7	67.981
1432.26	46.939
1435.83	89.139
1439.39	188.244
1442.95	84.229
1446.51	68.816
1450.06	149.722
1453.62	173.019
1457.17	141.43
1460.73	83.048
1464.28	126.503
1467.83	119.944
1471.37	75.417
1474.92	109.59
1478.46	128.832
1482.01	144.961
1485.55	110.967
1489.09	60.396
1492.63	94.888
1496.16	120.515
1499.7	48.533
1503.23	60.194
1506.76	46.27
1510.29	23.253
1513.82	123.669
1517.35	3.92
1520.88	84.317
1524.4	42.088
