Measurement: Raman, 514 nm, ccw, Raman Data Processed
Mineral: Datolite
Rruff sample: R050033
Ideal chemistry: CaBSiO_4_(OH)
Locality: Westfield, Massachusetts, USA
Source: University of Arizona Mineral Museum
Description: Group of pale green single crystals
Measured chemistry: Ca_1.00_B_1.00_Si_1.00_O_4_(OH) ; trace amounts of Al and Na; B measured and corrected according to stoichiometry;  OH estimated by stoichiometry end charge balance
Pin_id: M00292
Orientation: Laser parallel to (1 0 1). Fiducial mark perpendicular to laser is parallel to b [0 1 0]
Raman shift (cm-1)	intensity
49.184	0
53.401	57.013
57.617	130.699
61.83	325.445
66.041	480.535
70.25	381.959
74.456	623.253
78.661	594.373
82.863	545.407
87.064	501.785
91.262	284.452
95.458	175.889
99.652	102.653
103.843	1.62
108.033	52.95
112.22	18.678
116.406	177.644
120.589	51.258
124.77	5.485
128.949	264.053
133.126	852.618
137.301	298.474
141.473	51.986
145.644	97.51
149.812	536.106
153.979	1502.85
158.143	4185.77
162.305	17509.2
166.465	31601.5
170.623	8580.76
174.778	5054.03
178.932	6065.16
183.083	1902.54
187.233	1517.23
191.38	3549.52
195.525	2383.59
199.669	1396.2
203.81	873.932
207.949	1249.49
212.085	3311.85
216.22	8696.29
220.353	10119.5
224.483	2205.44
228.612	610.952
232.738	230.873
236.863	37.172
240.985	17.184
245.105	25.617
249.223	11.14
253.339	12.667
257.453	43.754
261.565	13.177
265.675	203.832
269.783	809.546
273.888	762.04
277.992	227.421
282.093	138.919
286.193	642.416
290.29	2691.51
294.386	3000.92
298.479	901.813
302.57	283.318
306.659	101.397
310.746	44.824
314.831	51.894
318.914	200.976
322.995	536.28
327.074	431.282
331.151	697.143
335.226	579.865
339.299	248.486
343.37	194.054
347.438	343.623
351.505	629.911
355.57	1470.03
359.632	3339.17
363.693	4192.07
367.751	2335.88
371.808	1218.67
375.862	1088.53
379.914	1425.04
383.965	2034.19
388.013	4814.44
392.06	9560.08
396.104	6546.82
400.146	2576.15
404.186	1183.42
408.225	648.543
412.261	501.469
416.295	639.164
420.327	1676.91
424.357	3970.41
428.386	2058.94
432.412	694.884
436.436	564.856
440.458	624.427
444.478	316.173
448.496	151.798
452.513	145.767
456.527	439.711
460.539	363.569
464.549	85.335
468.557	14.534
472.563	10.819
476.567	8.242
480.57	75.67
484.57	372.133
488.568	1065.35
492.564	1451.33
496.558	601.373
500.551	198.387
504.541	14.748
508.529	0.577
512.515	0.366
516.5	47.038
520.482	359.648
524.462	650.208
528.441	236.72
532.417	0.182
536.391	68.486
540.364	44.497
544.334	31.246
548.303	171.915
552.269	488.545
556.234	873.143
560.197	1504.74
564.157	1423.41
568.116	476.202
572.073	176.1
576.027	129.064
579.98	125.169
583.931	369.426
587.88	870.745
591.827	1995.06
595.772	2196.35
599.715	1912.63
603.656	1716.91
607.595	836.191
611.532	364.297
615.468	204.538
619.401	225.761
623.332	173.837
627.262	243.214
631.189	316.151
635.115	404.225
639.039	580.611
642.96	985.622
646.88	2108.95
650.798	4317.12
654.714	7159.43
658.628	5786.53
662.54	3773.17
666.45	3517.82
670.358	3851.62
674.264	3648.69
678.169	3835.51
682.071	5399.29
685.972	11245
689.87	32902.3
693.767	54380
697.662	25328.2
701.555	9463.33
705.446	4435.73
709.335	2502.3
713.222	1548.84
717.107	988.355
720.99	640.854
724.872	450.338
728.751	327.814
732.629	239.276
736.504	183.739
740.378	198.217
744.25	196.681
748.12	97.12
751.988	70.536
755.854	96.928
759.719	266.299
763.581	704.649
767.442	620.98
771.3	235.293
775.157	50.587
779.012	10.135
782.865	0.045
786.716	20.937
790.565	29.179
794.413	54.736
798.258	64.65
802.102	50.88
805.943	4.412
809.783	23.875
813.621	85.113
817.457	210.353
821.292	567.61
825.124	1317.91
828.954	2122.24
832.783	1333.59
836.61	509.953
840.435	206.332
844.258	131.735
848.079	111.247
851.898	175.933
855.715	311.719
859.531	669.545
863.345	1247.41
867.157	1122.31
870.967	980.247
874.775	1458.23
878.581	2283.39
882.386	2659.04
886.188	2224.51
889.989	1634.9
893.788	1361.88
897.585	1426.15
901.38	1716.48
905.174	2434.85
908.965	4326.28
912.755	8755.77
916.543	16292.3
920.329	13928.9
924.113	7304.61
927.895	3934.36
931.676	2898.35
935.454	2442.58
939.231	2044.44
943.006	1722.11
946.78	1757.81
950.551	1683.67
954.32	1769.77
958.088	1509.15
961.854	1250.66
965.618	1138.37
969.38	1196.24
973.141	1698.26
976.9	2889.46
980.656	6142.84
984.411	10659.4
988.165	6962.19
991.916	3102.18
995.665	1525.37
999.413	914.763
1003.16	750.364
1006.9	578.142
1010.65	355.088
1014.39	210.182
1018.12	97.416
1021.86	33.782
1025.6	9.724
1029.33	17.127
1033.06	4.427
1036.79	19.623
1040.52	0.239
1044.25	29.17
1047.97	65.211
1051.69	170.377
1055.41	313.667
1059.13	497.08
1062.85	872.616
1066.57	1757.27
1070.28	4341.05
1073.99	12182
1077.7	14804
1081.41	7238.11
1085.12	2981.43
1088.82	1360.99
1092.52	726.824
1096.22	443.934
1099.92	253.325
1103.62	127.977
1107.32	81.556
1111.01	71.262
1114.7	3.755
1118.39	24.549
1122.08	106.931
1125.77	73.478
1129.45	69.975
1133.14	89.919
1136.82	158.821
1140.5	208.073
1144.18	261.201
1147.85	381.823
1151.53	509.962
1155.2	747.799
1158.87	1016.76
1162.54	1401.18
1166.21	2064.23
1169.88	2813.39
1173.54	2837.41
1177.2	2070.32
1180.86	1341.16
1184.52	934.77
1188.18	775.096
1191.83	845.596
1195.49	1072.86
1199.14	1389.14
1202.79	1529.47
1206.44	1280.76
1210.08	934.047
1213.73	606.341
1217.37	430.632
1221.01	327.913
1224.65	213.18
1228.29	192.431
1231.93	156.658
1235.56	104.855
1239.19	67.061
1242.83	43.275
1246.46	21.476
1250.08	0.627
1253.71	31.321
1257.33	9.605
1260.96	6.603
1264.58	5.023
1268.19	13.756
1271.81	22.088
1275.43	33
1279.04	25.124
1282.65	42.198
1286.27	33.512
1289.87	8.971
1293.48	16.478
1297.09	17.861
1300.69	15.906
1304.29	37.663
1307.89	7.441
1311.49	71.084
1315.09	88.492
1318.68	124.823
1322.28	113.077
1325.87	136.192
1329.46	89.237
1333.05	105.153
1336.63	103.982
1340.22	94.674
1343.8	79.473
1347.38	84.207
1350.96	98.38
1354.54	105.899
1358.12	140.918
1361.69	144.993
1365.26	119.875
1368.83	126.638
1372.4	123.219
1375.97	156.066
1379.54	129.384
1383.1	121.084
1386.66	153.914
1390.23	140.175
1393.79	129.132
1397.34	129.003
1400.9	87.54
1404.45	75.935
1408.01	31.344
1411.56	36.797
1415.11	39.388
1418.66	3.523
1422.2	20.406
1425.75	56.127
1429.29	29.631
1432.83	63.829
1436.37	18.852
1439.91	35.594
1443.44	66.07
1446.98	31.278
1450.51	28.14
1454.04	49.35
1457.57	45.773
1461.1	30.216
1464.63	38.827
1468.15	46.847
1471.67	55.229
1475.19	32.919
1478.71	40.383
1482.23	28.126
1485.75	14.392
1489.26	28.127
1492.78	33.825
1496.29	9.325
1499.8	41.976
1503.31	22.975
1506.81	34.285
1510.32	0.421
1513.82	11.464
1517.32	0
