Measurement: Raman, 514 nm, ccw, Raman Data Processed
Mineral: Datolite
Rruff sample: R050033
Ideal chemistry: CaBSiO_4_(OH)
Locality: Westfield, Massachusetts, USA
Source: University of Arizona Mineral Museum
Description: Group of pale green single crystals
Measured chemistry: Ca_1.00_B_1.00_Si_1.00_O_4_(OH) ; trace amounts of Al and Na; B measured and corrected according to stoichiometry;  OH estimated by stoichiometry end charge balance
Pin_id: M00292
Orientation: Laser parallel to (1 0 1). Fiducial mark perpendicular to laser is parallel to b [0 1 0]
Raman shift (cm-1)	intensity
49.184	0
53.401	1.541
57.617	41.951
61.83	164.013
66.041	252.289
70.25	180.918
74.456	203.131
78.661	337.627
82.863	300.356
87.064	376.485
91.262	235.679
95.458	172.473
99.652	81.741
103.843	3.422
108.033	4.198
112.22	44.004
116.406	12.084
120.589	22.989
124.77	23.017
128.949	379.586
133.126	1366.94
137.301	562.23
141.473	67.126
145.644	67.432
149.812	418.377
153.979	1261.22
158.143	3497.73
162.305	14441.3
166.465	22382.3
170.623	6113.26
174.778	3671.98
178.932	4350.68
183.083	1359.44
187.233	1108.02
191.38	2534.41
195.525	1741.55
199.669	1003.56
203.81	601.312
207.949	903.882
212.085	2500.22
216.22	6665.79
220.353	6934.28
224.483	1478.83
228.612	421.267
232.738	208.505
236.863	50.267
240.985	19.706
245.105	24.489
249.223	22.794
253.339	15.476
257.453	29.096
261.565	15.15
265.675	183.402
269.783	747.673
273.888	913.515
277.992	382.508
282.093	156.59
286.193	506.588
290.29	2004.1
294.386	2223.83
298.479	689.77
302.57	228.487
306.659	104.814
310.746	49.949
314.831	52.681
318.914	224.888
322.995	512.713
327.074	475.353
331.151	908.859
335.226	880.225
339.299	358.485
343.37	239.671
347.438	419.476
351.505	671.189
355.57	1511.03
359.632	3288.83
363.693	3968.34
367.751	2234.77
371.808	1233.29
375.862	1090.18
379.914	1322.55
383.965	1821.04
388.013	4219.87
392.06	7917.22
396.104	5332.54
400.146	2107.72
404.186	928.732
408.225	519.737
412.261	398.886
416.295	467.633
420.327	1364.22
424.357	3118.73
428.386	1628.94
432.412	620.544
436.436	689.221
440.458	946.861
444.478	478.927
448.496	199.949
452.513	183.554
456.527	362.107
460.539	339.574
464.549	90.661
468.557	5.814
472.563	8.283
476.567	8.667
480.57	107.599
484.57	304.188
488.568	1046.88
492.564	1379.68
496.558	572.498
500.551	159.328
504.541	40.03
508.529	4.229
512.515	34.57
516.5	22.976
520.482	228.476
524.462	446.942
528.441	175.374
532.417	19.228
536.391	50.969
540.364	40.989
544.334	2.781
548.303	147.486
552.269	443.167
556.234	721.832
560.197	1109.51
564.157	1038.27
568.116	348.192
572.073	184.296
576.027	145.538
579.98	234.976
583.931	512.592
587.88	1281.28
591.827	2709.97
595.772	2925.66
599.715	2159.34
603.656	1653.04
607.595	805.748
611.532	356.452
615.468	230.152
619.401	166.85
623.332	150.688
627.262	169.05
631.189	245.886
635.115	329.678
639.039	506.526
642.96	797.071
646.88	1601.23
650.798	3358.07
654.714	5428.62
658.628	4447.07
662.54	3031.49
666.45	3201.96
670.358	3498.36
674.264	3256.19
678.169	3266.68
682.071	4676.14
685.972	9598.57
689.87	27865.9
693.767	46005.9
697.662	21375.7
701.555	7966.19
705.446	3721.5
709.335	2096.8
713.222	1281.09
717.107	791.361
720.99	565.62
724.872	379.868
728.751	255.114
732.629	168.355
736.504	141.593
740.378	161.826
744.25	131.037
748.12	108.224
751.988	102.386
755.854	66.526
759.719	227.643
763.581	607.738
767.442	537.812
771.3	182.864
775.157	78.896
779.012	10.906
782.865	37.165
786.716	43.484
790.565	19.102
794.413	23.028
798.258	49.252
802.102	39.807
805.943	11.385
809.783	1.451
813.621	74.44
817.457	180.423
821.292	428.419
825.124	1040.45
828.954	1578.5
832.783	923.556
836.61	392.619
840.435	192.689
844.258	133.775
848.079	144.96
851.898	195.286
855.715	375.694
859.531	800.129
863.345	1479.59
867.157	1200.07
870.967	935.578
874.775	1297.24
878.581	1909.43
882.386	2204.28
886.188	1808.21
889.989	1317.38
893.788	1056.31
897.585	1073.04
901.38	1335.81
905.174	1912.62
908.965	3296.47
912.755	6860.36
916.543	12635.3
920.329	10662.3
924.113	5705.3
927.895	3112.38
931.676	2299.76
935.454	2020.5
939.231	1613.92
943.006	1360.67
946.78	1306.42
950.551	1277.51
954.32	1343.31
958.088	1144.93
961.854	943.445
965.618	866.095
969.38	938.812
973.141	1303.96
976.9	2353.24
980.656	5065.66
984.411	8682.26
988.165	5602.03
991.916	2566.95
995.665	1321.04
999.413	890.283
1003.16	769.701
1006.9	575.294
1010.65	350.041
1014.39	206.914
1018.12	95.906
1021.86	48.018
1025.6	13.764
1029.33	44.454
1033.06	32.074
1036.79	12.616
1040.52	11.088
1044.25	23.522
1047.97	45.238
1051.69	110.061
1055.41	210.991
1059.13	419.027
1062.85	754.169
1066.57	1539.42
1070.28	3703.77
1073.99	10568.2
1077.7	12819.8
1081.41	6887.45
1085.12	2732.28
1088.82	1220.35
1092.52	666.656
1096.22	377.223
1099.92	185.027
1103.62	130.086
1107.32	85.052
1111.01	39.054
1114.7	30.306
1118.39	23.284
1122.08	64.378
1125.77	23.229
1129.45	59.173
1133.14	83.253
1136.82	136.23
1140.5	167.1
1144.18	257.309
1147.85	364.766
1151.53	508.139
1155.2	729.531
1158.87	1023.74
1162.54	1479.51
1166.21	2108.98
1169.88	2933.53
1173.54	3090.55
1177.2	2352.43
1180.86	1463.99
1184.52	946.612
1188.18	742.575
1191.83	729.963
1195.49	841.439
1199.14	1065.93
1202.79	1188.5
1206.44	958.995
1210.08	684.497
1213.73	473.003
1217.37	320.505
1221.01	239.001
1224.65	175.487
1228.29	137.962
1231.93	127.421
1235.56	93.859
1239.19	67.297
1242.83	32.744
1246.46	31.166
1250.08	1.447
1253.71	1.141
1257.33	2.92
1260.96	25.101
1264.58	1.553
1268.19	1.406
1271.81	3.469
1275.43	5.042
1279.04	20.728
1282.65	25.335
1286.27	0.08
1289.87	16.111
1293.48	22.91
1297.09	13.821
1300.69	0.158
1304.29	22.249
1307.89	8.673
1311.49	23.879
1315.09	89.047
1318.68	65.049
1322.28	94.975
1325.87	89.822
1329.46	102.672
1333.05	90.536
1336.63	91.178
1340.22	68.684
1343.8	45.078
1347.38	66.423
1350.96	70.642
1354.54	86.23
1358.12	92.236
1361.69	91.18
1365.26	99.924
1368.83	112.651
1372.4	107.325
1375.97	122.695
1379.54	106.915
1383.1	101.076
1386.66	83.213
1390.23	100.865
1393.79	91.227
1397.34	77.835
1400.9	58.281
1404.45	67.63
1408.01	43.685
1411.56	14.885
1415.11	25.038
1418.66	24.833
1422.2	7.839
1425.75	10.669
1429.29	57.306
1432.83	5.621
1436.37	32.863
1439.91	28.877
1443.44	36.674
1446.98	42.243
1450.51	38.556
1454.04	36.374
1457.57	41.851
1461.1	37.404
1464.63	37.337
1468.15	36.123
1471.67	29.825
1475.19	18.755
1478.71	24.388
1482.23	43.281
1485.75	56.404
1489.26	12.832
1492.78	46.581
1496.29	31.896
1499.8	6.255
1503.31	25.132
1506.81	21.066
1510.32	1.253
1513.82	9.883
1517.32	20.402
