Measurement: Raman, 514 nm, ccw, Raman Data Processed
Mineral: Datolite
Rruff sample: R050136
Ideal chemistry: CaBSiO_4_(OH)
Locality: Charcas, San Luis Potosi, Mexico
Source: Dave Bunk Minerals
Description: Pale green tabular crystals
Measured chemistry: Ca_1.00_BSi_1.00_O_4_(OH) ; trace amounts of Fe; B and OH estimated by stoichiometry end charge balance
Pin_id: L00362
Orientation: Laser parallel to a* (1 0 0). Fiducial mark perpendicular to laser is parallel to b [0 1 0]
Raman shift (cm-1)	intensity
90.65	0
94.838	26.594
99.023	57.797
103.206	41.724
107.387	41.522
111.566	3.63
115.744	67.507
119.919	12.075
124.092	77.525
128.263	173.714
132.432	1001.64
136.599	413.605
140.764	25.331
144.927	127.921
149.088	914.384
153.247	3610.23
157.404	1371.97
161.559	2384.89
165.711	6423.77
169.862	1266.56
174.011	1787.15
178.158	3856.73
182.303	641.397
186.446	161.269
190.587	233.27
194.726	190.349
198.862	63.455
202.997	15.529
207.13	119.548
211.261	663.491
215.39	3375.32
219.517	6090.25
223.642	1031.16
227.765	436.661
231.886	321.176
236.005	52.167
240.122	16.999
244.237	21.32
248.35	31.811
252.461	46.918
256.57	29.891
260.677	18.82
264.782	118.34
268.885	519.861
272.986	1564.37
277.085	1012.51
281.182	652.336
285.278	1653.85
289.371	6835.12
293.462	10362.2
297.552	2975.03
301.639	1087.55
305.724	569.63
309.808	365.281
313.889	307.878
317.969	324.24
322.046	485.427
326.122	1033.45
330.196	3076.24
334.267	3991.39
338.337	1056.88
342.405	268.158
346.471	119.889
350.535	95.836
354.597	94.694
358.657	130.479
362.715	158.071
366.771	159.22
370.825	206.273
374.877	600.778
378.928	1332.13
382.976	600.392
387.023	294.559
391.067	296.625
395.11	186.61
399.15	67.767
403.189	41.119
407.226	23.703
411.261	13.186
415.294	37.951
419.325	48.75
423.354	182.302
427.381	122.067
431.406	102.595
435.43	77.487
439.451	211.263
443.471	293.929
447.488	645.49
451.504	1836.02
455.518	6740.38
459.53	7113.78
463.54	2011.95
467.548	698.105
471.554	314.247
475.558	191.361
479.561	144.447
483.561	143.502
487.559	408.533
491.556	711.532
495.551	265.498
499.544	87.423
503.535	30.289
507.524	16.127
511.511	3.27
515.496	21.74
519.48	28.948
523.461	59.199
527.441	58.379
531.418	42.556
535.394	112.807
539.368	225.008
543.34	500.16
547.311	1160.26
551.279	3610.32
555.245	4665.33
559.21	1763.72
563.173	688.319
567.133	301.756
571.092	145.527
575.049	38.735
579.005	1.029
582.958	40.766
586.909	21.488
590.859	69.611
594.807	129.418
598.753	103.543
602.697	112.64
606.639	61.708
610.579	14.748
614.518	28.726
618.454	35.049
622.389	80.052
626.322	111.031
630.253	133.953
634.182	168.333
638.109	227.061
642.035	312.74
645.958	463.497
649.88	743.406
653.8	1227.04
657.718	1342.67
661.634	1478.92
665.549	2129.8
669.461	2340.01
673.372	1829.27
677.281	2105.1
681.188	3376.4
685.093	8024.85
688.997	26618.1
692.898	56664.6
696.798	24891
700.696	8387.36
704.592	4027.73
708.486	2344.08
712.378	1464.42
716.269	959.742
720.158	694.067
724.045	544.396
727.93	437.743
731.813	381.011
735.694	308.952
739.574	252.257
743.452	217.052
747.328	193.268
751.202	120.687
755.075	84.096
758.945	42.496
762.814	82.886
766.681	82.13
770.546	25.571
774.409	5.792
778.271	32.897
782.131	32.748
785.989	7.746
789.845	4.146
793.699	6.945
797.552	32.352
801.402	19.767
805.251	1.258
809.098	12.191
812.944	75.625
816.787	130.071
820.629	203.541
824.469	571.049
828.307	920.618
832.144	503.239
835.978	186.886
839.811	90.555
843.642	91.248
847.472	114.967
851.299	195.712
855.125	282.486
858.949	370.291
862.771	502.127
866.591	802.997
870.41	1313.9
874.227	2479.84
878.042	4208.89
881.855	4903.34
885.667	3592.06
889.476	2396.4
893.284	1712.31
897.09	1529.81
900.895	1548.43
904.698	1914.8
908.499	3001.19
912.298	6294.62
916.095	14055.1
919.891	12861.6
923.685	6264.2
927.477	3402.25
931.267	2916.55
935.056	3020.22
938.843	2553.54
942.628	1925.5
946.411	1615.61
950.193	1393.46
953.973	1199.33
957.751	999.334
961.527	837.04
965.302	840.343
969.075	907.726
972.846	1177.19
976.615	1993.77
980.383	4330.45
984.149	8444.25
987.913	5567.16
991.675	2311.22
995.436	1019.42
999.195	542.753
1002.95	345.18
1006.71	187.715
1010.46	65.365
1014.21	102.11
1017.96	79.943
1021.71	16.863
1025.46	4.138
1029.2	5.063
1032.95	3.916
1036.69	20.706
1040.43	4.526
1044.17	7.232
1047.9	9.951
1051.64	1.607
1055.37	41.81
1059.1	126.304
1062.83	235.873
1066.56	652.514
1070.29	1644.23
1074.01	5626.01
1077.73	7710.87
1081.46	2820.85
1085.17	1093.97
1088.89	601.228
1092.61	451.605
1096.32	350.091
1100.04	238.7
1103.75	222.425
1107.46	180.255
1111.16	201.125
1114.87	206.23
1118.57	284.485
1122.28	380.594
1125.98	338.475
1129.67	366.024
1133.37	440.826
1137.07	661.381
1140.76	812.08
1144.45	1028.57
1148.14	1298.21
1151.83	1636.47
1155.52	2156.66
1159.21	2958.6
1162.89	4266.4
1166.57	6266.82
1170.25	8612.58
1173.93	8315.06
1177.61	5577.61
1181.28	3189.81
1184.96	1882.37
1188.63	1196.51
1192.3	932.161
1195.97	788.004
1199.64	825.468
1203.3	766.471
1206.97	654.215
1210.63	474.858
1214.29	353.419
1217.95	263.005
1221.6	188.614
1225.26	167.202
1228.91	142.765
1232.57	142.321
1236.21	70.814
1239.86	50.314
1243.51	58.89
1247.16	49.391
1250.8	14.86
1254.44	8.751
1258.08	10.698
1261.72	47.982
1265.36	1.23
1268.99	22.536
1272.63	8.193
1276.26	2.9
1279.89	4.115
1283.52	39.447
1287.15	4.157
1290.77	13.568
1294.4	14.856
1298.02	11.137
1301.64	22.217
1305.26	24.183
1308.88	0.1
1312.49	17.871
1316.11	44.563
1319.72	41.182
1323.33	92.719
1326.94	74.156
1330.55	84.495
1334.15	31.808
1337.76	31.006
1341.36	56.136
1344.96	16.159
1348.56	37.161
1352.16	37.084
1355.75	59.896
1359.35	94.569
1362.94	100.536
1366.53	84.031
1370.12	56.507
1373.71	58.706
1377.3	87.346
1380.88	71.021
1384.46	46.626
1388.05	63.096
1391.63	118.123
1395.2	70.072
1398.78	31.087
1402.36	47.965
1405.93	55.451
1409.5	15.452
1413.07	15.747
1416.64	1.665
1420.21	8.125
1423.78	20.821
1427.34	27.971
1430.9	25.84
1434.46	18.525
1438.02	48.914
1441.58	75.083
1445.13	60.057
1448.69	54.895
1452.24	66.262
1455.79	56.35
1459.34	57.114
1462.89	44.893
1466.44	49.591
1469.98	42.313
1473.53	66.42
1477.07	60.595
1480.61	81.366
1484.14	40.217
1487.68	74.188
1491.22	45.902
1494.75	11.834
1498.28	31.814
1501.81	3.7
1505.34	26.368
1508.87	4.091
1512.4	27.078
1515.92	0
