Measurement: Raman, 514 nm, ccw, Raman Data Processed
Mineral: Datolite
Rruff sample: R050033
Ideal chemistry: CaBSiO_4_(OH)
Locality: Westfield, Massachusetts, USA
Source: University of Arizona Mineral Museum
Description: Group of pale green single crystals
Measured chemistry: Ca_1.00_B_1.00_Si_1.00_O_4_(OH) ; trace amounts of Al and Na; B measured and corrected according to stoichiometry;  OH estimated by stoichiometry end charge balance
Pin_id: L00095
Orientation: Laser parallel to -b* (0 -1 0). Fiducial mark perpendicular to laser is parallel to c [0 0 1]
Raman shift (cm-1)	intensity
52.937	0
57.132	154.073
61.325	122.558
65.515	197.388
69.704	119.424
73.891	97.34
78.076	29.107
82.26	42.897
86.441	4.312
90.62	21.075
94.797	29.425
98.973	42.78
103.146	31.136
107.318	54.791
111.487	271.621
115.655	140.596
119.821	151.126
123.984	207.617
128.146	649.791
132.306	2668.17
136.464	2509.93
140.62	420.243
144.774	200.076
148.927	554.727
153.077	1713.95
157.226	1264.5
161.372	2065.39
165.517	5830.87
169.659	2020.3
173.8	1044.64
177.939	2095.87
182.076	556.989
186.211	87.326
190.344	52.152
194.475	77.824
198.605	29.65
202.732	35.485
206.858	9.816
210.981	153.021
215.103	1206.94
219.223	3343.03
223.341	783.116
227.457	504.089
231.571	804.791
235.684	247.34
239.794	33.234
243.902	14.022
248.009	2.508
252.114	25.516
256.217	3.838
260.318	2.39
264.417	56.883
268.514	341.564
272.609	1128.1
276.703	1002.43
280.794	449.504
284.884	723.11
288.972	2934.43
293.058	6061.04
297.142	2201.06
301.224	662.949
305.304	278.746
309.383	210.011
313.46	169.409
317.534	207.574
321.607	332.394
325.678	873.034
329.747	2772.61
333.815	3014.13
337.88	972.594
341.944	303.005
346.005	160.443
350.065	102.632
354.123	114.878
358.179	168.737
362.234	251.305
366.286	286.654
370.337	464.138
374.386	1254.41
378.432	3163.96
382.478	2619.89
386.521	3260.51
390.562	8454.92
394.602	8395.15
398.639	2648.23
402.675	1061.16
406.709	527.188
410.742	358.026
414.772	151.286
418.8	114.819
422.827	147.066
426.852	161.056
430.875	83.971
434.896	102.515
438.916	205.003
442.933	225.427
446.949	360.831
450.963	862.198
454.975	3263.53
458.985	5556.88
462.994	1772.26
467	511.674
471.005	231.13
475.008	169.451
479.009	159.879
483.009	238.43
487.006	741.97
491.002	1766.48
494.996	937.969
498.988	253.422
502.978	78.843
506.967	24.2
510.953	10.126
514.938	18.934
518.921	37.636
522.903	54.59
526.882	26.755
530.86	4.913
534.836	26.865
538.81	37.585
542.782	162.268
546.753	454.925
550.721	1467.56
554.688	2471.17
558.653	1129.76
562.617	438.349
566.578	243.967
570.538	207.643
574.496	216.399
578.452	351.229
582.407	642.095
586.359	1536.01
590.31	3724.84
594.259	5134.68
598.206	2820.58
602.152	1202.02
606.096	573.185
610.038	343.151
613.978	202.827
617.916	160.959
621.853	207.393
625.788	168.475
629.721	196.088
633.652	209.757
637.582	224.698
641.51	287.424
645.436	329.15
649.36	420.902
653.282	623.527
657.203	941.122
661.122	1414.69
665.039	2605.94
668.955	4037.82
672.869	3531.23
676.781	3102.89
680.691	3975.46
684.599	7175.57
688.506	20411.1
692.411	56985.1
696.314	37389.9
700.216	11775.3
704.115	4776.65
708.013	2538.01
711.91	1614.35
715.804	1079.69
719.697	703.039
723.588	480.401
727.477	382.781
731.365	259.206
735.25	206.696
739.134	187.219
743.017	152.74
746.897	86.26
750.776	72.772
754.653	52.274
758.529	7.743
762.402	7.851
766.274	15.49
770.144	29.202
774.013	34.063
777.88	23.099
781.745	27.302
785.608	41.671
789.47	29.223
793.329	23.892
797.188	9.652
801.044	23.552
804.899	21.752
808.752	83.954
812.603	153.16
816.452	333.373
820.3	659.595
824.146	1485.84
827.991	2896.14
831.834	2237.51
835.675	862.017
839.514	425.627
843.352	324.323
847.187	311.067
851.022	330.847
854.854	522.652
858.685	974.482
862.514	2082.34
866.341	2345.23
870.167	1668.11
873.991	2119.77
877.813	3450.39
881.634	4530.23
885.453	3679.52
889.27	2327.4
893.086	1429.88
896.9	1016.15
900.712	948.305
904.522	1134.49
908.331	1704.7
912.138	3250.27
915.944	7333.42
919.747	8601.17
923.549	4661.86
927.35	2457.68
931.148	1891.23
934.945	1931.22
938.741	1614.09
942.534	1075.62
946.326	805.482
950.117	757.157
953.905	633.895
957.692	595.701
961.478	452.677
965.261	513.727
969.043	588.853
972.823	945.056
976.602	1652.34
980.379	3635.71
984.154	8372.17
987.928	7763.75
991.7	3271.45
995.47	1520.28
999.239	831.221
1003.01	511.315
1006.77	283.552
1010.53	165.915
1014.3	81.391
1018.06	23.04
1021.82	8.419
1025.57	9.253
1029.33	23.038
1033.08	24.335
1036.83	38.679
1040.59	13.09
1044.33	23.47
1048.08	23.2
1051.83	118.944
1055.57	217.768
1059.31	230.677
1063.05	455.689
1066.79	918.8
1070.53	2125.01
1074.27	6752.34
1078	14511.8
1081.73	6101.48
1085.46	1953.3
1089.19	896.275
1092.92	496.41
1096.64	334.669
1100.37	279.035
1104.09	235.486
1107.81	205.013
1111.53	143.612
1115.25	156.283
1118.97	142.029
1122.68	219.847
1126.39	276.004
1130.1	330.969
1133.81	488.531
1137.52	556.695
1141.23	650.847
1144.93	810.302
1148.64	1117.71
1152.34	1476.7
1156.04	2210.53
1159.74	3177.77
1163.43	4593.58
1167.13	6787.27
1170.82	9608.4
1174.51	10887.5
1178.2	8376.62
1181.89	5100.35
1185.58	3115.07
1189.26	1947.06
1192.95	1304.97
1196.63	905.373
1200.31	624.453
1203.99	486.77
1207.67	422.636
1211.34	309.473
1215.02	276.545
1218.69	244.414
1222.36	216.312
1226.03	146.201
1229.7	134.816
1233.36	80.851
1237.03	83.743
1240.69	65.631
1244.35	57.531
1248.01	79.455
1251.67	51.534
1255.33	50.519
1258.98	50.613
1262.64	27.78
1266.29	20.286
1269.94	9.141
1273.59	35.706
1277.23	22.061
1280.88	57.684
1284.53	60.514
1288.17	5.128
1291.81	3.629
1295.45	3.62
1299.09	43.249
1302.72	1.418
1306.36	18.477
1309.99	27.339
1313.62	35.112
1317.25	47.863
1320.88	71.588
1324.51	97.278
1328.13	117.938
1331.75	61.618
1335.38	34.176
1339	50.971
1342.62	12.978
1346.23	43.318
1349.85	47.714
1353.46	58.142
1357.08	44.26
1360.69	100.332
1364.3	59.244
1367.9	66.058
1371.51	67.765
1375.12	55.389
1378.72	76.891
1382.32	79.49
1385.92	130.553
1389.52	96.452
1393.12	75.315
1396.71	79.132
1400.31	81.885
1403.9	33.102
1407.49	10.339
1411.08	11.816
1414.67	29.566
1418.25	26.013
1421.84	54.345
1425.42	24.295
1429	39.188
1432.58	26.967
1436.16	40.144
1439.74	31.756
1443.32	3.208
1446.89	31.048
1450.46	70.24
1454.03	80.668
1457.6	65.579
1461.17	93.867
1464.74	83.677
1468.3	111.813
1471.87	71.137
1475.43	53.932
1478.99	2.008
1482.55	6.268
1486.1	53.997
1489.66	9.693
1493.21	63.162
1496.77	31.111
1500.32	48.716
1503.87	44.514
1507.41	49.979
1510.96	36.736
1514.51	35.335
1518.05	69.655
1521.59	36.667
1525.13	36.648
