Measurement: Raman, 514 nm, ccw, Raman Data Processed
Mineral: Datolite
Rruff sample: R050033
Ideal chemistry: CaBSiO_4_(OH)
Locality: Westfield, Massachusetts, USA
Source: University of Arizona Mineral Museum
Description: Group of pale green single crystals
Measured chemistry: Ca_1.00_B_1.00_Si_1.00_O_4_(OH) ; trace amounts of Al and Na; B measured and corrected according to stoichiometry;  OH estimated by stoichiometry end charge balance
Pin_id: L00095
Orientation: Laser parallel to -b* (0 -1 0). Fiducial mark perpendicular to laser is parallel to c [0 0 1]
Raman shift (cm-1)	intensity
52.937	0
57.132	24.79
61.325	17.543
65.515	33.444
69.704	17.515
73.891	19.112
78.076	37.927
82.26	6.561
86.441	3.454
90.62	0.09
94.797	1.754
98.973	12.678
103.146	13.601
107.318	28.626
111.487	51.343
115.655	23.529
119.821	47.021
123.984	60.371
128.146	180.672
132.306	780.446
136.464	791.171
140.62	188.773
144.774	86.474
148.927	122.944
153.077	311.669
157.226	298.807
161.372	1204.81
165.517	3752.87
169.659	1276.78
173.8	371.547
177.939	549.25
182.076	137.176
186.211	25.85
190.344	27.442
194.475	19.88
198.605	4.057
202.732	4.602
206.858	16.916
210.981	13.795
215.103	134.589
219.223	391.896
223.341	200.828
227.457	492.046
231.571	924.658
235.684	306.471
239.794	65.728
243.902	32.78
248.009	18.819
252.114	9.238
256.217	2.58
260.318	5.406
264.417	4.799
268.514	23.827
272.609	70.92
276.703	82.299
280.794	71.451
284.884	179.708
288.972	847.83
293.058	1740.84
297.142	547.637
301.224	180.353
305.304	53.021
309.383	37.638
313.46	28.198
317.534	20.671
321.607	20.033
325.678	23.274
329.747	86.457
333.815	63.599
337.88	20.702
341.944	2.761
346.005	17.774
350.065	2.436
354.123	34.433
358.179	56.156
362.234	118.193
366.286	134.789
370.337	241.052
374.386	834.955
378.432	2288.73
382.478	1355.67
386.521	681.217
390.562	998.688
394.602	867.09
398.639	273.432
402.675	114.714
406.709	37.504
410.742	20.97
414.772	5.939
418.8	14.507
422.827	24.09
426.852	19.877
430.875	7.149
434.896	7.825
438.916	24.113
442.933	24.26
446.949	15.048
450.963	51.801
454.975	220.529
458.985	406.23
462.994	134.913
467	55.561
471.005	45.05
475.008	51.351
479.009	114.518
483.009	238.689
487.006	769.959
491.002	1919.55
494.996	989.221
498.988	331.686
502.978	132.681
506.967	69.8
510.953	47.616
514.938	17.989
518.921	2.492
522.903	5.933
526.882	20.382
530.86	2.074
534.836	1.407
538.81	3.98
542.782	19.415
546.753	95.795
550.721	287.165
554.688	512.524
558.653	211.874
562.617	72.215
566.578	19.543
570.538	16.772
574.496	32.86
578.452	57.004
582.407	68.444
586.359	270.559
590.31	649.446
594.259	874.374
598.206	474.707
602.152	210.089
606.096	84.346
610.038	68.25
613.978	38.801
617.916	29.426
621.853	98.665
625.788	73.036
629.721	84.639
633.652	106.607
637.582	122.269
641.51	159.761
645.436	239.121
649.36	292.153
653.282	420.656
657.203	655.16
661.122	1135.67
665.039	2327.2
668.955	4026.73
672.869	3620.28
676.781	3045.77
680.691	3467.93
684.599	6013.15
688.506	16337.9
692.411	45743.7
696.314	29369.9
700.216	9030.39
704.115	3575.99
708.013	1913.6
711.91	1190.23
715.804	803.863
719.697	533.516
723.588	374.605
727.477	274.946
731.365	188.761
735.25	178.64
739.134	131.557
743.017	120.495
746.897	50.462
750.776	57.455
754.653	33.465
758.529	27.49
762.402	4.531
766.274	0.58
770.144	20.632
774.013	4.306
777.88	12.266
781.745	32.259
785.608	5.323
789.47	35.401
793.329	2.54
797.188	11.282
801.044	6.904
804.899	22.904
808.752	73.729
812.603	112.573
816.452	249.437
820.3	474.32
824.146	1016.22
827.991	1981.15
831.834	1375.09
835.675	474.064
839.514	160.088
843.352	49.549
847.187	36.281
851.022	71.445
854.854	139.638
858.685	241.856
862.514	508.1
866.341	704.371
870.167	684.668
873.991	970.268
877.813	1629.56
881.634	2124.96
885.453	1711
889.27	950.597
893.086	490.38
896.9	300.846
900.712	212.334
904.522	233.843
908.331	296.374
912.138	742.928
915.944	1816.5
919.747	2303.53
923.549	1241.13
927.35	694.244
931.148	496.684
934.945	494.297
938.741	389.45
942.534	249.959
946.326	188.474
950.117	174.553
953.905	168.057
957.692	148.902
961.478	157.827
965.261	197.787
969.043	317.783
972.823	515.816
976.602	1035.88
980.379	2342.99
984.154	5521.13
987.928	5047.32
991.7	2357.85
995.47	1057.86
999.239	555.213
1003.01	384.615
1006.77	217.076
1010.53	103.59
1014.3	55.143
1018.06	31.746
1021.82	4.385
1025.57	17.959
1029.33	10.326
1033.08	40.738
1036.83	17.241
1040.59	7.773
1044.33	24.714
1048.08	45.237
1051.83	81.797
1055.57	130.393
1059.31	179.025
1063.05	347.693
1066.79	629.403
1070.53	1364.16
1074.27	4288.95
1078	8989.79
1081.73	3617.7
1085.46	1152.67
1089.19	481.719
1092.92	260.82
1096.64	128.996
1100.37	122.23
1104.09	68.517
1107.81	72.849
1111.53	61.222
1115.25	54.639
1118.97	35.095
1122.68	85.591
1126.39	93.141
1130.1	123.723
1133.81	196.013
1137.52	230.211
1141.23	317.439
1144.93	419.171
1148.64	549.423
1152.34	741.411
1156.04	1188.69
1159.74	1821.79
1163.43	2607.59
1167.13	3992.49
1170.82	5733.39
1174.51	6645.15
1178.2	5240.54
1181.89	3324.78
1185.58	2044.46
1189.26	1283.78
1192.95	859.802
1196.63	601.845
1200.31	422.909
1203.99	332.991
1207.67	257.135
1211.34	227.554
1215.02	198.689
1218.69	189.939
1222.36	131.458
1226.03	116.871
1229.7	104.386
1233.36	63.755
1237.03	68.96
1240.69	41.265
1244.35	52.494
1248.01	58.128
1251.67	32.477
1255.33	34.352
1258.98	36.326
1262.64	46.253
1266.29	16.828
1269.94	3.317
1273.59	35.66
1277.23	22.874
1280.88	20.961
1284.53	27.22
1288.17	17.474
1291.81	10.085
1295.45	0.115
1299.09	4.596
1302.72	2.598
1306.36	10.717
1309.99	18.851
1313.62	22.928
1317.25	10.999
1320.88	34.07
1324.51	32.163
1328.13	54.217
1331.75	40.27
1335.38	37.297
1339	49.292
1342.62	43.227
1346.23	28.132
1349.85	47.024
1353.46	35.849
1357.08	26.707
1360.69	5.445
1364.3	0.154
1367.9	30.815
1371.51	14.435
1375.12	14.076
1378.72	21.628
1382.32	19.135
1385.92	28.014
1389.52	27.672
1393.12	19.32
1396.71	10.932
1400.31	23.504
1403.9	2.041
1407.49	6.908
1411.08	0.434
1414.67	7.162
1418.25	19.225
1421.84	10.019
1425.42	11.077
1429	11.115
1432.58	20.133
1436.16	47.134
1439.74	7.122
1443.32	25.517
1446.89	21.659
1450.46	16.136
1454.03	42.066
1457.6	39.708
1461.17	39.478
1464.74	50.021
1468.3	54.358
1471.87	44.719
1475.43	32.583
1478.99	25.939
1482.55	48.437
1486.1	47.922
1489.66	5.114
1493.21	13.332
1496.77	0.774
1500.32	16.073
1503.87	17.273
1507.41	37.873
1510.96	42.243
1514.51	46.263
1518.05	41.072
1521.59	22.988
1525.13	0.062
