Measurement: Raman, 514 nm, ccw, Raman Data Processed
Mineral: Datolite
Rruff sample: R050033
Ideal chemistry: CaBSiO_4_(OH)
Locality: Westfield, Massachusetts, USA
Source: University of Arizona Mineral Museum
Description: Group of pale green single crystals
Measured chemistry: Ca_1.00_B_1.00_Si_1.00_O_4_(OH) ; trace amounts of Al and Na; B measured and corrected according to stoichiometry;  OH estimated by stoichiometry end charge balance
Pin_id: L00195
Orientation: Laser parallel to c* (0 0 1). Fiducial mark perpendicular to laser is parallel to a [1 0 0]
Raman shift (cm-1)	intensity
52.937	0
57.132	59.892
61.325	108.042
65.515	73.876
69.704	91.739
73.891	71.009
78.076	14.991
82.26	7.95
86.441	0.266
90.62	24.226
94.797	61.249
98.973	183.694
103.146	270.487
107.318	397.917
111.487	416.771
115.655	576.674
119.821	615.025
123.984	627.734
128.146	665.4
132.306	1514.05
136.464	1616.74
140.62	646.653
144.774	579.703
148.927	714.733
153.077	1030.6
157.226	2156.68
161.372	10720.8
165.517	49024.3
169.659	16197.9
173.8	3418.63
177.939	3016.4
182.076	1029.37
186.211	460.31
190.344	448.929
194.475	451.615
198.605	286.367
202.732	299.182
206.858	404.074
210.981	958.171
215.103	4557.55
219.223	16767.2
223.341	3882.29
227.457	793.671
231.571	356.246
235.684	179.883
239.794	128.841
243.902	80.056
248.009	63.784
252.114	23.865
256.217	5.63
260.318	31.748
264.417	10.961
268.514	56.848
272.609	379.699
276.703	470.587
280.794	89.511
284.884	38.466
288.972	162.445
293.058	736.448
297.142	288.475
301.224	66.525
305.304	13.598
309.383	27.318
313.46	22.276
317.534	19.248
321.607	79.775
325.678	194.726
329.747	900.701
333.815	2644.71
337.88	1216.74
341.944	281.812
346.005	115.888
350.065	86.874
354.123	118.893
358.179	280.546
362.234	550.762
366.286	479.233
370.337	289.121
374.386	394.088
378.432	645.01
382.478	1156.3
386.521	3028.67
390.562	9881.75
394.602	11086.8
398.639	3749.9
402.675	1456.97
406.709	722.07
410.742	467.19
414.772	305.362
418.8	242.751
422.827	302.639
426.852	320.871
430.875	138.451
434.896	164.637
438.916	254.819
442.933	233.995
446.949	167.181
450.963	119.36
454.975	462.532
458.985	1080.7
462.994	463.9
467	202.157
471.005	176.233
475.008	235.928
479.009	341.265
483.009	679.769
487.006	1968.36
491.002	5368
494.996	2996.71
498.988	897.395
502.978	304.07
506.967	147.729
510.953	49.372
514.938	41.998
518.921	19.561
522.903	3.979
526.882	20.615
530.86	37.397
534.836	29.355
538.81	21.525
542.782	7.787
546.753	69.708
550.721	332.269
554.688	638.805
558.653	294.317
562.617	60.804
566.578	82.265
570.538	62.699
574.496	84.106
578.452	84.485
582.407	224.848
586.359	569.228
590.31	1380.6
594.259	1918.94
598.206	1172.25
602.152	607.731
606.096	356.981
610.038	160.2
613.978	121.387
617.916	64.69
621.853	163.295
625.788	125.091
629.721	153.222
633.652	148.807
637.582	150.983
641.51	217.663
645.436	335.537
649.36	457.457
653.282	722.331
657.203	1092.15
661.122	1784.9
665.039	3668.6
668.955	6687.25
672.869	5537.81
676.781	3723.66
680.691	3434.21
684.599	4847.18
688.506	11470.7
692.411	33659.7
696.314	23724.6
700.216	7199.45
704.115	2863.66
708.013	1413.85
711.91	842.998
715.804	570.117
719.697	423.205
723.588	339.263
727.477	235.293
731.365	179.294
735.25	110.27
739.134	110.224
743.017	102.153
746.897	87.056
750.776	62.35
754.653	75.793
758.529	51.616
762.402	100.397
766.274	187.158
770.144	32.901
774.013	18.407
777.88	2.831
781.745	7.582
785.608	7.139
789.47	60.013
793.329	39.084
797.188	55.303
801.044	23.708
804.899	37.732
808.752	34.094
812.603	56.457
816.452	138.822
820.3	329.194
824.146	783.573
827.991	1654.96
831.834	1371.4
835.675	527.911
839.514	180.506
843.352	124.199
847.187	110.001
851.022	63.771
854.854	57.982
858.685	87.052
862.514	234.153
866.341	379.289
870.167	286.46
873.991	413.669
877.813	751.917
881.634	1165.21
885.453	1196.55
889.27	975.327
893.086	766.769
896.9	767.259
900.712	875.798
904.522	1216.39
908.331	2025.03
912.138	4029.52
915.944	9155.27
919.747	11638.1
923.549	6251.94
927.35	3076.02
931.148	1765.56
934.945	1279.48
938.741	895.812
942.534	657.273
946.326	585.858
950.117	559.68
953.905	592.367
957.692	539.663
961.478	479.463
965.261	501.373
969.043	596.409
972.823	869.572
976.602	1562.87
980.379	3284.29
984.154	7763.25
987.928	7869.76
991.7	3306.12
995.47	1576.88
999.239	892.197
1003.01	680.388
1006.77	607.703
1010.53	335.121
1014.3	172.65
1018.06	165.3
1021.82	81.044
1025.57	58.878
1029.33	58.801
1033.08	66.81
1036.83	39.906
1040.59	25.645
1044.33	24.938
1048.08	144.275
1051.83	209.698
1055.57	311.071
1059.31	479.788
1063.05	706.464
1066.79	1184.35
1070.53	2639.18
1074.27	7651.1
1078	18348.9
1081.73	9766.02
1085.46	3811.4
1089.19	1480.89
1092.92	764.468
1096.64	440.763
1100.37	295.671
1104.09	204.793
1107.81	116.944
1111.53	135.462
1115.25	79.033
1118.97	109.727
1122.68	6.086
1126.39	22.23
1130.1	42.039
1133.81	30.376
1137.52	54.909
1141.23	44.929
1144.93	28.519
1148.64	34.066
1152.34	2.089
1156.04	30.992
1159.74	87.1
1163.43	86.231
1167.13	247.021
1170.82	279.736
1174.51	215.355
1178.2	156.83
1181.89	87.298
1185.58	35.802
1189.26	43.879
1192.95	45.285
1196.63	88.743
1200.31	104.352
1203.99	38.706
1207.67	76.009
1211.34	0.345
1215.02	33.652
1218.69	95.865
1222.36	76.045
1226.03	58.176
1229.7	28.263
1233.36	14.392
1237.03	41.466
1240.69	29.585
1244.35	6.73
1248.01	33.005
1251.67	25.625
1255.33	56.087
1258.98	65.43
1262.64	26.652
1266.29	40.107
1269.94	24.862
1273.59	19.846
1277.23	21.521
1280.88	69.926
1284.53	79.516
1288.17	35.205
1291.81	60.447
1295.45	15.293
1299.09	19.79
1302.72	20.01
1306.36	8.278
1309.99	36.343
1313.62	34.828
1317.25	89.219
1320.88	139.522
1324.51	124.739
1328.13	185.825
1331.75	57.832
1335.38	63.185
1339	49.964
1342.62	34.685
1346.23	77.323
1349.85	95.881
1353.46	145.688
1357.08	133.969
1360.69	99.304
1364.3	106.579
1367.9	117.789
1371.51	92.217
1375.12	79.311
1378.72	54.268
1382.32	141.585
1385.92	228.232
1389.52	169.864
1393.12	183.004
1396.71	164.349
1400.31	119.212
1403.9	80.388
1407.49	10.394
1411.08	33.195
1414.67	42.234
1418.25	40.431
1421.84	39.211
1425.42	86.346
1429	65.427
1432.58	76.351
1436.16	64.681
1439.74	66.325
1443.32	70.622
1446.89	83.931
1450.46	22.064
1454.03	93.671
1457.6	36.379
1461.17	113.144
1464.74	156.052
1468.3	153.7
1471.87	145.756
1475.43	117.247
1478.99	97.691
1482.55	72.971
1486.1	52.223
1489.66	12.334
1493.21	9.395
1496.77	25.932
1500.32	97.767
1503.87	94.986
1507.41	74.881
1510.96	134.304
1514.51	150.921
1518.05	79.387
1521.59	59.506
1525.13	0
