Measurement: Raman, 514 nm, ccw, Raman Data Processed
Mineral: Datolite
Rruff sample: R050136
Ideal chemistry: CaBSiO_4_(OH)
Locality: Charcas, San Luis Potosi, Mexico
Source: Dave Bunk Minerals
Description: Pale green tabular crystals
Measured chemistry: Ca_1.00_BSi_1.00_O_4_(OH) ; trace amounts of Fe; B and OH estimated by stoichiometry end charge balance
Pin_id: L00284
Orientation: Laser parallel to -b* (0 -1 0). Fiducial mark perpendicular to laser is parallel to c [0 0 1]
Raman shift (cm-1)	intensity
90.65	0
94.838	72.896
99.023	150.265
103.206	169.624
107.387	335.882
111.566	260.142
115.744	303.273
119.919	342.62
124.092	368.398
128.263	778.671
132.432	2756.54
136.599	1194.42
140.764	253.52
144.927	175.576
149.088	534.188
153.247	1324.23
157.404	597.6
161.559	2025.38
165.711	4890.22
169.862	862.137
174.011	786.885
178.158	1438.79
182.303	226.887
186.446	27.2
190.587	95.653
194.726	62.261
198.862	35.975
202.997	70.275
207.13	49.173
211.261	222.927
215.39	1103.8
219.517	1662.89
223.642	432.564
227.765	550.788
231.886	588.42
236.005	121.248
240.122	80.276
244.237	31.316
248.35	30.656
252.461	38.319
256.57	42.672
260.677	23.11
264.782	29.375
268.885	323.197
272.986	948.869
277.085	458.08
281.182	229.635
285.278	553.441
289.371	2516.42
293.462	3258.55
297.552	856.788
301.639	285.095
305.724	90.457
309.808	43.151
313.889	3.146
317.969	128.383
322.046	166.615
326.122	784.835
330.196	2252.04
334.267	1700.19
338.337	329.236
342.405	0.793
346.471	25.491
350.535	18.39
354.597	34.413
358.657	4.396
362.715	32.754
366.771	229.904
370.825	357.503
374.877	1127.75
378.928	2658.49
382.976	2023.7
387.023	3743.52
391.067	8081.19
395.11	4994.81
399.15	1748.4
403.189	659.936
407.226	276.482
411.261	169.462
415.294	181.899
419.325	105.608
423.354	30.458
427.381	21.76
431.406	145.007
435.43	115.142
439.451	143.194
443.471	145.212
447.488	357.193
451.504	872.145
455.518	2911.8
459.53	2852.66
463.54	917.153
467.548	464.202
471.554	222.61
475.558	135.586
479.561	244.029
483.561	360.107
487.559	874.893
491.556	1359.65
495.551	514.403
499.544	349.102
503.535	120.746
507.524	58.669
511.511	31.453
515.496	54.771
519.48	114.271
523.461	5.969
527.441	4.345
531.418	27.234
535.394	87.668
539.368	73.903
543.34	83.985
547.311	278.967
551.279	1129.88
555.245	1488.72
559.21	487.488
563.173	137.187
567.133	98.829
571.092	160.411
575.049	213.493
579.005	242.982
582.958	527.978
586.909	1500.61
590.859	3749.94
594.807	3722.54
598.753	1616.86
602.697	601.489
606.639	354.294
610.579	209.401
614.518	120.547
618.454	22.374
622.389	57.591
626.322	100.814
630.253	162.665
634.182	59.889
638.109	73.469
642.035	154.849
645.958	325.23
649.88	414.719
653.8	574.629
657.718	685.647
661.634	1254.59
665.549	2584.06
669.461	3343.42
673.372	2504.52
677.281	2281.9
681.188	3305.64
685.093	7009.1
688.997	22022.5
692.898	43492.7
696.798	18294.8
700.696	6246.44
704.592	3037.02
708.486	1773.56
712.378	913.053
716.269	613.495
720.158	461.893
724.045	524.271
727.93	395.657
731.813	162.062
735.694	153.535
739.574	182.018
743.452	256.507
747.328	179.98
751.202	100.465
755.075	28.093
758.945	14.758
762.814	155.474
766.681	155.63
770.546	71.93
774.409	106.44
778.271	67.03
782.131	39.355
785.989	14.041
789.845	43.772
793.699	34.502
797.552	80.53
801.402	20.729
805.251	105.94
809.098	155.477
812.944	201.966
816.787	250.642
820.629	570.357
824.469	1517.08
828.307	2125.3
832.144	1404.69
835.978	449.596
839.811	202.529
843.642	125.486
847.472	284.495
851.299	406.557
855.125	489.663
858.949	794.776
862.771	1515.9
866.591	1388.03
870.41	1276.34
874.227	1829.49
878.042	2690.59
881.855	2901.23
885.667	2030.18
889.476	1336.71
893.284	1058.15
897.09	831.832
900.895	702.044
904.698	671.008
908.499	1168.64
912.298	2622.27
916.095	5784.44
919.891	5267.63
923.685	2625.72
927.477	1281.79
931.267	1168.21
935.056	1228.81
938.843	1171.02
942.628	744.809
946.411	658.196
950.193	422.45
953.973	383.833
957.751	411.866
961.527	587.874
965.302	666.258
969.075	602.203
972.846	721.21
976.615	1431.32
980.383	3469.51
984.149	7077.76
987.913	4692.04
991.675	2217.38
995.436	1001.78
999.195	495.327
1002.95	386.931
1006.71	251.625
1010.46	323.446
1014.21	208.359
1017.96	191.365
1021.71	22.426
1025.46	60.479
1029.2	110.428
1032.95	121.498
1036.69	83.394
1040.43	187.171
1044.17	107.931
1047.9	24.32
1051.64	27.427
1055.37	140.21
1059.1	348.04
1062.83	692.93
1066.56	1026.89
1070.29	2279.95
1074.01	7103.08
1077.73	8788.27
1081.46	3034.6
1085.17	1324.07
1088.89	800.899
1092.61	544.685
1096.32	249.514
1100.04	63.281
1103.75	104.175
1107.46	91.586
1111.16	23.841
1114.87	4.926
1118.57	260.496
1122.28	365.501
1125.98	188.433
1129.67	130.199
1133.37	222.047
1137.07	505.906
1140.76	706.052
1144.45	911.425
1148.14	1362.63
1151.83	1271.27
1155.52	1737.93
1159.21	2337.09
1162.89	3710.97
1166.57	5820.08
1170.25	8085.64
1173.93	8018.32
1177.61	5627.87
1181.28	3298.09
1184.96	1796.68
1188.63	1181.68
1192.3	724.207
1195.97	733.914
1199.64	716.206
1203.3	696.355
1206.97	580.735
1210.63	305.812
1214.29	300.1
1217.95	226.769
1221.6	306.406
1225.26	288.138
1228.91	464.312
1232.57	501.535
1236.21	335.951
1239.86	173.689
1243.51	143.442
1247.16	8.022
1250.8	100.196
1254.44	60.528
1258.08	211.582
1261.72	174.106
1265.36	215.876
1268.99	142.204
1272.63	43.44
1276.26	24.61
1279.89	23.045
1283.52	11.896
1287.15	76.675
1290.77	248.638
1294.4	133.057
1298.02	142.135
1301.64	143.012
1305.26	37.296
1308.88	57.77
1312.49	17.579
1316.11	126.816
1319.72	203.948
1323.33	291.022
1326.94	360.092
1330.55	321.073
1334.15	170.888
1337.76	90.625
1341.36	25.29
1344.96	45.893
1348.56	17.631
1352.16	150.125
1355.75	192.593
1359.35	343.055
1362.94	281.714
1366.53	439.338
1370.12	285.148
1373.71	4.222
1377.3	124.398
1380.88	35.053
1384.46	104.648
1388.05	141.237
1391.63	352.75
1395.2	363.286
1398.78	358.118
1402.36	325.074
1405.93	311.069
1409.5	139.137
1413.07	57.87
1416.64	39.438
1420.21	6.128
1423.78	59.336
1427.34	177.659
1430.9	302.627
1434.46	414.934
1438.02	391.946
1441.58	486.828
1445.13	391.884
1448.69	323.595
1452.24	73.602
1455.79	153.079
1459.34	104.135
1462.89	179.294
1466.44	229.143
1469.98	287.292
1473.53	392.401
1477.07	352.201
1480.61	457.833
1484.14	350.93
1487.68	264.586
1491.22	208.079
1494.75	126.281
1498.28	113.591
1501.81	27.496
1505.34	156.201
1508.87	210.364
1512.4	298.962
1515.92	0
