Measurement: Raman, 514 nm, ccw, Raman Data Processed
Mineral: Datolite
Rruff sample: R050033
Ideal chemistry: CaBSiO_4_(OH)
Locality: Westfield, Massachusetts, USA
Source: University of Arizona Mineral Museum
Description: Group of pale green single crystals
Measured chemistry: Ca_1.00_B_1.00_Si_1.00_O_4_(OH) ; trace amounts of Al and Na; B measured and corrected according to stoichiometry;  OH estimated by stoichiometry end charge balance
Pin_id: M00292
Orientation: Laser parallel to (1 0 1). Fiducial mark perpendicular to laser is parallel to b [0 1 0]
Raman shift (cm-1)	intensity
49.184	0
53.401	57.126
57.617	148.673
61.83	276.355
66.041	337.007
70.25	258.154
74.456	229.244
78.661	188.747
82.863	107.981
87.064	76.261
91.262	18.264
95.458	9.958
99.652	2.624
103.843	42.219
108.033	56.825
112.22	231.103
116.406	80.483
120.589	8.237
124.77	97.6
128.949	682.149
133.126	2076.61
137.301	930.276
141.473	166.032
145.644	77.079
149.812	128.419
153.979	391.614
158.143	1320.13
162.305	5848.61
166.465	9937.59
170.623	2271.5
174.778	1057.37
178.932	1114.48
183.083	307.568
187.233	116.444
191.38	167.926
195.525	111.32
199.669	123.634
203.81	56.878
207.949	35.101
212.085	198.236
216.22	892.429
220.353	1038.84
224.483	333.044
228.612	489.805
232.738	498.021
236.863	126.735
240.985	15.83
245.105	9.925
249.223	9.095
253.339	39.599
257.453	26.074
261.565	19.477
265.675	24.618
269.783	233.954
273.888	459.151
277.992	235.542
282.093	118.73
286.193	341.65
290.29	1204.95
294.386	1295.85
298.479	364.622
302.57	93.316
306.659	42.927
310.746	15.095
314.831	32.145
318.914	151.906
322.995	392.296
327.074	483.607
331.151	842.892
335.226	527.154
339.299	197.393
343.37	204.605
347.438	329.758
351.505	481.781
355.57	1117.04
359.632	2565.05
363.693	3252.78
367.751	1780.28
371.808	992.977
375.862	1121.22
379.914	1523.79
383.965	1176.91
388.013	1894.73
392.06	3481.47
396.104	2352.11
400.146	932.633
404.186	400.248
408.225	176.601
412.261	138.412
416.295	164.003
420.327	451.639
424.357	1217.11
428.386	677.734
432.412	399.772
436.436	703.111
440.458	1151.43
444.478	590.718
448.496	280.005
452.513	370.287
456.527	943.553
460.539	876.802
464.549	310.944
468.557	131.266
472.563	78.015
476.567	71.048
480.57	129.127
484.57	338.55
488.568	1026.08
492.564	1455.71
496.558	584.469
500.551	208.297
504.541	68.15
508.529	24.009
512.515	6.125
516.5	13.276
520.482	8.537
524.462	67.355
528.441	1.816
532.417	31.997
536.391	31.292
540.364	22.759
544.334	24.674
548.303	122.094
552.269	363.524
556.234	371.964
560.197	175.417
564.157	103.896
568.116	75.452
572.073	101.109
576.027	146.889
579.98	267.816
583.931	577.878
587.88	1378.02
591.827	2925.19
595.772	2997.38
599.715	1789.58
603.656	1169.8
607.595	518.037
611.532	276.289
615.468	174.556
619.401	134.839
623.332	148.139
627.262	142.79
631.189	179.016
635.115	175.207
639.039	216.569
642.96	356.18
646.88	563.148
650.798	1032.36
654.714	1581.76
658.628	1691.62
662.54	1883.04
666.45	3252.42
670.358	4181.54
674.264	3800.31
678.169	3811.12
682.071	5374.46
685.972	11136.7
689.87	32091.5
693.767	52635.3
697.662	24398.6
701.555	8858.72
705.446	4163.01
709.335	2371.31
713.222	1441.61
717.107	944.904
720.99	647.198
724.872	458.503
728.751	345.831
732.629	261.175
736.504	237.541
740.378	288.931
744.25	231.32
748.12	163.7
751.988	133.07
755.854	132.431
759.719	224.781
763.581	485.122
767.442	416.452
771.3	176.773
775.157	55.083
779.012	14.384
782.865	6.668
786.716	4.087
790.565	26.522
794.413	27.985
798.258	36.23
802.102	12.703
805.943	27.375
809.783	16.268
813.621	15.725
817.457	45.698
821.292	95.665
825.124	261.629
828.954	342.61
832.783	185.603
836.61	84.596
840.435	59.588
844.258	88.623
848.079	159.731
851.898	261.934
855.715	451.175
859.531	922.427
863.345	1682.69
867.157	1422.95
870.967	1045.23
874.775	1195.52
878.581	1653.68
882.386	1683.87
886.188	1241.99
889.989	721.885
893.788	483.02
897.585	396.445
901.38	469.811
905.174	721.189
908.965	1421.58
912.755	3215.99
916.543	6248.41
920.329	5528.85
924.113	2960.3
927.895	1730.78
931.676	1352.2
935.454	1182.17
939.231	946.21
943.006	704.555
946.78	551.098
950.551	439.014
954.32	373.616
958.088	351.628
961.854	353.115
965.618	391.063
969.38	489.925
973.141	874.844
976.9	1651.82
980.656	3616.86
984.411	6458.97
988.165	4215.14
991.916	2034.4
995.665	1054.76
999.413	771.21
1003.16	738.746
1006.9	538.385
1010.65	305.13
1014.39	169.953
1018.12	95.856
1021.86	34.824
1025.6	35.144
1029.33	32.092
1033.06	8.031
1036.79	28.949
1040.52	6.87
1044.25	9.225
1047.97	43.373
1051.69	84.582
1055.41	158.855
1059.13	284.19
1062.85	516.59
1066.57	971.053
1070.28	2304.58
1073.99	6394.17
1077.7	8695.83
1081.41	5958.55
1085.12	2226.34
1088.82	878.209
1092.52	459.207
1096.22	239.814
1099.92	139.681
1103.62	77.17
1107.32	48.826
1111.01	47.642
1114.7	31.391
1118.39	26.54
1122.08	86.59
1125.77	55.314
1129.45	84.487
1133.14	103.25
1136.82	198.652
1140.5	285.169
1144.18	418.963
1147.85	562.599
1151.53	830.917
1155.2	1152.77
1158.87	1641.37
1162.54	2509.45
1166.21	3775.08
1169.88	5432.78
1173.54	5836.62
1177.2	4405.67
1180.86	2769.52
1184.52	1635.79
1188.18	1054.89
1191.83	727.141
1195.49	561.992
1199.14	440.941
1202.79	353.917
1206.44	281.92
1210.08	221.008
1213.73	157.091
1217.37	132.282
1221.01	107.366
1224.65	118.644
1228.29	92.623
1231.93	66.738
1235.56	69.861
1239.19	71.005
1242.83	49.242
1246.46	27.687
1250.08	28.095
1253.71	10.499
1257.33	26.394
1260.96	30.938
1264.58	33.74
1268.19	22.664
1271.81	6.736
1275.43	7.694
1279.04	3.147
1282.65	15.671
1286.27	19.548
1289.87	6.681
1293.48	23.343
1297.09	10.568
1300.69	7.235
1304.29	4.123
1307.89	6.504
1311.49	18.044
1315.09	3.583
1318.68	22.065
1322.28	46.469
1325.87	48.429
1329.46	56.169
1333.05	30.411
1336.63	25.606
1340.22	33.746
1343.8	38.002
1347.38	22.073
1350.96	16.02
1354.54	25.932
1358.12	27.755
1361.69	49.531
1365.26	27.222
1368.83	25.684
1372.4	38.523
1375.97	37.92
1379.54	36.769
1383.1	43.021
1386.66	25.244
1390.23	46.423
1393.79	39.549
1397.34	9.915
1400.9	42.45
1404.45	12.15
1408.01	4.086
1411.56	26.004
1415.11	18.58
1418.66	9.846
1422.2	1.195
1425.75	20.547
1429.29	0.222
1432.83	10.827
1436.37	27.243
1439.91	38.636
1443.44	35.763
1446.98	27.001
1450.51	33.275
1454.04	22.971
1457.57	35.848
1461.1	36.496
1464.63	33.362
1468.15	13.557
1471.67	32.073
1475.19	18.827
1478.71	18.581
1482.23	27.019
1485.75	22.18
1489.26	14.897
1492.78	10.856
1496.29	14.865
1499.8	5.354
1503.31	9.779
1506.81	23.739
1510.32	1.311
1513.82	44.807
1517.32	0.854
