Measurement: Raman, 514 nm, ccw, Raman Data Processed
Mineral: Datolite
Rruff sample: R050136
Ideal chemistry: CaBSiO_4_(OH)
Locality: Charcas, San Luis Potosi, Mexico
Source: Dave Bunk Minerals
Description: Pale green tabular crystals
Measured chemistry: Ca_1.00_BSi_1.00_O_4_(OH) ; trace amounts of Fe; B and OH estimated by stoichiometry end charge balance
Pin_id: L00087
Orientation: Laser parallel to (-1 0 -1). Fiducial mark perpendicular to laser is parallel to -b [0 -1 0]
Raman shift (cm-1)	intensity
90.65	0
94.838	31.004
99.023	244.175
103.206	129.802
107.387	328.083
111.566	140.192
115.744	267.343
119.919	102.608
124.092	111.532
128.263	47.248
132.432	471.149
136.599	690.051
140.764	105.208
144.927	0.576
149.088	100.867
153.247	418.279
157.404	987.141
161.559	4467.79
165.711	42466.3
169.862	8811.94
174.011	1786.39
178.158	2725.6
182.303	986.469
186.446	331.107
190.587	253.435
194.726	376.165
198.862	291.296
202.997	364.598
207.13	129.279
211.261	522.461
215.39	2446.25
219.517	13306.3
223.642	1870.53
227.765	455.093
231.886	212.83
236.005	66.897
240.122	32.426
244.237	16.308
248.35	0.827
252.461	81.33
256.57	97.265
260.677	22.22
264.782	13.436
268.885	61.502
272.986	445.637
277.085	436.771
281.182	150.419
285.278	43.287
289.371	266.092
293.462	897.495
297.552	339.292
301.639	121.172
305.724	208.292
309.808	211.981
313.889	139
317.969	199.143
322.046	443.039
326.122	504.694
330.196	775.282
334.267	2220.3
338.337	959.699
342.405	492.897
346.471	319.605
350.535	324.53
354.597	675.833
358.657	1410.03
362.715	2501.49
366.771	1665.99
370.825	942.463
374.877	711.366
378.928	725.021
382.976	1036.2
387.023	2537.82
391.067	7928.7
395.11	7712
399.15	2368.25
403.189	1164.62
407.226	708.527
411.261	347.344
415.294	240.881
419.325	433.964
423.354	1259.34
427.381	1288.66
431.406	314.921
435.43	195.529
439.451	376.189
443.471	204.8
447.488	42.197
451.504	60.901
455.518	390.964
459.53	773.265
463.54	193.594
467.548	116.759
471.554	187.98
475.558	187.764
479.561	120.128
483.561	376.995
487.559	1382.45
491.556	4166.81
495.551	1847.25
499.544	388.486
503.535	183.247
507.524	186.04
511.511	40.21
515.496	6.471
519.48	27.704
523.461	227.703
527.441	247.549
531.418	18.742
535.394	78.213
539.368	6.994
543.34	54.958
547.311	64.641
551.279	137.122
555.245	391.471
559.21	333.756
563.173	451.026
567.133	102.4
571.092	83.714
575.049	86.379
579.005	132.894
582.958	260.093
586.909	390.135
590.859	1052.26
594.807	1736.24
598.753	1214.39
602.697	1021.56
606.639	453.297
610.579	283.423
614.518	310.656
618.454	407.999
622.389	468.688
626.322	610.913
630.253	501.235
634.182	455.978
638.109	436.011
642.035	474.614
645.958	800.142
649.88	1472.26
653.8	2801.23
657.718	2936.32
661.634	2038.29
665.549	2830.94
669.461	5134.1
673.372	4220.09
677.281	2667.33
681.188	2260.75
685.093	3490.56
688.997	9671.31
692.898	30140.9
696.798	17402.1
700.696	4574.81
704.592	1777.31
708.486	943.088
712.378	611.305
716.269	374.449
720.158	172.522
724.045	55.344
727.93	121.737
731.813	230.512
735.694	147.65
739.574	58.079
743.452	109.622
747.328	18.514
751.202	126.455
755.075	162.197
758.945	41.721
762.814	108.136
766.681	323.507
770.546	233.828
774.409	115.052
778.271	3.977
782.131	88.326
785.989	100.003
789.845	3.024
793.699	212.732
797.552	123.358
801.402	40.21
805.251	60.985
809.098	8.056
812.944	203.082
816.787	319.18
820.629	237.301
824.469	518.441
828.307	1201.56
832.144	1031.7
835.978	678.888
839.811	464.068
843.642	262.328
847.472	147.643
851.299	322.027
855.125	516.511
858.949	779.058
862.771	878.677
866.591	638.309
870.41	345.921
874.227	433.515
878.042	887.763
881.855	1159.04
885.667	1005.26
889.476	678.558
893.284	625.05
897.09	749.322
900.895	1012.28
904.698	1290.11
908.499	1717.39
912.298	3009.61
916.095	7134.28
919.891	9205.01
923.685	5106.77
927.477	2558.57
931.267	1415.43
935.056	822.955
938.843	661.866
942.628	652.844
946.411	688.648
950.193	808.084
953.973	674.438
957.751	478.041
961.527	384.979
965.302	394.812
969.075	699.92
972.846	1051.53
976.615	1478.13
980.383	2591.79
984.149	5890.01
987.913	5123.38
991.675	2446.71
995.436	1304.67
999.195	904.186
1002.95	972.554
1006.71	375.202
1010.46	225.124
1014.21	351.975
1017.96	525.212
1021.71	595.593
1025.46	403.908
1029.2	188.26
1032.95	20.675
1036.69	9.139
1040.43	243.438
1044.17	412.283
1047.9	484.149
1051.64	419.632
1055.37	287.741
1059.1	156.971
1062.83	504.336
1066.56	1291.85
1070.29	2865.6
1074.01	7548.24
1077.73	14252
1081.46	6626.29
1085.17	2483.65
1088.89	1121.99
1092.61	920.636
1096.32	791.103
1100.04	581.826
1103.75	449.176
1107.46	192.858
1111.16	145.898
1114.87	128.693
1118.57	117.648
1122.28	390.208
1125.98	406.338
1129.67	251.45
1133.37	71.088
1137.07	39.029
1140.76	158.195
1144.45	16.123
1148.14	127.947
1151.83	361.367
1155.52	306.202
1159.21	150.813
1162.89	78.894
1166.57	54.885
1170.25	180.843
1173.93	356.509
1177.61	518.219
1181.28	536.131
1184.96	458.236
1188.63	278.101
1192.3	89.499
1195.97	14.335
1199.64	182.252
1203.3	517.479
1206.97	620.412
1210.63	654.464
1214.29	585.255
1217.95	410.514
1221.6	159.819
1225.26	58.15
1228.91	89.871
1232.57	286.204
1236.21	529.58
1239.86	543.979
1243.51	488.026
1247.16	372.958
1250.8	232.208
1254.44	61.726
1258.08	18.052
1261.72	224.703
1265.36	309.059
1268.99	501.223
1272.63	624.361
1276.26	682.922
1279.89	349.039
1283.52	146.812
1287.15	0.611
1290.77	62.817
1294.4	264.655
1298.02	361.084
1301.64	528.058
1305.26	566.621
1308.88	481.153
1312.49	303.101
1316.11	134.02
1319.72	110.805
1323.33	17.534
1326.94	111.963
1330.55	168.294
1334.15	372.663
1337.76	443.342
1341.36	409.639
1344.96	402.336
1348.56	169.913
1352.16	32.585
1355.75	173.16
1359.35	21.879
1362.94	103.5
1366.53	330.899
1370.12	556.646
1373.71	597.615
1377.3	659.164
1380.88	505
1384.46	278.792
1388.05	207.26
1391.63	42.942
1395.2	9.309
1398.78	177.068
1402.36	356.042
1405.93	578.263
1409.5	624.148
1413.07	655.014
1416.64	520.626
1420.21	386.299
1423.78	182.845
1427.34	167.332
1430.9	89.092
1434.46	207.417
1438.02	334.101
1441.58	791.093
1445.13	1131.62
1448.69	1264.91
1452.24	1272.42
1455.79	1311.5
1459.34	1070.3
1462.89	841.842
1466.44	455.471
1469.98	265.008
1473.53	220.186
1477.07	236.022
1480.61	462.164
1484.14	621.031
1487.68	741.606
1491.22	779.84
1494.75	684.062
1498.28	630.529
1501.81	361.537
1505.34	322.412
1508.87	151.65
1512.4	3.934
1515.92	0.602
