Measurement: Raman, 514 nm, ccw, Raman Data Processed
Mineral: Datolite
Rruff sample: R050136
Ideal chemistry: CaBSiO_4_(OH)
Locality: Charcas, San Luis Potosi, Mexico
Source: Dave Bunk Minerals
Description: Pale green tabular crystals
Measured chemistry: Ca_1.00_BSi_1.00_O_4_(OH) ; trace amounts of Fe; B and OH estimated by stoichiometry end charge balance
Pin_id: L00284
Orientation: Laser parallel to -b* (0 -1 0). Fiducial mark perpendicular to laser is parallel to c [0 0 1]
Raman shift (cm-1)	intensity
90.65	0
94.838	129.287
99.023	384.375
103.206	440.848
107.387	529.81
111.566	565.896
115.744	538.625
119.919	476.528
124.092	419.788
128.263	516.91
132.432	1231.05
136.599	691.339
140.764	331.779
144.927	329.204
149.088	1155.32
153.247	3201.47
157.404	1348.77
161.559	2841.4
165.711	7014.21
169.862	1246.07
174.011	1927.84
178.158	3765.42
182.303	638.982
186.446	156.018
190.587	486.48
194.726	343.394
198.862	141.762
202.997	20.438
207.13	232.788
211.261	698.395
215.39	3535.35
219.517	5770.18
223.642	1003.52
227.765	371.595
231.886	239.55
236.005	26.334
240.122	4.726
244.237	58.654
248.35	45.393
252.461	12.072
256.57	26.519
260.677	32.919
264.782	43.794
268.885	467.388
272.986	1296.78
277.085	662.396
281.182	474.7
285.278	1500.54
289.371	6444.81
293.462	8860.48
297.552	2453.47
301.639	961.681
305.724	369.08
309.808	226.645
313.889	279.341
317.969	248.522
322.046	251.456
326.122	792.48
330.196	2884.56
334.267	3380.4
338.337	701.472
342.405	120.968
346.471	2.04
350.535	22.343
354.597	19.851
358.657	38.64
362.715	142.871
366.771	170.868
370.825	29.462
374.877	565.706
378.928	1453.54
382.976	690.379
387.023	441.09
391.067	1054.73
395.11	789.359
399.15	324.965
403.189	138.988
407.226	31.796
411.261	22.231
415.294	48.792
419.325	57.012
423.354	193.869
427.381	72.24
431.406	75.423
435.43	68.524
439.451	145.592
443.471	284.639
447.488	550.942
451.504	1718.87
455.518	6285.4
459.53	6334.57
463.54	1869.87
467.548	749.06
471.554	275.212
475.558	38.405
479.561	211.472
483.561	161.521
487.559	268.612
491.556	454.646
495.551	197.66
499.544	185.58
503.535	51.324
507.524	7.803
511.511	67.359
515.496	88.273
519.48	123.19
523.461	64.938
527.441	53.421
531.418	94.516
535.394	624.736
539.368	144.858
543.34	344.892
547.311	1120.83
551.279	3246.69
555.245	4142.45
559.21	1471.12
563.173	505.789
567.133	289.358
571.092	239.605
575.049	178.023
579.005	18.06
582.958	73.159
586.909	260.3
590.859	746.255
594.807	829.556
598.753	405.446
602.697	302.333
606.639	225.138
610.579	178.765
614.518	82.543
618.454	31.299
622.389	64.537
626.322	223.351
630.253	273.012
634.182	170.593
638.109	180.686
642.035	374.497
645.958	590.82
649.88	687.609
653.8	1057.46
657.718	979.268
661.634	1304.07
665.549	2073.28
669.461	2010.23
673.372	1619.18
677.281	1864.28
681.188	3355.52
685.093	7638.53
688.997	24975.8
692.898	50646
696.798	21576.7
700.696	7497.22
704.592	3695.67
708.486	2089.06
712.378	1206.4
716.269	758.685
720.158	761.973
724.045	677.226
727.93	487.471
731.813	242.8
735.694	185.276
739.574	243.812
743.452	297.226
747.328	300.629
751.202	198.048
755.075	35.435
758.945	70.792
762.814	153.914
766.681	180.19
770.546	31.199
774.409	205.911
778.271	64.151
782.131	93.427
785.989	131.717
789.845	112.85
793.699	37.984
797.552	93.01
801.402	9.755
805.251	141.488
809.098	89.138
812.944	122.899
816.787	95.123
820.629	256.425
824.469	764.817
828.307	1203.31
832.144	707.885
835.978	201.521
839.811	168.218
843.642	160.031
847.472	279.899
851.299	335.804
855.125	415.748
858.949	436.737
862.771	801.77
866.591	1082.85
870.41	1559.98
874.227	2536.17
878.042	3978.41
881.855	4381.47
885.667	3370.37
889.476	2433.38
893.284	1891.31
897.09	1612.32
900.895	1512.1
904.698	1772.88
908.499	2852.73
912.298	5988.56
916.095	12889.4
919.891	11440.5
923.685	5513.83
927.477	2941.78
931.267	2712.01
935.056	2758.05
938.843	2436.85
942.628	1576.36
946.411	1463.26
950.193	1128.52
953.973	995.493
957.751	947.167
961.527	982.786
965.302	991.436
969.075	869.602
972.846	1148.29
976.615	1964.12
980.383	4279.04
984.149	7101.91
987.913	5465.15
991.675	2325.34
995.436	981.65
999.195	447.05
1002.95	301.368
1006.71	249.968
1010.46	371.65
1014.21	359.413
1017.96	139.321
1021.71	9.353
1025.46	38.483
1029.2	26.765
1032.95	58.172
1036.69	9.392
1040.43	211.988
1044.17	6.424
1047.9	0.091
1051.64	216.455
1055.37	176.063
1059.1	305.733
1062.83	556.469
1066.56	919.268
1070.29	2056.12
1074.01	6401.1
1077.73	8196.22
1081.46	3131.56
1085.17	1510.15
1088.89	890.182
1092.61	770.257
1096.32	345.148
1100.04	271.78
1103.75	273.45
1107.46	325.139
1111.16	91.533
1114.87	12.233
1118.57	496.807
1122.28	555.719
1125.98	303.737
1129.67	373.851
1133.37	439.537
1137.07	812.267
1140.76	953.457
1144.45	1095.95
1148.14	1323.49
1151.83	1639.51
1155.52	1985.29
1159.21	2720.64
1162.89	4246.6
1166.57	6159.22
1170.25	8336.63
1173.93	7968.59
1177.61	5419.42
1181.28	3027.72
1184.96	1706.74
1188.63	970.457
1192.3	720.571
1195.97	765.41
1199.64	880.649
1203.3	839.354
1206.97	580.509
1210.63	412.724
1214.29	278.155
1217.95	323.374
1221.6	291.653
1225.26	316.905
1228.91	482.014
1232.57	519.114
1236.21	298.235
1239.86	160.04
1243.51	40.915
1247.16	47.609
1250.8	141.6
1254.44	109.101
1258.08	242.885
1261.72	350.524
1265.36	165.262
1268.99	42.155
1272.63	15.309
1276.26	72.977
1279.89	64.753
1283.52	38.682
1287.15	100.619
1290.77	292.229
1294.4	188.112
1298.02	163.741
1301.64	241.231
1305.26	80.73
1308.88	92.429
1312.49	3.547
1316.11	7.836
1319.72	228.086
1323.33	330.975
1326.94	313.859
1330.55	410.458
1334.15	196.68
1337.76	104.83
1341.36	37.802
1344.96	129.757
1348.56	65.471
1352.16	51.808
1355.75	153.094
1359.35	411.346
1362.94	445.439
1366.53	374.591
1370.12	254.312
1373.71	101.291
1377.3	110.896
1380.88	134.174
1384.46	114.109
1388.05	373.35
1391.63	346.482
1395.2	261.242
1398.78	440.792
1402.36	375.938
1405.93	278.785
1409.5	97.532
1413.07	284.978
1416.64	26.872
1420.21	21.508
1423.78	86.062
1427.34	279.066
1430.9	223.768
1434.46	510.816
1438.02	404.294
1441.58	459.821
1445.13	414.662
1448.69	187.43
1452.24	59.766
1455.79	139.326
1459.34	105.272
1462.89	295.662
1466.44	395.159
1469.98	324.195
1473.53	420.959
1477.07	388.154
1480.61	439.013
1484.14	338.746
1487.68	229.977
1491.22	282.021
1494.75	103.678
1498.28	86.748
1501.81	100.5
1505.34	142.917
1508.87	230.166
1512.4	295.097
1515.92	385.077
1519.44	0
