Measurement: Raman, 514 nm, ccw, Raman Data Processed
Mineral: Datolite
Rruff sample: R050033
Ideal chemistry: CaBSiO_4_(OH)
Locality: Westfield, Massachusetts, USA
Source: University of Arizona Mineral Museum
Description: Group of pale green single crystals
Measured chemistry: Ca_1.00_B_1.00_Si_1.00_O_4_(OH) ; trace amounts of Al and Na; B measured and corrected according to stoichiometry;  OH estimated by stoichiometry end charge balance
Pin_id: L00153
Orientation: Laser parallel to -a* (-1 0 0). Fiducial mark perpendicular to laser is parallel to -b [0 -1 0]
Raman shift (cm-1)	intensity
52.937	0
57.132	20.518
61.325	52.915
65.515	51.545
69.704	106.33
73.891	244.725
78.076	429.607
82.26	546.045
86.441	403.853
90.62	244.335
94.797	139.368
98.973	94.006
103.146	47.448
107.318	17.268
111.487	29.479
115.655	5.045
119.821	13.861
123.984	3.113
128.146	94.329
132.306	261.598
136.464	192.317
140.62	5.115
144.774	89.624
148.927	772.273
153.077	2313
157.226	1334.47
161.372	1844.98
165.517	4433.73
169.659	1409.21
173.8	1831.35
177.939	4032.31
182.076	907.112
186.211	175.773
190.344	341.306
194.475	296.702
198.605	62.97
202.732	59.833
206.858	101.7
210.981	623.313
215.103	3418.61
219.223	7133.56
223.341	1402.15
227.457	425.58
231.571	425.031
235.684	107.864
239.794	15.779
243.902	20.799
248.009	10.951
252.114	16.901
256.217	21.436
260.318	38.655
264.417	99.42
268.514	419.326
272.609	928.592
276.703	769.679
280.794	598.854
284.884	1619.47
288.972	6691.36
293.058	11636
297.142	3731.45
301.224	1200.51
305.304	647.303
309.383	440.443
313.46	356.996
317.534	357.055
321.607	536.764
325.678	1312.33
329.747	3594.8
333.815	3926.2
337.88	1266.54
341.944	339.404
346.005	173.505
350.065	96.981
354.123	85.749
358.179	161.96
362.234	196.365
366.286	167.775
370.337	274.968
374.386	873.853
378.432	1924.54
382.478	1062.15
386.521	580.6
390.562	986.909
394.602	825.074
398.639	260.771
402.675	136.134
406.709	74.637
410.742	50.959
414.772	15.506
418.8	55.034
422.827	227.973
426.852	208.631
430.875	97.63
434.896	157.689
438.916	290.702
442.933	491.677
446.949	770.628
450.963	2193.57
454.975	7490.51
458.985	10011.5
462.994	3076.34
467	1007.19
471.005	442.026
475.008	207.647
479.009	125.713
483.009	68.59
487.006	180.532
491.002	375.002
494.996	200.503
498.988	44.508
502.978	17.476
506.967	43.537
510.953	8.311
514.938	24.607
518.921	31.752
522.903	26.323
526.882	42.459
530.86	49.578
534.836	63.661
538.81	130.706
542.782	411.716
546.753	1125.69
550.721	3356.64
554.688	4936.55
558.653	2189.43
562.617	948.302
566.578	385.696
570.538	138.695
574.496	50.561
578.452	69.987
582.407	54.248
586.359	205.52
590.31	627.765
594.259	864.011
598.206	519.241
602.152	325.456
606.096	143.656
610.038	53.84
613.978	47.009
617.916	74.401
621.853	132.134
625.788	131.808
629.721	129.756
633.652	187.488
637.582	231.446
641.51	315.606
645.436	441.232
649.36	686.616
653.282	1239.18
657.203	1423.68
661.122	1415.14
665.039	1736.47
668.955	1977.09
672.869	1756.11
676.781	2156.27
680.691	3352.49
684.599	7167.04
688.506	21998.6
692.411	55323.2
696.314	30927.8
700.216	10082.5
704.115	4488.15
708.013	2571.78
711.91	1719.62
715.804	1124
719.697	750.591
723.588	527.173
727.477	394.769
731.365	334.403
735.25	325.036
739.134	407.719
743.017	410.421
746.897	234.144
750.776	110.853
754.653	105.548
758.529	80.23
762.402	39.9
766.274	58.559
770.144	21.813
774.013	35.68
777.88	45.188
781.745	6.658
785.608	45.937
789.47	3.67
793.329	1.515
797.188	11.469
801.044	8.243
804.899	24.115
808.752	52.568
812.603	2.839
816.452	71.181
820.3	142.543
824.146	235.001
827.991	339.572
831.834	233.232
835.675	126.932
839.514	136.652
843.352	162.394
847.187	132.159
851.022	209.948
854.854	335.763
858.685	441.608
862.514	705.484
866.341	964.394
870.167	1413.51
873.991	2578.49
877.813	4537.27
881.634	5674.73
885.453	4501.72
889.27	2916.34
893.086	1890.59
896.9	1500.74
900.712	1546.01
904.522	1939.32
908.331	2755.67
912.138	5263.07
915.944	10628.5
919.747	10903
923.549	5958.62
927.35	3438.92
931.148	2779.98
934.945	2813.88
938.741	2306.66
942.534	1765.5
946.326	1432.63
950.117	1413.02
953.905	1339.39
957.692	1069.4
961.478	885.284
965.261	774.278
969.043	838.734
972.823	1267.27
976.602	2052.91
980.379	4323.64
984.154	8982.48
987.928	7111.48
991.7	2993.61
995.47	1434.92
999.239	780.378
1003.01	525.997
1006.77	207.806
1010.53	149.771
1014.3	47.898
1018.06	24.174
1021.82	68.549
1025.57	49.021
1029.33	41.587
1033.08	17.788
1036.83	33.1
1040.59	76.349
1044.33	17.589
1048.08	38.215
1051.83	76.074
1055.57	134.042
1059.31	147.109
1063.05	295.278
1066.79	754.55
1070.53	1888.93
1074.27	6419.41
1078	11879
1081.73	4807.76
1085.46	1699.61
1089.19	794.607
1092.92	529.764
1096.64	448.082
1100.37	394.576
1104.09	366.264
1107.81	359.654
1111.53	275.77
1115.25	214.892
1118.97	216.23
1122.68	329.56
1126.39	440.967
1130.1	524.572
1133.81	661.563
1137.52	735.215
1141.23	872.568
1144.93	1086.98
1148.64	1369.22
1152.34	1807.41
1156.04	2587.5
1159.74	3563.1
1163.43	4724.28
1167.13	6490.37
1170.82	8389.51
1174.51	8970.81
1178.2	6819.22
1181.89	4131.63
1185.58	2597.45
1189.26	1663.67
1192.95	1191
1196.63	907.959
1200.31	870.946
1203.99	891.494
1207.67	748.875
1211.34	618.927
1215.02	474.25
1218.69	360.556
1222.36	247.876
1226.03	198.379
1229.7	126.684
1233.36	83.55
1237.03	116.53
1240.69	90.805
1244.35	148.086
1248.01	114.38
1251.67	92.667
1255.33	64.956
1258.98	58.566
1262.64	9.759
1266.29	50.056
1269.94	56.226
1273.59	61.387
1277.23	77.644
1280.88	67.297
1284.53	71.662
1288.17	19.692
1291.81	26.015
1295.45	60.661
1299.09	76.023
1302.72	10.093
1306.36	16.476
1309.99	103.923
1313.62	143.219
1317.25	100.445
1320.88	118.587
1324.51	61.64
1328.13	86.649
1331.75	24.553
1335.38	12.335
1339	51.078
1342.62	103.631
1346.23	110.059
1349.85	123.38
1353.46	63.598
1357.08	94.568
1360.69	9.561
1364.3	102.441
1367.9	44.241
1371.51	109.925
1375.12	80.442
1378.72	129.861
1382.32	167.242
1385.92	176.799
1389.52	167.344
1393.12	100.988
1396.71	96.215
1400.31	42.468
1403.9	78.329
1407.49	38.038
1411.08	80.608
1414.67	103.537
1418.25	73.094
1421.84	154.671
1425.42	72.171
1429	39.742
1432.58	80.502
1436.16	7.227
1439.74	2.294
1443.32	12.269
1446.89	93.12
1450.46	108.146
1454.03	216.853
1457.6	177.525
1461.17	200.704
1464.74	180.514
1468.3	150.451
1471.87	93.911
1475.43	78.405
1478.99	3.852
1482.55	9.604
1486.1	28.284
1489.66	29.935
1493.21	56.497
1496.77	92.701
1500.32	114.519
1503.87	129.557
1507.41	95.179
1510.96	63.448
1514.51	76.004
1518.05	44.515
1521.59	0.097
1525.13	0
