Measurement: Raman, 514 nm, ccw, Raman Data Processed
Mineral: Datolite
Rruff sample: R050136
Ideal chemistry: CaBSiO_4_(OH)
Locality: Charcas, San Luis Potosi, Mexico
Source: Dave Bunk Minerals
Description: Pale green tabular crystals
Measured chemistry: Ca_1.00_BSi_1.00_O_4_(OH) ; trace amounts of Fe; B and OH estimated by stoichiometry end charge balance
Pin_id: L00087
Orientation: Laser parallel to (-1 0 -1). Fiducial mark perpendicular to laser is parallel to -b [0 -1 0]
Raman shift (cm-1)	intensity
90.65	0
94.838	1.024
99.023	119.526
103.206	43.927
107.387	220.24
111.566	105.597
115.744	159.876
119.919	122.647
124.092	137.485
128.263	133.807
132.432	1483.47
136.599	1907.35
140.764	202.44
144.927	11.297
149.088	22.324
153.247	825.008
157.404	839.774
161.559	2032.66
165.711	16806.5
169.862	3381.22
174.011	949.073
178.158	2611.71
182.303	981.561
186.446	295.06
190.587	401.206
194.726	637.923
198.862	375.235
202.997	495.231
207.13	106.654
211.261	380.405
215.39	952.71
219.517	4281.27
223.642	590.291
227.765	154.017
231.886	82.073
236.005	11.582
240.122	45.679
244.237	16.58
248.35	14.745
252.461	0.483
256.57	2.682
260.677	28.881
264.782	159.992
268.885	324.795
272.986	1153.82
277.085	1178.95
281.182	319.76
285.278	301.341
289.371	934.478
293.462	3011.99
297.552	882.859
301.639	284.953
305.724	232.707
309.808	210.575
313.889	212.275
317.969	222.491
322.046	556.485
326.122	611.565
330.196	814.979
334.267	1613.93
338.337	679.996
342.405	343.472
346.471	328.384
350.535	420.61
354.597	813.745
358.657	1958.28
362.715	3667.76
366.771	2204.99
370.825	1954.05
374.877	784.105
378.928	835.692
382.976	982.855
387.023	2022.57
391.067	6094.5
395.11	5760.46
399.15	1774.75
403.189	913.614
407.226	510.474
411.261	331.746
415.294	214.049
419.325	478.488
423.354	1925.84
427.381	1749.05
431.406	403.639
435.43	233.835
439.451	407.693
443.471	242.321
447.488	54.815
451.504	669.428
455.518	1156.14
459.53	115.605
463.54	32.462
467.548	1.415
471.554	40.615
475.558	31.475
479.561	2.759
483.561	6.781
487.559	215.614
491.556	680.924
495.551	215.152
499.544	26.695
503.535	5.186
507.524	52.324
511.511	16.427
515.496	6.968
519.48	27.365
523.461	335.669
527.441	238.892
531.418	47.073
535.394	20.785
539.368	100.229
543.34	80.123
547.311	163.922
551.279	407.669
555.245	972.429
559.21	732.258
563.173	736.242
567.133	230.415
571.092	118.767
575.049	127.93
579.005	235.581
582.958	328.359
586.909	725.229
590.859	1954.11
594.807	3174.92
598.753	2030.77
602.697	1578.8
606.639	736.039
610.579	325.926
614.518	254.65
618.454	282.398
622.389	267.909
626.322	303.633
630.253	296.16
634.182	347.009
638.109	361.013
642.035	463.281
645.958	784.563
649.88	1633
653.8	3322.02
657.718	3342.77
661.634	1783.65
665.549	1411.53
669.461	1690.29
673.372	1655.72
677.281	1724.26
681.188	2163.79
685.093	4288.3
688.997	13093.4
692.898	42954.3
696.798	25164.9
700.696	6991.7
704.592	2829.86
708.486	1699.27
712.378	1070.68
716.269	696.07
720.158	393.449
724.045	233.812
727.93	281.156
731.813	247.48
735.694	225.784
739.574	83.065
743.452	77.318
747.328	103.544
751.202	120.743
755.075	139.914
758.945	105.051
762.814	250.17
766.681	447.279
770.546	281.363
774.409	102.429
778.271	20.573
782.131	46.695
785.989	102.964
789.845	11.464
793.699	20.842
797.552	46.892
801.402	43.27
805.251	78.615
809.098	15.157
812.944	101.188
816.787	121.521
820.629	115.914
824.469	260.322
828.307	682.752
832.144	642.196
835.978	360.664
839.811	259.133
843.642	138.642
847.472	159.181
851.299	200.768
855.125	417.412
858.949	886.091
862.771	1562.81
866.591	1461.54
870.41	550.249
874.227	298.947
878.042	343.631
881.855	405.301
885.667	327.958
889.476	255.671
893.284	270.303
897.09	479.924
900.895	792.534
904.698	1094.06
908.499	1672.61
912.298	3324.94
916.095	7986.51
919.891	10297.1
923.685	5573.64
927.477	2885.12
931.267	1975.2
935.056	1776.11
938.843	1477.89
942.628	1091.28
946.411	1061.82
950.193	986.251
953.973	856.54
957.751	603.259
961.527	434.536
965.302	432.948
969.075	559.893
972.846	724.345
976.615	1091.19
980.383	1930.19
984.149	4128.33
987.913	3500.55
991.675	1616.43
995.436	892.882
999.195	697.11
1002.95	744.286
1006.71	468.381
1010.46	284.259
1014.21	244.045
1017.96	367.201
1021.71	332.278
1025.46	261.36
1029.2	127.469
1032.95	60.596
1036.69	32.736
1040.43	96.882
1044.17	181.073
1047.9	188.322
1051.64	198.592
1055.37	112.899
1059.1	119.21
1062.83	232.532
1066.56	544.902
1070.29	1165.29
1074.01	3025.68
1077.73	5982.07
1081.46	3868.62
1085.17	1567.17
1088.89	623.894
1092.61	494.863
1096.32	338.796
1100.04	268.724
1103.75	188.051
1107.46	72.168
1111.16	17.458
1114.87	105.381
1118.57	6.793
1122.28	298.247
1125.98	228.091
1129.67	150.913
1133.37	23.068
1137.07	25.115
1140.76	81.306
1144.45	6.651
1148.14	69.123
1151.83	110.572
1155.52	168.282
1159.21	66.237
1162.89	93.062
1166.57	81.946
1170.25	190.663
1173.93	261.337
1177.61	331.478
1181.28	353.797
1184.96	311.966
1188.63	196.834
1192.3	148.667
1195.97	167.323
1199.64	208.545
1203.3	516.122
1206.97	498.4
1210.63	402.446
1214.29	390.581
1217.95	276.608
1221.6	118.019
1225.26	9.764
1228.91	96.038
1232.57	194.998
1236.21	242.579
1239.86	272.177
1243.51	201.774
1247.16	169.21
1250.8	106.745
1254.44	8.838
1258.08	4.448
1261.72	95.613
1265.36	83.77
1268.99	237.811
1272.63	251.871
1276.26	292.723
1279.89	226.912
1283.52	59.771
1287.15	53.154
1290.77	30.081
1294.4	104.757
1298.02	234.539
1301.64	267.327
1305.26	945.276
1308.88	155.236
1312.49	159.755
1316.11	116.28
1319.72	28.273
1323.33	5.052
1326.94	8.277
1330.55	114.356
1334.15	147.278
1337.76	220.06
1341.36	210.787
1344.96	126.357
1348.56	118.84
1352.16	0.256
1355.75	69.396
1359.35	103.968
1362.94	45.887
1366.53	244.146
1370.12	230.781
1373.71	236.668
1377.3	241.187
1380.88	211.4
1384.46	96.728
1388.05	102.28
1391.63	33.232
1395.2	58.644
1398.78	82.799
1402.36	114.013
1405.93	256.47
1409.5	251.341
1413.07	344.288
1416.64	199.567
1420.21	191.387
1423.78	129.849
1427.34	2.456
1430.9	2.097
1434.46	72.499
1438.02	181.302
1441.58	327.705
1445.13	438.323
1448.69	512.436
1452.24	547.915
1455.79	522.48
1459.34	448.169
1462.89	364.541
1466.44	235.293
1469.98	156.344
1473.53	127.238
1477.07	120.552
1480.61	152.065
1484.14	281.712
1487.68	361.391
1491.22	350.999
1494.75	273.792
1498.28	320.219
1501.81	184.259
1505.34	128.743
1508.87	2.16
1512.4	3.288
1515.92	9.942
