Measurement: Raman, 514 nm, ccw, Raman Data Processed
Mineral: Datolite
Rruff sample: R050136
Ideal chemistry: CaBSiO_4_(OH)
Locality: Charcas, San Luis Potosi, Mexico
Source: Dave Bunk Minerals
Description: Pale green tabular crystals
Measured chemistry: Ca_1.00_BSi_1.00_O_4_(OH) ; trace amounts of Fe; B and OH estimated by stoichiometry end charge balance
Pin_id: L00362
Orientation: Laser parallel to a* (1 0 0). Fiducial mark perpendicular to laser is parallel to b [0 1 0]
Raman shift (cm-1)	intensity
90.65	0
94.838	22.628
99.023	49.493
103.206	3.273
107.387	144.525
111.566	96.104
115.744	89.854
119.919	33.716
124.092	63.789
128.263	210.093
132.432	1146.76
136.599	511.342
140.764	129.998
144.927	160.593
149.088	668.014
153.247	2288.61
157.404	2156.68
161.559	9993.54
165.711	28283.4
169.862	5118.35
174.011	3463.63
178.158	7548.57
182.303	2262.94
186.446	1577.7
190.587	4868.79
194.726	4095.15
198.862	1785.72
202.997	1059.33
207.13	1192.41
211.261	3032.2
215.39	5804.98
219.517	9212.79
223.642	1589.98
227.765	443.323
231.886	298.533
236.005	6.229
240.122	9.976
244.237	62.847
248.35	4.974
252.461	18.873
256.57	84.132
260.677	28.29
264.782	189.781
268.885	1122.03
272.986	1647.36
277.085	714.67
281.182	344.882
285.278	794.951
289.371	3640.86
293.462	5455.61
297.552	1512.14
301.639	478.36
305.724	230.3
309.808	84
313.889	82.705
317.969	242.269
322.046	526.394
326.122	745.376
330.196	2181.06
334.267	3313.92
338.337	853.159
342.405	231.048
346.471	169.739
350.535	304.903
354.597	619.949
358.657	1524.06
362.715	2051.44
366.771	1035.77
370.825	538.055
374.877	612.36
378.928	1098.3
382.976	1160.88
387.023	2510.02
391.067	6087.11
395.11	4133.16
399.15	1452.93
403.189	579.707
407.226	296.035
411.261	178.998
415.294	277.56
419.325	1008.14
423.354	3205.61
427.381	1537.07
431.406	371.677
435.43	221.215
439.451	351.683
443.471	222.083
447.488	293.412
451.504	908.664
455.518	3641.84
459.53	3929.24
463.54	1053.36
467.548	310.645
471.554	121.131
475.558	47.953
479.561	93.933
483.561	402.25
487.559	1481.63
491.556	2663.1
495.551	920.63
499.544	196.154
503.535	24.681
507.524	73.925
511.511	91.788
515.496	2.017
519.48	260.72
523.461	693.383
527.441	245.009
531.418	1.402
535.394	31.913
539.368	33.393
543.34	161.606
547.311	641.776
551.279	2208.91
555.245	3241.99
559.21	2315.06
563.173	1909.17
567.133	625.428
571.092	218.831
575.049	84.265
579.005	7.164
582.958	98.588
586.909	333.366
590.859	911.284
594.807	1140.54
598.753	1077.55
602.697	1079.83
606.639	429.373
610.579	161.871
614.518	80.32
618.454	67.381
622.389	39.615
626.322	133.02
630.253	216.716
634.182	310.946
638.109	484.629
642.035	886.059
645.958	1807.2
649.88	3971.08
653.8	6916.12
657.718	5652.13
661.634	3933.16
665.549	4594.86
669.461	5170.44
673.372	3678.73
677.281	2995.65
681.188	3888.8
685.093	7511.88
688.997	23188.4
692.898	47984.6
696.798	20813.6
700.696	6983.15
704.592	3333.81
708.486	1861.38
712.378	1140.88
716.269	725.294
720.158	529.629
724.045	432.886
727.93	318.06
731.813	238.923
735.694	187.728
739.574	155.511
743.452	109.421
747.328	104.266
751.202	103.009
755.075	18.647
758.945	118.171
762.814	308.601
766.681	354.941
770.546	116.191
774.409	23.984
778.271	14.229
782.131	14.574
785.989	10.183
789.845	17.117
793.699	58.396
797.552	70.048
801.402	68.041
805.251	16.406
809.098	14.99
812.944	67.243
816.787	142.377
820.629	302.503
824.469	853.713
828.307	1267.47
832.144	864.172
835.978	286.317
839.811	105.401
843.642	71.432
847.472	81.465
851.299	201.505
855.125	206.513
858.949	324.475
862.771	551.396
866.591	755.276
870.41	952.121
874.227	1731.2
878.042	2837.33
881.855	3442.24
885.667	2616.83
889.476	1880.11
893.284	1384.14
897.09	1347.91
900.895	1387.59
904.698	1798.65
908.499	2975.36
912.298	6374.81
916.095	13920.4
919.891	12987
923.685	6255.54
927.477	3398.55
931.267	2517.84
935.056	2368.27
938.843	2058.68
942.628	1852.39
946.411	1771.8
950.193	1827.38
953.973	1908.07
957.751	1613.11
961.527	1350.5
965.302	1149.43
969.075	1106.41
972.846	1396.47
976.615	2203.63
980.383	4900.88
984.149	9644.22
987.913	6585.65
991.675	2844.22
995.436	1183.94
999.195	602.792
1002.95	376.765
1006.71	182.845
1010.46	167.059
1014.21	125.396
1017.96	82.874
1021.71	8.537
1025.46	18.855
1029.2	3.103
1032.95	53.721
1036.69	22.661
1040.43	51.638
1044.17	45.615
1047.9	44.578
1051.64	3.597
1055.37	87.695
1059.1	265.878
1062.83	602.146
1066.56	1284.49
1070.29	3032.92
1074.01	9661.42
1077.73	13061
1081.46	4529.74
1085.17	1715.62
1088.89	857.684
1092.61	596.939
1096.32	410.394
1100.04	230.095
1103.75	163.068
1107.46	68.433
1111.16	88.18
1114.87	111.774
1118.57	177.099
1122.28	352.501
1125.98	216.562
1129.67	217.423
1133.37	302.742
1137.07	351.346
1140.76	470.81
1144.45	654.621
1148.14	835.607
1151.83	1128.16
1155.52	1403.9
1159.21	1890.1
1162.89	2829.02
1166.57	4171.97
1170.25	5570.8
1173.93	5387.05
1177.61	3771.11
1181.28	2263.02
1184.96	1417.06
1188.63	1086.38
1192.3	1190.13
1195.97	1359.97
1199.64	1857.76
1203.3	2067.43
1206.97	1708.51
1210.63	1146.27
1214.29	845.312
1217.95	482.555
1221.6	372.887
1225.26	241.994
1228.91	319.247
1232.57	301.612
1236.21	268.592
1239.86	236.559
1243.51	81.5
1247.16	46.346
1250.8	12.122
1254.44	54.067
1258.08	46.594
1261.72	166.983
1265.36	127.543
1268.99	76.4
1272.63	65.97
1276.26	9.876
1279.89	19.986
1283.52	86.534
1287.15	39.614
1290.77	66.779
1294.4	97.204
1298.02	94.292
1301.64	99.2
1305.26	40.125
1308.88	25.191
1312.49	23.886
1316.11	1.775
1319.72	87.151
1323.33	134.006
1326.94	196.619
1330.55	234.976
1334.15	208.185
1337.76	114.421
1341.36	63.379
1344.96	58.345
1348.56	25.235
1352.16	40.72
1355.75	18.077
1359.35	182.271
1362.94	228.368
1366.53	278.392
1370.12	189.231
1373.71	171.319
1377.3	144.364
1380.88	156.204
1384.46	127.723
1388.05	172.857
1391.63	171.433
1395.2	154.976
1398.78	119.58
1402.36	203.6
1405.93	249.601
1409.5	179.495
1413.07	119.119
1416.64	3.821
1420.21	4.496
1423.78	0.425
1427.34	47.62
1430.9	73.64
1434.46	95.948
1438.02	196.62
1441.58	307.462
1445.13	167.945
1448.69	136.564
1452.24	134.062
1455.79	79.008
1459.34	60.747
1462.89	27.913
1466.44	39.2
1469.98	66.588
1473.53	112.104
1477.07	177.13
1480.61	222.569
1484.14	247.118
1487.68	225.032
1491.22	171.586
1494.75	112.846
1498.28	46.896
1501.81	18.065
1505.34	9.341
1508.87	26.455
1512.4	1.479
1515.92	0
