Measurement: Raman, 514 nm, ccw, Raman Data Processed
Mineral: Datolite
Rruff sample: R050033
Ideal chemistry: CaBSiO_4_(OH)
Locality: Westfield, Massachusetts, USA
Source: University of Arizona Mineral Museum
Description: Group of pale green single crystals
Measured chemistry: Ca_1.00_B_1.00_Si_1.00_O_4_(OH) ; trace amounts of Al and Na; B measured and corrected according to stoichiometry;  OH estimated by stoichiometry end charge balance
Pin_id: L00195
Orientation: Laser parallel to c* (0 0 1). Fiducial mark perpendicular to laser is parallel to a [1 0 0]
Raman shift (cm-1)	intensity
52.937	0
57.132	73.033
61.325	87.808
65.515	145.81
69.704	176.192
73.891	227.034
78.076	146.198
82.26	72.722
86.441	6.394
90.62	12.242
94.797	135.003
98.973	275.293
103.146	509.542
107.318	634.56
111.487	756.124
115.655	1174.17
119.821	1363.87
123.984	1454.08
128.146	1681.7
132.306	2713.72
136.464	2555.22
140.62	1926.76
144.774	1918.93
148.927	1907.17
153.077	1899.2
157.226	2079.1
161.372	6716.49
165.517	21710.1
169.659	6775.08
173.8	1982.29
177.939	2309.76
182.076	1037.64
186.211	692.156
190.344	1222.27
194.475	1470.63
198.605	585.236
202.732	465.093
206.858	523.26
210.981	912.867
215.103	2621.91
219.223	6565.87
223.341	1542.65
227.457	697.826
231.571	778.03
235.684	397.608
239.794	181.994
243.902	80.395
248.009	130.756
252.114	86.723
256.217	14.696
260.318	35.142
264.417	10.583
268.514	195.977
272.609	391.556
276.703	242.313
280.794	36.243
284.884	59.337
288.972	493.588
293.058	1282.99
297.142	439.536
301.224	47.225
305.304	11.958
309.383	15.027
313.46	11
317.534	125.138
321.607	358.393
325.678	360.769
329.747	670.276
333.815	1224.91
337.88	498.675
341.944	256.56
346.005	550.547
350.065	713.37
354.123	1195.21
358.179	3334.19
362.234	6276.57
366.286	3788.67
370.337	1648.79
374.386	1350.16
378.432	2165.66
382.478	1932.29
386.521	2961.75
390.562	7860.44
394.602	8053.15
398.639	3018.9
402.675	1089.73
406.709	559.728
410.742	284.915
414.772	282.731
418.8	317.651
422.827	1352.56
426.852	1431.23
430.875	616.948
434.896	1014.72
438.916	2905.55
442.933	2081.46
446.949	641.409
450.963	336.387
454.975	546.393
458.985	812.605
462.994	347.851
467	186.055
471.005	69.768
475.008	54.416
479.009	238.526
483.009	381.198
487.006	1128.94
491.002	3137.8
494.996	1659.73
498.988	529.673
502.978	136.622
506.967	6.439
510.953	71.451
514.938	42.707
518.921	113.887
522.903	130.551
526.882	36.885
530.86	19.497
534.836	43.413
538.81	46.655
542.782	16.182
546.753	133.114
550.721	383.343
554.688	510.527
558.653	208.667
562.617	96.758
566.578	63.798
570.538	16.78
574.496	38.311
578.452	61.438
582.407	142.299
586.359	523.386
590.31	1251.13
594.259	1685.64
598.206	1330.52
602.152	1252.86
606.096	643.12
610.038	275.299
613.978	40.397
617.916	47.408
621.853	119.805
625.788	106.805
629.721	115.896
633.652	135.295
637.582	264.383
641.51	344.665
645.436	471.536
649.36	764.98
653.282	1365.18
657.203	1729.48
661.122	1771.84
665.039	3105.9
668.955	5163.38
672.869	4231.21
676.781	3303.79
680.691	3554.99
684.599	5541.6
688.506	14044.7
692.411	40461.6
696.314	26761.3
700.216	8284.89
704.115	3388.5
708.013	1745.92
711.91	1005.24
715.804	683.466
719.697	447.592
723.588	290.552
727.477	254.044
731.365	123.034
735.25	96.685
739.134	125.423
743.017	133.041
746.897	33.561
750.776	43.97
754.653	84.251
758.529	209.39
762.402	566.445
766.274	688.42
770.144	271.134
774.013	9.204
777.88	11.544
781.745	0.726
785.608	66.118
789.47	63.411
793.329	57.938
797.188	56.284
801.044	14.29
804.899	4.967
808.752	46.619
812.603	1.125
816.452	190.559
820.3	508.968
824.146	1000.36
827.991	1895.76
831.834	1439.21
835.675	542.658
839.514	129.1
843.352	146.605
847.187	97.245
851.022	201.002
854.854	164.852
858.685	377.741
862.514	837.628
866.341	1082.51
870.167	679.402
873.991	876.297
877.813	1343.2
881.634	1853.47
885.453	1665.46
889.27	1103.01
893.086	675.862
896.9	485.447
900.712	558.067
904.522	688.252
908.331	1176.05
912.138	2327.2
915.944	5484.39
919.747	6820.61
923.549	3783.88
927.35	1922.3
931.148	1243.08
934.945	981.13
938.741	783.118
942.534	471.152
946.326	405.653
950.117	502.164
953.905	589.164
957.692	573.798
961.478	443.727
965.261	414.933
969.043	410.888
972.823	597.765
976.602	1245.14
980.379	2959.07
984.154	6971.34
987.928	6889.8
991.7	2943.75
995.47	1447.87
999.239	1099.2
1003.01	1236.71
1006.77	1137.39
1010.53	729.25
1014.3	387.316
1018.06	201.642
1021.82	132.14
1025.57	47.733
1029.33	148.427
1033.08	48.178
1036.83	58.969
1040.59	55.797
1044.33	74.714
1048.08	91.74
1051.83	214.868
1055.57	379.111
1059.31	427.472
1063.05	655.935
1066.79	1182.48
1070.53	2346.11
1074.27	6769.82
1078	15870.6
1081.73	12031.5
1085.46	5592.61
1089.19	1839.96
1092.92	932.581
1096.64	484.56
1100.37	247.738
1104.09	203.962
1107.81	166.503
1111.53	162.345
1115.25	13.863
1118.97	18.451
1122.68	7.257
1126.39	70.907
1130.1	32.035
1133.81	95.396
1137.52	242.466
1141.23	306.244
1144.93	263.576
1148.64	203.796
1152.34	471.893
1156.04	773.101
1159.74	1249.75
1163.43	1879.61
1167.13	2879.17
1170.82	4113.22
1174.51	4746.23
1178.2	3699.19
1181.89	2315.5
1185.58	1397.62
1189.26	1010.3
1192.95	662.298
1196.63	598.15
1200.31	511.674
1203.99	474.894
1207.67	350.898
1211.34	176.075
1215.02	250.903
1218.69	269.659
1222.36	193.19
1226.03	231.565
1229.7	133.041
1233.36	150.911
1237.03	112.94
1240.69	159.977
1244.35	111.216
1248.01	123.932
1251.67	170.597
1255.33	251.375
1258.98	117.29
1262.64	152.312
1266.29	122.288
1269.94	14.767
1273.59	106.833
1277.23	139.188
1280.88	169.764
1284.53	256.035
1288.17	111.565
1291.81	20.878
1295.45	128.417
1299.09	57.486
1302.72	66.028
1306.36	54.388
1309.99	28.25
1313.62	129.416
1317.25	182.869
1320.88	193.063
1324.51	208.942
1328.13	232.562
1331.75	111.899
1335.38	103.917
1339	93.565
1342.62	69.901
1346.23	221.937
1349.85	179.696
1353.46	174.188
1357.08	289.484
1360.69	412.442
1364.3	230.164
1367.9	204.672
1371.51	196.275
1375.12	27.566
1378.72	110.399
1382.32	79.675
1385.92	304.999
1389.52	303.503
1393.12	367.274
1396.71	306.238
1400.31	253.572
1403.9	163.417
1407.49	10.335
1411.08	114.95
1414.67	105.367
1418.25	60.364
1421.84	292.824
1425.42	263.392
1429	178.446
1432.58	247.02
1436.16	202.371
1439.74	171.112
1443.32	102.211
1446.89	102.457
1450.46	129.322
1454.03	172.934
1457.6	91.184
1461.17	247.457
1464.74	392.344
1468.3	373.143
1471.87	314.786
1475.43	289.244
1478.99	265.815
1482.55	68.135
1486.1	153.966
1489.66	132.49
1493.21	160.384
1496.77	116.677
1500.32	71.207
1503.87	58.193
1507.41	191.812
1510.96	256.729
1514.51	252.994
1518.05	223.233
1521.59	239.291
1525.13	0
