Measurement: Raman, 514 nm, ccw, Raman Data Processed
Mineral: Datolite
Rruff sample: R050033
Ideal chemistry: CaBSiO_4_(OH)
Locality: Westfield, Massachusetts, USA
Source: University of Arizona Mineral Museum
Description: Group of pale green single crystals
Measured chemistry: Ca_1.00_B_1.00_Si_1.00_O_4_(OH) ; trace amounts of Al and Na; B measured and corrected according to stoichiometry;  OH estimated by stoichiometry end charge balance
Pin_id: L00153
Orientation: Laser parallel to -a* (-1 0 0). Fiducial mark perpendicular to laser is parallel to -b [0 -1 0]
Raman shift (cm-1)	intensity
52.937	0
57.132	25.865
61.325	66.299
65.515	71.346
69.704	91.508
73.891	86.257
78.076	56.813
82.26	33.892
86.441	3.801
90.62	9.586
94.797	68.563
98.973	133.177
103.146	263.21
107.318	317.048
111.487	473.225
115.655	515.451
119.821	525.121
123.984	608.12
128.146	930.11
132.306	2164.11
136.464	1730.2
140.62	834.755
144.774	889.591
148.927	1119.41
153.077	1787.1
157.226	4775.62
161.372	25591.8
165.517	63741.8
169.659	15472.3
173.8	4326.5
177.939	3807.83
182.076	1293.05
186.211	781.659
190.344	895.982
194.475	720.402
198.605	538.917
202.732	529.523
206.858	801.221
210.981	2144.04
215.103	10488.2
219.223	19492.3
223.341	3510.54
227.457	933.757
231.571	468.272
235.684	204.357
239.794	89.827
243.902	68.687
248.009	66.068
252.114	40.089
256.217	9.061
260.318	12.074
264.417	18.629
268.514	207.186
272.609	756.067
276.703	533.005
280.794	81.999
284.884	61.044
288.972	388.133
293.058	882.269
297.142	291.45
301.224	30.677
305.304	6.054
309.383	0.757
313.46	59.453
317.534	4.825
321.607	123.099
325.678	428.347
329.747	1792.64
333.815	3463.99
337.88	1134.4
341.944	283.848
346.005	100.34
350.065	67.77
354.123	81.269
358.179	221.263
362.234	318.586
366.286	338.302
370.337	418.26
374.386	728.807
378.432	1163.7
382.478	2250.59
386.521	5824.49
390.562	14617.1
394.602	11919.8
398.639	4006.42
402.675	1683.08
406.709	907.784
410.742	542.52
414.772	327.302
418.8	306.507
422.827	435.21
426.852	364.211
430.875	133.088
434.896	158.08
438.916	164.08
442.933	138.085
446.949	97.917
450.963	236.988
454.975	868.064
458.985	1238.16
462.994	428.3
467	266.292
471.005	251.429
475.008	345.545
479.009	570.766
483.009	1171.42
487.006	3841.15
491.002	7351.93
494.996	3070.73
498.988	1004.53
502.978	430.323
506.967	199.103
510.953	112.87
514.938	50.622
518.921	1.654
522.903	39.022
526.882	4.675
530.86	73.758
534.836	73.502
538.81	16.566
542.782	21.899
546.753	161.568
550.721	592.008
554.688	799.421
558.653	440.806
562.617	296.163
566.578	156.489
570.538	150.785
574.496	143.047
578.452	248.281
582.407	421.519
586.359	973.936
590.31	2112.95
594.259	2431.11
598.206	1261.24
602.152	630.49
606.096	346.068
610.038	199.309
613.978	120.058
617.916	116.948
621.853	125.426
625.788	112.673
629.721	176.881
633.652	175.045
637.582	290.878
641.51	351.287
645.436	597.691
649.36	914.83
653.282	1467.39
657.203	2039.07
661.122	3053.34
665.039	6148.53
668.955	9317.64
672.869	7053.64
676.781	5161.38
680.691	5165.2
684.599	8299.47
688.506	22170.9
692.411	49749.7
696.314	24342.6
700.216	7762.66
704.115	3541.12
708.013	2028.53
711.91	1254.88
715.804	770.182
719.697	551.43
723.588	384.628
727.477	281.777
731.365	233.876
735.25	212.413
739.134	213.931
743.017	210.361
746.897	180.8
750.776	98.667
754.653	84.49
758.529	10.731
762.402	14.921
766.274	65.506
770.144	11.046
774.013	10.317
777.88	5.188
781.745	27.064
785.608	4.779
789.47	57.554
793.329	64.167
797.188	25.079
801.044	35.835
804.899	14.347
808.752	1.596
812.603	75.128
816.452	246.841
820.3	567.546
824.146	1241.25
827.991	2290.96
831.834	1518.71
835.675	616.474
839.514	226.259
843.352	113.134
847.187	88.178
851.022	52.373
854.854	45.447
858.685	98.136
862.514	255.578
866.341	264.051
870.167	311.556
873.991	676.848
877.813	1241.7
881.634	1717.32
885.453	1505.98
889.27	1144.69
893.086	996.439
896.9	1001.24
900.712	1334.1
904.522	1990
908.331	3216.97
912.138	6771.13
915.944	14088.1
919.747	14017.3
923.549	7195.39
927.35	3664.71
931.148	2190.63
934.945	1562.32
938.741	1215.47
942.534	966.869
946.326	880.168
950.117	990.824
953.905	969.976
957.692	916.342
961.478	788.272
965.261	863.667
969.043	940.217
972.823	1365.03
976.602	2562.87
980.379	5487.22
984.154	11625.5
987.928	8857.29
991.7	3745.6
995.47	1807.3
999.239	1052.17
1003.01	624.269
1006.77	399.126
1010.53	217.87
1014.3	162.404
1018.06	73.116
1021.82	135.95
1025.57	106.9
1029.33	61.965
1033.08	7.143
1036.83	30.431
1040.59	62.829
1044.33	78.337
1048.08	188.953
1051.83	279.68
1055.57	462.535
1059.31	624.5
1063.05	1037.58
1066.79	1952.8
1070.53	4481.13
1074.27	13779.6
1078	22584.2
1081.73	8308.88
1085.46	2899.66
1089.19	1272.5
1092.92	705.804
1096.64	461.301
1100.37	312.72
1104.09	235.707
1107.81	194.979
1111.53	51.17
1115.25	27.885
1118.97	9.668
1122.68	12.329
1126.39	1.499
1130.1	62.555
1133.81	63.597
1137.52	1.141
1141.23	12.48
1144.93	32.554
1148.64	3.707
1152.34	27.722
1156.04	96.976
1159.74	221.366
1163.43	191.256
1167.13	297.275
1170.82	347.366
1174.51	301.06
1178.2	293.975
1181.89	205.531
1185.58	200.073
1189.26	178.596
1192.95	192.157
1196.63	235.808
1200.31	380.069
1203.99	533.815
1207.67	433.206
1211.34	328.607
1215.02	234.917
1218.69	184.243
1222.36	95.756
1226.03	145.917
1229.7	3.738
1233.36	1.28
1237.03	51.21
1240.69	9.072
1244.35	108.859
1248.01	56.557
1251.67	34.13
1255.33	50.583
1258.98	15.241
1262.64	44.544
1266.29	7.266
1269.94	26.833
1273.59	59.649
1277.23	56.721
1280.88	101.021
1284.53	84.161
1288.17	29.402
1291.81	30.006
1295.45	21.238
1299.09	35.819
1302.72	36.632
1306.36	50.422
1309.99	88.023
1313.62	58.453
1317.25	150.762
1320.88	126.911
1324.51	136.912
1328.13	141.766
1331.75	116.462
1335.38	109.998
1339	97.917
1342.62	119.278
1346.23	165.332
1349.85	158.339
1353.46	211.187
1357.08	141.724
1360.69	96.199
1364.3	59.505
1367.9	134.665
1371.51	123.999
1375.12	158.042
1378.72	115.142
1382.32	242.636
1385.92	229.729
1389.52	255.001
1393.12	226.325
1396.71	174.75
1400.31	56.375
1403.9	74.518
1407.49	117.406
1411.08	130.69
1414.67	61.828
1418.25	164.448
1421.84	183.662
1425.42	140.216
1429	98.199
1432.58	63.854
1436.16	74.208
1439.74	0.77
1443.32	5.482
1446.89	49.343
1450.46	105.079
1454.03	196.003
1457.6	131.586
1461.17	207.805
1464.74	218.997
1468.3	178.864
1471.87	134.298
1475.43	62.887
1478.99	5.524
1482.55	3.883
1486.1	49.826
1489.66	1.761
1493.21	97.485
1496.77	111.19
1500.32	162.993
1503.87	127.733
1507.41	156.81
1510.96	122.893
1514.51	45.819
1518.05	10.131
1521.59	0.172
1525.13	0
