Measurement: Raman, 514 nm, ccw, Raman Data Processed
Mineral: Datolite
Rruff sample: R050033
Ideal chemistry: CaBSiO_4_(OH)
Locality: Westfield, Massachusetts, USA
Source: University of Arizona Mineral Museum
Description: Group of pale green single crystals
Measured chemistry: Ca_1.00_B_1.00_Si_1.00_O_4_(OH) ; trace amounts of Al and Na; B measured and corrected according to stoichiometry;  OH estimated by stoichiometry end charge balance
Pin_id: L00153
Orientation: Laser parallel to -a* (-1 0 0). Fiducial mark perpendicular to laser is parallel to -b [0 -1 0]
Raman shift (cm-1)	intensity
52.937	0
57.132	176.208
61.325	329.406
65.515	123.473
69.704	87.047
73.891	131.174
78.076	68.505
82.26	22.853
86.441	16.839
90.62	0.504
94.797	30.794
98.973	77.446
103.146	89.598
107.318	130.019
111.487	359.831
115.655	259.37
119.821	51.523
123.984	70.135
128.146	123.325
132.306	549.404
136.464	391.511
140.62	87.187
144.774	123.324
148.927	615.483
153.077	1923.16
157.226	1887.36
161.372	6956.29
165.517	18725
169.659	4982.59
173.8	2969.89
177.939	5733.01
182.076	2046.89
186.211	1137.66
190.344	3393.11
194.475	3678.36
198.605	1181.43
202.732	871.308
206.858	875.328
210.981	2262.64
215.103	5158.78
219.223	9252.94
223.341	1727.95
227.457	450.979
231.571	297.998
235.684	54.138
239.794	36.784
243.902	23.859
248.009	0.85
252.114	3.154
256.217	52.939
260.318	22.198
264.417	143.478
268.514	779.037
272.609	1306.68
276.703	705.644
280.794	405.952
284.884	1088.38
288.972	4757.41
293.058	7803.64
297.142	2342.94
301.224	705.479
305.304	324.284
309.383	205.093
313.46	177.134
317.534	203.94
321.607	461.006
325.678	1154.69
329.747	2864.31
333.815	3327.85
337.88	1050.33
341.944	296.962
346.005	183.113
350.065	196.281
354.123	290.472
358.179	634.327
362.234	1056.42
366.286	686.382
370.337	510.269
374.386	934.357
378.432	1687.53
382.478	1431.22
386.521	2212.54
390.562	5043.55
394.602	4278.05
398.639	1570.52
402.675	642.265
406.709	357.523
410.742	231.809
414.772	248.993
418.8	581.069
422.827	1901.14
426.852	1461.01
430.875	350.842
434.896	377.843
438.916	699.788
442.933	607.664
446.949	627.497
450.963	1607.31
454.975	5420.14
458.985	6849.28
462.994	1898.17
467	621.94
471.005	242.049
475.008	119.654
479.009	135.526
483.009	225.646
487.006	853.826
491.002	1953.09
494.996	788.429
498.988	184.803
502.978	55.789
506.967	77.159
510.953	39.106
514.938	37.95
518.921	68.584
522.903	484.082
526.882	335.555
530.86	5.995
534.836	40.615
538.81	60.657
542.782	257.9
546.753	807.123
550.721	2525.33
554.688	3814.52
558.653	2406.73
562.617	2048.04
566.578	719.535
570.538	187.204
574.496	74.981
578.452	26.945
582.407	127.114
586.359	373.373
590.31	974.639
594.259	1273.9
598.206	935.232
602.152	806.642
606.096	370.872
610.038	141.092
613.978	53.302
617.916	79.195
621.853	85.603
625.788	147.882
629.721	213.896
633.652	267.101
637.582	461.597
641.51	690.439
645.436	1242.6
649.36	2503.37
653.282	4927.43
657.203	5016.55
661.122	3345.31
665.039	3587.97
668.955	4168.2
672.869	3304.97
676.781	3044.79
680.691	3913.44
684.599	7173.05
688.506	21280.1
692.411	50862.8
696.314	26748.9
700.216	8645.35
704.115	3947.78
708.013	2291.16
711.91	1492.51
715.804	977.83
719.697	669.108
723.588	422.358
727.477	367.573
731.365	271.753
735.25	272.719
739.134	291.783
743.017	328.908
746.897	166.999
750.776	100.041
754.653	76.033
758.529	62.972
762.402	172.859
766.274	178.698
770.144	80.46
774.013	20.809
777.88	8.769
781.745	29.394
785.608	57.265
789.47	61.432
793.329	9.071
797.188	27.325
801.044	39.628
804.899	37.865
808.752	8.327
812.603	14.069
816.452	82.372
820.3	216.73
824.146	445.208
827.991	838.76
831.834	624.332
835.675	267.885
839.514	156.419
843.352	142.939
847.187	110.485
851.022	167.047
854.854	216.601
858.685	375.151
862.514	679.7
866.341	947.249
870.167	1096.8
873.991	2039.82
877.813	3643.95
881.634	4497.81
885.453	3644.91
889.27	2278.13
893.086	1542.1
896.9	1356.78
900.712	1451.42
904.522	1924.07
908.331	2882.66
912.138	5532.18
915.944	11459.9
919.747	11803.6
923.549	6243.41
927.35	3550.28
931.148	2705.43
934.945	2510.9
938.741	2087.21
942.534	1708.88
946.326	1706.92
950.117	1878.81
953.905	2006.43
957.692	1794.08
961.478	1294.25
965.261	1027.71
969.043	1046.28
972.823	1347.95
976.602	2213.73
980.379	4740.66
984.154	9832.7
987.928	7525.88
991.7	3188.2
995.47	1546.69
999.239	856.343
1003.01	473.165
1006.77	272.186
1010.53	90.38
1014.3	75.737
1018.06	34.232
1021.82	63.84
1025.57	32.548
1029.33	17.34
1033.08	25.774
1036.83	36.802
1040.59	46.767
1044.33	11.287
1048.08	79.4
1051.83	93.6
1055.57	163.913
1059.31	253.334
1063.05	510.872
1066.79	1097.53
1070.53	2701.29
1074.27	8743.15
1078	15431.1
1081.73	5908.31
1085.46	2065.66
1089.19	1038.23
1092.92	596.03
1096.64	477.072
1100.37	380.302
1104.09	274.73
1107.81	240.889
1111.53	179.794
1115.25	118.485
1118.97	141.448
1122.68	228.914
1126.39	306.101
1130.1	388.637
1133.81	496.633
1137.52	555.796
1141.23	639.227
1144.93	843.135
1148.64	1080.36
1152.34	1426.52
1156.04	1936.77
1159.74	2729.91
1163.43	3569.69
1167.13	4958.29
1170.82	6489.4
1174.51	6938.1
1178.2	5296.62
1181.89	3323.97
1185.58	2143.26
1189.26	1509.45
1192.95	1314.69
1196.63	1389.94
1200.31	1573.69
1203.99	1816.93
1207.67	1618.57
1211.34	1155.87
1215.02	854.187
1218.69	600.561
1222.36	433.845
1226.03	285.294
1229.7	189.603
1233.36	149.985
1237.03	193.286
1240.69	134.526
1244.35	107.781
1248.01	83.039
1251.67	49.286
1255.33	6.533
1258.98	0.275
1262.64	5.083
1266.29	10.423
1269.94	21.358
1273.59	53.681
1277.23	52.503
1280.88	72.212
1284.53	43.551
1288.17	14.993
1291.81	38.042
1295.45	16.173
1299.09	71.185
1302.72	0.834
1306.36	24.387
1309.99	124.484
1313.62	80.477
1317.25	102.38
1320.88	101.197
1324.51	58.926
1328.13	100.535
1331.75	124.019
1335.38	56.374
1339	68.655
1342.62	59.948
1346.23	96.074
1349.85	121.062
1353.46	110.944
1357.08	78.864
1360.69	58.747
1364.3	93.319
1367.9	52.679
1371.51	97.213
1375.12	106.489
1378.72	110.409
1382.32	190.082
1385.92	181.052
1389.52	184.293
1393.12	160.737
1396.71	87.98
1400.31	76.795
1403.9	65.132
1407.49	55.263
1411.08	53.105
1414.67	117.891
1418.25	117.927
1421.84	112.141
1425.42	75.98
1429	31.741
1432.58	29.07
1436.16	22.546
1439.74	6.137
1443.32	97.298
1446.89	121.837
1450.46	138.941
1454.03	152.849
1457.6	175.717
1461.17	158.054
1464.74	183.801
1468.3	159.599
1471.87	40.382
1475.43	63.864
1478.99	58.371
1482.55	13.719
1486.1	38.281
1489.66	79.008
1493.21	63.396
1496.77	112.527
1500.32	54.969
1503.87	120.36
1507.41	96.14
1510.96	53.177
1514.51	56.319
1518.05	54.999
1521.59	0.054
1525.13	0
