Measurement: Raman, 514 nm, ccw, Raman Data Processed
Mineral: Datolite
Rruff sample: R050033
Ideal chemistry: CaBSiO_4_(OH)
Locality: Westfield, Massachusetts, USA
Source: University of Arizona Mineral Museum
Description: Group of pale green single crystals
Measured chemistry: Ca_1.00_B_1.00_Si_1.00_O_4_(OH) ; trace amounts of Al and Na; B measured and corrected according to stoichiometry;  OH estimated by stoichiometry end charge balance
Pin_id: L00195
Orientation: Laser parallel to c* (0 0 1). Fiducial mark perpendicular to laser is parallel to a [1 0 0]
Raman shift (cm-1)	intensity
52.937	0
57.132	31.793
61.325	27.139
65.515	26.773
69.704	38.639
73.891	29.608
78.076	26.22
82.26	11.395
86.441	7.976
90.62	3.596
94.797	33.774
98.973	77.065
103.146	108.979
107.318	169.096
111.487	205.39
115.655	251.847
119.821	329.455
123.984	304.223
128.146	449.195
132.306	1186.29
136.464	1020.5
140.62	430.834
144.774	355.252
148.927	380.712
153.077	602.184
157.226	521.641
161.372	1528.18
165.517	4888.81
169.659	1411.49
173.8	578.23
177.939	855.028
182.076	272.881
186.211	151.123
190.344	141.183
194.475	136.18
198.605	106.655
202.732	91.978
206.858	99.077
210.981	127.282
215.103	244.757
219.223	608.411
223.341	281.107
227.457	683.701
231.571	1232.13
235.684	411.385
239.794	109.355
243.902	54.398
248.009	46.457
252.114	50.635
256.217	46.318
260.318	30.556
264.417	21.963
268.514	55.419
272.609	75.511
276.703	88.051
280.794	72.63
284.884	269.246
288.972	1112.9
293.058	2261.58
297.142	685.292
301.224	204.032
305.304	71.8
309.383	27.594
313.46	16.415
317.534	11.736
321.607	45.137
325.678	2.037
329.747	6.964
333.815	10.916
337.88	4.108
341.944	10.118
346.005	27.887
350.065	14.911
354.123	37.96
358.179	156.137
362.234	246.144
366.286	260.533
370.337	321.464
374.386	1050.23
378.432	3107.14
382.478	1774.6
386.521	845.773
390.562	1423.91
394.602	1175.06
398.639	350.211
402.675	147.379
406.709	63.561
410.742	11.647
414.772	5.868
418.8	7.765
422.827	11.462
426.852	44.692
430.875	9.07
434.896	41.156
438.916	102.387
442.933	62.624
446.949	18.864
450.963	26.108
454.975	183.355
458.985	288.606
462.994	100.876
467	62.223
471.005	20.627
475.008	49.115
479.009	127.38
483.009	286.958
487.006	956.463
491.002	2447.06
494.996	1203.66
498.988	395.013
502.978	144.577
506.967	34.026
510.953	38.505
514.938	3.084
518.921	3.345
522.903	9.802
526.882	46.329
530.86	19.013
534.836	28.784
538.81	2.342
542.782	9.427
546.753	135.504
550.721	407.575
554.688	730.64
558.653	281.698
562.617	96.75
566.578	6.204
570.538	20.812
574.496	5.817
578.452	39.802
582.407	70.388
586.359	183.377
590.31	521.77
594.259	627.752
598.206	340.73
602.152	183.705
606.096	125.677
610.038	56.646
613.978	50.611
617.916	86.065
621.853	97.154
625.788	155.102
629.721	137.341
633.652	165.28
637.582	161.445
641.51	207.242
645.436	307.202
649.36	406.084
653.282	539.95
657.203	832.804
661.122	1419.66
665.039	3047.5
668.955	5153.33
672.869	4396.02
676.781	3591.34
680.691	4239.78
684.599	7366.94
688.506	20035.6
692.411	56117.1
696.314	34659.9
700.216	10694.5
704.115	4449.31
708.013	2347.07
711.91	1441.83
715.804	996.597
719.697	660.363
723.588	509.408
727.477	329.051
731.365	244.797
735.25	198.754
739.134	157.751
743.017	171.758
746.897	147.774
750.776	83.802
754.653	54.839
758.529	58.883
762.402	36.937
766.274	81
770.144	5.073
774.013	12.853
777.88	62.825
781.745	16.959
785.608	8.195
789.47	26.555
793.329	6.007
797.188	1.49
801.044	30.98
804.899	73.487
808.752	53.012
812.603	168.556
816.452	317.121
820.3	617.707
824.146	1392.32
827.991	2614.95
831.834	1774.61
835.675	555.308
839.514	155.091
843.352	90.963
847.187	49.904
851.022	95.921
854.854	129.978
858.685	173.07
862.514	422.196
866.341	660.357
870.167	680.569
873.991	1043
877.813	1841.21
881.634	2412.86
885.453	1887.52
889.27	1110.55
893.086	591.643
896.9	302.11
900.712	242.613
904.522	236.15
908.331	355.723
912.138	785.334
915.944	2067.98
919.747	2648.67
923.549	1431.27
927.35	722.562
931.148	507.192
934.945	535.872
938.741	438.005
942.534	278.896
946.326	175.884
950.117	203.637
953.905	184.76
957.692	191.942
961.478	150.184
965.261	256.487
969.043	304.85
972.823	600.275
976.602	1238.76
980.379	2923.31
984.154	7066.92
987.928	6611.61
991.7	2726.37
995.47	1351.23
999.239	753.2
1003.01	514.268
1006.77	357.424
1010.53	171.67
1014.3	119.007
1018.06	0.425
1021.82	3.909
1025.57	14.55
1029.33	2.027
1033.08	8.408
1036.83	6.073
1040.59	16.491
1044.33	26.019
1048.08	62.48
1051.83	95.053
1055.57	170.686
1059.31	281.377
1063.05	461.13
1066.79	813.956
1070.53	1748.85
1074.27	5329.8
1078	11626.8
1081.73	5486.95
1085.46	2040.22
1089.19	790.623
1092.92	432.157
1096.64	223.799
1100.37	131.521
1104.09	85.304
1107.81	87.141
1111.53	60.036
1115.25	59.995
1118.97	70.011
1122.68	53.077
1126.39	110.201
1130.1	143.573
1133.81	190.557
1137.52	302.309
1141.23	356.904
1144.93	469.606
1148.64	645.342
1152.34	898.166
1156.04	1343.3
1159.74	2090.23
1163.43	3076.87
1167.13	4804.66
1170.82	6886.27
1174.51	7892.18
1178.2	6083.35
1181.89	3728.4
1185.58	2322.01
1189.26	1499.49
1192.95	999.101
1196.63	742.824
1200.31	519.568
1203.99	414.385
1207.67	316.234
1211.34	249.941
1215.02	218.563
1218.69	185.419
1222.36	163.378
1226.03	159.777
1229.7	86.234
1233.36	117.434
1237.03	90.847
1240.69	44.038
1244.35	62.929
1248.01	75.014
1251.67	51.116
1255.33	105.13
1258.98	112.173
1262.64	55.771
1266.29	54.805
1269.94	39.557
1273.59	25.402
1277.23	29.475
1280.88	37.571
1284.53	38.335
1288.17	21.992
1291.81	14.536
1295.45	39.163
1299.09	22.215
1302.72	27.87
1306.36	5.593
1309.99	14.314
1313.62	8.813
1317.25	45.93
1320.88	72.988
1324.51	71.974
1328.13	74.961
1331.75	53.053
1335.38	62.018
1339	29.974
1342.62	42.911
1346.23	16.747
1349.85	34.54
1353.46	16.311
1357.08	3.749
1360.69	31.449
1364.3	47.969
1367.9	62.491
1371.51	4.912
1375.12	6.159
1378.72	3.416
1382.32	41.253
1385.92	35.216
1389.52	64.12
1393.12	59.989
1396.71	27.792
1400.31	58.546
1403.9	15.131
1407.49	21.44
1411.08	11.651
1414.67	21.934
1418.25	0.953
1421.84	31.987
1425.42	47.692
1429	65.35
1432.58	42.953
1436.16	70.501
1439.74	67.791
1443.32	56.26
1446.89	71.225
1450.46	41.215
1454.03	73.473
1457.6	33.454
1461.17	50.993
1464.74	58.226
1468.3	32.896
1471.87	84.047
1475.43	87.652
1478.99	85.592
1482.55	58.348
1486.1	64.599
1489.66	23.089
1493.21	0.286
1496.77	16.376
1500.32	39.739
1503.87	30.662
1507.41	41.192
1510.96	70.977
1514.51	53.231
1518.05	47.412
1521.59	96.498
1525.13	0
