Measurement: Raman, 514 nm, ccw, Raman Data Processed
Mineral: Datolite
Rruff sample: R050136
Ideal chemistry: CaBSiO_4_(OH)
Locality: Charcas, San Luis Potosi, Mexico
Source: Dave Bunk Minerals
Description: Pale green tabular crystals
Measured chemistry: Ca_1.00_BSi_1.00_O_4_(OH) ; trace amounts of Fe; B and OH estimated by stoichiometry end charge balance
Pin_id: L00087
Orientation: Laser parallel to (-1 0 -1). Fiducial mark perpendicular to laser is parallel to -b [0 -1 0]
Raman shift (cm-1)	intensity
90.65	0
94.838	71.494
99.023	220.588
103.206	14.096
107.387	168.923
111.566	24.288
115.744	162.408
119.919	87.041
124.092	170.676
128.263	224.981
132.432	1640.82
136.599	2380.6
140.764	258.093
144.927	3.233
149.088	15.108
153.247	799.698
157.404	796.644
161.559	1537.44
165.711	13750.8
169.862	2783.67
174.011	797.95
178.158	2249.14
182.303	904.353
186.446	247.698
190.587	310.59
194.726	548.482
198.862	329.282
202.997	419.363
207.13	119.703
211.261	337.74
215.39	712.387
219.517	3554.96
223.642	486.097
227.765	85.29
231.886	63.898
236.005	3.881
240.122	18.534
244.237	34.528
248.35	5.524
252.461	15.46
256.57	19.586
260.677	38.038
264.782	127.503
268.885	342.578
272.986	1257.22
277.085	1317.1
281.182	408.999
285.278	301.872
289.371	859.327
293.462	2925.32
297.552	909.774
301.639	314.812
305.724	207.111
309.808	197.995
313.889	138.971
317.969	210.95
322.046	462.431
326.122	548.617
330.196	802.005
334.267	1846.12
338.337	708.379
342.405	327.047
346.471	300.195
350.535	369.731
354.597	683.221
358.657	1703.68
362.715	3158.9
366.771	1928.54
370.825	968.624
374.877	672.686
378.928	749.132
382.976	816.769
387.023	1660.09
391.067	5083.65
395.11	5104.85
399.15	1561.86
403.189	751.79
407.226	425.388
411.261	216.973
415.294	197.454
419.325	399.667
423.354	1652.1
427.381	1628.19
431.406	346.099
435.43	192.736
439.451	325.092
443.471	204.96
447.488	40.084
451.504	9.705
455.518	85.084
459.53	154.224
463.54	0.509
467.548	6.373
471.554	35.042
475.558	39.125
479.561	14.658
483.561	24.874
487.559	188.16
491.556	677.36
495.551	197.518
499.544	9.322
503.535	6.726
507.524	3.007
511.511	21.574
515.496	11.609
519.48	29.092
523.461	270.72
527.441	212.29
531.418	29.829
535.394	16.655
539.368	12.222
543.34	81.116
547.311	199.383
551.279	502.62
555.245	1139.89
559.21	702.227
563.173	671.696
567.133	271.348
571.092	58.958
575.049	147.672
579.005	274.789
582.958	391.017
586.909	842.303
590.859	2134.66
594.807	3459.08
598.753	2213.5
602.697	1578.83
606.639	726.81
610.579	292.158
614.518	206.746
618.454	214.36
622.389	191.873
626.322	214.891
630.253	164.8
634.182	249.512
638.109	298.623
642.035	369.159
645.958	642.316
649.88	1350.59
653.8	2892.09
657.718	3056.05
661.634	1656.62
665.549	1307.44
669.461	1628.1
673.372	1542.8
677.281	1527.83
681.188	1983.81
685.093	3731.77
688.997	11181.5
692.898	38134.2
696.798	24187
700.696	6674.38
704.592	2711.19
708.486	1532.02
712.378	982.824
716.269	677.613
720.158	371.38
724.045	277.123
727.93	194.839
731.813	203.529
735.694	220.189
739.574	84.815
743.452	54.406
747.328	69.96
751.202	122.476
755.075	106.953
758.945	92.388
762.814	257.794
766.681	488.187
770.546	198.566
774.409	86.921
778.271	35.218
782.131	44.602
785.989	49.586
789.845	32.753
793.699	30.869
797.552	67.311
801.402	1.404
805.251	83.261
809.098	49.381
812.944	52.255
816.787	81.763
820.629	155.2
824.469	197.638
828.307	584.073
832.144	574.514
835.978	315.972
839.811	211.408
843.642	144.859
847.472	127.357
851.299	197.901
855.125	375.509
858.949	798.138
862.771	1500.74
866.591	1473.32
870.41	601.874
874.227	277.398
878.042	365.897
881.855	444.37
885.667	325.817
889.476	301.24
893.284	308.647
897.09	409.969
900.895	670.323
904.698	938.459
908.499	1555.58
912.298	2927.75
916.095	6957.02
919.891	9274.28
923.685	5153.51
927.477	2660.72
931.267	1914.74
935.056	1665.75
938.843	1414.17
942.628	1037.01
946.411	950.837
950.193	941.536
953.973	787.542
957.751	529.614
961.527	431.633
965.302	380.064
969.075	449.948
972.846	687.894
976.615	924.222
980.383	1665.71
984.149	3667.85
987.913	3248.9
991.675	1444.52
995.436	798.995
999.195	610.147
1002.95	526.489
1006.71	399.858
1010.46	224.509
1014.21	188.141
1017.96	254.688
1021.71	261.19
1025.46	193.702
1029.2	127.223
1032.95	86.751
1036.69	50.283
1040.43	72.822
1044.17	94.439
1047.9	176.07
1051.64	139.719
1055.37	119.398
1059.1	128.089
1062.83	203.786
1066.56	464.509
1070.29	1050.26
1074.01	2735.03
1077.73	5531.85
1081.46	3597.07
1085.17	1566
1088.89	606.962
1092.61	373.572
1096.32	261.951
1100.04	277.043
1103.75	172.764
1107.46	27.291
1111.16	13.856
1114.87	55.421
1118.57	23.687
1122.28	189.475
1125.98	197.026
1129.67	99.62
1133.37	79.271
1137.07	0.288
1140.76	76.837
1144.45	49.417
1148.14	67.677
1151.83	86.449
1155.52	117.16
1159.21	74.979
1162.89	91.711
1166.57	71.26
1170.25	251.457
1173.93	268.796
1177.61	326.823
1181.28	268.471
1184.96	209.082
1188.63	135.434
1192.3	107.434
1195.97	97.044
1199.64	296.839
1203.3	417.851
1206.97	407.033
1210.63	359.058
1214.29	298.135
1217.95	226.128
1221.6	74.665
1225.26	15.522
1228.91	72.455
1232.57	175.337
1236.21	171.135
1239.86	184.666
1243.51	133.975
1247.16	187.194
1250.8	44.506
1254.44	60.853
1258.08	1.862
1261.72	98.55
1265.36	137.309
1268.99	212.563
1272.63	216.193
1276.26	207.791
1279.89	167.665
1283.52	33.237
1287.15	14.606
1290.77	27.468
1294.4	102.025
1298.02	100.939
1301.64	129.713
1305.26	166.111
1308.88	104.452
1312.49	92.803
1316.11	60.115
1319.72	4.66
1323.33	12.471
1326.94	37.514
1330.55	42.463
1334.15	47.292
1337.76	108.984
1341.36	122.601
1344.96	145.132
1348.56	88.588
1352.16	21.989
1355.75	45.652
1359.35	28.129
1362.94	27.932
1366.53	139.281
1370.12	246.075
1373.71	189.018
1377.3	187.925
1380.88	153.802
1384.46	186.893
1388.05	129.173
1391.63	21.829
1395.2	8.667
1398.78	53.116
1402.36	100.982
1405.93	224.026
1409.5	181.039
1413.07	231.93
1416.64	181.384
1420.21	146.038
1423.78	63.146
1427.34	42.834
1430.9	28.084
1434.46	47.928
1438.02	159.277
1441.58	256.463
1445.13	306.058
1448.69	331.637
1452.24	393.427
1455.79	453.584
1459.34	323.266
1462.89	262.122
1466.44	229.864
1469.98	121.208
1473.53	100.836
1477.07	83.255
1480.61	190.863
1484.14	194.01
1487.68	215.399
1491.22	259.083
1494.75	245.278
1498.28	249.433
1501.81	145.677
1505.34	217.186
1508.87	82.637
1512.4	3.381
1515.92	10.53
