Measurement: Raman, 514 nm, ccw, Raman Data Processed
Mineral: Datolite
Rruff sample: R050136
Ideal chemistry: CaBSiO_4_(OH)
Locality: Charcas, San Luis Potosi, Mexico
Source: Dave Bunk Minerals
Description: Pale green tabular crystals
Measured chemistry: Ca_1.00_BSi_1.00_O_4_(OH) ; trace amounts of Fe; B and OH estimated by stoichiometry end charge balance
Pin_id: L00362
Orientation: Laser parallel to a* (1 0 0). Fiducial mark perpendicular to laser is parallel to b [0 1 0]
Raman shift (cm-1)	intensity
90.65	0
94.838	29.926
99.023	48.226
103.206	2.965
107.387	74.173
111.566	87.13
115.744	100.113
119.919	56.664
124.092	94.57
128.263	383.069
132.432	1548.94
136.599	839.935
140.764	245.855
144.927	262.538
149.088	488.271
153.247	1034.23
157.404	3461.34
161.559	20596.8
165.711	58006.8
169.862	9609.5
174.011	2924.52
178.158	2744.32
182.303	780.807
186.446	385.058
190.587	388.242
194.726	334.75
198.862	237.353
202.997	236.464
207.13	473.603
211.261	1643.67
215.39	8288.77
219.517	14240.8
223.642	2420.78
227.765	602.904
231.886	214.12
236.005	116.583
240.122	43.22
244.237	22.776
248.35	0.791
252.461	8.497
256.57	46.114
260.677	71.189
264.782	27.666
268.885	130.13
272.986	583.071
277.085	699.214
281.182	109.254
285.278	34.89
289.371	352.821
293.462	724.682
297.552	196.461
301.639	60.1
305.724	26.578
309.808	24.123
313.889	30.978
317.969	12.921
322.046	107.719
326.122	332.406
330.196	1500.99
334.267	3035.45
338.337	835.576
342.405	231.047
346.471	107.312
350.535	81.649
354.597	110.632
358.657	144.274
362.715	226.395
366.771	235.323
370.825	277.029
374.877	424.208
378.928	767.76
382.976	1739.78
387.023	5156.23
391.067	12721.6
395.11	8240.97
399.15	2846.21
403.189	1235.32
407.226	666.031
411.261	414.265
415.294	346.91
419.325	293.217
423.354	297.537
427.381	196.567
431.406	108.456
435.43	103.994
439.451	118.436
443.471	59.783
447.488	107.645
451.504	232.702
455.518	683.802
459.53	856.028
463.54	308.876
467.548	251.104
471.554	210.227
475.558	238.4
479.561	446.676
483.561	1067.29
487.559	3304.14
491.556	5708.95
495.551	2126.74
499.544	685.473
503.535	303.121
507.524	132.691
511.511	27.812
515.496	37.161
519.48	24.05
523.461	10.11
527.441	35.965
531.418	41.218
535.394	11.29
539.368	23.546
543.34	0.634
547.311	86.585
551.279	483.462
555.245	664.26
559.21	246.98
563.173	181.622
567.133	98.189
571.092	76.686
575.049	102.132
579.005	139.616
582.958	275.195
586.909	766.831
590.859	1942.48
594.807	1903.99
598.753	860.498
602.697	362.839
606.639	202.019
610.579	163.432
614.518	88.784
618.454	64.684
622.389	51.439
626.322	102.549
630.253	129.217
634.182	145.477
638.109	169.137
642.035	250.946
645.958	463.847
649.88	774.161
653.8	1250.01
657.718	1499.47
661.634	2417.71
665.549	5392.86
669.461	7556.51
673.372	5138.88
677.281	3455.97
681.188	3788.54
685.093	6887.62
688.997	19721.9
692.898	38213.8
696.798	15478.9
700.696	5066.66
704.592	2417.53
708.486	1396.78
712.378	783.965
716.269	477.081
720.158	386.129
724.045	326.103
727.93	282.552
731.813	195.139
735.694	123.861
739.574	89.6
743.452	144.274
747.328	113.884
751.202	118.427
755.075	57.905
758.945	23.317
762.814	88.667
766.681	73.955
770.546	28.125
774.409	23.18
778.271	21.528
782.131	26.075
785.989	13.384
789.845	37.638
793.699	0.741
797.552	71.377
801.402	41.715
805.251	33.776
809.098	94.133
812.944	134.425
816.787	179.768
820.629	385.096
824.469	1135.4
828.307	1996.69
832.144	1182.02
835.978	392.362
839.811	133.719
843.642	47.119
847.472	26.592
851.299	106.109
855.125	33.616
858.949	140.107
862.771	88.589
866.591	156.071
870.41	309.552
874.227	540.036
878.042	1097.55
881.855	1272.93
885.667	1095.44
889.476	835.967
893.284	818.721
897.09	909.27
900.895	1107.73
904.698	1485.31
908.499	2467.64
912.298	5482.95
916.095	12249.4
919.891	11233.9
923.685	5300.25
927.477	2537.93
931.267	1480.06
935.056	1088.42
938.843	1010.79
942.628	855.419
946.411	783.923
950.193	697.384
953.973	671.145
957.751	642.797
961.527	692.798
965.302	789.76
969.075	912.673
972.846	1192.32
976.615	2051.09
980.383	4811.97
984.149	9698.18
987.913	6332.53
991.675	2752.1
995.436	1250.34
999.195	603.719
1002.95	348.739
1006.71	193.131
1010.46	196.959
1014.21	164.972
1017.96	162.89
1021.71	50.918
1025.46	1.971
1029.2	35.792
1032.95	26.439
1036.69	99.739
1040.43	134.106
1044.17	159.537
1047.9	172.04
1051.64	180.623
1055.37	261.276
1059.1	465.002
1062.83	942.802
1066.56	1813.67
1070.29	4188.61
1074.01	12545.6
1077.73	15403.8
1081.46	5068.22
1085.17	1898.17
1088.89	1053.74
1092.61	776.608
1096.32	401.644
1100.04	184.632
1103.75	56.011
1107.46	34.459
1111.16	44.971
1114.87	125.82
1118.57	168.404
1122.28	131.413
1125.98	79.481
1129.67	11.328
1133.37	13.58
1137.07	45.382
1140.76	67.855
1144.45	177.061
1148.14	106.498
1151.83	102.997
1155.52	44.223
1159.21	4.017
1162.89	113.768
1166.57	286.969
1170.25	479.45
1173.93	388.867
1177.61	399.943
1181.28	230.336
1184.96	119.533
1188.63	72.761
1192.3	118.987
1195.97	287.62
1199.64	502.679
1203.3	611.227
1206.97	566.609
1210.63	279.409
1214.29	178.911
1217.95	87.255
1221.6	110.028
1225.26	72.748
1228.91	206.515
1232.57	300.309
1236.21	267.833
1239.86	171.391
1243.51	67.026
1247.16	33.737
1250.8	108.557
1254.44	58.542
1258.08	81.392
1261.72	234.475
1265.36	226.656
1268.99	182.883
1272.63	153.858
1276.26	23.391
1279.89	11.451
1283.52	44.313
1287.15	65.937
1290.77	110.621
1294.4	155.819
1298.02	208.847
1301.64	240.755
1305.26	166.289
1308.88	20.855
1312.49	25.515
1316.11	82.671
1319.72	118.884
1323.33	213.838
1326.94	318.787
1330.55	379.475
1334.15	238.963
1337.76	244.325
1341.36	106.558
1344.96	30.663
1348.56	38.711
1352.16	17.581
1355.75	87.337
1359.35	246.015
1362.94	351.259
1366.53	447.828
1370.12	361.277
1373.71	189.48
1377.3	208.556
1380.88	99.762
1384.46	59.267
1388.05	125.279
1391.63	180.862
1395.2	319.61
1398.78	364.632
1402.36	310.477
1405.93	365.003
1409.5	176.139
1413.07	123.962
1416.64	96.044
1420.21	1.15
1423.78	48.62
1427.34	67.891
1430.9	164.316
1434.46	258.868
1438.02	316.064
1441.58	378.75
1445.13	399.021
1448.69	290.437
1452.24	224.362
1455.79	114.986
1459.34	19.904
1462.89	78.081
1466.44	28.883
1469.98	160.789
1473.53	179.212
1477.07	295.031
1480.61	397.229
1484.14	424.147
1487.68	457.33
1491.22	278.232
1494.75	151.173
1498.28	84.079
1501.81	19.896
1505.34	107.02
1508.87	69.85
1512.4	28.741
1515.92	250.98
