Measurement: Raman, 514 nm, ccw, Raman Data Processed
Mineral: Datolite
Rruff sample: R050136
Ideal chemistry: CaBSiO_4_(OH)
Locality: Charcas, San Luis Potosi, Mexico
Source: Dave Bunk Minerals
Description: Pale green tabular crystals
Measured chemistry: Ca_1.00_BSi_1.00_O_4_(OH) ; trace amounts of Fe; B and OH estimated by stoichiometry end charge balance
Pin_id: L00284
Orientation: Laser parallel to -b* (0 -1 0). Fiducial mark perpendicular to laser is parallel to c [0 0 1]
Raman shift (cm-1)	intensity
90.65	0
94.838	1.707
99.023	25.318
103.206	66.615
107.387	151.055
111.566	97.606
115.744	256.839
119.919	90.75
124.092	147.974
128.263	360.341
132.432	1688.79
136.599	813.635
140.764	191.473
144.927	124.66
149.088	286.329
153.247	595.69
157.404	439.655
161.559	2396.43
165.711	6733.93
169.862	1208.83
174.011	596.624
178.158	822.099
182.303	173.169
186.446	24.751
190.587	39.404
194.726	19.938
198.862	4.312
202.997	23.565
207.13	10.46
211.261	24.129
215.39	322.964
219.517	536.938
223.642	314.172
227.765	961.898
231.886	1254.23
236.005	310.562
240.122	83.865
244.237	10.068
248.35	8.171
252.461	10.652
256.57	32.933
260.677	2.131
264.782	6.752
268.885	17.873
272.986	157.767
277.085	104.705
281.182	117.991
285.278	394.674
289.371	1676.67
293.462	2317.21
297.552	601.597
301.639	189.838
305.724	79.931
309.808	57.7
313.889	19.079
317.969	33.293
322.046	42.418
326.122	51.461
330.196	151.43
334.267	92.311
338.337	27.037
342.405	7.526
346.471	15.899
350.535	40.038
354.597	30.1
358.657	63.299
362.715	113.504
366.771	194.717
370.825	448.188
374.877	1695.98
378.928	3677.01
382.976	1624.73
387.023	1070.34
391.067	1601.88
395.11	993.363
399.15	356.795
403.189	143.171
407.226	70.125
411.261	26.485
415.294	10.853
419.325	19.815
423.354	20.938
427.381	3.429
431.406	6.678
435.43	4.806
439.451	40.244
443.471	8.595
447.488	39.854
451.504	121.024
455.518	398.123
459.53	503.2
463.54	141.275
467.548	63.337
471.554	76.172
475.558	107.575
479.561	189.629
483.561	526.72
487.559	1619.35
491.556	2852.25
495.551	1119.1
499.544	371.371
503.535	182.875
507.524	92.513
511.511	41.692
515.496	11.649
519.48	31.085
523.461	19.303
527.441	17.23
531.418	1.717
535.394	17.89
539.368	26.365
543.34	43.576
547.311	142.751
551.279	595.894
555.245	732.005
559.21	240.085
563.173	57.135
567.133	45.157
571.092	58.682
575.049	44.165
579.005	89.729
582.958	180.81
586.909	502.366
590.859	1198.07
594.807	1311.01
598.753	585.469
602.697	263.066
606.639	138.456
610.579	73.205
614.518	80.697
618.454	93.312
622.389	124.238
626.322	197.238
630.253	206.129
634.182	191.498
638.109	178.511
642.035	280.191
645.958	369.704
649.88	474.771
653.8	716.732
657.718	1080.69
661.634	1998.65
665.549	4411.63
669.461	6409.61
673.372	4915.51
677.281	4232.22
681.188	5628.98
685.093	11337.9
688.997	34770.6
692.898	64211.1
696.798	30245.1
700.696	10160
704.592	4664.02
708.486	2637.04
712.378	1558.06
716.269	1012.09
720.158	717.145
724.045	512.262
727.93	437.451
731.813	335.722
735.694	282.104
739.574	171.586
743.452	159.104
747.328	127.67
751.202	83.291
755.075	13.94
758.945	8.608
762.814	30.301
766.681	25.015
770.546	23.282
774.409	33.67
778.271	24.181
782.131	12.766
785.989	16.394
789.845	2.092
793.699	18.147
797.552	21.625
801.402	1.573
805.251	63.786
809.098	131.022
812.944	288.281
816.787	462.565
820.629	874.873
824.469	1994.21
828.307	3144.57
832.144	1661.96
835.978	578.402
839.811	223.906
843.642	159.468
847.472	141.103
851.299	146.804
855.125	283.538
858.949	494.305
862.771	891.104
866.591	1030.94
870.41	1091.93
874.227	1748.84
878.042	2833.54
881.855	3074.41
885.667	2133.92
889.476	1204.08
893.284	753.233
897.09	476.428
900.895	399.528
904.698	330.652
908.499	569.802
912.298	1331.98
916.095	3253.17
919.891	3184.39
923.685	1610.65
927.477	854.692
931.267	669.646
935.056	621.654
938.843	550.923
942.628	353.766
946.411	311.511
950.193	233.935
953.973	209.261
957.751	186.871
961.527	297.527
965.302	396.232
969.075	584.984
972.846	990.786
976.615	1863.64
980.383	4559.54
984.149	9197.49
987.913	6095.49
991.675	2680.56
995.436	1313.68
999.195	718.88
1002.95	468.145
1006.71	236.481
1010.46	117.883
1014.21	83.337
1017.96	19.846
1021.71	17.401
1025.46	44.034
1029.2	36.543
1032.95	23.113
1036.69	51.764
1040.43	17.478
1044.17	13.724
1047.9	46.015
1051.64	135.354
1055.37	182.748
1059.1	311.2
1062.83	640.717
1066.56	1282.29
1070.29	3029.93
1074.01	8924.65
1077.73	10912.5
1081.46	3618.5
1085.17	1265.58
1088.89	619.76
1092.61	361.03
1096.32	252.388
1100.04	113.815
1103.75	57.322
1107.46	39.882
1111.16	35.517
1114.87	39.228
1118.57	103.001
1122.28	196.842
1125.98	161.749
1129.67	220.714
1133.37	240.727
1137.07	350.805
1140.76	507.414
1144.45	753.642
1148.14	1031.19
1151.83	1392.12
1155.52	2042.82
1159.21	2859.17
1162.89	4399.01
1166.57	6793.42
1170.25	9950.75
1173.93	10095.9
1177.61	7193.09
1181.28	4189.48
1184.96	2514.97
1188.63	1564.21
1192.3	1066.79
1195.97	743.392
1199.64	578.119
1203.3	487.157
1206.97	407.715
1210.63	330.648
1214.29	231.359
1217.95	172.281
1221.6	152.619
1225.26	108.98
1228.91	115.242
1232.57	134.114
1236.21	133.118
1239.86	125.131
1243.51	47.233
1247.16	26.377
1250.8	58.494
1254.44	41.659
1258.08	42.745
1261.72	59.795
1265.36	101.457
1268.99	80.381
1272.63	44.462
1276.26	49.035
1279.89	50.222
1283.52	21.127
1287.15	8.279
1290.77	9.009
1294.4	43.16
1298.02	23.31
1301.64	37.354
1305.26	21.365
1308.88	31.37
1312.49	57.366
1316.11	37.323
1319.72	64.194
1323.33	114.014
1326.94	122.798
1330.55	86.594
1334.15	96.304
1337.76	57.968
1341.36	21.573
1344.96	0.105
1348.56	7.448
1352.16	11.084
1355.75	22.199
1359.35	39.647
1362.94	75.864
1366.53	44.981
1370.12	62.06
1373.71	7.74
1377.3	57.167
1380.88	34.097
1384.46	24.038
1388.05	18.957
1391.63	53.791
1395.2	21.557
1398.78	42.28
1402.36	69.12
1405.93	88.683
1409.5	1.127
1413.07	16.149
1416.64	9.171
1420.21	49.493
1423.78	24.175
1427.34	52.126
1430.9	59.455
1434.46	55.053
1438.02	49.862
1441.58	155.428
1445.13	181.992
1448.69	165.07
1452.24	133.785
1455.79	147.971
1459.34	126.599
1462.89	78.048
1466.44	77.746
1469.98	69.944
1473.53	84.607
1477.07	37.684
1480.61	118.539
1484.14	96.936
1487.68	108.318
1491.22	66.166
1494.75	56.403
1498.28	3.615
1501.81	9.987
1505.34	35.249
1508.87	5.591
1512.4	19.614
1515.92	0
