Measurement: Raman, 514 nm, ccw, Raman Data Processed
Mineral: Datolite
Rruff sample: R050136
Ideal chemistry: CaBSiO_4_(OH)
Locality: Charcas, San Luis Potosi, Mexico
Source: Dave Bunk Minerals
Description: Pale green tabular crystals
Measured chemistry: Ca_1.00_BSi_1.00_O_4_(OH) ; trace amounts of Fe; B and OH estimated by stoichiometry end charge balance
Pin_id: L00270
Orientation: Laser parallel to -c* (0 0 -1). Fiducial mark perpendicular to laser is parallel to -a [-1 0 0]
Raman shift (cm-1)	intensity
101.036	0
105.212	10.966
109.387	31.172
113.559	109.058
117.729	125.599
121.897	216.419
126.063	314.446
130.228	882.622
134.39	1426.98
138.55	699.137
142.709	385.472
146.865	508.672
151.019	929.763
155.171	2636.45
159.322	14073.1
163.47	37792.8
167.617	37529.7
171.761	9207.8
175.904	4605.65
180.044	3062.56
184.183	1144.31
188.319	1066.35
192.454	1186.37
196.586	887.904
200.717	766.647
204.846	802.166
208.972	1705.18
213.097	5806.92
217.22	13765.8
221.341	10097.1
225.46	2182.64
229.577	607.565
233.692	243.963
237.805	79.742
241.916	47.526
246.025	20.197
250.132	33.934
254.237	2.055
258.34	48.171
262.442	39.292
266.541	44.649
270.639	417.994
274.734	539.779
278.828	230.917
282.919	3.763
287.009	212.243
291.097	855.766
295.183	849.378
299.266	229.294
303.348	43.454
307.428	16.776
311.507	3.158
315.583	82.465
319.657	90.878
323.729	236.271
327.8	619.71
331.868	1902.19
335.935	1893.72
339.999	565.229
344.062	260.653
348.123	168.957
352.182	351.126
356.239	714.009
360.294	1390.7
364.347	1402.05
368.398	690.487
372.448	749.383
376.495	784.605
380.54	1405.32
384.584	3269.94
388.626	8870.67
392.666	14596.5
396.704	7388.17
400.74	2900.78
404.774	1206.35
408.806	679.835
412.836	508.811
416.865	599.737
420.891	974.5
424.916	1291.05
428.939	521.361
432.959	203.526
436.978	265.717
440.996	296.912
445.011	45.399
449.024	47.483
453.036	233.467
457.045	528.358
461.053	545.152
465.059	250.196
469.063	202.098
473.065	194.656
477.065	196.721
481.063	655.714
485.06	1727.5
489.054	4324.23
493.047	4917.87
497.038	1689.43
501.027	579.907
505.014	251.248
508.999	65.448
512.982	44.476
516.964	46.243
520.944	196.733
524.921	197.062
528.897	38.775
532.871	10.042
536.844	39.834
540.814	25.234
544.783	13.638
548.749	111.525
552.714	392.008
556.677	559.33
560.638	557.49
564.597	445.488
568.555	180.322
572.511	91.957
576.464	196.46
580.416	212.948
584.366	436.514
588.315	1114.91
592.261	2347.44
596.206	1918.84
600.148	1261.95
604.089	823.608
608.028	509.591
611.965	253.69
615.901	180.262
619.834	132.535
623.766	193.324
627.696	305.769
631.624	223.629
635.551	312.96
639.475	422.569
643.398	750.392
647.318	1214.69
651.237	2207.31
655.155	3369.57
659.07	2925.61
662.984	3837.44
666.895	6776.53
670.805	7534.43
674.713	5145.86
678.62	4381.07
682.524	5512.7
686.427	11752
690.328	31994.2
694.227	46394.1
698.124	17613.1
702.02	6294.92
705.913	2653.09
709.805	1601.76
713.695	887.278
717.584	734.666
721.47	485.919
725.355	340.042
729.238	277.247
733.119	246.425
736.998	182.097
740.876	181.712
744.752	13.822
748.626	2.604
752.498	62.386
756.368	18.806
760.237	235.816
764.104	339.336
767.969	13.759
771.832	99.069
775.693	22.088
779.553	59.032
783.411	29.326
787.267	59.021
791.122	7.915
794.974	6.541
798.825	38.685
802.674	87.751
806.522	74.68
810.367	172.403
814.211	138.014
818.053	326.586
821.893	763.173
825.732	1717.75
829.568	2301.39
833.403	1317.12
837.236	526.888
841.068	314.437
844.898	105.864
848.726	79.246
852.552	149.846
856.376	261.468
860.199	258.541
864.02	632.453
867.839	555.379
871.656	630.319
875.472	987.278
879.286	1485.26
883.098	2000.32
886.909	1612.34
890.717	1299.27
894.524	1106.12
898.33	1236.74
902.133	1604.21
905.935	2404.22
909.735	3911.89
913.533	8305.92
917.33	16180.4
921.124	13456.5
924.918	6396.77
928.709	3376.55
932.499	2123.94
936.286	1557.63
940.073	1410.15
943.857	1229.87
947.64	1159.83
951.421	1055.78
955.2	1009.57
958.978	958.887
962.753	896.53
966.527	1041.11
970.3	1167
974.071	1536.77
977.84	3178.08
981.607	6998.15
985.372	10751.6
989.136	7479.84
992.898	3260.2
996.659	1658.73
1000.42	1259.17
1004.17	813.998
1007.93	615.198
1011.68	563.146
1015.43	335.3
1019.18	317.704
1022.93	301.941
1026.68	225.312
1030.42	145.742
1034.17	151.229
1037.91	218.768
1041.65	291.358
1045.39	262.993
1049.12	324.709
1052.86	337.512
1056.59	576.415
1060.33	813.377
1064.06	1333.38
1067.78	2191.56
1071.51	5174.6
1075.23	15781.7
1078.96	20103.4
1082.68	8307.02
1086.4	3241.25
1090.12	1437.88
1093.83	753.254
1097.55	624.275
1101.26	285.393
1104.97	215.431
1108.68	99.175
1112.39	143.113
1116.1	4.562
1119.8	5.853
1123.5	125.802
1127.2	37.669
1130.9	128.483
1134.6	147.262
1138.3	203.896
1141.99	61.663
1145.69	110.976
1149.38	147.615
1153.07	8.257
1156.76	111.437
1160.44	43.447
1164.13	299.4
1167.81	584.395
1171.49	704.627
1175.17	507.109
1178.85	593.438
1182.52	369.086
1186.2	297.271
1189.87	220.263
1193.54	346.166
1197.21	371.391
1200.88	387.418
1204.55	661.639
1208.21	452.51
1211.88	226.248
1215.54	345.677
1219.2	308.885
1222.86	198.975
1226.51	222.743
1230.17	75.279
1233.82	127.57
1237.47	213.598
1241.12	227.412
1244.77	117.975
1248.42	181.137
1252.06	238.941
1255.71	84.299
1259.35	51.85
1262.99	0.412
1266.63	243.498
1270.26	194.193
1273.9	161.854
1277.53	21.248
1281.16	117.271
1284.8	101.621
1288.42	34.074
1292.05	195.992
1295.68	5.74
1299.3	11.354
1302.92	18.701
1306.55	87.99
1310.16	166.672
1313.78	46.002
1317.4	228.975
1321.01	135.588
1324.62	39.904
1328.24	256.939
1331.85	210.723
1335.45	141.264
1339.06	228.568
1342.66	175.646
1346.27	295.508
1349.87	387.17
1353.47	439.666
1357.07	346.021
1360.66	458.262
1364.26	235.855
1367.85	358.996
1371.44	422.699
1375.04	372.443
1378.62	359.453
1382.21	439.656
1385.8	555.184
1389.38	339.971
1392.96	459.422
1396.54	437.375
1400.12	342.412
1403.7	263.564
1407.28	265.607
1410.85	172.143
1414.42	405.611
1417.99	230.85
1421.56	327.668
1425.13	280.557
1428.7	266.359
1432.26	404.488
1435.83	389.469
1439.39	541.262
1442.95	444.666
1446.51	402.25
1450.06	429.336
1453.62	569.668
1457.17	552.398
1460.73	538.111
1464.28	387.428
1467.83	297.494
1471.37	342.852
1474.92	243.965
1478.46	295.35
1482.01	171.053
1485.55	329.191
1489.09	222.195
1492.63	144.611
1496.16	295.674
1499.7	172.303
1503.23	209.967
1506.76	329.557
1510.29	162.061
1513.82	252.184
1517.35	3.207
1520.88	0
