Measurement: Raman, , ccw, Raman Data Processed
Mineral: Davidlloydite
Rruff sample: R130015
Ideal chemistry: Zn^2+^_3_(As^5+^O_4_)_2_4H_2_O
Locality: Tsumeb mine, Otjikoto region, Namibia
Source: Frank C. Hawthorne
Description: Aggregates of subparallel to slightly diverging prisms lying partly on and partly embedded in ﬁne-grained calcioandyrobertsite. Type sample. Data from Hawthorne et al. (2012)
Measured chemistry: (Zn_2.53_Cu_0.39_)As_2.03_O_8_·4H_2_O
Raman shift (cm-1)	intensity
100	0
104.047	14.1899
108.095	36.9963
112.142	355.787
116.189	926.722
120.237	845.347
124.284	448.456
128.331	164.05
132.379	88.3865
136.426	127.235
140.473	33.3914
144.521	100.482
148.568	23.3933
152.615	173.744
156.662	1202.42
160.71	853.373
164.757	1454.48
168.804	2553.01
172.852	1341.09
176.899	968.671
180.946	1132.72
184.994	1226.66
189.041	1049.55
193.088	1434.98
197.136	1734.04
201.183	1667.89
205.23	2762.62
209.278	5192.03
213.325	2740.56
217.372	1108.27
221.42	577.961
225.467	411.496
229.514	203.467
233.562	254.071
237.609	339.649
241.656	406.444
245.704	678.073
249.751	938.973
253.798	1358.45
257.846	1513.22
261.893	1320.63
265.94	1061.89
269.988	763.479
274.035	561.02
278.082	412.327
282.13	414.041
286.177	715.461
290.224	941.38
294.272	924.458
298.319	855.666
302.366	1050.64
306.413	852.048
310.461	351.783
314.508	80.3579
318.555	58.6074
322.603	15.938
326.65	14.9434
330.697	30.4199
334.745	82.8555
338.792	152.295
342.839	326.404
346.887	496.892
350.934	517.445
354.981	438.655
359.029	179.556
363.076	131.442
367.123	62.0957
371.171	28.9722
375.218	16.9663
379.265	9.36279
383.313	129.026
387.36	132.856
391.407	200.182
395.455	242.17
399.502	225.475
403.549	233.111
407.596	518.345
411.644	858.672
415.691	1271.29
419.738	1601.67
423.786	1534.17
427.833	1560.17
431.88	1931.07
435.928	2335.98
439.975	3270.31
444.022	4701.8
448.07	6621.18
452.117	7102.12
456.164	5635.36
460.212	3795.05
464.259	2712.44
468.306	2181.2
472.354	1954.39
476.401	1937.26
480.448	2067.9
484.496	2404.23
488.543	2679.07
492.59	2966.47
496.638	3147.7
500.685	3291.1
504.732	3184.46
508.78	2819.19
512.827	2426.3
516.874	2111.95
520.922	1848.73
524.969	1422.25
529.016	1040.49
533.063	896.436
537.111	729.543
541.158	680.04
545.206	855.824
549.253	735.856
553.3	544.349
557.347	419.557
561.395	170.236
565.442	24.3901
569.489	8.68359
573.537	27.9072
577.584	16.8569
581.631	76.5938
585.679	59.2353
589.726	93.8115
593.773	169.605
597.821	245.762
601.868	353.183
605.915	285.71
609.963	360.693
614.01	255
618.057	192.634
622.105	181.695
626.152	197.886
630.199	232.828
634.247	232.044
638.294	317.627
642.341	259.068
646.389	122.732
650.436	207.87
654.483	29.3691
658.53	47.0527
662.578	77.0664
666.625	68.4453
670.673	19.7544
674.72	2.34326
678.767	94.1299
682.814	60.2085
686.862	73.376
690.909	52.9951
694.956	7.27295
699.004	25.4214
703.051	12.2095
707.098	22.8389
711.146	16.3306
715.193	27.918
719.24	144.934
723.288	159.713
727.335	244.609
731.382	221.728
735.43	179.796
739.477	402.274
743.524	257.843
747.572	336.499
751.619	313.4
755.666	342.563
759.714	416.329
763.761	473.64
767.808	534.984
771.856	678.702
775.903	627.174
779.95	597.455
783.997	659.729
788.045	734.993
792.092	857.783
796.139	971.516
800.187	1205.86
804.234	1670.55
808.281	2269.44
812.329	3043.32
816.376	4085.1
820.423	5290.32
824.471	6535.44
828.518	8001.49
832.565	10498.4
836.613	12425.8
840.66	11957.7
844.707	12817.6
848.755	15202.1
852.802	17874.1
856.849	20389.8
860.897	18860.2
864.944	13806.9
868.991	9105.87
873.039	6099.31
877.086	4174.12
881.133	2917.75
885.181	2307.07
889.228	1712.25
893.275	1415.18
897.323	1143.11
901.37	967.22
905.417	824.126
909.465	788.747
913.512	802.932
917.559	642.995
921.606	516.363
925.654	403.519
929.701	386.448
933.748	323.334
937.796	224.448
941.843	175.095
945.89	43.3745
949.938	53.4048
953.985	26.1621
958.032	32.148
962.08	53.7817
966.127	27.1719
970.174	53.9365
974.222	52.9477
978.269	47.2891
982.316	51.417
986.364	43.0566
990.411	33.2632
994.458	114.47
998.506	112.782
1002.55	300.15
1006.6	296.101
1010.65	270.933
1014.7	218.298
1018.74	189.738
1022.79	275.653
1026.84	258.878
1030.88	373.489
1034.93	238.389
1038.98	355.511
1043.03	271.269
1047.07	240.857
1051.12	197.071
1055.17	187.717
1059.21	113.727
1063.26	46.5015
1067.31	67.3691
1071.36	15.3779
1075.4	70.2339
1079.45	20.6089
1083.5	13.8013
1087.55	31.5508
1091.59	41.6543
1095.64	82.0503
1099.69	53.3574
1103.74	88.7607
1107.78	171.178
1111.83	285.248
1115.88	277.397
1119.92	260.803
1123.97	233.237
1128.02	229.085
1132.07	340.657
1136.12	223.566
1140.16	307.537
1144.21	287.998
1148.26	252.481
1152.3	269.67
1156.35	278.81
1160.4	226.428
1164.45	211.778
1168.49	213.366
1172.54	191.79
1176.59	118.288
1180.63	204.996
1184.68	165.872
1188.73	199.197
1192.78	204.811
1196.82	48.7993
1200.87	46.5981
1204.92	60.8589
1208.97	68.4644
1213.01	68.4292
1217.06	144.701
1221.11	81.2129
1225.16	140.289
1229.2	178.225
1233.25	178.766
1237.3	151.929
1241.35	209.235
1245.39	217.675
1249.44	148.205
1253.49	126.823
1257.53	105.363
1261.58	169.421
1265.63	132.779
1269.68	167.756
1273.72	230.948
1277.77	163.728
1281.82	72.7056
1285.87	29.9385
1289.91	108.178
1293.96	112.755
1298.01	104.149
1302.06	29.4331
1306.1	60.856
1310.15	65.3423
1314.2	40.9028
1318.24	57.3877
1322.29	53.4067
1326.34	15.669
1330.39	37.5981
1334.43	9.29443
1338.48	67.3936
1342.53	14.8145
1346.58	46.4614
1350.62	69.1055
1354.67	17.8081
1358.72	40.0513
1362.77	86.9775
1366.81	30.6807
1370.86	131.802
1374.91	45.9351
1378.95	76.8696
1383	110.971
1387.05	84.1313
1391.1	77.9321
1395.14	77.5107
1399.19	0.257813
