Measurement: Raman, 514 nm, ccw, Raman Data Processed
Mineral: Diamond
Rruff sample: R050205
Ideal chemistry: C
Locality: Unknown
Source: Eric Van Valkenburg
Description: Single crystal, type IIA
Pin_id: L00376
Orientation: Laser parallel to a* (1 0 0). Fiducial mark perpendicular to laser is parallel to c [0 0 1]
Raman shift (cm-1)	intensity
114.44	0
119.365	77.5295
124.288	56.3066
129.209	45.0203
134.127	182.926
139.043	43.4834
143.956	158.281
148.867	81.4983
153.775	136.654
158.681	93.2974
163.585	121.103
168.486	173.893
173.385	84.5476
178.282	164.977
183.176	189.193
188.067	166.206
192.956	186.459
197.843	146.981
202.727	181.739
207.609	176.783
212.489	163.197
217.366	103.972
222.24	125.098
227.112	154.533
231.982	199.27
236.849	247.372
241.714	198.757
246.577	171.377
251.437	221.416
256.294	96.7803
261.149	149.593
266.002	102.411
270.852	153.881
275.7	177.411
280.545	165.095
285.388	92.1548
290.229	114.606
295.067	84.4001
299.902	185.501
304.735	154.428
309.566	146.066
314.394	82.978
319.22	51.1873
324.043	23.7412
328.864	76.2971
333.682	133.047
338.498	1.97339
343.311	126.075
348.122	64.3491
352.931	22.4609
357.737	112.068
362.54	66.8323
367.341	45.7502
372.14	53.8174
376.936	24.9605
381.73	4.36621
386.521	10.1648
391.31	43.4983
396.096	45.5085
400.88	0.538086
405.661	54.5452
410.44	41.0369
415.216	39.0571
419.99	22.3423
424.761	49.3928
429.53	52.1455
434.297	54.0828
439.061	37.1643
443.822	43.5239
448.581	31.8667
453.337	73.6704
458.091	22.751
462.843	2.09668
467.592	127.664
472.338	19.1291
477.082	18.3411
481.824	115.562
486.563	101.745
491.3	30.9744
496.034	49.3428
500.765	36.5217
505.494	76.2539
510.221	73.8469
514.945	68.5261
519.666	88.4185
524.385	55.9285
529.102	73.6592
533.816	83.6216
538.527	114.471
543.236	45.3616
547.943	73.4468
552.647	51.7602
557.348	95.4116
562.047	89.1624
566.744	38.615
571.438	28.646
576.129	96.1318
580.818	64.1614
585.504	59.4597
590.188	11.3237
594.87	11.7432
599.549	19.8496
604.225	62.3452
608.899	89.3867
613.57	59.1316
618.239	39.8997
622.905	61.6975
627.569	127.54
632.23	86.7234
636.889	100.601
641.545	23.5205
646.198	91.8335
650.849	64.8591
655.498	64.906
660.144	22.968
664.787	74.0786
669.428	15.1946
674.067	71.3198
678.703	3.14673
683.336	42.3113
687.967	28.1697
692.595	18.2793
697.221	77.4617
701.844	10.7573
706.465	7.521
711.083	8.60107
715.698	44.3887
720.311	2.54102
724.922	40.294
729.53	5.23096
734.135	111.88
738.738	27.8994
743.338	105.04
747.936	58.0386
752.531	101.08
757.124	80.084
761.714	16.0933
766.302	83.1074
770.887	36.1343
775.469	42.1865
780.049	111.713
784.626	140.872
789.201	159.977
793.773	93.5454
798.343	219.455
802.91	121.105
807.475	123.942
812.037	136.091
816.596	63.6328
821.153	150.35
825.707	37.8462
830.259	72.9658
834.808	5.1416
839.355	35.834
843.899	10.8496
848.441	57.7026
852.98	86.9214
857.516	46.1167
862.05	110.324
866.581	55.5942
871.11	6.89111
875.636	59.2178
880.159	31.5498
884.68	95.5806
889.199	74.9399
893.714	49.3135
898.228	96.6865
902.738	16.082
907.246	65.4853
911.752	21.1055
916.255	42.2456
920.755	33.9282
925.253	82.355
929.748	0.639648
934.241	17.2051
938.731	32.4932
943.218	40.7559
947.703	91.9707
952.186	19.2368
956.665	87.4883
961.142	62.189
965.617	83.4932
970.089	84.5947
974.558	132.954
979.025	39.061
983.489	38.6821
987.951	12.3745
992.41	59.8501
996.866	31.4175
1001.32	49.9985
1005.77	45.5371
1010.22	36.1196
1014.67	68.5562
1019.11	96.1411
1023.55	143.721
1027.99	59.1562
1032.42	100.739
1036.86	68.3223
1041.29	48.9043
1045.72	13.187
1050.14	23.5996
1054.56	97.5127
1058.98	88.1016
1063.4	1.67773
1067.82	93.7129
1072.23	109.108
1076.64	48.749
1081.05	64.9053
1085.45	83.1362
1089.85	83.5615
1094.25	59.9585
1098.65	78.0068
1103.04	131.41
1107.43	156.824
1111.82	62.9434
1116.21	88.3106
1120.59	107.64
1124.97	132.99
1129.35	66.291
1133.73	19.6245
1138.1	63.1084
1142.47	11.2607
1146.84	54.5903
1151.21	106.542
1155.57	51.2827
1159.93	87.6372
1164.29	58.0161
1168.64	46.4175
1172.99	63.8452
1177.34	113.286
1181.69	28.791
1186.04	96.603
1190.38	26.001
1194.72	36.2881
1199.05	93.8848
1203.39	97.5044
1207.72	14.8232
1212.05	49.8477
1216.37	57.5571
1220.7	43.3071
1225.02	191.632
1229.34	129.431
1233.65	33.2402
1237.97	53.0781
1242.28	30.7944
1246.59	52.5908
1250.89	38.3052
1255.19	88.0513
1259.49	69.8643
1263.79	75.3223
1268.09	64.521
1272.38	21.4038
1276.67	119.322
1280.95	33.2764
1285.24	31.8857
1289.52	42.9697
1293.8	66.0337
1298.08	36.5576
1302.35	31.9688
1306.62	117.171
1310.89	143.416
1315.15	252.268
1319.42	451.217
1323.68	1000.66
1327.94	5487.15
1332.19	47051.9
1336.44	11842.7
1340.69	1415.31
1344.94	489.944
1349.19	272.466
1353.43	173.22
1357.67	167.339
1361.9	122.293
1366.14	85.1587
1370.37	153.339
1374.6	57.3457
1378.83	35.292
1383.05	174.286
1387.27	59.3242
1391.49	116.531
1395.7	62.6943
1399.92	95.8345
1404.13	64.0093
1408.34	15.7759
1412.54	9.48877
1416.74	49.7451
1420.94	4.07861
1425.14	60.9736
1429.34	16.3174
1433.53	61.9102
1437.72	48.4629
1441.9	54.5913
1446.09	43.9175
1450.27	131.692
1454.45	77.2388
1458.63	39.876
1462.8	12.5469
1466.97	88.291
1471.14	12.8237
1475.31	127.319
1479.47	97.1411
1483.63	14.3833
1487.79	72.7109
1491.94	78.1675
1496.09	47.1289
1500.24	144.936
1504.39	72.1367
1508.54	131.049
1512.68	14.3501
1516.82	130.255
1520.95	149.613
1525.09	107.776
1529.22	102.705
1533.35	49.064
1537.47	149.983
1541.6	32.5117
1545.72	53.4145
1549.83	86.4697
1553.95	88.5757
1558.06	47.5327
1562.17	83.1255
1566.28	0.606445
1570.38	0
