Measurement: Raman, 514 nm, ccw, Raman Data Processed
Mineral: Diamond
Rruff sample: R050206
Ideal chemistry: C
Locality: Unknown
Source: Eric Van Valkenburg
Description: Single crystal, type IIA
Pin_id: L01807
Orientation: Laser parallel to a* (1 0 0). Fiducial mark perpendicular to laser is parallel to c [0 0 1]
Raman shift (cm-1)	intensity
114.44	0
119.365	81.6204
124.288	74.6416
129.209	21.574
134.127	116.077
139.043	94.887
143.956	102.731
148.867	115.871
153.775	210.857
158.681	133.257
163.585	194.785
168.486	167.274
173.385	148.623
178.282	120.769
183.176	200.667
188.067	190.314
192.956	208.195
197.843	158.269
202.727	194.703
207.609	200.467
212.489	273.565
217.366	252.042
222.24	172.87
227.112	163.03
231.982	172.792
236.849	190.766
241.714	141.134
246.577	149.963
251.437	214.475
256.294	237.237
261.149	179.999
266.002	71.6504
270.852	175.976
275.7	189.996
280.545	180.034
285.388	174.301
290.229	91.4814
295.067	40.2822
299.902	73.4043
304.735	163.831
309.566	125.523
314.394	119.443
319.22	56.6216
324.043	76.0254
328.864	104.637
333.682	54.4565
338.498	49.4551
343.311	14.356
348.122	98.7139
352.931	4.73731
357.737	114.164
362.54	51.0542
367.341	41.751
372.14	89.4243
376.936	41.2349
381.73	16.0498
386.521	75.7285
391.31	72.5376
396.096	18.9009
400.88	24.3115
405.661	85.7305
410.44	30.0767
415.216	60.6162
419.99	8.76855
424.761	54.1416
429.53	119.202
434.297	87.3828
439.061	65.7227
443.822	17.6748
448.581	113.314
453.337	34.0747
458.091	57.936
462.843	48.2407
467.592	15.3101
472.338	11.4858
477.082	14.7979
481.824	47.21
486.563	24.4775
491.3	106.078
496.034	76.6592
500.765	96.3115
505.494	65.1338
510.221	42.477
514.945	77.2593
519.666	82.9722
524.385	73.7549
529.102	16.9253
533.816	62.2344
538.527	31.2231
543.236	49.5283
547.943	98.6367
552.647	55.8174
557.348	23.4814
562.047	77.1602
566.744	84.3467
571.438	156.733
576.129	71.4634
580.818	30.0928
585.504	123.512
590.188	83.9731
594.87	98.4995
599.549	40.0786
604.225	46.6543
608.899	112.365
613.57	88.7803
618.239	57.4228
622.905	121.129
627.569	90.5684
632.23	143.91
636.889	76.6826
641.545	112.291
646.198	43.458
650.849	1.82666
655.498	67.6143
660.144	80.9858
664.787	32.5459
669.428	60.4365
674.067	89.313
678.703	98.1616
683.336	85.0254
687.967	114.91
692.595	3.80322
697.221	59.9297
701.844	119.626
706.465	96.3823
711.083	107.126
715.698	0.87793
720.311	75.7017
724.922	39.9058
729.53	165.466
734.135	85.2202
738.738	106.81
743.338	163.221
747.936	174.902
752.531	65.5708
757.124	68.6699
761.714	162.497
766.302	79.4961
770.887	147.336
775.469	123.011
780.049	116.736
784.626	189.657
789.201	190.508
793.773	171.78
798.343	262.922
802.91	339.736
807.475	144.038
812.037	140.523
816.596	110.394
821.153	246.264
825.707	169.132
830.259	45.5376
834.808	88.4185
839.355	98.6646
843.899	131.478
848.441	119.421
852.98	115.448
857.516	123.731
862.05	79.7041
866.581	9.59033
871.11	137.481
875.636	76.4448
880.159	34.3916
884.68	89.749
889.199	75.4443
893.714	1.43164
898.228	156.333
902.738	72.2798
907.246	98.2295
911.752	102.183
916.255	30.1445
920.755	3.02881
925.253	84.9858
929.748	51.9736
934.241	16.6977
938.731	20.0884
943.218	108.276
947.703	23.189
952.186	57.3501
956.665	83.0478
961.142	141.982
965.617	97.3784
970.089	143.392
974.558	107.468
979.025	72.5532
983.489	97.3765
987.951	109.522
992.41	34.5786
996.866	25.7866
1001.32	40.8897
1005.77	76.835
1010.22	114.057
1014.67	37.0776
1019.11	75.3867
1023.55	84.5249
1027.99	12.8789
1032.42	112.352
1036.86	145.509
1041.29	143.578
1045.72	18.8189
1050.14	4.62891
1054.56	105.194
1058.98	56.1655
1063.4	54.3897
1067.82	151.949
1072.23	28.5073
1076.64	10.6411
1081.05	88.79
1085.45	41.0312
1089.85	54.2808
1094.25	77.541
1098.65	44.0586
1103.04	41.6494
1107.43	76.0874
1111.82	118.616
1116.21	113.843
1120.59	113.081
1124.97	62.3281
1129.35	113.586
1133.73	35.9834
1138.1	55.2612
1142.47	70.4761
1146.84	32.2705
1151.21	26.9277
1155.57	17.1396
1159.93	92.4009
1164.29	67.6484
1168.64	59.9126
1172.99	104.196
1177.34	92.501
1181.69	66.3452
1186.04	15.6865
1190.38	25.6172
1194.72	63.9976
1199.05	11.5986
1203.39	109.814
1207.72	82.7959
1212.05	98.291
1216.37	87.8164
1220.7	53.3726
1225.02	52.9785
1229.34	7.86475
1233.65	4.31592
1237.97	159.278
1242.28	48.2602
1246.59	87.0674
1250.89	42.7793
1255.19	75.5498
1259.49	64.4062
1263.79	32.4214
1268.09	74.6562
1272.38	106.666
1276.67	35.8765
1280.95	10.9932
1285.24	70.4873
1289.52	93.7129
1293.8	124.007
1298.08	78.0742
1302.35	104.464
1306.62	209.902
1310.89	225.082
1315.15	391.723
1319.42	643.316
1323.68	2000.95
1327.94	17022.4
1332.19	55621.1
1336.44	10868
1340.69	1462.82
1344.94	590.75
1349.19	268.726
1353.43	285.777
1357.67	76.3135
1361.9	201.533
1366.14	101.289
1370.37	76.3227
1374.6	137.702
1378.83	19.145
1383.05	169.931
1387.27	17.0835
1391.49	138.684
1395.7	142.458
1399.92	29.2954
1404.13	110.615
1408.34	28.438
1412.54	18.5581
1416.74	118.967
1420.94	134.76
1425.14	111.575
1429.34	63.4097
1433.53	125.147
1437.72	251.942
1441.9	123.564
1446.09	231.373
1450.27	69.0474
1454.45	39.4194
1458.63	126.895
1462.8	39.4595
1466.97	120.202
1471.14	116.071
1475.31	49.8774
1479.47	132.864
1483.63	77.8408
1487.79	141.867
1491.94	189.105
1496.09	19.228
1500.24	108.461
1504.39	17.165
1508.54	91.3867
1512.68	83.1504
1516.82	111.084
1520.95	53.1792
1525.09	13.7905
1529.22	203.38
1533.35	85.8472
1537.47	80.9502
1541.6	138.825
1545.72	31.0977
1549.83	108.946
1553.95	16.0205
1558.06	41.4883
1562.17	108.349
1566.28	0.038086
1570.38	0
