Measurement: Raman, 514 nm, ccw, Raman Data Processed
Mineral: Diamond
Rruff sample: R050204
Ideal chemistry: C
Locality: Unknown
Source: Eric Van Valkenburg
Description: Single crystal, type IIA
Pin_id: M01891
Orientation: Laser parallel to a* (1 0 0). Fiducial mark perpendicular to laser is parallel to b [0 1 0]
Raman shift (cm-1)	intensity
170.559	0
175.467	3.57617
180.372	103.72
185.274	137.763
190.174	94.5688
195.072	155.296
199.967	103.331
204.859	159.623
209.749	42.8569
214.637	144.141
219.521	173.838
224.404	176.465
229.284	102.876
234.161	177.582
239.036	152.41
243.908	63.5727
248.777	153.822
253.645	76.7803
258.509	179.35
263.371	100.009
268.231	200.362
273.088	202.933
277.942	77.0425
282.794	80.3525
287.643	56.7817
292.49	90.2983
297.335	72.8345
302.176	31.2515
307.015	181.246
311.852	159.018
316.686	14.6577
321.518	143.531
326.347	40.3648
331.173	208.788
335.997	110.03
340.819	78.1338
345.638	199.45
350.454	120.926
355.268	67.2959
360.079	87.5996
364.888	87.6299
369.694	27.688
374.498	5.31445
379.299	46.1714
384.097	162.915
388.893	62.6094
393.686	115.852
398.477	84.4898
403.266	79.4341
408.051	107.69
412.835	166.651
417.615	12.52
422.394	126.708
427.169	85.9209
431.942	176.244
436.713	99.9756
441.481	42.4355
446.246	45.0205
451.009	68.4678
455.769	31.8975
460.527	103.703
465.282	155.449
470.035	103.279
474.785	166.847
479.532	104.501
484.277	73.793
489.02	247.948
493.76	123.035
498.497	77.917
503.232	67.6904
507.964	133.096
512.693	89.3047
517.421	101.286
522.145	87.5762
526.867	209.509
531.587	39.5273
536.303	125.231
541.018	42.0029
545.729	71.8037
550.439	11.2227
555.145	45.04
559.849	130.822
564.551	196.583
569.25	155.06
573.946	121.365
578.64	114.673
583.331	163.511
588.02	139.315
592.706	41.1748
597.39	146.579
602.071	250.586
606.749	172.161
611.425	102.245
616.099	125.66
620.769	199.052
625.438	379.921
630.103	89.3887
634.766	163.879
639.427	220.469
644.085	138.289
648.74	415.845
653.393	307.563
658.044	189.426
662.691	92.5644
667.336	156.398
671.979	65.6856
676.619	105.122
681.257	47.6475
685.892	4.59766
690.524	64.4375
695.154	13.0479
699.781	15.2998
704.406	179.401
709.028	85.1914
713.647	113.58
718.264	128.242
722.878	120.673
727.49	147.744
732.1	39.2119
736.706	33.0361
741.31	61.6738
745.912	74.7207
750.511	186.644
755.107	42.8916
759.701	126.823
764.292	93.6709
768.881	46.7471
773.467	116.495
778.051	40.6191
782.632	82.8516
787.21	95.4072
791.786	180.825
796.359	183.757
800.93	35.5713
805.498	137.864
810.064	146.308
814.627	237.872
819.187	272.307
823.745	292.844
828.301	111.957
832.853	162.164
837.403	212.114
841.951	208.49
846.496	207.323
851.038	219.3
855.578	383.863
860.116	381.516
864.65	204.275
869.183	350.033
873.712	177.934
878.239	260.75
882.764	136.074
887.285	39.7051
891.805	198.096
896.322	177.447
900.836	237.587
905.347	19.7617
909.856	139.323
914.363	147.872
918.867	90.3057
923.368	68.8731
927.867	3.82129
932.363	74.1357
936.856	52.4482
941.347	67.3672
945.836	41.0791
950.322	66.2129
954.805	111.311
959.286	183.278
963.764	39.4531
968.239	41.9727
972.712	157.591
977.183	107.728
981.65	50.3926
986.116	155.22
990.578	38.541
995.038	126.727
999.496	138.782
1003.95	390.007
1008.4	92.1152
1012.85	86.1016
1017.3	175.999
1021.75	297.767
1026.19	170.092
1030.63	188.002
1035.06	60.2598
1039.5	97.6787
1043.93	135.819
1048.36	157.635
1052.79	135.635
1057.21	214.837
1061.63	467.383
1066.05	109.441
1070.47	101.058
1074.88	21.6387
1079.29	266.013
1083.7	55.8477
1088.11	182.325
1092.51	23.1387
1096.91	65.9033
1101.31	205.728
1105.7	36.2803
1110.1	230.154
1114.49	144.469
1118.88	119.231
1123.26	190.942
1127.64	400.706
1132.02	205.028
1136.4	145.519
1140.78	1.70117
1145.15	60.668
1149.52	227.269
1153.89	94.1133
1158.25	275.633
1162.61	302.273
1166.97	51.123
1171.33	62.4746
1175.68	107.842
1180.04	97.8633
1184.39	42.6797
1188.73	110.291
1193.08	72.5195
1197.42	185.33
1201.76	85.5547
1206.1	206.211
1210.43	112.35
1214.76	10.7656
1219.09	87.1328
1223.41	224.801
1227.74	36.3711
1232.06	140.195
1236.38	185.164
1240.69	318.924
1245.01	173.213
1249.32	138.643
1253.63	150.152
1257.93	159.094
1262.23	138.81
1266.54	16.918
1270.83	76.0215
1275.13	103.859
1279.42	284.035
1283.71	123.08
1288	244.666
1292.28	436.346
1296.57	430.232
1300.85	361.211
1305.12	349.391
1309.4	424.383
1313.67	582.473
1317.94	634.615
1322.21	1153.2
1326.47	6525.25
1330.73	31705.1
1334.99	14386.4
1339.25	1407.4
1343.5	630.781
1347.75	328.107
1352	266.785
1356.25	414.18
1360.49	113.635
1364.73	269.637
1368.97	136.703
1373.21	167.223
1377.44	94.334
1381.67	160.615
1385.9	161.644
1390.13	121.436
1394.35	30.5176
1398.57	9.36914
1402.79	55.7051
1407	249.85
1411.22	134.672
1415.43	194.596
1419.63	156.295
1423.84	378.971
1428.04	189.894
1432.24	171.617
1436.44	548.994
1440.63	643.17
1444.83	475.816
1449.02	536.104
1453.2	595.523
1457.39	635.973
1461.57	441.469
1465.75	358.93
1469.93	193.617
1474.1	361.305
1478.27	239.691
1482.44	288.768
1486.61	272.006
1490.77	101.215
1494.93	215.193
1499.09	34.3945
1503.25	241.228
1507.4	176.34
1511.55	204.369
1515.7	158.279
1519.85	17.582
1523.99	200.412
1528.13	245.57
1532.27	43.8086
1536.4	369.625
1540.54	268.369
1544.67	90.875
1548.8	362.606
1552.92	65.7266
1557.05	47.209
1561.16	52.2637
1565.28	0
