Measurement: Raman, 514 nm, ccw, Raman Data Processed
Mineral: Diamond
Rruff sample: R050207
Ideal chemistry: C
Locality: Unknown
Source: Eric Van Valkenburg
Description: Single crystal,  type I
Pin_id: L01129
Orientation: Laser parallel to a* (1 0 0). Fiducial mark perpendicular to laser is parallel to c [0 0 1]
Raman shift (cm-1)	intensity
114.44	0
119.365	21.0113
124.288	36.2921
129.209	4.44861
134.127	12.7092
139.043	38.8519
143.956	31.6094
148.867	47.8481
153.775	0.443848
158.681	63.3135
163.585	67.3915
168.486	75.6363
173.385	24.2297
178.282	59.9058
183.176	26.4335
188.067	27.5084
192.956	55.4485
197.843	28.4254
202.727	12.4182
207.609	15.4635
212.489	76.5383
217.366	32.6456
222.24	45.229
227.112	23.474
231.982	29.6333
236.849	42.8466
241.714	47.0983
246.577	58.8888
251.437	49.7151
256.294	14.0519
261.149	78.8193
266.002	63.7865
270.852	29.8479
275.7	37.619
280.545	51.7616
285.388	23.6869
290.229	33.9625
295.067	33.8727
299.902	22.8794
304.735	19.4479
309.566	29.0917
314.394	21.5659
319.22	49.0718
324.043	18.748
328.864	22.2982
333.682	37.8656
338.498	29.4529
343.311	32.1243
348.122	6.22913
352.931	61.8667
357.737	58.5195
362.54	48.3505
367.341	25.0321
372.14	6.68408
376.936	5.34875
381.73	6.03857
386.521	20.7495
391.31	37.4714
396.096	36.2048
400.88	54.9493
405.661	43.6786
410.44	1.39856
415.216	39.1351
419.99	21.877
424.761	2.37524
429.53	40.3916
434.297	9.81763
439.061	43.9648
443.822	26.759
448.581	22.566
453.337	33.3931
458.091	49.6641
462.843	64.5133
467.592	42.3687
472.338	30.6664
477.082	34.0378
481.824	17.085
486.563	18.7628
491.3	23.6268
496.034	22.4855
500.765	63.3519
505.494	49.2214
510.221	43.0938
514.945	38.9497
519.666	25.9972
524.385	40.9108
529.102	24.8071
533.816	34.7084
538.527	34.6143
543.236	48.5316
547.943	29.8961
552.647	44.8151
557.348	53.7401
562.047	11.1832
566.744	38.9628
571.438	11.7262
576.129	74.0933
580.818	19.0658
585.504	47.0424
590.188	38.4742
594.87	48.7799
599.549	30.7847
604.225	85.7938
608.899	16.6582
613.57	69.6704
618.239	49.6733
622.905	34.6068
627.569	50.6093
632.23	5.73377
636.889	33.9658
641.545	35.9749
646.198	54.8224
650.849	41.8357
655.498	10.8726
660.144	61.8911
664.787	33.8806
669.428	57.8635
674.067	2.84863
678.703	34.8356
683.336	35.8241
687.967	0.834351
692.595	47.1393
697.221	21.9171
701.844	49.9518
706.465	22.0051
711.083	47.0419
715.698	47.457
720.311	39.5012
724.922	57.5731
729.53	2.00293
734.135	39.022
738.738	7.18408
743.338	13.2069
747.936	62.2893
752.531	51.8898
757.124	44.7626
761.714	24.1277
766.302	33.1736
770.887	2.79675
775.469	12.2288
780.049	107.254
784.626	10.282
789.201	46.3636
793.773	37.4283
798.343	45.3302
802.91	33.3718
807.475	57.4362
812.037	22.5011
816.596	40.5662
821.153	80.6244
825.707	24.6903
830.259	68.7797
834.808	51.8954
839.355	50.0712
843.899	28.2094
848.441	43.5443
852.98	5.67664
857.516	14.7831
862.05	18.0492
866.581	9.50732
871.11	14.5373
875.636	46.5293
880.159	43.5896
884.68	1.64624
889.199	25.7427
893.714	38.8484
898.228	49.9271
902.738	32.9773
907.246	30.2548
911.752	36.3214
916.255	43.384
920.755	25.4425
925.253	40.6339
929.748	54.6802
934.241	59.7407
938.731	43.8197
943.218	32.8943
947.703	81.9638
952.186	16.0265
956.665	13.082
961.142	11.5188
965.617	27.6067
970.089	30.7502
974.558	70.7553
979.025	52.9586
983.489	45.9336
987.951	73.5154
992.41	67.4653
996.866	102.374
1001.32	61.9187
1005.77	43.6692
1010.22	96.9651
1014.67	33.8781
1019.11	29.7122
1023.55	4.60327
1027.99	64.8654
1032.42	66.731
1036.86	60.5861
1041.29	47.8473
1045.72	65.6941
1050.14	53.5304
1054.56	4.64343
1058.98	53.2722
1063.4	65.0038
1067.82	60.7256
1072.23	30.8798
1076.64	85.2669
1081.05	60.3905
1085.45	35.8403
1089.85	32.75
1094.25	30.3893
1098.65	29.9999
1103.04	55.8661
1107.43	16.8678
1111.82	52.5999
1116.21	89.0389
1120.59	68.4935
1124.97	110.953
1129.35	15.2484
1133.73	12.7114
1138.1	75.8732
1142.47	50.3092
1146.84	50.8133
1151.21	27.2561
1155.57	21.6197
1159.93	22.0845
1164.29	49.531
1168.64	12.0094
1172.99	41.4321
1177.34	25.8929
1181.69	51.3633
1186.04	63.2978
1190.38	24.1846
1194.72	94.6517
1199.05	8.86572
1203.39	9.6344
1207.72	2.83984
1212.05	68.6992
1216.37	48.2571
1220.7	1.84314
1225.02	35.0727
1229.34	39.5358
1233.65	0.175415
1237.97	40.6216
1242.28	3.41138
1246.59	16.1985
1250.89	44.0178
1255.19	38.8696
1259.49	54.7742
1263.79	56.7227
1268.09	79.9224
1272.38	50.9182
1276.67	97.9502
1280.95	31.0173
1285.24	79.1482
1289.52	129.304
1293.8	79.4973
1298.08	64.5327
1302.35	166.393
1306.62	165.7
1310.89	320.045
1315.15	495.435
1319.42	909.701
1323.68	2679.19
1327.94	21421.3
1332.19	59412.4
1336.44	13408.9
1340.69	1892.56
1344.94	702.271
1349.19	363.092
1353.43	294.914
1357.67	183.819
1361.9	135.486
1366.14	131.693
1370.37	54.8345
1374.6	98.9658
1378.83	66.1345
1383.05	10.7622
1387.27	55.0571
1391.49	64.4102
1395.7	80.0359
1399.92	39.5361
1404.13	68.8989
1408.34	47.292
1412.54	103.439
1416.74	29.8594
1420.94	47.2341
1425.14	28.7705
1429.34	42.2078
1433.53	24.5825
1437.72	86.9482
1441.9	21.7073
1446.09	49.8992
1450.27	22.0544
1454.45	23.1509
1458.63	19.7202
1462.8	12.6428
1466.97	91.6316
1471.14	39.6702
1475.31	16.7651
1479.47	10.908
1483.63	7.08472
1487.79	6.34668
1491.94	30.644
1496.09	38.0222
1500.24	40.0837
1504.39	48.5657
1508.54	12.1445
1512.68	37.8897
1516.82	56.2146
1520.95	7.90015
1525.09	55.7888
1529.22	92.1243
1533.35	69.5562
1537.47	78.676
1541.6	55.6416
1545.72	48.6799
1549.83	30.3909
1553.95	40.8755
1558.06	110.483
1562.17	44.0115
1566.28	10.8552
1570.38	0
