Measurement: Raman, 514 nm, ccw, Raman Data Processed
Mineral: Diamond
Rruff sample: R050204
Ideal chemistry: C
Locality: Unknown
Source: Eric Van Valkenburg
Description: Single crystal, type IIA
Pin_id: M01891
Orientation: Laser parallel to a* (1 0 0). Fiducial mark perpendicular to laser is parallel to b [0 1 0]
Raman shift (cm-1)	intensity
170.559	0
175.467	2.53418
180.372	78.7188
185.274	66.8633
190.174	44.8291
195.072	78.0312
199.967	211.695
204.859	5.53223
209.749	58.4717
214.637	202.138
219.521	197.137
224.404	129.403
229.284	188.324
234.161	215.56
239.036	159.882
243.908	141.44
248.777	102.186
253.645	17.0703
258.509	191.776
263.371	169.343
268.231	74.1318
273.088	132.745
277.942	206.536
282.794	259.121
287.643	86.4746
292.49	208.253
297.335	102.769
302.176	41.3935
307.015	103.338
311.852	61.165
316.686	99.0644
321.518	9.26074
326.347	72.0703
331.173	208.369
335.997	111.923
340.819	104.478
345.638	180.987
350.454	146.503
355.268	184.336
360.079	202.34
364.888	24.9473
369.694	106.343
374.498	123.126
379.299	182.141
384.097	174.366
388.893	148.375
393.686	212.033
398.477	90.1924
403.266	218.028
408.051	105.845
412.835	142.618
417.615	252.596
422.394	91.1621
427.169	61.8848
431.942	28.1152
436.713	18.8125
441.481	146.278
446.246	143.454
451.009	194.395
455.769	217.546
460.527	79.5029
465.282	201.42
470.035	267.392
474.785	70.7783
479.532	216.989
484.277	118.083
489.02	139.066
493.76	159.907
498.497	10.4102
503.232	186.086
507.964	127.356
512.693	167.427
517.421	91.6758
522.145	84.4277
526.867	210.64
531.587	94.6143
536.303	89.7295
541.018	147.662
545.729	129.558
550.439	136.645
555.145	179.268
559.849	89.4736
564.551	88.7471
569.25	160.438
573.946	164.5
578.64	41.4414
583.331	198.22
588.02	223.512
592.706	84.3867
597.39	237.532
602.071	109.397
606.749	89.3281
611.425	92.6943
616.099	240.708
620.769	226.233
625.438	281.174
630.103	304.731
634.766	203.274
639.427	226.56
644.085	215.091
648.74	482.026
653.393	115.458
658.044	197.794
662.691	77.2744
667.336	113.857
671.979	164.223
676.619	24.0596
681.257	152.233
685.892	123.21
690.524	172.125
695.154	11.9316
699.781	161.915
704.406	121.152
709.028	20.8418
713.647	63.166
718.264	4.83301
722.878	28.8848
727.49	51.0322
732.1	122.836
736.706	13.7207
741.31	104.632
745.912	189.921
750.511	24.7539
755.107	44.9219
759.701	89.8652
764.292	2.55859
768.881	139.652
773.467	245.241
778.051	81.4502
782.632	208.07
787.21	152.695
791.786	104.386
796.359	153.909
800.93	283.572
805.498	49.3545
810.064	223.102
814.627	161.566
819.187	131.796
823.745	232.548
828.301	371.781
832.853	222.78
837.403	370.698
841.951	254.915
846.496	256.299
851.038	345.791
855.578	252.268
860.116	376.668
864.65	250.539
869.183	205.78
873.712	226.502
878.239	246.21
882.764	37.4258
887.285	97.6074
891.805	24.6973
896.322	122.99
900.836	175.523
905.347	16.6855
909.856	26.498
914.363	181.26
918.867	141.801
923.368	49.8379
927.867	224.859
932.363	218.875
936.856	150.744
941.347	92.8867
945.836	15.875
950.322	113.627
954.805	91.5469
959.286	78.6348
963.764	8.56055
968.239	198.193
972.712	29.2988
977.183	137.885
981.65	10.3203
986.116	9.47461
990.578	103.107
995.038	18.3828
999.496	158.326
1003.95	189.231
1008.4	222.188
1012.85	10.5195
1017.3	173.043
1021.75	223.986
1026.19	183.275
1030.63	24.0312
1035.06	228.453
1039.5	82.5566
1043.93	216.356
1048.36	62.8594
1052.79	65.6426
1057.21	132.113
1061.63	218.227
1066.05	226.912
1070.47	158.188
1074.88	207.404
1079.29	156.967
1083.7	1.51562
1088.11	116.725
1092.51	150.426
1096.91	143.244
1101.31	82.6426
1105.7	287.295
1110.1	241.815
1114.49	75.2383
1118.88	69.959
1123.26	187.025
1127.64	344.111
1132.02	90.3828
1136.4	71.0742
1140.78	178.951
1145.15	54.3906
1149.52	16.7031
1153.89	126.312
1158.25	246.438
1162.61	220.172
1166.97	263.211
1171.33	109.086
1175.68	146
1180.04	156.309
1184.39	48.6055
1188.73	32.8262
1193.08	177.441
1197.42	16.3457
1201.76	24.2871
1206.1	68.8906
1210.43	12.293
1214.76	126.873
1219.09	196.541
1223.41	116.326
1227.74	82.709
1232.06	53.3281
1236.38	271.816
1240.69	124.057
1245.01	133.853
1249.32	15.0898
1253.63	231.594
1257.93	296.008
1262.23	251.106
1266.54	318.496
1270.83	67.291
1275.13	304.127
1279.42	205.467
1283.71	187.572
1288	281.172
1292.28	530.967
1296.57	264.301
1300.85	357.969
1305.12	307.498
1309.4	325.67
1313.67	630.42
1317.94	578.43
1322.21	982.08
1326.47	4652.32
1330.73	24957.9
1334.99	11591.3
1339.25	1076.09
1343.5	487.309
1347.75	260.133
1352	318.035
1356.25	387.57
1360.49	82.1875
1364.73	75.9004
1368.97	232.035
1373.21	198.74
1377.44	84.8945
1381.67	261.262
1385.9	89.4336
1390.13	215.953
1394.35	283.475
1398.57	114.144
1402.79	68.9336
1407	147.086
1411.22	83.1231
1415.43	342.213
1419.63	199.096
1423.84	35.7227
1428.04	284.713
1432.24	208.373
1436.44	574.621
1440.63	528.814
1444.83	449.787
1449.02	631.644
1453.2	599.582
1457.39	547.627
1461.57	439.871
1465.75	538.877
1469.93	515.191
1474.1	90.1387
1478.27	135.898
1482.44	265.769
1486.61	143.65
1490.77	225.883
1494.93	120.471
1499.09	226.441
1503.25	77.4043
1507.4	214.512
1511.55	71.4668
1515.7	158.166
1519.85	36.4453
1523.99	132.644
1528.13	57.3379
1532.27	251.078
1536.4	334.943
1540.54	212.959
1544.67	365.852
1548.8	149.461
1552.92	228.65
1557.05	219.477
1561.16	207.721
1565.28	0
