Measurement: Raman, 514 nm, ccw, Raman Data Processed
Mineral: Diamond
Rruff sample: R050205
Ideal chemistry: C
Locality: Unknown
Source: Eric Van Valkenburg
Description: Single crystal, type IIA
Pin_id: L00376
Orientation: Laser parallel to a* (1 0 0). Fiducial mark perpendicular to laser is parallel to c [0 0 1]
Raman shift (cm-1)	intensity
114.44	0
119.365	23.3182
124.288	34.5293
129.209	70.1585
134.127	59.4927
139.043	54.6645
143.956	68.1614
148.867	88.6841
153.775	68.0374
158.681	100.02
163.585	70.5193
168.486	96.4753
173.385	70.8313
178.282	47.5955
183.176	128.69
188.067	65.097
192.956	54.6108
197.843	102.177
202.727	75.9485
207.609	139.925
212.489	102.096
217.366	100.488
222.24	131.013
227.112	137.671
231.982	128.463
236.849	72.2976
241.714	113.319
246.577	63.4719
251.437	93.1926
256.294	156.711
261.149	86.929
266.002	87.9954
270.852	136.816
275.7	123.138
280.545	53.8804
285.388	66.8769
290.229	95.689
295.067	93.949
299.902	96.7737
304.735	67.7061
309.566	68.4102
314.394	27.1848
319.22	98.0664
324.043	113.049
328.864	70.1272
333.682	57.5569
338.498	12.5686
343.311	100.925
348.122	68.3687
352.931	77.9019
357.737	34.5122
362.54	66.1936
367.341	22.9561
372.14	65.7974
376.936	40.7117
381.73	53.6892
386.521	4.73071
391.31	8.88696
396.096	38.2131
400.88	70.4548
405.661	55.7949
410.44	20.22
415.216	19.7947
419.99	64.5439
424.761	0.241699
429.53	49.9878
434.297	6.54126
439.061	22.3743
443.822	18.2703
448.581	100.22
453.337	48.2283
458.091	32.2351
462.843	70.3162
467.592	30.4622
472.338	47.6694
477.082	31.5015
481.824	61.9302
486.563	30.3491
491.3	39.8259
496.034	22.8189
500.765	22.6482
505.494	66.3025
510.221	67.5029
514.945	22.2669
519.666	111.08
524.385	12.9426
529.102	150.888
533.816	13.3987
538.527	91.262
543.236	110.396
547.943	59.4456
552.647	2.53711
557.348	12.7654
562.047	57.5891
566.744	101.736
571.438	46.884
576.129	19.4219
580.818	47.761
585.504	26.6545
590.188	113.613
594.87	47.0327
599.549	65.6025
604.225	9.79199
608.899	68.27
613.57	1.78394
618.239	0.358643
622.905	73.9304
627.569	59.6404
632.23	5.72339
636.889	18.9177
641.545	36.6194
646.198	77.6316
650.849	68.3677
655.498	8.11914
660.144	24.8892
664.787	55.677
669.428	29.4836
674.067	54.2651
678.703	18.9739
683.336	12.8337
687.967	31.6575
692.595	38.4436
697.221	9.70483
701.844	45.0059
706.465	40.866
711.083	38.7498
715.698	110.902
720.311	18.8386
724.922	77.7908
729.53	51.761
734.135	0.743164
738.738	9.22412
743.338	58.7935
747.936	99.8196
752.531	28.8294
757.124	5.875
761.714	81.6899
766.302	12.6685
770.887	65.1885
775.469	33.7993
780.049	15.207
784.626	73.8889
789.201	67.3794
793.773	90.3596
798.343	93.3415
802.91	42.3254
807.475	60.9387
812.037	79.8867
816.596	38.5308
821.153	68.4243
825.707	33.4412
830.259	48.5474
834.808	58.7087
839.355	65.7341
843.899	103.789
848.441	25.0312
852.98	126.883
857.516	55.877
862.05	47.9299
866.581	59.3997
871.11	40.2046
875.636	25.0459
880.159	32.1016
884.68	50.156
889.199	57.2307
893.714	31.6636
898.228	32.2344
902.738	46.1165
907.246	20.1025
911.752	54.7361
916.255	40.5212
920.755	125.316
925.253	84.2664
929.748	31.2141
934.241	35.186
938.731	76.1646
943.218	82.5244
947.703	71.5068
952.186	10.4485
956.665	80.3928
961.142	3.53442
965.617	73.489
970.089	12.4448
974.558	59.4133
979.025	44.8552
983.489	18.1177
987.951	39.0779
992.41	84.0344
996.866	76.9868
1001.32	54.9316
1005.77	35.301
1010.22	71.2212
1014.67	21.4206
1019.11	96.344
1023.55	36.2622
1027.99	22.1191
1032.42	26.49
1036.86	63.4368
1041.29	46.3816
1045.72	36.8633
1050.14	48.2454
1054.56	39.3369
1058.98	70.2434
1063.4	94.1504
1067.82	78.1365
1072.23	107.042
1076.64	117.859
1081.05	32.1838
1085.45	13.4387
1089.85	45.3274
1094.25	12.3096
1098.65	38.1914
1103.04	82.0735
1107.43	14.5254
1111.82	2.62769
1116.21	51.2231
1120.59	50.0815
1124.97	58.9419
1129.35	11.8052
1133.73	9.27002
1138.1	66.1345
1142.47	3.04785
1146.84	49.8088
1151.21	49.6812
1155.57	55.5356
1159.93	60.4255
1164.29	31.3364
1168.64	51.262
1172.99	27.1953
1177.34	7.47388
1181.69	11.0105
1186.04	29.5452
1190.38	69.5554
1194.72	34.417
1199.05	7.55908
1203.39	5.55078
1207.72	32.8418
1212.05	17.1023
1216.37	22.0923
1220.7	35.0991
1225.02	71.937
1229.34	64.9729
1233.65	12.0281
1237.97	107.087
1242.28	46.3923
1246.59	27.49
1250.89	74.6096
1255.19	50.7505
1259.49	0.086182
1263.79	66.6675
1268.09	59.0181
1272.38	53.9853
1276.67	49.2427
1280.95	62.2944
1285.24	110.999
1289.52	80.5691
1293.8	86.9548
1298.08	37.3682
1302.35	110.597
1306.62	114.943
1310.89	224.568
1315.15	315.826
1319.42	451.422
1323.68	1049.47
1327.94	4836.38
1332.19	52908.1
1336.44	12284.8
1340.69	1437.56
1344.94	524.34
1349.19	290.188
1353.43	168.859
1357.67	53.7502
1361.9	133.724
1366.14	121.21
1370.37	56.2192
1374.6	129.315
1378.83	61.324
1383.05	20.3608
1387.27	31.4709
1391.49	5.44019
1395.7	43.7551
1399.92	63.4402
1404.13	19.3247
1408.34	94.9639
1412.54	20.5791
1416.74	11.9053
1420.94	39.2842
1425.14	95.721
1429.34	43.1755
1433.53	30.835
1437.72	28.2913
1441.9	43.9802
1446.09	63.8552
1450.27	61.5586
1454.45	56.0715
1458.63	43.7429
1462.8	59.4802
1466.97	27.2883
1471.14	30.1829
1475.31	79.1472
1479.47	68.188
1483.63	90.1167
1487.79	86.335
1491.94	29.8323
1496.09	63.0239
1500.24	79.2246
1504.39	94.3064
1508.54	57.4851
1512.68	53.1201
1516.82	18.3694
1520.95	80.6726
1525.09	26.9226
1529.22	74.147
1533.35	14.2388
1537.47	77.7481
1541.6	108.69
1545.72	97.9692
1549.83	43.8188
1553.95	15.3665
1558.06	103.842
1562.17	12.531
1566.28	83.0339
1570.38	0
