Measurement: Raman, 514 nm, ccw, Raman Data Processed
Mineral: Diamond
Rruff sample: R050205
Ideal chemistry: C
Locality: Unknown
Source: Eric Van Valkenburg
Description: Single crystal, type IIA
Pin_id: L00376
Orientation: Laser parallel to a* (1 0 0). Fiducial mark perpendicular to laser is parallel to c [0 0 1]
Raman shift (cm-1)	intensity
114.44	0
119.365	4.06714
124.288	27.8855
129.209	22.8999
134.127	23.0886
139.043	70.7498
143.956	12.8816
148.867	60.7703
153.775	23.4358
158.681	33.855
163.585	118.882
168.486	59.4392
173.385	56.4578
178.282	66.9385
183.176	84.8347
188.067	53.0476
192.956	79.3572
197.843	76.7437
202.727	117.281
207.609	163.126
212.489	126.207
217.366	123.433
222.24	108.841
227.112	107.441
231.982	154.177
236.849	92.1938
241.714	123.648
246.577	114.124
251.437	85.9443
256.294	94.5098
261.149	133.485
266.002	47.9519
270.852	145.95
275.7	55.2725
280.545	105.833
285.388	100.095
290.229	92.9714
295.067	70.7107
299.902	2.08887
304.735	43.561
309.566	124.161
314.394	105.88
319.22	71.7097
324.043	35.2664
328.864	94.4656
333.682	69.5889
338.498	73.7996
343.311	27.4605
348.122	55.4844
352.931	4.04614
357.737	49.4998
362.54	52.1177
367.341	63.7944
372.14	87.5439
376.936	11.9487
381.73	8.88281
386.521	16.8633
391.31	129.933
396.096	4.92163
400.88	61.3005
405.661	31.8396
410.44	32.967
415.216	36.4419
419.99	12.0049
424.761	26.6484
429.53	10.3633
434.297	20.3447
439.061	8.5669
443.822	34.2224
448.581	41.0742
453.337	76.99
458.091	67.9675
462.843	31.0532
467.592	28.2092
472.338	70.355
477.082	21.5303
481.824	69.7671
486.563	22.0752
491.3	37.4446
496.034	26.7568
500.765	81.2439
505.494	35.9805
510.221	63.1055
514.945	89.9351
519.666	21.2034
524.385	55.21
529.102	79.6585
533.816	101.712
538.527	82.4985
543.236	36.8689
547.943	71.7832
552.647	22.7302
557.348	14.0281
562.047	32.0459
566.744	95.2319
571.438	62.499
576.129	108.571
580.818	49.7371
585.504	34.1973
590.188	45.3865
594.87	38.6057
599.549	77.8542
604.225	41.1309
608.899	87.0957
613.57	15.5901
618.239	58.9429
622.905	86.686
627.569	84.5432
632.23	58.7871
636.889	126.832
641.545	59.5325
646.198	70.2593
650.849	58.7937
655.498	55.3369
660.144	88.2939
664.787	60.8093
669.428	33.648
674.067	2.85962
678.703	23.6228
683.336	52.8616
687.967	63.3638
692.595	62.9209
697.221	75.5134
701.844	41.0855
706.465	42.6709
711.083	52.2742
715.698	59.3813
720.311	28.0596
724.922	18.7478
729.53	23.4282
734.135	41.1401
738.738	97.8625
743.338	65.572
747.936	0.755127
752.531	80.0051
757.124	16.7683
761.714	41.6399
766.302	72.3782
770.887	36.105
775.469	87.8179
780.049	85.6836
784.626	44.4111
789.201	100.131
793.773	80.0032
798.343	135.28
802.91	99.1387
807.475	50.6597
812.037	135.302
816.596	92.5588
821.153	58.3894
825.707	63.803
830.259	65.6501
834.808	90.2122
839.355	33.0796
843.899	67.9524
848.441	19.8459
852.98	68.8118
857.516	52.7075
862.05	91.7478
866.581	109.225
871.11	90.1606
875.636	53.4634
880.159	42.4085
884.68	115.766
889.199	117.699
893.714	37.3062
898.228	147.919
902.738	24.447
907.246	30.6223
911.752	13.5779
916.255	54.5796
920.755	54.5859
925.253	24.5979
929.748	17.3735
934.241	27.656
938.731	74.7524
943.218	48.792
947.703	40.6096
952.186	101.68
956.665	152.784
961.142	49.8687
965.617	47.1885
970.089	21.1929
974.558	27.3506
979.025	103.277
983.489	12.3235
987.951	27.3845
992.41	60.4526
996.866	23.5476
1001.32	35.6267
1005.77	15.6821
1010.22	60.7336
1014.67	61.7527
1019.11	40.7883
1023.55	68.1472
1027.99	66.5378
1032.42	55.7217
1036.86	73.793
1041.29	27.397
1045.72	40.5176
1050.14	60.4978
1054.56	81.6296
1058.98	65.7681
1063.4	63.9429
1067.82	91.0945
1072.23	23.1599
1076.64	26.5942
1081.05	53.8823
1085.45	90.4959
1089.85	72.9221
1094.25	55.4731
1098.65	54.6074
1103.04	0.272949
1107.43	76.9426
1111.82	42.0898
1116.21	14.2224
1120.59	33.2595
1124.97	48.4087
1129.35	5.5686
1133.73	49.7039
1138.1	10.6343
1142.47	35.4688
1146.84	22.6787
1151.21	4.09595
1155.57	5.85571
1159.93	82.7654
1164.29	32.0337
1168.64	8.50879
1172.99	83.8484
1177.34	21.2214
1181.69	40.6138
1186.04	17.0481
1190.38	8.5
1194.72	72.9604
1199.05	69.4573
1203.39	35.0886
1207.72	31.6348
1212.05	28.158
1216.37	72.6916
1220.7	40.2285
1225.02	88.8066
1229.34	53.1352
1233.65	18.6638
1237.97	50.3313
1242.28	74.6521
1246.59	19.1423
1250.89	55.5649
1255.19	59.2961
1259.49	9.05029
1263.79	46.8484
1268.09	9.67529
1272.38	115.532
1276.67	86.4246
1280.95	84.095
1285.24	84.3401
1289.52	45.3142
1293.8	54.2869
1298.08	44.9563
1302.35	26.9822
1306.62	137.032
1310.89	171.596
1315.15	251.008
1319.42	430.363
1323.68	812.519
1327.94	3516.82
1332.19	45580.9
1336.44	11706.5
1340.69	1340.08
1344.94	475.803
1349.19	263.858
1353.43	151.249
1357.67	176.675
1361.9	52.1406
1366.14	130.564
1370.37	111.058
1374.6	46.6074
1378.83	104.05
1383.05	71.2144
1387.27	87.7793
1391.49	75.3977
1395.7	83.749
1399.92	68.238
1404.13	78.8227
1408.34	11.5745
1412.54	16.9519
1416.74	59.6106
1420.94	29.0981
1425.14	17.3706
1429.34	97.9902
1433.53	86.6753
1437.72	86.5964
1441.9	35.3357
1446.09	42.6003
1450.27	1.29883
1454.45	66.6179
1458.63	103.606
1462.8	55.667
1466.97	113.777
1471.14	81.9382
1475.31	95.1733
1479.47	43.4954
1483.63	116.8
1487.79	31.3767
1491.94	130.291
1496.09	43.4646
1500.24	53.8418
1504.39	118.981
1508.54	87.4668
1512.68	63.3484
1516.82	58.8044
1520.95	29.2151
1525.09	62.0752
1529.22	83.7969
1533.35	63.4641
1537.47	113.652
1541.6	118.56
1545.72	53.1545
1549.83	115.481
1553.95	118.506
1558.06	52.4487
1562.17	44.0696
1566.28	71.5842
1570.38	0
