Measurement: Raman, 514 nm, ccw, Raman Data Processed
Mineral: Diamond
Rruff sample: R050207
Ideal chemistry: C
Locality: Unknown
Source: Eric Van Valkenburg
Description: Single crystal,  type I
Pin_id: L01129
Orientation: Laser parallel to a* (1 0 0). Fiducial mark perpendicular to laser is parallel to c [0 0 1]
Raman shift (cm-1)	intensity
114.44	0
119.365	23.7097
124.288	28.1493
129.209	57.2398
134.127	29.3872
139.043	22.1845
143.956	21.6525
148.867	46.2568
153.775	40.1154
158.681	45.2024
163.585	38.6261
168.486	28.1035
173.385	17.722
178.282	53.4047
183.176	53.1216
188.067	46.879
192.956	27.7181
197.843	73.5753
202.727	29.8571
207.609	30.6048
212.489	61.3906
217.366	60.2126
222.24	54.2969
227.112	29.6221
231.982	24.2167
236.849	67.1433
241.714	39.0972
246.577	38.097
251.437	37.1585
256.294	12.2407
261.149	19.3741
266.002	58.5128
270.852	33.5004
275.7	61.4586
280.545	26.8341
285.388	58.9149
290.229	17.174
295.067	41.5446
299.902	31.4736
304.735	21.6681
309.566	34.8851
314.394	24.0847
319.22	31.3405
324.043	29.6204
328.864	51.9233
333.682	28.2377
338.498	26.9343
343.311	13.266
348.122	26.6737
352.931	48.9866
357.737	16.314
362.54	17.6553
367.341	24.0099
372.14	20.6176
376.936	23.2061
381.73	35.5764
386.521	43.9576
391.31	39.3492
396.096	6.75
400.88	18.5569
405.661	3.37537
410.44	52.0328
415.216	13.5712
419.99	15.0093
424.761	25.4611
429.53	40.9387
434.297	70.9426
439.061	32.4292
443.822	14.923
448.581	52.4235
453.337	16.9443
458.091	24.5322
462.843	18.004
467.592	15.3999
472.338	43.9511
477.082	5.95386
481.824	30.5686
486.563	65.5817
491.3	41.1412
496.034	17.7042
500.765	51.27
505.494	27.8413
510.221	23.4166
514.945	46.1764
519.666	14.7296
524.385	25.2686
529.102	37.8109
533.816	31.3564
538.527	8.09277
543.236	37.4294
547.943	9.73047
552.647	19.3931
557.348	18.7534
562.047	33.261
566.744	38.3771
571.438	55.8876
576.129	56.2682
580.818	57.8053
585.504	35.3428
590.188	19.7026
594.87	38.2402
599.549	14.7815
604.225	43.3269
608.899	37.8492
613.57	32.4324
618.239	39.6051
622.905	33.144
627.569	68.6965
632.23	12.1725
636.889	24.7255
641.545	12.2823
646.198	6.84509
650.849	43.4114
655.498	49.7264
660.144	22.2844
664.787	45.8457
669.428	46.4061
674.067	16.5134
678.703	27.2459
683.336	20.9399
687.967	50.8715
692.595	29.5342
697.221	48.8971
701.844	40.4338
706.465	23.9644
711.083	12.4775
715.698	22.9915
720.311	13.5048
724.922	27.0162
729.53	44.5184
734.135	32.0005
738.738	16.9834
743.338	67.4769
747.936	21.1321
752.531	43.6499
757.124	22.5571
761.714	16.0414
766.302	43.5223
770.887	19.0362
775.469	50.5121
780.049	22.6527
784.626	52.1227
789.201	39.2285
793.773	50.5099
798.343	39.0085
802.91	49.4911
807.475	8.96912
812.037	19.4451
816.596	16.6611
821.153	29.8133
825.707	10.3378
830.259	14.9668
834.808	51.4244
839.355	52.8688
843.899	78.7009
848.441	72.135
852.98	7.5647
857.516	41.9898
862.05	82.4099
866.581	45.0033
871.11	20.7824
875.636	30.2028
880.159	12.0411
884.68	13.46
889.199	21.1664
893.714	7.18848
898.228	46.5388
902.738	19.8845
907.246	25.2334
911.752	24.609
916.255	24.9611
920.755	45.3925
925.253	88.7063
929.748	64.0117
934.241	54.7583
938.731	16.0682
943.218	22.3685
947.703	33.2871
952.186	12.3206
956.665	37.5596
961.142	45.7772
965.617	48.9907
970.089	74.2051
974.558	62.4214
979.025	29.6783
983.489	70.9598
987.951	34.2311
992.41	71.4918
996.866	10.7419
1001.32	78.9889
1005.77	85.7622
1010.22	55.4812
1014.67	43.6512
1019.11	46.7877
1023.55	35.463
1027.99	70.5691
1032.42	36.9373
1036.86	35.0228
1041.29	46.6582
1045.72	42.8546
1050.14	1.30481
1054.56	38.3404
1058.98	11.9172
1063.4	5.06836
1067.82	44.2045
1072.23	32.1771
1076.64	40.1394
1081.05	8.0802
1085.45	47.3466
1089.85	60.9296
1094.25	36.8008
1098.65	37.6992
1103.04	66.6079
1107.43	59.1616
1111.82	37.7681
1116.21	72.6523
1120.59	81.5271
1124.97	79.3932
1129.35	69.9238
1133.73	21.1006
1138.1	6.55359
1142.47	64.3429
1146.84	43.6992
1151.21	64.4799
1155.57	35.2336
1159.93	58.0363
1164.29	17.8302
1168.64	2.62146
1172.99	30.3676
1177.34	51.0687
1181.69	37.6917
1186.04	49.4158
1190.38	75.1497
1194.72	9.58093
1199.05	86.9388
1203.39	58.6692
1207.72	5.40686
1212.05	4.52576
1216.37	6.71289
1220.7	20.0598
1225.02	28.8475
1229.34	50.6509
1233.65	22.4757
1237.97	57.2919
1242.28	3.03992
1246.59	53.7598
1250.89	41.4963
1255.19	80.2506
1259.49	58.0242
1263.79	33.8208
1268.09	28.1089
1272.38	46.96
1276.67	56.8605
1280.95	95.7904
1285.24	100.809
1289.52	116.179
1293.8	96.5459
1298.08	146.628
1302.35	144.985
1306.62	148.1
1310.89	288.655
1315.15	482.842
1319.42	863.868
1323.68	2462.52
1327.94	20235.6
1332.19	56258.9
1336.44	11344.3
1340.69	1686.65
1344.94	630.661
1349.19	333.396
1353.43	180.593
1357.67	160.752
1361.9	149.314
1366.14	110.263
1370.37	94.1931
1374.6	100.885
1378.83	47.6122
1383.05	44.4153
1387.27	31.2173
1391.49	90.517
1395.7	59.4386
1399.92	49.3571
1404.13	68.7167
1408.34	1.76331
1412.54	7.84973
1416.74	61.9299
1420.94	0.608765
1425.14	27.6019
1429.34	26.7682
1433.53	55.4702
1437.72	24.78
1441.9	36.9363
1446.09	38.032
1450.27	15.2707
1454.45	79.925
1458.63	7.1803
1462.8	60.5122
1466.97	0.112183
1471.14	67.3914
1475.31	18.0702
1479.47	50.8234
1483.63	89.6363
1487.79	44.5155
1491.94	53.3667
1496.09	55.371
1500.24	31.4252
1504.39	60.6932
1508.54	79.8409
1512.68	47.8569
1516.82	53.0442
1520.95	35.2831
1525.09	66.6605
1529.22	69.2299
1533.35	13.5398
1537.47	121.852
1541.6	47.1171
1545.72	34.3035
1549.83	49.4026
1553.95	48.9088
1558.06	53.3543
1562.17	25.1687
1566.28	0.001953
1570.38	0
