Measurement: Raman, 514 nm, ccw, Raman Data Processed
Mineral: Diamond
Rruff sample: R050204
Ideal chemistry: C
Locality: Unknown
Source: Eric Van Valkenburg
Description: Single crystal, type IIA
Pin_id: M01891
Orientation: Laser parallel to a* (1 0 0). Fiducial mark perpendicular to laser is parallel to b [0 1 0]
Raman shift (cm-1)	intensity
170.559	0
175.467	44.3779
180.372	142.619
185.274	292.609
190.174	288.542
195.072	143.323
199.967	170.777
204.859	81.1865
209.749	260.258
214.637	298.518
219.521	75.626
224.404	300.744
229.284	151.273
234.161	222.102
239.036	113.64
243.908	159.456
248.777	219.145
253.645	162.029
258.509	324.916
263.371	294.727
268.231	117.501
273.088	235.828
277.942	221.548
282.794	223.012
287.643	257.51
292.49	36.0039
297.335	126.401
302.176	187.06
307.015	165.885
311.852	261.09
316.686	248.197
321.518	176.698
326.347	97.3477
331.173	130.988
335.997	244.065
340.819	244.182
345.638	152.441
350.454	284.664
355.268	51.4824
360.079	113.109
364.888	104.465
369.694	49.7949
374.498	250.201
379.299	153.727
384.097	296.943
388.893	198.523
393.686	170.639
398.477	219.607
403.266	160.668
408.051	177.871
412.835	59.4844
417.615	4.12305
422.394	16.168
427.169	114.068
431.942	18.0215
436.713	43.6172
441.481	131.516
446.246	100.955
451.009	69.1445
455.769	231.574
460.527	127.106
465.282	31.8438
470.035	7.33594
474.785	66.4297
479.532	146.701
484.277	57.582
489.02	176.264
493.76	136.922
498.497	134.373
503.232	195.685
507.964	180.859
512.693	170.342
517.421	168.205
522.145	157.469
526.867	134.81
531.587	234.117
536.303	183.76
541.018	112.754
545.729	239.748
550.439	108.728
555.145	182.945
559.849	123.406
564.551	274.793
569.25	148.828
573.946	5.39453
578.64	42.0098
583.331	75.3008
588.02	178.391
592.706	281.188
597.39	352.674
602.071	166.754
606.749	122.975
611.425	23.5996
616.099	219.484
620.769	336.197
625.438	536.227
630.103	363.838
634.766	320.494
639.427	417.568
644.085	481.272
648.74	241.242
653.393	401.633
658.044	201.9
662.691	194.481
667.336	71.1797
671.979	130.627
676.619	150.85
681.257	204.445
685.892	160.131
690.524	147.525
695.154	30.4824
699.781	157.775
704.406	170.049
709.028	61.2539
713.647	92.0547
718.264	138.787
722.878	14.416
727.49	66.4609
732.1	96.1758
736.706	240.361
741.31	136.539
745.912	35.3633
750.511	15.709
755.107	52.9297
759.701	138.562
764.292	211.123
768.881	152.334
773.467	155.713
778.051	50.7266
782.632	196.981
787.21	307.586
791.786	118.736
796.359	279.215
800.93	158.471
805.498	162.539
810.064	190.318
814.627	84.2734
819.187	331.246
823.745	376.977
828.301	304.412
832.853	38.791
837.403	409.318
841.951	330.955
846.496	321.963
851.038	189.672
855.578	425.273
860.116	259.232
864.65	485.914
869.183	673.955
873.712	54.1113
878.239	356.809
882.764	320.682
887.285	154.045
891.805	318.772
896.322	201.535
900.836	200.801
905.347	116.58
909.856	233.144
914.363	294.383
918.867	59.5605
923.368	37.3477
927.867	220.391
932.363	39.2031
936.856	59.5566
941.347	229.988
945.836	150.174
950.322	50.0098
954.805	272.566
959.286	210.31
963.764	249.232
968.239	179.148
972.712	35.9883
977.183	158.076
981.65	210.285
986.116	181.494
990.578	309.611
995.038	52.5449
999.496	81.0332
1003.95	385.291
1008.4	15.0703
1012.85	363.471
1017.3	166.022
1021.75	325.66
1026.19	169.482
1030.63	100.242
1035.06	162.332
1039.5	102.254
1043.93	366.49
1048.36	23.8652
1052.79	237.924
1057.21	208.043
1061.63	162.231
1066.05	164.09
1070.47	210.775
1074.88	316.346
1079.29	243.131
1083.7	263.268
1088.11	302.424
1092.51	176.117
1096.91	380.258
1101.31	398.414
1105.7	516.734
1110.1	238.736
1114.49	220.941
1118.88	341.289
1123.26	255.887
1127.64	306.996
1132.02	200.037
1136.4	120.998
1140.78	142.152
1145.15	294.656
1149.52	52.416
1153.89	419.123
1158.25	320.785
1162.61	64.5195
1166.97	233.016
1171.33	136.379
1175.68	33.0039
1180.04	318.977
1184.39	124.613
1188.73	58.9414
1193.08	56.6445
1197.42	30.4648
1201.76	275.457
1206.1	215.789
1210.43	11.3984
1214.76	37.9609
1219.09	96.4883
1223.41	143.82
1227.74	59.9023
1232.06	194.309
1236.38	307.617
1240.69	231.809
1245.01	599.637
1249.32	46.0898
1253.63	406.363
1257.93	248.609
1262.23	297.949
1266.54	491.356
1270.83	193.18
1275.13	543.047
1279.42	262.672
1283.71	130.75
1288	182.144
1292.28	388.84
1296.57	536.922
1300.85	775.039
1305.12	304.652
1309.4	505.422
1313.67	733.949
1317.94	877.91
1322.21	965.688
1326.47	3933
1330.73	17992.9
1334.99	8454.88
1339.25	1112.74
1343.5	803.531
1347.75	573.613
1352	406.578
1356.25	687.086
1360.49	485.297
1364.73	261.293
1368.97	484.039
1373.21	334.82
1377.44	108.863
1381.67	382.508
1385.9	566.621
1390.13	233.988
1394.35	221.508
1398.57	140.344
1402.79	89.4531
1407	346.242
1411.22	306.508
1415.43	50.6289
1419.63	322.086
1423.84	71.0664
1428.04	588.352
1432.24	299.703
1436.44	388.949
1440.63	633.402
1444.83	88.9062
1449.02	359.793
1453.2	437.82
1457.39	491.019
1461.57	256.199
1465.75	428.211
1469.93	334.047
1474.1	410.762
1478.27	134.902
1482.44	291.406
1486.61	455.457
1490.77	474.488
1494.93	100.297
1499.09	51.207
1503.25	212.926
1507.4	34.6797
1511.55	197.418
1515.7	223.106
1519.85	124.746
1523.99	366.496
1528.13	327.394
1532.27	206.356
1536.4	473.719
1540.54	107.523
1544.67	318.918
1548.8	23.4531
1552.92	226.211
1557.05	309.562
1561.16	254.715
1565.28	0
