Measurement: Raman, 514 nm, ccw, Raman Data Processed
Mineral: Diamond
Rruff sample: R050207
Ideal chemistry: C
Locality: Unknown
Source: Eric Van Valkenburg
Description: Single crystal,  type I
Pin_id: L01129
Orientation: Laser parallel to a* (1 0 0). Fiducial mark perpendicular to laser is parallel to c [0 0 1]
Raman shift (cm-1)	intensity
114.44	0
119.365	46.3546
124.288	31.0443
129.209	23.1586
134.127	55.1403
139.043	27.2942
143.956	46.2356
148.867	25.8607
153.775	42.9429
158.681	39.2878
163.585	16.8838
168.486	60.7493
173.385	57.6808
178.282	4.65418
183.176	38.614
188.067	56.891
192.956	26.1984
197.843	46.652
202.727	85.0435
207.609	30.1047
212.489	66.641
217.366	22.2349
222.24	35.1728
227.112	36.919
231.982	10.1456
236.849	28.7465
241.714	61.6488
246.577	12.6304
251.437	52.1294
256.294	42.8812
261.149	18.1356
266.002	56.8685
270.852	13.7342
275.7	3.30749
280.545	25.4905
285.388	39.3813
290.229	37.3484
295.067	6.7699
299.902	37.3241
304.735	30.4636
309.566	41.6454
314.394	46.8639
319.22	59.7133
324.043	53.3157
328.864	38.6041
333.682	35.9182
338.498	64.8422
343.311	57.2728
348.122	3.33118
352.931	30.0811
357.737	19.5137
362.54	9.00049
367.341	28.4873
372.14	35.3999
376.936	13.9484
381.73	8.48755
386.521	41.6885
391.31	72.901
396.096	36.4894
400.88	20.1285
405.661	42.7252
410.44	43.3538
415.216	48.01
419.99	5.62073
424.761	17.3127
429.53	27.0604
434.297	42.8372
439.061	20.3326
443.822	6.9353
448.581	29.7285
453.337	28.5295
458.091	27.3538
462.843	14.1841
467.592	35.8184
472.338	45.6422
477.082	6.52405
481.824	0.423828
486.563	57.2518
491.3	31.9641
496.034	32.8093
500.765	35.662
505.494	45.5232
510.221	39.5131
514.945	21.3713
519.666	43.1974
524.385	20.6027
529.102	22.3898
533.816	20.0027
538.527	57.7869
543.236	22.3632
547.943	95.9536
552.647	14.3246
557.348	40.1879
562.047	37.7742
566.744	74.4177
571.438	47.4514
576.129	11.3739
580.818	41.6429
585.504	13.5007
590.188	72.4089
594.87	76.6211
599.549	42.5037
604.225	29.792
608.899	69.3481
613.57	70.2253
618.239	62.6749
622.905	55.3203
627.569	32.2283
632.23	21.0814
636.889	47.9725
641.545	19.7184
646.198	14.7011
650.849	56.493
655.498	31.868
660.144	17.6215
664.787	68.7168
669.428	26.4817
674.067	13.2189
678.703	58.964
683.336	39.6617
687.967	0.927368
692.595	47.1432
697.221	80.8733
701.844	33.6019
706.465	32.6815
711.083	38.9423
715.698	120.26
720.311	54.8742
724.922	3.56348
729.53	60.2086
734.135	59.8075
738.738	62.6051
743.338	64.1853
747.936	19.7695
752.531	65.3468
757.124	33.9188
761.714	37.3701
766.302	57.9382
770.887	36.5272
775.469	20.145
780.049	0.755615
784.626	58.3556
789.201	24.8263
793.773	11.4282
798.343	71.1018
802.91	59.7353
807.475	111.02
812.037	6.6405
816.596	21.2611
821.153	34.3929
825.707	74.7684
830.259	43.3785
834.808	41.9843
839.355	31.8545
843.899	17.5072
848.441	52.1077
852.98	70.3816
857.516	29.2862
862.05	0.200928
866.581	46.3136
871.11	19.5146
875.636	34.9609
880.159	33.4582
884.68	33.968
889.199	16.4676
893.714	75.4608
898.228	56.465
902.738	17.9119
907.246	15.2822
911.752	48.7324
916.255	37.1163
920.755	48.6012
925.253	49.1288
929.748	9.65808
934.241	60.5859
938.731	47.052
943.218	47.9519
947.703	50.5059
952.186	28.3258
956.665	35.8573
961.142	24.377
965.617	39.8964
970.089	11.4122
974.558	46.919
979.025	76.861
983.489	38.4011
987.951	3.67053
992.41	46.8502
996.866	32.2571
1001.32	58.7977
1005.77	16.1224
1010.22	46.1018
1014.67	35.1373
1019.11	40.6688
1023.55	64.1958
1027.99	59.7188
1032.42	58.9036
1036.86	68.7529
1041.29	44.1732
1045.72	41.7018
1050.14	6.0769
1054.56	91.7269
1058.98	19.7233
1063.4	11.7573
1067.82	43.517
1072.23	26.9402
1076.64	60.5049
1081.05	1.20715
1085.45	73.635
1089.85	65.8466
1094.25	68.2065
1098.65	48.7812
1103.04	30.0491
1107.43	26.2358
1111.82	52.4996
1116.21	64.7517
1120.59	43.6761
1124.97	51.1163
1129.35	36.0503
1133.73	26.2468
1138.1	68.5619
1142.47	50.8733
1146.84	57.1926
1151.21	63.4725
1155.57	11.766
1159.93	10.0651
1164.29	76.3702
1168.64	108.682
1172.99	19.1351
1177.34	37.4946
1181.69	42.8621
1186.04	34.2346
1190.38	56.5967
1194.72	11.0913
1199.05	55.968
1203.39	3.90674
1207.72	34.1038
1212.05	38.2158
1216.37	29.6204
1220.7	32.0527
1225.02	31.5056
1229.34	45.9712
1233.65	3.46143
1237.97	91.0083
1242.28	32.1514
1246.59	55.7466
1250.89	45.3699
1255.19	100.024
1259.49	56.6904
1263.79	42.821
1268.09	74.0186
1272.38	58.2009
1276.67	48.4368
1280.95	54.2082
1285.24	77.0102
1289.52	85.3435
1293.8	82.7112
1298.08	101.609
1302.35	160.283
1306.62	260.171
1310.89	300.238
1315.15	523.441
1319.42	1017.58
1323.68	2747.59
1327.94	22855.4
1332.19	61701.3
1336.44	13677.6
1340.69	1938.92
1344.94	744.301
1349.19	342.719
1353.43	264.066
1357.67	188.259
1361.9	137.904
1366.14	131.275
1370.37	83.835
1374.6	125.584
1378.83	108.232
1383.05	32.9226
1387.27	75.177
1391.49	41.7788
1395.7	43.5437
1399.92	66.4312
1404.13	47.5857
1408.34	50.4265
1412.54	36.3738
1416.74	34.478
1420.94	21.3757
1425.14	48.3027
1429.34	54.4363
1433.53	58.3391
1437.72	49.071
1441.9	44.9355
1446.09	15.7046
1450.27	24.2678
1454.45	80.4636
1458.63	30.7605
1462.8	41.1245
1466.97	60.6882
1471.14	38.9939
1475.31	110.488
1479.47	96.0571
1483.63	58.7651
1487.79	40.1892
1491.94	12.9651
1496.09	61.8132
1500.24	93.811
1504.39	76.6223
1508.54	106.499
1512.68	34.1787
1516.82	29.8623
1520.95	80.8384
1525.09	38.7781
1529.22	62.5286
1533.35	7.79883
1537.47	37.2105
1541.6	49.6829
1545.72	57.9062
1549.83	97.0772
1553.95	76.0688
1558.06	80.7793
1562.17	45.2925
1566.28	0.847412
1570.38	0
