Measurement: Raman, 514 nm, ccw, Raman Data Processed
Mineral: Diamond
Rruff sample: R050206
Ideal chemistry: C
Locality: Unknown
Source: Eric Van Valkenburg
Description: Single crystal, type IIA
Pin_id: L01807
Orientation: Laser parallel to a* (1 0 0). Fiducial mark perpendicular to laser is parallel to c [0 0 1]
Raman shift (cm-1)	intensity
114.44	0
119.365	8.33618
124.288	90.9236
129.209	45.8594
134.127	72.6372
139.043	106.934
143.956	117.007
148.867	73.4297
153.775	118.93
158.681	124.256
163.585	139.238
168.486	142.796
173.385	143.549
178.282	168.054
183.176	137.394
188.067	178.757
192.956	82.3057
197.843	155.944
202.727	96.5005
207.609	183.807
212.489	163.065
217.366	129.639
222.24	123.434
227.112	109.429
231.982	156.608
236.849	126.971
241.714	55.5232
246.577	259.596
251.437	130.461
256.294	146.483
261.149	77.1892
266.002	109.853
270.852	115.541
275.7	178.282
280.545	60.8625
285.388	143.005
290.229	105.071
295.067	75.9043
299.902	65.105
304.735	84.2192
309.566	44.8757
314.394	13.1816
319.22	88.8047
324.043	71.4739
328.864	22.845
333.682	82.7459
338.498	22.1352
343.311	58.2524
348.122	56.4832
352.931	115.826
357.737	27.1804
362.54	159.763
367.341	25.4544
372.14	19.2522
376.936	105.131
381.73	150.087
386.521	3.12207
391.31	48.2378
396.096	50.4265
400.88	16.3481
405.661	89.0269
410.44	57.4563
415.216	4.10815
419.99	0.267334
424.761	21.5186
429.53	28.719
434.297	23.1213
439.061	58.6921
443.822	43.721
448.581	29.8174
453.337	35.988
458.091	1.82544
462.843	64.3794
467.592	49.6523
472.338	79.9785
477.082	49.698
481.824	48.1287
486.563	41.6101
491.3	72.803
496.034	70.5178
500.765	64.1934
505.494	27.9741
510.221	46.9746
514.945	29.73
519.666	107.206
524.385	29.0476
529.102	106.364
533.816	58.3303
538.527	44.6199
543.236	95.6179
547.943	59.6426
552.647	56.6702
557.348	90.8838
562.047	72.968
566.744	29.2441
571.438	106.205
576.129	7.26245
580.818	21.8621
585.504	66.8376
590.188	58.23
594.87	43.1394
599.549	74.5027
604.225	42.0107
608.899	107.391
613.57	62.2053
618.239	81.6138
622.905	12.6587
627.569	6.90015
632.23	23.5476
636.889	95.9883
641.545	3.14038
646.198	34.9648
650.849	74.3657
655.498	124.76
660.144	79.1719
664.787	46.5972
669.428	52.029
674.067	9.45874
678.703	15.8916
683.336	16.3284
687.967	14.7752
692.595	69.3318
697.221	56.6694
701.844	95.1387
706.465	71.6016
711.083	1.86108
715.698	70.3357
720.311	110.915
724.922	2.45606
729.53	11.6963
734.135	76.804
738.738	101.349
743.338	54.9087
747.936	56.4739
752.531	62.0527
757.124	55.2969
761.714	78.8919
766.302	28.8381
770.887	23.0354
775.469	74.522
780.049	106.314
784.626	57.6719
789.201	144.026
793.773	94.6765
798.343	214.333
802.91	210.017
807.475	222.269
812.037	141.904
816.596	118.283
821.153	121.986
825.707	2.6958
830.259	125.408
834.808	73.0105
839.355	49.7559
843.899	83.0725
848.441	59.8103
852.98	68.3411
857.516	14.8508
862.05	16.9446
866.581	100.729
871.11	55.4419
875.636	91.1602
880.159	43.7356
884.68	51.876
889.199	66.6343
893.714	45.395
898.228	120.16
902.738	20.9514
907.246	53.7236
911.752	72.8333
916.255	10.3726
920.755	57.4043
925.253	57.6001
929.748	67.0811
934.241	37.9165
938.731	155.768
943.218	45.627
947.703	100.498
952.186	96.3892
956.665	18.2837
961.142	100.079
965.617	29.9878
970.089	113.923
974.558	62.4473
979.025	31.3791
983.489	43.238
987.951	76.9072
992.41	13.7358
996.866	111.632
1001.32	73.2153
1005.77	78.1477
1010.22	91.0896
1014.67	4.15137
1019.11	47.7788
1023.55	100.71
1027.99	23.6419
1032.42	30.4273
1036.86	33.4998
1041.29	110.835
1045.72	50.0732
1050.14	130.179
1054.56	65.1021
1058.98	108.288
1063.4	131.194
1067.82	141.088
1072.23	19.9473
1076.64	21.8081
1081.05	45.689
1085.45	109.543
1089.85	41.3926
1094.25	47.239
1098.65	31.96
1103.04	79.7993
1107.43	88.6282
1111.82	59.8823
1116.21	61.376
1120.59	23.1377
1124.97	69.8774
1129.35	43.477
1133.73	60.2886
1138.1	64.7952
1142.47	104.601
1146.84	64.0278
1151.21	62.7761
1155.57	51.6585
1159.93	14.4358
1164.29	0.384277
1168.64	40.949
1172.99	33.7139
1177.34	31.1565
1181.69	31.8843
1186.04	21.5981
1190.38	74.2849
1194.72	33.967
1199.05	79.6706
1203.39	35.3696
1207.72	97.0784
1212.05	13.7776
1216.37	47.4705
1220.7	29.1755
1225.02	9.1062
1229.34	71.5876
1233.65	83.2654
1237.97	18.3718
1242.28	90.0876
1246.59	41.8672
1250.89	17.5491
1255.19	43.3362
1259.49	20.8452
1263.79	84.9902
1268.09	69.886
1272.38	75.7607
1276.67	7.8335
1280.95	40.7602
1285.24	44.7651
1289.52	47.7861
1293.8	77.8081
1298.08	87.8599
1302.35	87.9482
1306.62	150.767
1310.89	213.709
1315.15	385.942
1319.42	742.928
1323.68	1847.21
1327.94	17321.5
1332.19	56836.9
1336.44	10086.3
1340.69	1391.71
1344.94	535.198
1349.19	355.724
1353.43	196.786
1357.67	211.038
1361.9	97.6794
1366.14	61.2339
1370.37	105.127
1374.6	80.981
1378.83	46.907
1383.05	58.8523
1387.27	47.813
1391.49	59.0115
1395.7	1.58984
1399.92	75.5769
1404.13	97.863
1408.34	93.6787
1412.54	3.04102
1416.74	62.4402
1420.94	100.533
1425.14	33.4944
1429.34	54.1626
1433.53	115.953
1437.72	141.255
1441.9	141.636
1446.09	96.3523
1450.27	69.7585
1454.45	40.7871
1458.63	64.418
1462.8	131.141
1466.97	58.0132
1471.14	43.9973
1475.31	36.0928
1479.47	40.3052
1483.63	81.104
1487.79	57.4172
1491.94	49.7532
1496.09	7.19238
1500.24	9.77441
1504.39	88.3882
1508.54	67.0576
1512.68	22.948
1516.82	152.017
1520.95	67.2632
1525.09	27.6855
1529.22	40.3735
1533.35	89.3857
1537.47	141.085
1541.6	45.2942
1545.72	83.271
1549.83	31.5125
1553.95	97.0269
1558.06	2.7251
1562.17	64.374
1566.28	40.7859
1570.38	0
