Measurement: Raman, 514 nm, ccw, Raman Data Processed
Mineral: Diamond
Rruff sample: R050206
Ideal chemistry: C
Locality: Unknown
Source: Eric Van Valkenburg
Description: Single crystal, type IIA
Pin_id: L01807
Orientation: Laser parallel to a* (1 0 0). Fiducial mark perpendicular to laser is parallel to c [0 0 1]
Raman shift (cm-1)	intensity
114.44	0
119.365	1.4707
124.288	88.9917
129.209	29.2983
134.127	114.274
139.043	53.3818
143.956	84.7383
148.867	99.8074
153.775	80.2532
158.681	126.774
163.585	152.182
168.486	190.337
173.385	124.147
178.282	153.54
183.176	219.489
188.067	182.973
192.956	174.663
197.843	220.604
202.727	160.678
207.609	223.494
212.489	146.319
217.366	203.399
222.24	167.717
227.112	174.269
231.982	165.057
236.849	165.087
241.714	112.357
246.577	158.912
251.437	83.293
256.294	145.446
261.149	144.677
266.002	158.837
270.852	126.947
275.7	172.01
280.545	146.433
285.388	145.495
290.229	70.9199
295.067	75.6001
299.902	59.5205
304.735	55.7839
309.566	87.2368
314.394	85.7703
319.22	104.483
324.043	46.3652
328.864	156.408
333.682	94.603
338.498	181.945
343.311	70.4329
348.122	63.0603
352.931	74.1375
357.737	122.18
362.54	32.2112
367.341	81.1899
372.14	47.9036
376.936	57.5498
381.73	19.8489
386.521	2.14185
391.31	40.6724
396.096	50.5813
400.88	94.0229
405.661	29.1309
410.44	27.374
415.216	56.7395
419.99	25.2351
424.761	52.7554
429.53	42.4717
434.297	112.971
439.061	2.88232
443.822	15.9031
448.581	47.01
453.337	101.206
458.091	84.5229
462.843	81.9365
467.592	76.7417
472.338	89.0449
477.082	69.7358
481.824	19.5156
486.563	31.3814
491.3	63.3423
496.034	0.717285
500.765	74.5664
505.494	14.355
510.221	48.648
514.945	19.6431
519.666	117.304
524.385	68.7495
529.102	105.239
533.816	56.6216
538.527	60.2344
543.236	69.9023
547.943	62.6167
552.647	70.3677
557.348	63.1191
562.047	69.2246
566.744	18.4331
571.438	65.6328
576.129	129.651
580.818	78.5908
585.504	74.5718
590.188	47.4692
594.87	28.291
599.549	46.3906
604.225	89.5239
608.899	90.7353
613.57	71.9336
618.239	15.2954
622.905	37.5508
627.569	18.1714
632.23	97.314
636.889	52.5952
641.545	123.028
646.198	110.469
650.849	109.757
655.498	2.08789
660.144	0.746094
664.787	131.6
669.428	20.4863
674.067	25.4326
678.703	131.87
683.336	112.883
687.967	32.3442
692.595	54.8252
697.221	51.3594
701.844	29.916
706.465	59.5542
711.083	6.9751
715.698	61.8003
720.311	93.2759
724.922	40.7588
729.53	79.2632
734.135	67.8931
738.738	117.05
743.338	14.811
747.936	77.2886
752.531	106.769
757.124	83.2476
761.714	127.715
766.302	111.101
770.887	88.249
775.469	153.875
780.049	144.234
784.626	164.028
789.201	145.403
793.773	231.842
798.343	173.775
802.91	240.897
807.475	200.282
812.037	135.749
816.596	149.237
821.153	77.7256
825.707	173.214
830.259	110.698
834.808	50.8164
839.355	102.103
843.899	120.197
848.441	118.116
852.98	39.3618
857.516	29.8848
862.05	68.4014
866.581	131.912
871.11	20.5439
875.636	49.0395
880.159	66.3042
884.68	65.7925
889.199	90.2842
893.714	69.6255
898.228	45.0879
902.738	111.163
907.246	0.289551
911.752	90.6728
916.255	47.0044
920.755	81.3481
925.253	63.2324
929.748	87.7041
934.241	88.1426
938.731	28.5527
943.218	65.9209
947.703	110.803
952.186	94.1582
956.665	63.5063
961.142	122.846
965.617	39.8218
970.089	97.5181
974.558	51.8379
979.025	88.0654
983.489	117.327
987.951	68.0698
992.41	58.3535
996.866	121.628
1001.32	99.8965
1005.77	53.0625
1010.22	54.3955
1014.67	38.7188
1019.11	126.015
1023.55	67.3052
1027.99	58.5933
1032.42	167.889
1036.86	81.3779
1041.29	82.7188
1045.72	53.6812
1050.14	19.3023
1054.56	79.8057
1058.98	6.21094
1063.4	67.4966
1067.82	189.762
1072.23	73.3232
1076.64	39.4287
1081.05	110.713
1085.45	72.8413
1089.85	122.973
1094.25	28.1069
1098.65	44.5649
1103.04	16.7075
1107.43	54.852
1111.82	9.37793
1116.21	75.9898
1120.59	11.1602
1124.97	69.3315
1129.35	83.5166
1133.73	52.7168
1138.1	53.1201
1142.47	82.896
1146.84	46.3208
1151.21	45.5918
1155.57	62.8716
1159.93	86.1787
1164.29	24.5122
1168.64	12.7617
1172.99	76.3911
1177.34	21.8291
1181.69	43.9028
1186.04	19.3101
1190.38	97.5215
1194.72	39.9468
1199.05	26.3623
1203.39	124.82
1207.72	76.6587
1212.05	43.311
1216.37	44.8799
1220.7	71.4824
1225.02	27.1206
1229.34	15.7959
1233.65	74.438
1237.97	76.1919
1242.28	45.0659
1246.59	92.0029
1250.89	87.5337
1255.19	29.7734
1259.49	96.8535
1263.79	34.0215
1268.09	13.9268
1272.38	114.189
1276.67	20.2236
1280.95	126.443
1285.24	61.706
1289.52	46.0112
1293.8	90.6894
1298.08	132.963
1302.35	132.281
1306.62	182.964
1310.89	195.743
1315.15	378.764
1319.42	758.396
1323.68	1953.07
1327.94	17369.8
1332.19	58697.6
1336.44	9850.43
1340.69	1504.7
1344.94	604.712
1349.19	399.778
1353.43	224.867
1357.67	126.975
1361.9	112.059
1366.14	131.452
1370.37	138.777
1374.6	58.686
1378.83	56.0791
1383.05	77.6099
1387.27	23.2192
1391.49	66.1602
1395.7	81.7065
1399.92	49.3149
1404.13	71.061
1408.34	105.545
1412.54	20.2817
1416.74	63.7988
1420.94	86.5478
1425.14	44.0869
1429.34	52.5981
1433.53	73.1543
1437.72	138.756
1441.9	187.477
1446.09	126.035
1450.27	102.342
1454.45	76.5562
1458.63	4.81494
1462.8	20.8467
1466.97	13.5962
1471.14	103.987
1475.31	70.4023
1479.47	65.5991
1483.63	57.1748
1487.79	0.37207
1491.94	71.3926
1496.09	0.925293
1500.24	58.9414
1504.39	8.94336
1508.54	96.0723
1512.68	136.34
1516.82	29.71
1520.95	115.002
1525.09	90.3887
1529.22	51.5151
1533.35	76.5601
1537.47	50.3296
1541.6	102.08
1545.72	30.7969
1549.83	122.013
1553.95	63.1826
1558.06	86.4604
1562.17	152.119
1566.28	1.27588
1570.38	0
