Measurement: Raman, 514 nm, ccw, Raman Data Processed
Mineral: Diaspore
Rruff sample: R060287
Ideal chemistry: AlO(OH)
Locality: Selcuk, Mugla Province, Turkey
Source: Herb Obodda
Description: Colorless transparent platy fragment
Measured chemistry: (Al_0.99_Fe^3+^_0.01_)_Î£=1_O(OH) ; trace amounts of Ti;  OH estimated by difference ; Fe^3+^ by charge balance
Pin_id: L01646
Orientation: Laser parallel to -c* (0 0 -1). Fiducial mark perpendicular to laser is parallel to a [1 0 0]
Raman shift (cm-1)	intensity
114.44	0
119.365	4.56445
124.288	198.943
129.209	420.069
134.127	1337.14
139.043	4125.42
143.956	4247.62
148.867	4890.03
153.775	10626.4
158.681	6983.48
163.585	957.325
168.486	248.263
173.385	148.94
178.282	17.7314
183.176	82.375
188.067	54.956
192.956	299.72
197.843	197.609
202.727	112.992
207.609	50.9863
212.489	96.7705
217.366	135.602
222.24	150.856
227.112	58.7383
231.982	47.5234
236.849	113.436
241.714	64.3701
246.577	134.798
251.437	61.7627
256.294	50.206
261.149	327.433
266.002	86.5518
270.852	142.938
275.7	445.563
280.545	834.732
285.388	1164.97
290.229	891.046
295.067	279.777
299.902	148.024
304.735	40.6797
309.566	81.333
314.394	27.1396
319.22	39.8008
324.043	840.678
328.864	2163.12
333.682	550.789
338.498	276.715
343.311	62.8965
348.122	32.8223
352.931	111.456
357.737	45.6504
362.54	464.783
367.341	512.056
372.14	137.431
376.936	58.2266
381.73	125.613
386.521	306.421
391.31	512.231
396.096	664.241
400.88	321.046
405.661	59.6201
410.44	110.674
415.216	116.436
419.99	287.264
424.761	550.899
429.53	1012.12
434.297	2326.58
439.061	11371.3
443.822	29279.2
448.581	49443.5
453.337	20890.5
458.091	3957.99
462.843	1576.32
467.592	882.439
472.338	539.82
477.082	503.471
481.824	321.392
486.563	469.099
491.3	1072.25
496.034	2034.84
500.765	2063.13
505.494	677.534
510.221	243.267
514.945	70.3467
519.666	88.7539
524.385	15.5215
529.102	119.502
533.816	10.1641
538.527	14.3848
543.236	124.018
547.943	44.6309
552.647	72.5879
557.348	101.488
562.047	15.3457
566.744	303.029
571.438	302.769
576.129	593.877
580.818	934.352
585.504	664.199
590.188	462.545
594.87	924.578
599.549	1869.76
604.225	3184.67
608.899	4792.52
613.57	3607.79
618.239	1845.53
622.905	1184.83
627.569	1078.71
632.23	915.242
636.889	823.394
641.545	1111.05
646.198	1056.16
650.849	1654.69
655.498	2731.59
660.144	5203.65
664.787	7687.11
669.428	6687.22
674.067	3681.47
678.703	1890.64
683.336	801.041
687.967	652.512
692.595	498.846
697.221	291.51
701.844	354.996
706.465	294.221
711.083	436.846
715.698	116.772
720.311	152.039
724.922	213.012
729.53	227.272
734.135	267.404
738.738	23.873
743.338	229.168
747.936	313.393
752.531	129.934
757.124	380.434
761.714	332.947
766.302	557.328
770.887	752.602
775.469	983.719
780.049	1544.7
784.626	2442.68
789.201	3773.53
793.773	3981.46
798.343	2768.63
802.91	1496.58
807.475	1003.88
812.037	572.516
816.596	327.894
821.153	296.002
825.707	183.49
830.259	166.209
834.808	393.777
839.355	214.537
843.899	29.3828
848.441	151.307
852.98	225.275
857.516	144.272
862.05	56.7285
866.581	99.9199
871.11	30.5703
875.636	143.357
880.159	207.068
884.68	67.709
889.199	9.82422
893.714	77.4941
898.228	11.6895
902.738	110.844
907.246	130.307
911.752	39.75
916.255	157.094
920.755	184.211
925.253	122.256
929.748	68.0098
934.241	170.971
938.731	38.2031
943.218	111.406
947.703	147.99
952.186	142.529
956.665	160.996
961.142	104.283
965.617	184.256
970.089	289.193
974.558	263.111
979.025	124.928
983.489	172.018
987.951	530.83
992.41	291.621
996.866	217.742
1001.32	413.705
1005.77	93.7422
1010.22	164.678
1014.67	54.1934
1019.11	298.113
1023.55	308.264
1027.99	107.721
1032.42	94.2754
1036.86	356.463
1041.29	223.967
1045.72	151.424
1050.14	103.307
1054.56	165.973
1058.98	240.041
1063.4	64.2441
1067.82	94.4981
1072.23	196.56
1076.64	303.81
1081.05	382.416
1085.45	1461.47
1089.85	372.43
1094.25	95.2578
1098.65	266.773
1103.04	144.4
1107.43	133.863
1111.82	95.5176
1116.21	375.15
1120.59	805.123
1124.97	693.283
1129.35	436.85
1133.73	195.559
1138.1	180.603
1142.47	302.045
1146.84	119.365
1151.21	138.94
1155.57	215.727
1159.93	282.092
1164.29	330.908
1168.64	515.033
1172.99	420.728
1177.34	815.777
1181.69	1857.62
1186.04	3959.37
1190.38	8119.52
1194.72	9319.1
1199.05	5415.59
1203.39	2200.33
1207.72	1178.11
1212.05	556.381
1216.37	250.654
1220.7	245.09
1225.02	265.803
1229.34	360.748
1233.65	234.84
1237.97	214.951
1242.28	217.182
1246.59	268.652
1250.89	125.275
1255.19	9.05469
1259.49	111.83
1263.79	96.5312
1268.09	41.3867
1272.38	49.7246
1276.67	107.178
1280.95	10.959
1285.24	13.7051
1289.52	29.3691
1293.8	69.6289
1298.08	123.18
1302.35	59.209
1306.62	43.1582
1310.89	161.144
1315.15	234.01
1319.42	269.168
1323.68	142.414
1327.94	295.721
1332.19	56.0957
1336.44	135.533
1340.69	206.033
1344.94	113.598
1349.19	244.19
1353.43	117.666
1357.67	300.19
1361.9	36.7559
1366.14	97.8164
1370.37	227.514
1374.6	57.793
1378.83	28.7266
1383.05	161.297
1387.27	138.697
1391.49	3.36523
1395.7	62.5938
1399.92	173.25
1404.13	119.772
1408.34	230.746
1412.54	190.795
1416.74	77.1426
1420.94	165.674
1425.14	3.7832
1429.34	152.514
1433.53	186.957
1437.72	19.9258
1441.9	361.428
1446.09	240.633
1450.27	213.848
1454.45	97.418
1458.63	338.041
1462.8	353.711
1466.97	221.441
1471.14	276.231
1475.31	176.662
1479.47	78.084
1483.63	303.832
1487.79	55.877
1491.94	147.348
1496.09	170.545
1500.24	95.2441
1504.39	108.244
1508.54	176.812
1512.68	191.81
1516.82	46.9941
1520.95	79.3457
1525.09	205.209
1529.22	211.162
1533.35	366.266
1537.47	380.67
1541.6	197.65
1545.72	75.8398
1549.83	248.098
1553.95	317.965
1558.06	372.318
1562.17	32.4531
1566.28	195.777
1570.38	390.93
