Measurement: Raman, 514 nm, ccw, Raman Data Processed
Mineral: Diaspore
Rruff sample: R060287
Ideal chemistry: AlO(OH)
Locality: Selcuk, Mugla Province, Turkey
Source: Herb Obodda
Description: Colorless transparent platy fragment
Measured chemistry: (Al_0.99_Fe^3+^_0.01_)_Î£=1_O(OH) ; trace amounts of Ti;  OH estimated by difference ; Fe^3+^ by charge balance
Pin_id: L01658
Orientation: Laser parallel to a* (1 0 0). Fiducial mark perpendicular to laser is parallel to b [0 1 0]
Raman shift (cm-1)	intensity
114.44	0
119.365	48.7368
124.288	167.855
129.209	149.318
134.127	294.337
139.043	462.552
143.956	1488.09
148.867	3540.14
153.775	9179.86
158.681	9597.34
163.585	1062.34
168.486	357.211
173.385	143.239
178.282	261.516
183.176	161.625
188.067	195.566
192.956	209.794
197.843	157.641
202.727	203.69
207.609	177.742
212.489	183.733
217.366	214.785
222.24	199.383
227.112	124.558
231.982	124.593
236.849	128.148
241.714	117.585
246.577	69.7061
251.437	80.0459
256.294	86.0723
261.149	175.111
266.002	93.5684
270.852	54.8076
275.7	128.564
280.545	54.1992
285.388	56.2031
290.229	7.87402
295.067	75.085
299.902	38.4336
304.735	14.5596
309.566	161.35
314.394	25.0303
319.22	46.6895
324.043	59.5508
328.864	408.655
333.682	581.021
338.498	204.631
343.311	100.456
348.122	83.4736
352.931	67.6728
357.737	116.816
362.54	303.94
367.341	245.172
372.14	367.805
376.936	26.5625
381.73	18.3467
386.521	91.7988
391.31	172.496
396.096	298.009
400.88	178.719
405.661	123.041
410.44	182.095
415.216	198.795
419.99	471.601
424.761	473.656
429.53	951.263
434.297	2087.57
439.061	8766.34
443.822	25812.4
448.581	50570.9
453.337	25360.2
458.091	4295.7
462.843	1691.22
467.592	861.941
472.338	710.322
477.082	560.94
481.824	449.798
486.563	411.894
491.3	1003.23
496.034	2065.73
500.765	2710.41
505.494	651.763
510.221	54.1191
514.945	196.737
519.666	7.4834
524.385	76.7441
529.102	63.9512
533.816	7.31445
538.527	58.6338
543.236	24.6689
547.943	10.2695
552.647	45
557.348	261.588
562.047	219.598
566.744	183.06
571.438	381.268
576.129	378.92
580.818	682.312
585.504	633.07
590.188	517.253
594.87	886.832
599.549	1805.87
604.225	3578.21
608.899	5003.96
613.57	4218
618.239	2050.4
622.905	1192.12
627.569	953.129
632.23	731.44
636.889	622.093
641.545	753.102
646.198	869.492
650.849	1301.18
655.498	2494.08
660.144	5053.35
664.787	7748.42
669.428	7473.72
674.067	4195.84
678.703	2025.4
683.336	1109.27
687.967	627.401
692.595	577.454
697.221	517.092
701.844	398.118
706.465	480.65
711.083	198.574
715.698	292.362
720.311	313.291
724.922	264.685
729.53	266.481
734.135	286.476
738.738	123.822
743.338	188.772
747.936	71.7656
752.531	239.877
757.124	214.649
761.714	302.153
766.302	291.309
770.887	230.138
775.469	393.146
780.049	296.312
784.626	525.399
789.201	486.877
793.773	498.256
798.343	334.352
802.91	245.211
807.475	110.499
812.037	206.746
816.596	10.3174
821.153	78.0527
825.707	113.834
830.259	73.6943
834.808	105.404
839.355	77.3369
843.899	159.036
848.441	24.6143
852.98	59.2324
857.516	34.8682
862.05	36.459
866.581	98.0234
871.11	177.56
875.636	110.101
880.159	96.7822
884.68	188.37
889.199	59.9766
893.714	15.5244
898.228	48.0352
902.738	47.5703
907.246	186.102
911.752	86.626
916.255	112.095
920.755	149.506
925.253	175.857
929.748	75.1484
934.241	71.46
938.731	18.2129
943.218	102.153
947.703	36.165
952.186	43.5996
956.665	50.1484
961.142	70.0029
965.617	91.5527
970.089	18.9258
974.558	116.906
979.025	110.357
983.489	158.107
987.951	204.369
992.41	89.7441
996.866	145.955
1001.32	258.051
1005.77	243.232
1010.22	4.66016
1014.67	252.119
1019.11	327.127
1023.55	191.016
1027.99	237.897
1032.42	120.633
1036.86	68.1231
1041.29	145.559
1045.72	146.758
1050.14	318.168
1054.56	147.744
1058.98	136.193
1063.4	153.986
1067.82	131.394
1072.23	12.5234
1076.64	30.3301
1081.05	135.619
1085.45	168.928
1089.85	266.389
1094.25	296.106
1098.65	26.9707
1103.04	198.572
1107.43	74.75
1111.82	178.539
1116.21	262.164
1120.59	553.072
1124.97	373.025
1129.35	341.172
1133.73	86.4902
1138.1	147.041
1142.47	174.652
1146.84	68.5352
1151.21	84.4258
1155.57	310.672
1159.93	6.83008
1164.29	314.853
1168.64	107.742
1172.99	387.451
1177.34	346.334
1181.69	831.394
1186.04	2133.58
1190.38	3391.01
1194.72	2353.67
1199.05	969.443
1203.39	449.115
1207.72	463.225
1212.05	155.5
1216.37	156.914
1220.7	274.42
1225.02	179.023
1229.34	66.7109
1233.65	156.516
1237.97	160.877
1242.28	201.977
1246.59	78.1641
1250.89	116.387
1255.19	147.898
1259.49	89.1191
1263.79	169.836
1268.09	152.562
1272.38	121.734
1276.67	208.334
1280.95	59.6172
1285.24	191.672
1289.52	74.5977
1293.8	145.121
1298.08	53.6914
1302.35	156.065
1306.62	38.7852
1310.89	146.523
1315.15	127.957
1319.42	118.397
1323.68	359.125
1327.94	283.857
1332.19	324.609
1336.44	350.309
1340.69	187.16
1344.94	349.106
1349.19	161.938
1353.43	136.725
1357.67	153.535
1361.9	31.3477
1366.14	86.2305
1370.37	173.486
1374.6	272.139
1378.83	190.699
1383.05	94.4219
1387.27	192.887
1391.49	17.0391
1395.7	257.533
1399.92	72.7637
1404.13	219.191
1408.34	282.389
1412.54	180.949
1416.74	92.8438
1420.94	113.58
1425.14	207.828
1429.34	174.375
1433.53	51.2012
1437.72	39.9805
1441.9	34.8984
1446.09	36.2285
1450.27	180.25
1454.45	343.951
1458.63	200.621
1462.8	298.24
1466.97	13.793
1471.14	71.2519
1475.31	54.5996
1479.47	139.613
1483.63	21.5586
1487.79	114.156
1491.94	21.1035
1496.09	143.912
1500.24	43.4375
1504.39	38.8535
1508.54	218.264
1512.68	136.94
1516.82	86.4473
1520.95	66.4844
1525.09	130.656
1529.22	129.508
1533.35	301.676
1537.47	193.795
1541.6	174.932
1545.72	249.637
1549.83	105.389
1553.95	249.303
1558.06	149.699
1562.17	64.3379
1566.28	106.123
1570.38	152.955
