Measurement: Raman, 514 nm, ccw, Raman Data Processed
Mineral: Diaspore
Rruff sample: R060287
Ideal chemistry: AlO(OH)
Locality: Selcuk, Mugla Province, Turkey
Source: Herb Obodda
Description: Colorless transparent platy fragment
Measured chemistry: (Al_0.99_Fe^3+^_0.01_)_Î£=1_O(OH) ; trace amounts of Ti;  OH estimated by difference ; Fe^3+^ by charge balance
Pin_id: L01646
Orientation: Laser parallel to -c* (0 0 -1). Fiducial mark perpendicular to laser is parallel to a [1 0 0]
Raman shift (cm-1)	intensity
114.44	0
119.365	14.2559
124.288	308.644
129.209	1073.72
134.127	3099.79
139.043	9692.03
143.956	12617
148.867	7377.57
153.775	8629.99
158.681	5110.47
163.585	900.213
168.486	350.638
173.385	161.373
178.282	234.71
183.176	194.893
188.067	237.236
192.956	193.78
197.843	314.422
202.727	308.336
207.609	79.2969
212.489	131.07
217.366	40.4287
222.24	12.1299
227.112	14.0205
231.982	59.0791
236.849	8.43457
241.714	57.8535
246.577	70.7627
251.437	60.1357
256.294	49.6602
261.149	158.942
266.002	22.8232
270.852	67.0938
275.7	638.225
280.545	1609.3
285.388	3118.39
290.229	2915.33
295.067	990.907
299.902	279.05
304.735	263.864
309.566	293.225
314.394	280.891
319.22	925.526
324.043	3875.39
328.864	7243.6
333.682	6507.43
338.498	1878.39
343.311	550.527
348.122	97.8272
352.931	103.901
357.737	200.011
362.54	156.368
367.341	329.231
372.14	230.051
376.936	273.944
381.73	271.634
386.521	874.291
391.31	1529.55
396.096	1878.28
400.88	924.296
405.661	427.96
410.44	315.882
415.216	230.013
419.99	400.195
424.761	641.192
429.53	1011.44
434.297	2829.7
439.061	13787
443.822	32349.3
448.581	45377.6
453.337	19090
458.091	3537.54
462.843	1278.11
467.592	751.789
472.338	343.586
477.082	241.522
481.824	154.602
486.563	90.8281
491.3	540.202
496.034	750.731
500.765	872.779
505.494	478.771
510.221	598.102
514.945	659.787
519.666	310.81
524.385	307.198
529.102	249.84
533.816	2.18359
538.527	99.917
543.236	0.90625
547.943	33.9102
552.647	81.6455
557.348	82.457
562.047	17.0381
566.744	15.5645
571.438	217.368
576.129	649.324
580.818	1417.43
585.504	917.698
590.188	127.118
594.87	389.462
599.549	698.232
604.225	1109.18
608.899	1505.35
613.57	1248.91
618.239	1571.82
622.905	726.014
627.569	847.542
632.23	1411.32
636.889	1643.35
641.545	1568.57
646.198	1573.06
650.849	1619.61
655.498	1885.28
660.144	2976.14
664.787	4084.12
669.428	3320.96
674.067	1604.29
678.703	793.785
683.336	225.43
687.967	110.328
692.595	382.984
697.221	6.81641
701.844	55.543
706.465	3.58008
711.083	224.678
715.698	215.769
720.311	301.949
724.922	280.223
729.53	206.693
734.135	82.6231
738.738	169.406
743.338	166.502
747.936	234.805
752.531	160.336
757.124	557.256
761.714	497.557
766.302	724.354
770.887	1102.98
775.469	1593.03
780.049	3070.26
784.626	5067.93
789.201	7706.58
793.773	8030.23
798.343	5290.74
802.91	2898.95
807.475	1667.43
812.037	952.857
816.596	725.312
821.153	554.027
825.707	317.272
830.259	418.088
834.808	24.377
839.355	316.766
843.899	23.668
848.441	309.424
852.98	143.822
857.516	199.893
862.05	180.203
866.581	5.63086
871.11	84.1738
875.636	4.59375
880.159	5.50977
884.68	138.258
889.199	24.4766
893.714	148.674
898.228	74.6543
902.738	62.3105
907.246	7.32812
911.752	26.748
916.255	101.967
920.755	191.102
925.253	108.154
929.748	50.8691
934.241	192.863
938.731	89.4863
943.218	44.9648
947.703	92.375
952.186	85.7227
956.665	29
961.142	133.125
965.617	165.18
970.089	150.041
974.558	81.6094
979.025	302.861
983.489	455.666
987.951	739.428
992.41	309.213
996.866	254.086
1001.32	495.185
1005.77	304.961
1010.22	201.254
1014.67	257.602
1019.11	125.439
1023.55	256.387
1027.99	269.385
1032.42	145.92
1036.86	59.8828
1041.29	271.502
1045.72	190.935
1050.14	178.805
1054.56	252.127
1058.98	165.523
1063.4	150.695
1067.82	179.59
1072.23	327.543
1076.64	271.275
1081.05	481.102
1085.45	1697.03
1089.85	770.629
1094.25	211.766
1098.65	123.01
1103.04	84.6094
1107.43	58.8867
1111.82	137.711
1116.21	324.625
1120.59	774.379
1124.97	771.695
1129.35	364.217
1133.73	117.332
1138.1	256.957
1142.47	346.541
1146.84	289.56
1151.21	259.762
1155.57	377.578
1159.93	272.211
1164.29	339.166
1168.64	599.324
1172.99	592.764
1177.34	1152.38
1181.69	1852.15
1186.04	3964.04
1190.38	8513.86
1194.72	11124
1199.05	6484.32
1203.39	2415.78
1207.72	1267.38
1212.05	554.107
1216.37	609.273
1220.7	495.203
1225.02	339.268
1229.34	379.432
1233.65	315.719
1237.97	185.164
1242.28	120.74
1246.59	82.5059
1250.89	15.127
1255.19	101.285
1259.49	2.05859
1263.79	55.7148
1268.09	90.9473
1272.38	259.221
1276.67	34.4785
1280.95	26.0195
1285.24	166.309
1289.52	19.7422
1293.8	154.244
1298.08	80.8047
1302.35	139.498
1306.62	341.24
1310.89	173.025
1315.15	262.838
1319.42	142.643
1323.68	132.441
1327.94	318.25
1332.19	511.094
1336.44	260.967
1340.69	139.873
1344.94	128.805
1349.19	402.553
1353.43	408.238
1357.67	350.951
1361.9	371.844
1366.14	88.0469
1370.37	26.1641
1374.6	108.412
1378.83	129.465
1383.05	294.965
1387.27	52.5273
1391.49	243.465
1395.7	113.258
1399.92	247.154
1404.13	1.9043
1408.34	44.1074
1412.54	159.324
1416.74	79.6133
1420.94	267.019
1425.14	164.068
1429.34	197.219
1433.53	445.07
1437.72	492.547
1441.9	504.719
1446.09	542.051
1450.27	677.408
1454.45	450.863
1458.63	463.33
1462.8	363.394
1466.97	313.889
1471.14	375.26
1475.31	113.148
1479.47	396.221
1483.63	142.916
1487.79	255.809
1491.94	173.752
1496.09	213.559
1500.24	112.402
1504.39	0.050781
1508.54	341.775
1512.68	169.805
1516.82	174.986
1520.95	93.2422
1525.09	302.467
1529.22	13.5879
1533.35	128.324
1537.47	266.752
1541.6	169.924
1545.72	145.707
1549.83	320.33
1553.95	349.291
1558.06	274.764
1562.17	38.1875
1566.28	319.34
1570.38	74.0391
