Measurement: Raman, 514 nm, ccw, Raman Data Processed
Mineral: Diaspore
Rruff sample: R060287
Ideal chemistry: AlO(OH)
Locality: Selcuk, Mugla Province, Turkey
Source: Herb Obodda
Description: Colorless transparent platy fragment
Measured chemistry: (Al_0.99_Fe^3+^_0.01_)_Î£=1_O(OH) ; trace amounts of Ti;  OH estimated by difference ; Fe^3+^ by charge balance
Pin_id: L01658
Orientation: Laser parallel to a* (1 0 0). Fiducial mark perpendicular to laser is parallel to b [0 1 0]
Raman shift (cm-1)	intensity
114.44	0
119.365	129.099
124.288	232.368
129.209	168.3
134.127	212.654
139.043	301.29
143.956	1073.24
148.867	2510.96
153.775	7519.25
158.681	4245.62
163.585	769.349
168.486	367.337
173.385	288.351
178.282	237.515
183.176	257.959
188.067	296.957
192.956	152.429
197.843	348.426
202.727	278.771
207.609	272.711
212.489	324.315
217.366	226.089
222.24	116.786
227.112	264.075
231.982	84.9023
236.849	113.223
241.714	3.97949
246.577	41.165
251.437	4.33398
256.294	47.5449
261.149	123.536
266.002	54.6357
270.852	41.7012
275.7	14.1133
280.545	53.9385
285.388	278.496
290.229	387.639
295.067	258.267
299.902	88.6914
304.735	7.5293
309.566	24.0459
314.394	16.4785
319.22	163.147
324.043	959.024
328.864	2730.12
333.682	3074.45
338.498	981.876
343.311	256.298
348.122	276.907
352.931	259.722
357.737	715.428
362.54	2879.04
367.341	7357.89
372.14	3420.98
376.936	729.421
381.73	388.626
386.521	276.551
391.31	270.493
396.096	255.603
400.88	253.93
405.661	306.469
410.44	288.889
415.216	239.216
419.99	398.01
424.761	402.999
429.53	721.398
434.297	1886.97
439.061	7545.71
443.822	24327.1
448.581	46746.8
453.337	18251.3
458.091	3345.93
462.843	1524.05
467.592	904.827
472.338	714.79
477.082	635.939
481.824	396.277
486.563	701.807
491.3	2717.53
496.034	7658.45
500.765	8542.58
505.494	2000.9
510.221	313.435
514.945	42.1719
519.666	103.914
524.385	161.672
529.102	55.5742
533.816	82.3047
538.527	3.60059
543.236	77.9775
547.943	51.5674
552.647	310.287
557.348	200.323
562.047	178.815
566.744	256.704
571.438	698.781
576.129	1083.39
580.818	677.238
585.504	439.334
590.188	384.834
594.87	591.668
599.549	1240.01
604.225	2269.65
608.899	3482.67
613.57	2559.93
618.239	1326.42
622.905	860.215
627.569	579.254
632.23	439.554
636.889	456.088
641.545	725.785
646.198	780.644
650.849	1546.66
655.498	3324.86
660.144	6966.68
664.787	10903.3
669.428	9788.73
674.067	5354.69
678.703	2713.23
683.336	1419.1
687.967	905.434
692.595	814.589
697.221	552.642
701.844	655.669
706.465	613.556
711.083	510.364
715.698	386.354
720.311	495.989
724.922	327.731
729.53	388.422
734.135	530.968
738.738	418.4
743.338	477.479
747.936	337.603
752.531	323.449
757.124	199.92
761.714	254.027
766.302	514.037
770.887	329.459
775.469	444.264
780.049	496.158
784.626	722.883
789.201	706.562
793.773	751.037
798.343	679.654
802.91	394.781
807.475	238.35
812.037	94.8379
816.596	168.209
821.153	131.422
825.707	70.6992
830.259	79.6875
834.808	99.5137
839.355	78.7305
843.899	25.7129
848.441	14.6309
852.98	48.4297
857.516	88.4277
862.05	54.127
866.581	157.67
871.11	57.8086
875.636	8.35547
880.159	111.836
884.68	135.16
889.199	112.027
893.714	17.3477
898.228	301.852
902.738	68.1348
907.246	107.508
911.752	83.9727
916.255	103.311
920.755	191.531
925.253	13.3633
929.748	79.4981
934.241	82.1269
938.731	126.641
943.218	31.0312
947.703	87.3008
952.186	58.6816
956.665	117.84
961.142	150.684
965.617	224.269
970.089	83.5195
974.558	203.287
979.025	251.273
983.489	373.147
987.951	313.877
992.41	264.346
996.866	259.58
1001.32	413.01
1005.77	320.072
1010.22	543.764
1014.67	474.266
1019.11	369.996
1023.55	458.615
1027.99	112.543
1032.42	270.512
1036.86	387.268
1041.29	409.397
1045.72	785.746
1050.14	794.057
1054.56	507.586
1058.98	186.42
1063.4	307.082
1067.82	419.922
1072.23	81.8828
1076.64	368.865
1081.05	18.9297
1085.45	337.398
1089.85	203.894
1094.25	206.662
1098.65	45.4023
1103.04	117.834
1107.43	122.228
1111.82	115.953
1116.21	179.812
1120.59	394.119
1124.97	597.656
1129.35	435.551
1133.73	245.812
1138.1	34.332
1142.47	2.96094
1146.84	31.1211
1151.21	39.3457
1155.57	133.756
1159.93	354.363
1164.29	212.357
1168.64	320.463
1172.99	216.869
1177.34	311.432
1181.69	1028.13
1186.04	2635.97
1190.38	4053.95
1194.72	2460.16
1199.05	1041.63
1203.39	406.129
1207.72	194.76
1212.05	15.291
1216.37	162.523
1220.7	188.18
1225.02	164.305
1229.34	332.473
1233.65	142.822
1237.97	117.312
1242.28	237.861
1246.59	73.4824
1250.89	124.191
1255.19	59.9746
1259.49	147.824
1263.79	10.5195
1268.09	112.965
1272.38	174.867
1276.67	97.8203
1280.95	138.576
1285.24	112.365
1289.52	21.1738
1293.8	55.5059
1298.08	348.764
1302.35	114.082
1306.62	138.328
1310.89	131.791
1315.15	212.168
1319.42	271.56
1323.68	103.961
1327.94	245.369
1332.19	188.791
1336.44	181.232
1340.69	256.684
1344.94	174.144
1349.19	215.611
1353.43	178.078
1357.67	336.826
1361.9	24.6641
1366.14	201.846
1370.37	174.971
1374.6	108.691
1378.83	279.676
1383.05	310.652
1387.27	65.4492
1391.49	135.99
1395.7	196.369
1399.92	209.117
1404.13	114.623
1408.34	322.66
1412.54	120.406
1416.74	109.127
1420.94	55.1875
1425.14	161.158
1429.34	114.098
1433.53	147.775
1437.72	97.4805
1441.9	69.8242
1446.09	271.141
1450.27	291.732
1454.45	295.119
1458.63	309.471
1462.8	308.785
1466.97	409.055
1471.14	43.2441
1475.31	333.459
1479.47	89.6699
1483.63	173.641
1487.79	56.1602
1491.94	310.143
1496.09	66.2773
1500.24	150.889
1504.39	174.039
1508.54	183.195
1512.68	167.365
1516.82	86.4805
1520.95	62.4922
1525.09	171.391
1529.22	310.82
1533.35	308.336
1537.47	155.971
1541.6	217.221
1545.72	469.94
1549.83	380.965
1553.95	287.908
1558.06	464.164
1562.17	238.648
1566.28	183.998
1570.38	1.00391
