Measurement: Raman, 514 nm, ccw, Raman Data Processed
Mineral: Diaspore
Rruff sample: R060546
Ideal chemistry: AlO(OH)
Locality: Turkey
Source: Gemological Institute of America
Description: Platy transparent pale yellow fragment
Measured chemistry: (Al_0.99_Fe^3+^_0.01_)_Î£=1_O(OH) ; OH estimated by difference; Fe^3+^ by charge balance
Pin_id: L01871
Orientation: Laser parallel to a* (1 0 0). Fiducial mark perpendicular to laser is parallel to b [0 1 0]
Raman shift (cm-1)	intensity
132.898	0
137.814	226.967
142.728	260.848
147.639	639.012
152.549	1097.31
157.455	869.898
162.359	326.066
167.261	112.049
172.161	193.166
177.058	271.522
181.952	430.652
186.845	415.32
191.734	384.537
196.622	337.32
201.507	537.518
206.389	264.69
211.269	152.727
216.147	445.6
221.022	529.871
225.895	3.875
230.765	335.432
235.633	171.736
240.498	29.9102
245.361	106.076
250.222	137.744
255.08	125.078
259.936	366.022
264.789	38.252
269.64	125.33
274.488	75.0391
279.334	142.94
284.178	216.574
289.019	153.557
293.857	25.2988
298.693	20.2715
303.527	90.6543
308.358	123.996
313.187	26.3516
318.013	204.264
322.837	2493.64
327.659	5287.38
332.478	5780.51
337.294	2812.98
342.108	701.836
346.92	170.943
351.729	111.115
356.535	310.635
361.34	639.498
366.141	1142.37
370.94	782.777
375.737	340.387
380.531	89.4531
385.323	406.049
390.113	129.131
394.9	292.522
399.684	280.559
404.466	267.144
409.245	181
414.022	236.047
418.797	258.285
423.569	250.713
428.338	707.262
433.105	1120.08
437.87	5910.85
442.632	19216.3
447.391	27970.7
452.149	17767.1
456.903	3639.54
461.655	1200
466.405	851.873
471.152	541.158
475.897	484.863
480.639	645.981
485.378	1161.52
490.116	5573.48
494.85	14297.9
499.582	16233.8
504.312	6707
509.039	943.688
513.764	209.812
518.486	208.381
523.206	41.6191
527.923	10.4531
532.638	166.057
537.35	116.018
542.059	116.148
546.766	579.426
551.471	711.326
556.173	456.879
560.873	152.977
565.57	291.777
570.264	363.053
574.957	57.2129
579.646	145.824
584.333	43.7812
589.018	45.1055
593.7	97.9023
598.379	154.5
603.056	574.242
607.73	644.383
612.402	569.898
617.072	625.781
621.739	238.18
626.403	278.102
631.065	262.371
635.724	424.035
640.381	647.109
645.035	1226.94
649.687	2182.66
654.336	4130.69
658.983	8726.09
663.627	13224.4
668.268	12787.9
672.907	7825.25
677.544	4119.03
682.178	2139.4
686.809	1705.33
691.438	1327.34
696.065	1203.54
700.688	1264.25
705.31	905.777
709.929	826.082
714.545	863.621
719.158	850.769
723.77	540.164
728.378	871.527
732.984	609.918
737.588	599.641
742.189	765.949
746.787	578.949
751.383	432.84
755.976	584.066
760.567	241.562
765.155	645.234
769.741	269.832
774.324	590.078
778.904	240.879
783.482	461.754
788.058	509.754
792.631	707.801
797.201	255.234
801.769	278.902
806.334	400.328
810.897	141.836
815.457	236.363
820.014	26.1094
824.569	5.88281
829.122	107.309
833.671	157.594
838.219	155.715
842.763	30.5234
847.306	63.1523
851.845	181.891
856.382	63.3438
860.917	139.269
865.448	299.816
869.978	75.3203
874.505	99.9141
879.029	50.6094
883.55	8.32812
888.069	186.066
892.586	85.8672
897.1	86.2227
901.611	165.473
906.12	289.793
910.626	302
915.129	205.231
919.63	186.117
924.129	364.531
928.625	102.484
933.118	229.477
937.609	177.961
942.097	153.566
946.582	327.289
951.065	41.9688
955.546	231.332
960.023	77.5352
964.499	263.539
968.971	23.4375
973.441	153.41
977.909	124.266
982.374	269.266
986.836	187.344
991.295	311.078
995.753	611.871
1000.21	346.305
1004.66	430.25
1009.11	416.668
1013.55	626.227
1018	718.703
1022.44	418.188
1026.88	200.965
1031.32	471.035
1035.75	318.461
1040.18	612.383
1044.61	982.078
1049.04	859.656
1053.46	383.578
1057.88	326.859
1062.3	604.543
1066.71	419.809
1071.13	414.16
1075.54	361.879
1079.94	530.965
1084.35	316.438
1088.75	182.289
1093.15	508.394
1097.55	407.629
1101.94	127.414
1106.34	422.797
1110.73	280.141
1115.11	262.961
1119.5	457.172
1123.88	548.789
1128.26	321.93
1132.63	179.984
1137.01	22.0977
1141.38	126.562
1145.75	7.67969
1150.12	270.519
1154.48	380.785
1158.84	268.75
1163.2	248.562
1167.55	178.57
1171.91	485.922
1176.26	373.688
1180.61	747.832
1184.95	1783.49
1189.29	2945.59
1193.63	2163.7
1197.97	1201.23
1202.31	368.078
1206.64	397.223
1210.97	186.125
1215.29	281.41
1219.62	312.438
1223.94	196.742
1228.26	347.231
1232.57	536.91
1236.89	205.926
1241.2	267.211
1245.51	460.754
1249.81	187.574
1254.12	229.301
1258.42	256.543
1262.72	71.3086
1267.01	20.2969
1271.3	421.695
1275.59	286.223
1279.88	89.7852
1284.17	100.695
1288.45	122.231
1292.73	41.6367
1297.01	344.516
1301.28	50.5195
1305.55	511.789
1309.82	132.902
1314.09	68.2891
1318.35	580.199
1322.61	340.828
1326.87	289.562
1331.13	428.43
1335.38	270.43
1339.63	241.562
1343.88	456.824
1348.12	421.211
1352.37	226.938
1356.61	336.191
1360.85	644.957
1365.08	52.7734
1369.31	380.606
1373.54	100.555
1377.77	316.914
1381.99	171.445
1386.22	222.426
1390.43	165.121
1394.65	369.715
1398.87	183.699
1403.08	380.641
1407.29	270.684
1411.49	219.207
1415.69	162.504
1419.89	161.754
1424.09	21.4453
1428.29	442.016
1432.48	185.481
1436.67	392.75
1440.86	547.5
1445.04	556.629
1449.23	272.574
1453.4	238.934
1457.58	457.406
1461.76	236.004
1465.93	592.797
1470.1	243.797
1474.26	261.918
1478.43	484.988
1482.59	180.984
1486.75	347.734
1490.9	425.465
1495.06	577.16
1499.21	195.336
1503.35	110.984
1507.5	279.031
1511.64	329.711
1515.78	295.871
1519.92	339.434
1524.05	242.441
1528.18	181.961
1532.31	361.316
1536.44	331.242
1540.56	286.445
1544.69	115.922
1548.8	125.516
1552.92	339.777
1557.03	382.137
1561.14	103.231
1565.25	38.6562
1569.36	126.988
