Measurement: Raman, 514 nm, ccw, Raman Data Processed
Mineral: Diaspore
Rruff sample: R060287
Ideal chemistry: AlO(OH)
Locality: Selcuk, Mugla Province, Turkey
Source: Herb Obodda
Description: Colorless transparent platy fragment
Measured chemistry: (Al_0.99_Fe^3+^_0.01_)_Î£=1_O(OH) ; trace amounts of Ti;  OH estimated by difference ; Fe^3+^ by charge balance
Pin_id: L01646
Orientation: Laser parallel to -c* (0 0 -1). Fiducial mark perpendicular to laser is parallel to a [1 0 0]
Raman shift (cm-1)	intensity
132.898	0
137.814	322.935
142.728	1047.55
147.639	3443.08
152.549	8156.33
157.455	8096.24
162.359	1371.85
167.261	152.119
172.161	35.6221
177.058	9.92822
181.952	17.3379
186.845	71.3926
191.734	111.13
196.622	62.9976
201.507	39.1982
206.389	35.6265
211.269	11.4014
216.147	37.0791
221.022	28.6055
225.895	35.0767
230.765	35.8926
235.633	10.4639
240.498	5.53613
245.361	88.0269
250.222	41.8252
255.08	75.6938
259.936	60.8584
264.789	38.9292
269.64	52.2451
274.488	28.7817
279.334	74.3159
284.178	291.702
289.019	333.435
293.857	182.99
298.693	144.008
303.527	226.3
308.358	244.533
313.187	456.578
318.013	1248.74
322.837	4942.67
327.659	10378.1
332.478	14790.8
337.294	5675.93
342.108	1240.69
346.92	481.619
351.729	274.623
356.535	248.959
361.34	74.3286
366.141	141.301
370.94	124.671
375.737	104.001
380.531	85.6558
385.323	142.144
390.113	156.153
394.9	234.913
399.684	259.89
404.466	215.513
409.245	180.845
414.022	264.18
418.797	336.19
423.569	635.941
428.338	1011.05
433.105	2125.12
437.87	8612.23
442.632	26249.4
447.391	55285.6
452.149	32609.5
456.903	5521.87
461.655	1915.38
466.405	1044
471.152	723.763
475.897	389.769
480.639	261.9
485.378	154.152
490.116	139.541
494.85	303.049
499.582	525.726
504.312	153.546
509.039	5.49365
513.764	62.6318
518.486	52.9722
523.206	4.14307
527.923	16.4902
532.638	22.02
537.35	58.7256
542.059	3.44971
546.766	7.20117
551.471	78.0796
556.173	43.9062
560.873	7.15576
565.57	37.335
570.264	50.3852
574.957	83.8755
579.646	193.234
584.333	212.716
589.018	46.8276
593.7	108.859
598.379	273.666
603.056	464.595
607.73	595.642
612.402	435.807
617.072	211.168
621.739	227.561
626.403	126.085
631.065	120.725
635.724	272.481
640.381	326.403
645.035	441.434
649.687	652.57
654.336	1157.8
658.983	2063.31
663.627	3266.04
668.268	3115.41
672.907	1634.76
677.544	907.991
682.178	482.633
686.809	239.901
691.438	111.329
696.065	176.218
700.688	26.7847
705.31	64.2539
709.929	24.3784
714.545	46.3584
719.158	92.4023
723.77	60.1968
728.378	29.0962
732.984	129.275
737.588	47.6733
742.189	96.02
746.787	152.474
751.383	19.98
755.976	84.5596
760.567	105.212
765.155	197.262
769.741	227.18
774.324	213.095
778.904	384.482
783.482	636.468
788.058	1034.51
792.631	1295.18
797.201	919.916
801.769	580.241
806.334	272.668
810.897	125.982
815.457	241.494
820.014	44.0166
824.569	148.335
829.122	63.2105
833.671	73.9238
838.219	29.8267
842.763	78.583
847.306	0.672363
851.845	17.1255
856.382	194.941
860.917	34.7832
865.448	32.9531
869.978	55.7383
874.505	38.5293
879.029	13.3301
883.55	102.137
888.069	56.9522
892.586	113.69
897.1	14.4829
901.611	61.2993
906.12	131.085
910.626	0.834961
915.129	121.496
919.63	54.1592
924.129	26.4028
928.625	90.0566
933.118	15.3882
937.609	85.4136
942.097	22.6855
946.582	69.9038
951.065	55.8984
955.546	142.05
960.023	54.0249
964.499	29.9141
968.971	28.1709
973.441	192.127
977.909	137.478
982.374	115.948
986.836	139.876
991.295	137.822
995.753	53.1543
1000.21	108.938
1004.66	161.06
1009.11	153.086
1013.55	55.1977
1018	210.344
1022.44	221.502
1026.88	45.6728
1031.32	142.533
1035.75	182.765
1040.18	125.933
1044.61	112.728
1049.04	129.054
1053.46	53.4228
1057.88	129.715
1062.3	52.6704
1066.71	93.5093
1071.13	84.9556
1075.54	151.364
1079.94	91.0054
1084.35	233.646
1088.75	60.29
1093.15	151.358
1097.55	56.9448
1101.94	37.6865
1106.34	87.4976
1110.73	97.4497
1115.11	90.04
1119.5	194.594
1123.88	179.775
1128.26	179.977
1132.63	41.8682
1137.01	79.2519
1141.38	198.685
1145.75	76.1826
1150.12	66.7363
1154.48	21.3389
1158.84	151.992
1163.2	90.7012
1167.55	129.861
1171.91	194.69
1176.26	275.603
1180.61	509.593
1184.95	1123.17
1189.29	2349.49
1193.63	3017.77
1197.97	2032.11
1202.31	864.788
1206.64	420.266
1210.97	304.824
1215.29	148.448
1219.62	82.1738
1223.94	13.9961
1228.26	227.883
1232.57	117.811
1236.89	99.083
1241.2	90.1006
1245.51	199.23
1249.81	41.1836
1254.12	30.8867
1258.42	11.0205
1262.72	120.815
1267.01	56.6875
1271.3	87.5625
1275.59	54.7383
1279.88	118.092
1284.17	60.7383
1288.45	73.7891
1292.73	6.10938
1297.01	11.041
1301.28	103.058
1305.55	5.10742
1309.82	24.8037
1314.09	24.2871
1318.35	125.413
1322.61	34.5635
1326.87	131.718
1331.13	11.9922
1335.38	187.27
1339.63	151.332
1343.88	62.5029
1348.12	27.5732
1352.37	186.662
1356.61	15.749
1360.85	20.1445
1365.08	81.9443
1369.31	31.4785
1373.54	130.295
1377.77	75.3887
1381.99	159.809
1386.22	98.9814
1390.43	78.2412
1394.65	74.5928
1398.87	22.1611
1403.08	125.726
1407.29	37.0898
1411.49	107.539
1415.69	107.932
1419.89	2.50684
1424.09	39.0576
1428.29	48.5723
1432.48	180.216
1436.67	62.0996
1440.86	85.9961
1445.04	61.0478
1449.23	41.9853
1453.4	97.6191
1457.58	100.269
1461.76	171.492
1465.93	85.0283
1470.1	160.927
1474.26	71.8086
1478.43	76.4443
1482.59	219.315
1486.75	143.489
1490.9	4.6543
1495.06	98.2227
1499.21	129.964
1503.35	139.05
1507.5	114.132
1511.64	32.2861
1515.78	91.3897
1519.92	185.03
1524.05	5.92676
1528.18	79.4502
1532.31	118.359
1536.44	126.185
1540.56	15.9326
1544.69	66.1562
1548.8	224.969
1552.92	111.49
1557.03	171.028
1561.14	233.461
1565.25	235.032
1569.36	115.544
