Measurement: Raman, 514 nm, ccw, Raman Data Processed
Mineral: Diaspore
Rruff sample: R060546
Ideal chemistry: AlO(OH)
Locality: Turkey
Source: Gemological Institute of America
Description: Platy transparent pale yellow fragment
Measured chemistry: (Al_0.99_Fe^3+^_0.01_)_Î£=1_O(OH) ; OH estimated by difference; Fe^3+^ by charge balance
Pin_id: L01871
Orientation: Laser parallel to a* (1 0 0). Fiducial mark perpendicular to laser is parallel to b [0 1 0]
Raman shift (cm-1)	intensity
132.898	0
137.814	99.5054
142.728	703.824
147.639	2432.43
152.549	8546.59
157.455	3755.58
162.359	953.982
167.261	180.513
172.161	196.489
177.058	54.7031
181.952	21.5234
186.845	119.121
191.734	86.1338
196.622	104.189
201.507	93.7295
206.389	107.991
211.269	64.5186
216.147	126.419
221.022	83.5498
225.895	4.20703
230.765	62.5498
235.633	73.7471
240.498	69.3535
245.361	160.834
250.222	86.6592
255.08	85.8789
259.936	269.82
264.789	157.794
269.64	61.2725
274.488	166.758
279.334	438.054
284.178	1569.79
289.019	1815.65
293.857	716.423
298.693	152.747
303.527	40.3945
308.358	39.168
313.187	12.8369
318.013	83.3066
322.837	493.603
327.659	1229
332.478	1340.25
337.294	411.647
342.108	126.132
346.92	21.8232
351.729	120.724
356.535	78.8291
361.34	122.139
366.141	367.176
370.94	169.614
375.737	136.025
380.531	50.9033
385.323	51.2363
390.113	371.792
394.9	829.501
399.684	281.44
404.466	296.275
409.245	13.5459
414.022	265.317
418.797	340.722
423.569	443.768
428.338	728.674
433.105	1657.82
437.87	5945.48
442.632	20131.3
447.391	44686.3
452.149	17291.4
456.903	3556.69
461.655	1202.69
466.405	667.394
471.152	444.299
475.897	261.409
480.639	196.711
485.378	284.21
490.116	543.907
494.85	1212.81
499.582	1426.91
504.312	379.213
509.039	212.742
513.764	8.50879
518.486	85.7539
523.206	183.719
527.923	6.32715
532.638	119.174
537.35	0.93457
542.059	127.178
546.766	29.3896
551.471	79.1045
556.173	100.317
560.873	23.2617
565.57	148.451
570.264	147.737
574.957	448.399
579.646	657.309
584.333	775.466
589.018	303.873
593.7	437.624
598.379	1086.18
603.056	2074.64
607.73	3031.44
612.402	2366.58
617.072	1058.99
621.739	641.69
626.403	502.728
631.065	373.052
635.724	351.696
640.381	535.638
645.035	816.887
649.687	1109.45
654.336	1633.54
658.983	3179.45
663.627	4969.94
668.268	4538.27
672.907	2648.1
677.544	1429.02
682.178	588.57
686.809	282.34
691.438	363.703
696.065	368.486
700.688	9.02539
705.31	42.2363
709.929	59.6562
714.545	228.753
719.158	150.769
723.77	210.086
728.378	114.585
732.984	81.7188
737.588	54.9522
742.189	223.121
746.787	226.144
751.383	197.924
755.976	221.183
760.567	341.184
765.155	440.326
769.741	494.482
774.324	888.354
778.904	1446.14
783.482	2444.42
788.058	3712.03
792.631	4244.17
797.201	2977.65
801.769	1659.09
806.334	994.131
810.897	540.602
815.457	367.317
820.014	249.678
824.569	233.171
829.122	236.815
833.671	234.542
838.219	6.65625
842.763	81.3281
847.306	9.79199
851.845	100.127
856.382	153.102
860.917	49.1289
865.448	121.199
869.978	126.238
874.505	130.736
879.029	10.3057
883.55	44.4883
888.069	86.1865
892.586	16.8789
897.1	103.499
901.611	103.027
906.12	169.772
910.626	65.1133
915.129	51.5762
919.63	119.606
924.129	24.6719
928.625	82.8926
933.118	144.83
937.609	126.287
942.097	4.00977
946.582	121.619
951.065	61.8496
955.546	215.147
960.023	139.4
964.499	207.668
968.971	86.9492
973.441	76.5137
977.909	309.121
982.374	382.471
986.836	341.836
991.295	179.223
995.753	157.947
1000.21	384.1
1004.66	49.2207
1009.11	366.496
1013.55	133.818
1018	254.281
1022.44	170.973
1026.88	240.277
1031.32	115.49
1035.75	28.3672
1040.18	81.0039
1044.61	371.111
1049.04	203.371
1053.46	50.5879
1057.88	329.57
1062.3	121.531
1066.71	285.432
1071.13	288.258
1075.54	108.82
1079.94	169.85
1084.35	88.2109
1088.75	313.699
1093.15	142.318
1097.55	162.068
1101.94	123.959
1106.34	148.99
1110.73	185.184
1115.11	319.531
1119.5	413.029
1123.88	564.875
1128.26	275.836
1132.63	101.768
1137.01	145.9
1141.38	90.3008
1145.75	121.486
1150.12	1.89258
1154.48	280.938
1158.84	200.398
1163.2	175.842
1167.55	332.904
1171.91	454.734
1176.26	593.144
1180.61	1186.88
1184.95	2299.91
1189.29	4773.48
1193.63	5991.97
1197.97	3489.85
1202.31	1592.95
1206.64	756.441
1210.97	422.818
1215.29	513.711
1219.62	164.512
1223.94	240.475
1228.26	176.582
1232.57	179.062
1236.89	108.256
1241.2	205.705
1245.51	52.2441
1249.81	201.877
1254.12	127.647
1258.42	154.361
1262.72	31.1289
1267.01	57.9746
1271.3	30.7129
1275.59	271.644
1279.88	56.498
1284.17	0.804688
1288.45	58.9023
1292.73	15.2363
1297.01	266.01
1301.28	121.824
1305.55	88.4844
1309.82	150.99
1314.09	343.471
1318.35	292.143
1322.61	227.707
1326.87	112.311
1331.13	165.951
1335.38	249.615
1339.63	31.3027
1343.88	335.633
1348.12	131.353
1352.37	247.09
1356.61	42.6797
1360.85	184.428
1365.08	254.772
1369.31	46.3359
1373.54	188.879
1377.77	54.416
1381.99	163.055
1386.22	20.25
1390.43	75.8769
1394.65	124.482
1398.87	61.3672
1403.08	131.027
1407.29	252.461
1411.49	99.8633
1415.69	395.15
1419.89	38.2891
1424.09	37.9023
1428.29	228.207
1432.48	84.2031
1436.67	162.435
1440.86	106.576
1445.04	78.1387
1449.23	194.31
1453.4	257.338
1457.58	246.328
1461.76	280.928
1465.93	10.2031
1470.1	137.428
1474.26	200.125
1478.43	44.2695
1482.59	78.5391
1486.75	169.072
1490.9	359.49
1495.06	116.367
1499.21	132.662
1503.35	419.754
1507.5	57.4316
1511.64	158.91
1515.78	143.766
1519.92	129.154
1524.05	214.76
1528.18	89.8731
1532.31	217.565
1536.44	182.865
1540.56	33.8164
1544.69	189.772
1548.8	374.719
1552.92	146.228
1557.03	252.289
1561.14	144.103
1565.25	247.859
1569.36	340.828
