Measurement: Raman, 514 nm, ccw, Raman Data Processed
Mineral: Diaspore
Rruff sample: R060287
Ideal chemistry: AlO(OH)
Locality: Selcuk, Mugla Province, Turkey
Source: Herb Obodda
Description: Colorless transparent platy fragment
Measured chemistry: (Al_0.99_Fe^3+^_0.01_)_Î£=1_O(OH) ; trace amounts of Ti;  OH estimated by difference ; Fe^3+^ by charge balance
Pin_id: L01658
Orientation: Laser parallel to a* (1 0 0). Fiducial mark perpendicular to laser is parallel to b [0 1 0]
Raman shift (cm-1)	intensity
114.44	0
119.365	179.468
124.288	199.875
129.209	172.227
134.127	200.086
139.043	438.954
143.956	755.157
148.867	802.978
153.775	1227
158.681	713.283
163.585	283.568
168.486	286.575
173.385	336.176
178.282	419.85
183.176	501.914
188.067	466.226
192.956	470.188
197.843	529.525
202.727	499.62
207.609	470.759
212.489	378.209
217.366	337.612
222.24	232.592
227.112	237.109
231.982	264.111
236.849	190.526
241.714	148.315
246.577	112.486
251.437	115.056
256.294	4.96484
261.149	153.19
266.002	74.9326
270.852	49.2588
275.7	120.461
280.545	104.815
285.388	1.27734
290.229	21.2461
295.067	72.6367
299.902	30.2129
304.735	81.4492
309.566	208.114
314.394	289.812
319.22	936.686
324.043	4083.76
328.864	9586.04
333.682	7846.43
338.498	2884.07
343.311	865.517
348.122	364.977
352.931	354.228
357.737	370.493
362.54	647.004
367.341	1037.87
372.14	511.089
376.936	323.657
381.73	371.579
386.521	377.852
391.31	400.478
396.096	411.457
400.88	529.438
405.661	313.135
410.44	418.206
415.216	522.666
419.99	394.101
424.761	634.947
429.53	974.966
434.297	2506.73
439.061	11100.8
443.822	31489.3
448.581	42506.3
453.337	19188.7
458.091	4075.8
462.843	1683.11
467.592	1227.81
472.338	833.902
477.082	573.401
481.824	842.311
486.563	2163.63
491.3	10687.4
496.034	26462.6
500.765	21269.2
505.494	6258.27
510.221	1373.79
514.945	424.76
519.666	317.173
524.385	174.03
529.102	99.3301
533.816	128.07
538.527	203.252
543.236	239.008
547.943	290.286
552.647	607.004
557.348	496.19
562.047	161.032
566.744	146.467
571.438	87.4209
576.129	11.2871
580.818	59.2969
585.504	130.578
590.188	32.0713
594.87	8.71582
599.549	149.981
604.225	649.671
608.899	780.795
613.57	549.296
618.239	449.248
622.905	325.731
627.569	500.643
632.23	623.94
636.889	714.648
641.545	1047.7
646.198	1930.13
650.849	3537.89
655.498	7371.29
660.144	14657.3
664.787	21319
669.428	17704.9
674.067	9750.14
678.703	5095.2
683.336	2974.32
687.967	2315.31
692.595	1922.46
697.221	1993.69
701.844	1591.31
706.465	1476.46
711.083	1078.69
715.698	957.027
720.311	953.389
724.922	943.556
729.53	984.523
734.135	1011.43
738.738	911.899
743.338	773.011
747.936	707.848
752.531	559.64
757.124	611.738
761.714	510.591
766.302	611.756
770.887	492.143
775.469	585.702
780.049	373.558
784.626	354.581
789.201	491.588
793.773	303.563
798.343	263.501
802.91	124.394
807.475	97.4434
812.037	74.8223
816.596	76.0391
821.153	200.331
825.707	87.5762
830.259	8.27734
834.808	5.30273
839.355	57.4639
843.899	81.9434
848.441	56.0039
852.98	116.503
857.516	49.793
862.05	109.058
866.581	0.428711
871.11	16.0635
875.636	140.968
880.159	82.8184
884.68	64.4932
889.199	139.016
893.714	9.24023
898.228	115.046
902.738	222.66
907.246	62.0498
911.752	50.2363
916.255	51.6836
920.755	226.176
925.253	201.951
929.748	52.6455
934.241	198.263
938.731	129.809
943.218	87.21
947.703	270.496
952.186	31.4346
956.665	187.982
961.142	175.123
965.617	240.644
970.089	290.282
974.558	424.219
979.025	367.174
983.489	475.325
987.951	307.077
992.41	406.097
996.866	370.797
1001.32	692.72
1005.77	642.567
1010.22	594.486
1014.67	798.148
1019.11	449.035
1023.55	596.106
1027.99	388.451
1032.42	302.432
1036.86	329.631
1041.29	491.628
1045.72	667.741
1050.14	516.648
1054.56	554.48
1058.98	143.454
1063.4	400.604
1067.82	229.898
1072.23	347.335
1076.64	390.713
1081.05	353.425
1085.45	487.351
1089.85	292.554
1094.25	311.488
1098.65	259.962
1103.04	310.951
1107.43	150.935
1111.82	320.953
1116.21	355.851
1120.59	648.898
1124.97	518.136
1129.35	217.852
1133.73	143.558
1138.1	132.279
1142.47	151.461
1146.84	152.833
1151.21	279.38
1155.57	307.644
1159.93	261.241
1164.29	224.944
1168.64	375.485
1172.99	333.258
1177.34	439.207
1181.69	1113
1186.04	2635.3
1190.38	3421.71
1194.72	1552.27
1199.05	661.117
1203.39	206.924
1207.72	253.902
1212.05	82.0098
1216.37	63.6953
1220.7	25.5703
1225.02	66.8945
1229.34	25.0684
1233.65	78.2422
1237.97	201.668
1242.28	66.3496
1246.59	261.81
1250.89	154.045
1255.19	5.64844
1259.49	2.76172
1263.79	139.16
1268.09	184.443
1272.38	132.764
1276.67	302.143
1280.95	50.7637
1285.24	23.416
1289.52	203.963
1293.8	96.3027
1298.08	119.664
1302.35	74.0547
1306.62	2.4668
1310.89	191.867
1315.15	106.248
1319.42	119.592
1323.68	8.9082
1327.94	163.217
1332.19	301.539
1336.44	253.867
1340.69	280.203
1344.94	184.551
1349.19	312.912
1353.43	28.7285
1357.67	160.139
1361.9	16.2246
1366.14	82.5606
1370.37	189.867
1374.6	198.188
1378.83	82.4453
1383.05	166.285
1387.27	151.887
1391.49	202.176
1395.7	36.7812
1399.92	90.3769
1404.13	30.8203
1408.34	236.318
1412.54	145.789
1416.74	202.621
1420.94	63.3965
1425.14	103.943
1429.34	138.853
1433.53	207.353
1437.72	230.053
1441.9	311.254
1446.09	240.412
1450.27	231.588
1454.45	316.029
1458.63	308.445
1462.8	280.834
1466.97	183.578
1471.14	167.586
1475.31	170.828
1479.47	256.094
1483.63	145.891
1487.79	195.168
1491.94	258.531
1496.09	17.3398
1500.24	41.8145
1504.39	152.398
1508.54	180.221
1512.68	221.377
1516.82	166.76
1520.95	192.369
1525.09	101.17
1529.22	119.496
1533.35	195.455
1537.47	215.086
1541.6	249.215
1545.72	206.4
1549.83	198.506
1553.95	382.17
1558.06	195.549
1562.17	135.269
1566.28	167.209
1570.38	86.4453
