Measurement: Raman, 514 nm, ccw, Raman Data Processed
Mineral: Diaspore
Rruff sample: R060546
Ideal chemistry: AlO(OH)
Locality: Turkey
Source: Gemological Institute of America
Description: Platy transparent pale yellow fragment
Measured chemistry: (Al_0.99_Fe^3+^_0.01_)_Î£=1_O(OH) ; OH estimated by difference; Fe^3+^ by charge balance
Pin_id: L01029
Orientation: Laser parallel to b* (0 1 0). Fiducial mark perpendicular to laser is parallel to c [0 0 1]
Raman shift (cm-1)	intensity
132.898	0
137.814	7.56921
142.728	143.75
147.639	354.176
152.549	1609.63
157.455	11760.5
162.359	1540.11
167.261	256.159
172.161	98.4978
177.058	18.1462
181.952	17.9597
186.845	34.8023
191.734	69.6357
196.622	63.5525
201.507	51.3669
206.389	32.2133
211.269	16.6148
216.147	17.0038
221.022	2.62695
225.895	44.4453
230.765	3.62146
235.633	14.6349
240.498	23.3701
245.361	0.691895
250.222	27.1205
255.08	19.0557
259.936	152.646
264.789	13.5384
269.64	4.3656
274.488	3.62012
279.334	15.0176
284.178	24.5795
289.019	66.6992
293.857	20.8206
298.693	40.8712
303.527	108.761
308.358	139.464
313.187	181.99
318.013	310.254
322.837	866.186
327.659	2666.95
332.478	12805.4
337.294	6611.95
342.108	1205.22
346.92	435.133
351.729	213.451
356.535	133.047
361.34	88.1587
366.141	63.2592
370.94	11.0378
375.737	70.9
380.531	20.2669
385.323	37.4917
390.113	54.7023
394.9	135.849
399.684	111.597
404.466	70.1146
409.245	135.489
414.022	109.276
418.797	197.825
423.569	285.443
428.338	432.726
433.105	762.209
437.87	1779.13
442.632	5022.88
447.391	26045.7
452.149	41523.4
456.903	5788.23
461.655	1698.03
466.405	907.846
471.152	584.676
475.897	390.529
480.639	240.406
485.378	190.31
490.116	205.246
494.85	141.222
499.582	419.288
504.312	181.396
509.039	10.9489
513.764	64.76
518.486	42.975
523.206	7.26355
527.923	19.3893
532.638	12.9165
537.35	65.1809
542.059	2.55066
546.766	41.8229
551.471	4.86218
556.173	90.4741
560.873	56.8665
565.57	13.3062
570.264	53.8391
574.957	52.3745
579.646	21.9334
584.333	45.0244
589.018	93.6138
593.7	108.745
598.379	174.497
603.056	208.16
607.73	390.848
612.402	403.559
617.072	172.294
621.739	211.052
626.403	171.833
631.065	191.637
635.724	232.311
640.381	179.156
645.035	207.019
649.687	351.903
654.336	510.254
658.983	876.181
663.627	1829.69
668.268	2432.28
672.907	1557.17
677.544	691.468
682.178	352.793
686.809	230.154
691.438	91.7739
696.065	111.478
700.688	35.7295
705.31	33.0139
709.929	10.2178
714.545	13.4277
719.158	10.5588
723.77	51.613
728.378	8.24536
732.984	39.8845
737.588	30.0186
742.189	12.155
746.787	67.2976
751.383	70.4458
755.976	64.5991
760.567	60.7571
765.155	19.9192
769.741	89.0847
774.324	95.2302
778.904	63.3708
783.482	34.5139
788.058	104.15
792.631	113.303
797.201	76.5901
801.769	41.7961
806.334	45.0935
810.897	30.8479
815.457	0.336914
820.014	26.5432
824.569	38.252
829.122	34.0374
833.671	4.14893
838.219	95.4214
842.763	26.6003
847.306	73.5754
851.845	30.5935
856.382	58.98
860.917	128.115
865.448	149.614
869.978	56.627
874.505	60.5278
879.029	69.561
883.55	47.6091
888.069	97.6519
892.586	31.689
897.1	89.721
901.611	36.7478
906.12	18.7698
910.626	88.9502
915.129	60.9795
919.63	14.0044
924.129	26.0161
928.625	6.01465
933.118	13.2649
937.609	41.6826
942.097	51.6221
946.582	80.5156
951.065	23.1702
955.546	9.45532
960.023	84.999
964.499	5.83496
968.971	2.43457
973.441	0.355713
977.909	15.0437
982.374	61.8254
986.836	18.6121
991.295	90.4062
995.753	97.2383
1000.21	116.111
1004.66	182.44
1009.11	65.2292
1013.55	31.803
1018	27.728
1022.44	64.658
1026.88	44.5967
1031.32	57.5508
1035.75	105.511
1040.18	77.4775
1044.61	51.3674
1049.04	167.363
1053.46	166.365
1057.88	10.8843
1062.3	40.9001
1066.71	117.76
1071.13	19.771
1075.54	73.6836
1079.94	74.1851
1084.35	47.0173
1088.75	56.5383
1093.15	60.0483
1097.55	58.6174
1101.94	4.89551
1106.34	56.1372
1110.73	77.3376
1115.11	40.6853
1119.5	132.051
1123.88	82.4343
1128.26	67.1914
1132.63	42.4548
1137.01	20.1794
1141.38	37.604
1145.75	31.0232
1150.12	4.42993
1154.48	90.8538
1158.84	42.0183
1163.2	20.4768
1167.55	55.9536
1171.91	16.5525
1176.26	132.927
1180.61	98.4241
1184.95	222.942
1189.29	687.484
1193.63	643.046
1197.97	236.903
1202.31	90.5222
1206.64	89.1621
1210.97	37.8999
1215.29	73.5169
1219.62	73.2607
1223.94	34.9961
1228.26	3.29443
1232.57	66.0947
1236.89	39.8533
1241.2	103.628
1245.51	68.4158
1249.81	77.2339
1254.12	116.106
1258.42	14.0193
1262.72	21.168
1267.01	84.2378
1271.3	75.8975
1275.59	51.123
1279.88	117.089
1284.17	68.0034
1288.45	48.9204
1292.73	70.8928
1297.01	72.8237
1301.28	105.894
1305.55	105.858
1309.82	134.981
1314.09	69.9553
1318.35	99.9419
1322.61	107.931
1326.87	86.9302
1331.13	116.948
1335.38	65.9683
1339.63	82.999
1343.88	49.0042
1348.12	30.0166
1352.37	52.7451
1356.61	27.3677
1360.85	28.6636
1365.08	73.6682
1369.31	54.6851
1373.54	114.394
1377.77	9.60864
1381.99	85.6624
1386.22	62.6077
1390.43	29.4504
1394.65	56.6614
1398.87	69.6733
1403.08	57.0784
1407.29	32.2783
1411.49	44.4937
1415.69	36.927
1419.89	49.0571
1424.09	11.0986
1428.29	15.9941
1432.48	70.8369
1436.67	117.612
1440.86	127.74
1445.04	207.909
1449.23	214.563
1453.4	220.149
1457.58	169.517
1461.76	118.964
1465.93	140.569
1470.1	102.044
1474.26	49.5664
1478.43	54.0093
1482.59	80.4868
1486.75	120.613
1490.9	127.904
1495.06	139.308
1499.21	13.3887
1503.35	109.065
1507.5	16.2788
1511.64	54.8374
1515.78	57.4819
1519.92	77.2388
1524.05	59.1567
1528.18	64.0857
1532.31	108.261
1536.44	33.8972
1540.56	117.19
1544.69	34.8831
1548.8	48.3643
1552.92	71.9719
1557.03	60.8928
1561.14	3.84473
1565.25	0.419922
1569.36	25.8196
