Measurement: Raman, 514 nm, ccw, Raman Data Processed
Mineral: Diaspore
Rruff sample: R060546
Ideal chemistry: AlO(OH)
Locality: Turkey
Source: Gemological Institute of America
Description: Platy transparent pale yellow fragment
Measured chemistry: (Al_0.99_Fe^3+^_0.01_)_Î£=1_O(OH) ; OH estimated by difference; Fe^3+^ by charge balance
Pin_id: L01029
Orientation: Laser parallel to b* (0 1 0). Fiducial mark perpendicular to laser is parallel to c [0 0 1]
Raman shift (cm-1)	intensity
132.898	0
137.814	3.59815
142.728	100.436
147.639	304.388
152.549	1575.99
157.455	10644.1
162.359	1313.85
167.261	65.6392
172.161	134.575
177.058	58.8003
181.952	124.825
186.845	232.076
191.734	262.99
196.622	286.063
201.507	351.34
206.389	313.216
211.269	421.079
216.147	396.327
221.022	521.116
225.895	546.557
230.765	754.625
235.633	709.464
240.498	750.144
245.361	836.792
250.222	872.44
255.08	845.226
259.936	1077.47
264.789	953.238
269.64	1008.77
274.488	877.17
279.334	906.817
284.178	807.2
289.019	862.563
293.857	718.313
298.693	653.098
303.527	605.102
308.358	615.078
313.187	627.39
318.013	668.75
322.837	1091.07
327.659	2939.76
332.478	13471.4
337.294	6765.04
342.108	1143.53
346.92	430.824
351.729	184.94
356.535	36.8823
361.34	1.45947
366.141	44.1982
370.94	61.5415
375.737	47.1182
380.531	57.2476
385.323	170.268
390.113	138.635
394.9	43.4312
399.684	243.302
404.466	210.471
409.245	256.558
414.022	325.612
418.797	508.648
423.569	537.674
428.338	962.675
433.105	1328.64
437.87	2552.57
442.632	6100.44
447.391	29051.3
452.149	45952.7
456.903	7388.02
461.655	3047.72
466.405	2071.88
471.152	1850.46
475.897	1549.96
480.639	1523.03
485.378	1570.68
490.116	1696.96
494.85	2258.18
499.582	6080.36
504.312	3633.9
509.039	1526.39
513.764	1295.43
518.486	1057.07
523.206	1009.61
527.923	933.692
532.638	865.712
537.35	678.38
542.059	764.461
546.766	717.602
551.471	1396.85
556.173	2663.29
560.873	984.983
565.57	583.098
570.264	208.741
574.957	169.694
579.646	21.8506
584.333	110.22
589.018	41.3081
593.7	153.906
598.379	76.0054
603.056	18.4966
607.73	295.989
612.402	340.522
617.072	21.0991
621.739	12.3013
626.403	33.3169
631.065	82.9771
635.724	130.679
640.381	279.456
645.035	331.441
649.687	680.766
654.336	984.516
658.983	2009.55
663.627	4044.98
668.268	5863.6
672.907	4104.25
677.544	2357.03
682.178	1624.85
686.809	1186.55
691.438	1164.74
696.065	1282.46
700.688	1218.33
705.31	1391.92
709.929	1277.3
714.545	1375.3
719.158	1397.45
723.77	1444.23
728.378	1468.91
732.984	1441.99
737.588	1576.64
742.189	1389.86
746.787	1375.67
751.383	1225.38
755.976	1205.97
760.567	1255.52
765.155	1197.87
769.741	1065.1
774.324	971.199
778.904	750.165
783.482	975.99
788.058	712.667
792.631	828.184
797.201	663.533
801.769	495.887
806.334	379.256
810.897	171.552
815.457	155.668
820.014	90.6191
824.569	12.5396
829.122	14.0288
833.671	17.0635
838.219	51.4634
842.763	57.1558
847.306	35.875
851.845	9.7627
856.382	48.0991
860.917	121.52
865.448	157.881
869.978	146.127
874.505	211.435
879.029	171.69
883.55	350.754
888.069	349.608
892.586	500.253
897.1	540.708
901.611	644.965
906.12	921.02
910.626	908.878
915.129	944.545
919.63	1108.02
924.129	1183.32
928.625	1093.44
933.118	1307.57
937.609	1256.23
942.097	1365.26
946.582	1390.45
951.065	1442.6
955.546	1537.6
960.023	1531.73
964.499	1371.71
968.971	1569.39
973.441	1374.12
977.909	1270.39
982.374	1389.06
986.836	1064.42
991.295	1250.09
995.753	1199.34
1000.21	1176.22
1004.66	1491.37
1009.11	993.761
1013.55	955.218
1018	888.81
1022.44	678.362
1026.88	790.882
1031.32	714.377
1035.75	557.86
1040.18	628.406
1044.61	816.303
1049.04	1373.3
1053.46	748.317
1057.88	317.356
1062.3	28.4053
1066.71	37.5488
1071.13	41.8301
1075.54	21.6113
1079.94	108.919
1084.35	46.7725
1088.75	124.439
1093.15	4.50684
1097.55	50.585
1101.94	179.898
1106.34	190.482
1110.73	220.584
1115.11	174.125
1119.5	614.89
1123.88	740.877
1128.26	560.034
1132.63	544.28
1137.01	525.597
1141.38	635.99
1145.75	838.458
1150.12	816.999
1154.48	1028.61
1158.84	1172.31
1163.2	1017.48
1167.55	1161.79
1171.91	1216.66
1176.26	1371.3
1180.61	1303.86
1184.95	1672.57
1189.29	2631.29
1193.63	2512.52
1197.97	1895.46
1202.31	1359.07
1206.64	1425.82
1210.97	1289.49
1215.29	1075.52
1219.62	1093.62
1223.94	1035.27
1228.26	989.716
1232.57	849.463
1236.89	844.425
1241.2	676.46
1245.51	899.56
1249.81	608.723
1254.12	483.943
1258.42	616.22
1262.72	406.553
1267.01	363.941
1271.3	339.385
1275.59	190.885
1279.88	200.443
1284.17	190.131
1288.45	157.903
1292.73	4.2666
1297.01	17.3037
1301.28	68.582
1305.55	33.5781
1309.82	73.6289
1314.09	64.6914
1318.35	80.751
1322.61	16.1729
1326.87	70.8086
1331.13	52.8887
1335.38	25.1006
1339.63	179.398
1343.88	273.767
1348.12	136.245
1352.37	289.871
1356.61	394.576
1360.85	330.334
1365.08	534.138
1369.31	628.983
1373.54	529.867
1377.77	616.789
1381.99	903.767
1386.22	863.807
1390.43	829.921
1394.65	933.126
1398.87	970.432
1403.08	1038.84
1407.29	1115.37
1411.49	1365.64
1415.69	1104.46
1419.89	1229.06
1424.09	1211.99
1428.29	1237.81
1432.48	1298.41
1436.67	1305.91
1440.86	1489.02
1445.04	1442.86
1449.23	1399.83
1453.4	1663.21
1457.58	1447.45
1461.76	1251.4
1465.93	1036.27
1470.1	1038.21
1474.26	816.192
1478.43	780.227
1482.59	852.305
1486.75	734.418
1490.9	536.546
1495.06	475.356
1499.21	414.896
1503.35	288.414
1507.5	311.671
1511.64	198.293
1515.78	289.021
1519.92	171.316
1524.05	102.09
1528.18	208.414
1532.31	74.5644
1536.44	96.4189
1540.56	72.6514
1544.69	229.24
1548.8	98.3311
1552.92	120.962
1557.03	78.791
1561.14	162.607
1565.25	14.0127
1569.36	20.627
