Measurement: Raman, 514 nm, ccw, Raman Data Processed
Mineral: Diaspore
Rruff sample: R060287
Ideal chemistry: AlO(OH)
Locality: Selcuk, Mugla Province, Turkey
Source: Herb Obodda
Description: Colorless transparent platy fragment
Measured chemistry: (Al_0.99_Fe^3+^_0.01_)_Î£=1_O(OH) ; trace amounts of Ti;  OH estimated by difference ; Fe^3+^ by charge balance
Pin_id: L01505
Orientation: Laser parallel to b* (0 1 0). Fiducial mark perpendicular to laser is parallel to c [0 0 1]
Raman shift (cm-1)	intensity
132.898	0
137.814	75.7872
142.728	140.001
147.639	426.299
152.549	1681.63
157.455	11939.4
162.359	1577.21
167.261	217.433
172.161	86.7269
177.058	77.8581
181.952	21.2492
186.845	49.7612
191.734	37.4606
196.622	100.321
201.507	16.7269
206.389	63.5607
211.269	16.1139
216.147	19.0447
221.022	19.5314
225.895	5.09717
230.765	1.86597
235.633	18.7194
240.498	17.6324
245.361	19.5821
250.222	7.56836
255.08	31.8469
259.936	173.029
264.789	23.0912
269.64	6.14331
274.488	19.3418
279.334	42.8076
284.178	7.79089
289.019	43.3739
293.857	49.0848
298.693	36.8021
303.527	55.4495
308.358	94.9861
313.187	182.422
318.013	372.752
322.837	875.814
327.659	2634.62
332.478	13447.4
337.294	6622.07
342.108	1178.68
346.92	377.245
351.729	174.891
356.535	125.934
361.34	120.571
366.141	105.203
370.94	31.2584
375.737	13.9963
380.531	37.113
385.323	37.3677
390.113	74.7729
394.9	42.439
399.684	43.4449
404.466	84.4531
409.245	138.041
414.022	100.144
418.797	183.595
423.569	312.706
428.338	427.916
433.105	790.25
437.87	1812.6
442.632	5110.96
447.391	27550.3
452.149	41794.7
456.903	5536.14
461.655	1623.58
466.405	801.054
471.152	543.553
475.897	387.087
480.639	259.656
485.378	158.264
490.116	124.912
494.85	154.601
499.582	340.347
504.312	181.185
509.039	34.0911
513.764	35.0977
518.486	12.1497
523.206	16.1704
527.923	34.8083
532.638	34.1426
537.35	55.0957
542.059	53.1245
546.766	31.7209
551.471	5.61157
556.173	134.499
560.873	21.6609
565.57	4.8645
570.264	12.1099
574.957	39.3701
579.646	93.6682
584.333	106.004
589.018	75.3789
593.7	101.791
598.379	92.053
603.056	164.543
607.73	395.071
612.402	423.637
617.072	223.261
621.739	109.96
626.403	154.712
631.065	102.499
635.724	94.3235
640.381	101.164
645.035	298.069
649.687	285.005
654.336	444.996
658.983	877.43
663.627	1756.95
668.268	2518.76
672.907	1632.73
677.544	735.805
682.178	352.088
686.809	193.992
691.438	91.3142
696.065	71.6108
700.688	41.9348
705.31	86.489
709.929	44.4277
714.545	20.8066
719.158	28.3191
723.77	3.79858
728.378	2.29956
732.984	17.178
737.588	4.44507
742.189	93.9771
746.787	43.552
751.383	37.2512
755.976	34.1812
760.567	52.7544
765.155	71.3638
769.741	56.9927
774.324	44.7527
778.904	120.141
783.482	40.8401
788.058	84.3958
792.631	54.0056
797.201	95.6738
801.769	107.571
806.334	1.49048
810.897	42.3962
815.457	21.2202
820.014	21.0098
824.569	17.7669
829.122	33.4875
833.671	48.2207
838.219	41.9497
842.763	25.4795
847.306	57.1475
851.845	40.7983
856.382	49.4407
860.917	94.0747
865.448	82.6987
869.978	53.5032
874.505	67.105
879.029	7.70166
883.55	42.3023
888.069	3.11133
892.586	10.3987
897.1	20.866
901.611	73.3052
906.12	4.35938
910.626	7.22852
915.129	93.1728
919.63	68.5369
924.129	26.4316
928.625	14.0493
933.118	2.31665
937.609	79.5659
942.097	6.63647
946.582	25.8535
951.065	52.0581
955.546	2.24853
960.023	70.9065
964.499	84.4248
968.971	40.5654
973.441	1.29614
977.909	11.6128
982.374	104.425
986.836	81.4824
991.295	36.5395
995.753	94.5945
1000.21	115.648
1004.66	138.705
1009.11	93.6897
1013.55	75.8882
1018	108.954
1022.44	43.55
1026.88	69.356
1031.32	48.8748
1035.75	11.0432
1040.18	182.922
1044.61	74.2483
1049.04	222.383
1053.46	136.563
1057.88	25.7773
1062.3	96.9768
1066.71	97.0005
1071.13	20.2209
1075.54	21.227
1079.94	59.4351
1084.35	36.707
1088.75	88.7383
1093.15	78.5312
1097.55	54.9182
1101.94	62.898
1106.34	42.0864
1110.73	36.9678
1115.11	111.485
1119.5	166.05
1123.88	115.681
1128.26	72.2622
1132.63	91.9028
1137.01	1.47046
1141.38	18.1831
1145.75	5.83984
1150.12	32.5002
1154.48	43.1875
1158.84	38.0576
1163.2	26.677
1167.55	90.3826
1171.91	105.182
1176.26	39.0115
1180.61	145.177
1184.95	215.063
1189.29	738.188
1193.63	749.947
1197.97	272.931
1202.31	128.939
1206.64	128.972
1210.97	46.3501
1215.29	80.3916
1219.62	46.4895
1223.94	30.6587
1228.26	80.4297
1232.57	21.5796
1236.89	61.8467
1241.2	90.0466
1245.51	5.21509
1249.81	3.54663
1254.12	30.8247
1258.42	61.1184
1262.72	104.429
1267.01	36.0505
1271.3	102.434
1275.59	51.6802
1279.88	90.6724
1284.17	59.4075
1288.45	39.2288
1292.73	11.7217
1297.01	99.5747
1301.28	61.0347
1305.55	36.5076
1309.82	66.9702
1314.09	102.356
1318.35	53.7478
1322.61	122.122
1326.87	91.5019
1331.13	35.8965
1335.38	110.301
1339.63	63.7158
1343.88	47.1379
1348.12	86.5581
1352.37	50.7771
1356.61	93.2324
1360.85	33.1167
1365.08	58.581
1369.31	70.0435
1373.54	40.4148
1377.77	16.9084
1381.99	64.3196
1386.22	54.8438
1390.43	46.6074
1394.65	44.2688
1398.87	56.9636
1403.08	29.5474
1407.29	8.16138
1411.49	2.20703
1415.69	75.417
1419.89	74.0913
1424.09	75.0737
1428.29	23.6111
1432.48	9.12085
1436.67	75.3801
1440.86	122.91
1445.04	133.159
1449.23	163.442
1453.4	101.139
1457.58	193.64
1461.76	156.462
1465.93	77.2732
1470.1	81.8552
1474.26	130.726
1478.43	48.5969
1482.59	75.4937
1486.75	62.8835
1490.9	39.6746
1495.06	47.8401
1499.21	6.80493
1503.35	97.7822
1507.5	42.7825
1511.64	94.9805
1515.78	31.7209
1519.92	112.656
1524.05	49.186
1528.18	71.8398
1532.31	34.675
1536.44	43.5554
1540.56	139.623
1544.69	94.4846
1548.8	24.2625
1552.92	91.4146
1557.03	72.1252
1561.14	59.3306
1565.25	42.8992
1569.36	85.3657
