Measurement: Raman, 514 nm, ccw, Raman Data Processed
Mineral: Diaspore
Rruff sample: R060546
Ideal chemistry: AlO(OH)
Locality: Turkey
Source: Gemological Institute of America
Description: Platy transparent pale yellow fragment
Measured chemistry: (Al_0.99_Fe^3+^_0.01_)_Î£=1_O(OH) ; OH estimated by difference; Fe^3+^ by charge balance
Pin_id: L01635
Orientation: Laser parallel to c* (0 0 1). Fiducial mark perpendicular to laser is parallel to a [1 0 0]
Raman shift (cm-1)	intensity
132.898	0
137.814	55.9138
142.728	522.857
147.639	2578.9
152.549	4882.06
157.455	8594.5
162.359	1718.52
167.261	174.644
172.161	145.649
177.058	9.02222
181.952	62.7217
186.845	74.2815
191.734	104.765
196.622	111.757
201.507	151.465
206.389	45.2107
211.269	21.9744
216.147	15.5159
221.022	0.623047
225.895	27.094
230.765	65.6882
235.633	37.7246
240.498	28.8852
245.361	14.3938
250.222	1.38428
255.08	22.6919
259.936	273.823
264.789	76.2964
269.64	74.4294
274.488	155.766
279.334	854.004
284.178	1853.21
289.019	3010.14
293.857	2248.9
298.693	371.283
303.527	193.039
308.358	187.209
313.187	254.01
318.013	542.321
322.837	2455.4
327.659	4989.7
332.478	7480.63
337.294	4714.01
342.108	840.352
346.92	314.767
351.729	131.045
356.535	80.4187
361.34	139.758
366.141	185.658
370.94	267.723
375.737	180.456
380.531	81.571
385.323	142.98
390.113	530.881
394.9	1102.74
399.684	1011.27
404.466	178.147
409.245	144.012
414.022	257.268
418.797	376.144
423.569	583.021
428.338	890.852
433.105	1953.61
437.87	6753.34
442.632	22220
447.391	38742.7
452.149	44525.2
456.903	8076.8
461.655	2284.32
466.405	1195.84
471.152	682.38
475.897	436.938
480.639	305.512
485.378	270.101
490.116	383.707
494.85	603.331
499.582	892.076
504.312	518.908
509.039	181.796
513.764	62.7119
518.486	52.3511
523.206	13.5049
527.923	43.7192
532.638	26.0933
537.35	1.32959
542.059	55.4141
546.766	117.337
551.471	152.175
556.173	217.09
560.873	131.308
565.57	100.312
570.264	220.361
574.957	445.006
579.646	1178.51
584.333	1699.02
589.018	640.617
593.7	361.937
598.379	448.31
603.056	912.758
607.73	1434.29
612.402	1372.88
617.072	829.549
621.739	550.293
626.403	403.103
631.065	351.04
635.724	346.106
640.381	531.283
645.035	791.54
649.687	1132.86
654.336	1472.15
658.983	2359.02
663.627	3607.2
668.268	4074.92
672.907	2674.45
677.544	1241.27
682.178	520.552
686.809	299.602
691.438	202.173
696.065	35.8633
700.688	33.6377
705.31	38.5132
709.929	101.502
714.545	93.4228
719.158	15.4023
723.77	25.2646
728.378	116.429
732.984	168.658
737.588	154.977
742.189	120.701
746.787	160.17
751.383	247.637
755.976	285.898
760.567	387.103
765.155	659.308
769.741	985.887
774.324	1425.46
778.904	2429.61
783.482	4260.48
788.058	7031.38
792.631	8811.37
797.201	7123.28
801.769	3936.37
806.334	2224.8
810.897	1372.63
815.457	827.48
820.014	638.624
824.569	400.628
829.122	299.25
833.671	199.091
838.219	233.927
842.763	184.745
847.306	175.52
851.845	135.345
856.382	40.7969
860.917	201.342
865.448	63.5547
869.978	91.0571
874.505	90.5093
879.029	43.8467
883.55	68.105
888.069	70.2861
892.586	9.61035
897.1	113.388
901.611	112.304
906.12	16.0059
910.626	25.4546
915.129	64.8994
919.63	95.1763
924.129	74.3916
928.625	7.54346
933.118	18.4229
937.609	96.3608
942.097	98.019
946.582	23.7847
951.065	24.8696
955.546	23.5786
960.023	9.76074
964.499	82.5894
968.971	6.83838
973.441	34.9946
977.909	72.0562
982.374	187.054
986.836	127.97
991.295	105.879
995.753	246.159
1000.21	157.968
1004.66	278.728
1009.11	194.427
1013.55	213.755
1018	200.389
1022.44	132.059
1026.88	159.48
1031.32	240.046
1035.75	163.175
1040.18	253.931
1044.61	134.547
1049.04	333.115
1053.46	294.745
1057.88	151.383
1062.3	127.72
1066.71	103.98
1071.13	64.0503
1075.54	111.255
1079.94	156.423
1084.35	155.901
1088.75	162.627
1093.15	120.131
1097.55	54.602
1101.94	24.46
1106.34	128.624
1110.73	65.8989
1115.11	74.3335
1119.5	393.858
1123.88	537.984
1128.26	269.256
1132.63	153.093
1137.01	132.028
1141.38	72.0781
1145.75	37.8071
1150.12	165.264
1154.48	220.015
1158.84	252.698
1163.2	273.476
1167.55	374.769
1171.91	575.104
1176.26	802.591
1180.61	1512.24
1184.95	3266.01
1189.29	7201.88
1193.63	11589.9
1197.97	9154.02
1202.31	3596.36
1206.64	1615.86
1210.97	726.492
1215.29	457.416
1219.62	324.534
1223.94	201.847
1228.26	98.3555
1232.57	136.782
1236.89	24.5337
1241.2	85.5752
1245.51	96.5102
1249.81	43.5635
1254.12	68.7026
1258.42	67.9336
1262.72	86.2573
1267.01	123.654
1271.3	2.43555
1275.59	95.1616
1279.88	30.7207
1284.17	22.5352
1288.45	74.8423
1292.73	4.52148
1297.01	62.792
1301.28	157.48
1305.55	64.2139
1309.82	126.988
1314.09	147.797
1318.35	188.641
1322.61	194.525
1326.87	92.4434
1331.13	5.41357
1335.38	95.4346
1339.63	71.5054
1343.88	111.531
1348.12	133.473
1352.37	31.3994
1356.61	117.348
1360.85	25.2612
1365.08	5.09082
1369.31	105.643
1373.54	20.0059
1377.77	91.2798
1381.99	95.8862
1386.22	43.4858
1390.43	90.7207
1394.65	93.0986
1398.87	92.1934
1403.08	61.7671
1407.29	37.6704
1411.49	100.455
1415.69	46.231
1419.89	49.3648
1424.09	75.1665
1428.29	124.382
1432.48	103.626
1436.67	145.141
1440.86	304.56
1445.04	202.288
1449.23	382.595
1453.4	326.779
1457.58	367.979
1461.76	377.166
1465.93	326.346
1470.1	293.867
1474.26	174.703
1478.43	120.177
1482.59	189.81
1486.75	165.859
1490.9	178.661
1495.06	88.729
1499.21	116.914
1503.35	137.042
1507.5	4.21338
1511.64	70.6562
1515.78	115.09
1519.92	51.0322
1524.05	149.285
1528.18	95.4131
1532.31	83.3208
1536.44	109.237
1540.56	58.7598
1544.69	41.6514
1548.8	69.022
1552.92	210.413
1557.03	107.151
1561.14	97.084
1565.25	76.6484
1569.36	82.2773
