Measurement: Raman, 514 nm, ccw, Raman Data Processed
Mineral: Diaspore
Rruff sample: R060546
Ideal chemistry: AlO(OH)
Locality: Turkey
Source: Gemological Institute of America
Description: Platy transparent pale yellow fragment
Measured chemistry: (Al_0.99_Fe^3+^_0.01_)_Î£=1_O(OH) ; OH estimated by difference; Fe^3+^ by charge balance
Pin_id: L01635
Orientation: Laser parallel to c* (0 0 1). Fiducial mark perpendicular to laser is parallel to a [1 0 0]
Raman shift (cm-1)	intensity
132.898	0
137.814	83.292
142.728	645.796
147.639	3245.07
152.549	6147.73
157.455	9759.72
162.359	2254.97
167.261	225.885
172.161	16.6211
177.058	14.3623
181.952	40.0425
186.845	58.2844
191.734	65.4109
196.622	0.530762
201.507	52.4714
206.389	49.5156
211.269	31.1335
216.147	1.32983
221.022	53.9758
225.895	40.0576
230.765	30.0273
235.633	38.2786
240.498	40.6011
245.361	10.9648
250.222	87.6206
255.08	34.7786
259.936	142.484
264.789	33.5354
269.64	38.6704
274.488	46.8518
279.334	59.2102
284.178	207.177
289.019	223.02
293.857	159.917
298.693	70.6897
303.527	254.035
308.358	208.26
313.187	477.25
318.013	1105.5
322.837	4481.07
327.659	9261.51
332.478	12981.8
337.294	8759.99
342.108	1641.35
346.92	555.984
351.729	336.118
356.535	112.671
361.34	144.597
366.141	195.319
370.94	81.2637
375.737	199.381
380.531	127.877
385.323	161.546
390.113	94.4961
394.9	221.83
399.684	272.424
404.466	156.587
409.245	192.015
414.022	295.548
418.797	367.395
423.569	567.967
428.338	1026.17
433.105	2054.2
437.87	7534.85
442.632	25133.5
447.391	40910.2
452.149	48667
456.903	8425.73
461.655	2498.52
466.405	1203.38
471.152	719.304
475.897	466.272
480.639	384.302
485.378	261.4
490.116	351.579
494.85	513.83
499.582	530.153
504.312	434.547
509.039	132.023
513.764	136.588
518.486	95.7734
523.206	6.29785
527.923	34.7622
532.638	46.3071
537.35	22.981
542.059	28.252
546.766	235.537
551.471	290.894
556.173	419.357
560.873	75.9917
565.57	97.7388
570.264	64.5732
574.957	11.3027
579.646	102.565
584.333	165.737
589.018	173.923
593.7	157.186
598.379	291.548
603.056	447.067
607.73	553.69
612.402	530.389
617.072	338.725
621.739	186.625
626.403	142.603
631.065	230.658
635.724	223.786
640.381	367.988
645.035	394.303
649.687	648.719
654.336	1209.21
658.983	2215.05
663.627	3260.4
668.268	3656.13
672.907	2250.15
677.544	1068.4
682.178	502.628
686.809	225.373
691.438	143.222
696.065	125.904
700.688	107.038
705.31	29.6602
709.929	26.6582
714.545	99.7871
719.158	98.5635
723.77	57.3555
728.378	74.2158
732.984	0.854004
737.588	54.6143
742.189	118.69
746.787	53.812
751.383	10.7534
755.976	113.919
760.567	108.356
765.155	75.7163
769.741	10.0879
774.324	293.508
778.904	313.978
783.482	498.382
788.058	840.938
792.631	1008.9
797.201	780.399
801.769	462.852
806.334	278.736
810.897	205.752
815.457	50.9902
820.014	94.853
824.569	112.348
829.122	218.674
833.671	62.0576
838.219	30.3784
842.763	34.7275
847.306	32.2685
851.845	127.606
856.382	50.6406
860.917	99.8486
865.448	65.124
869.978	112.389
874.505	61.7022
879.029	60.8872
883.55	87.0483
888.069	34.2056
892.586	113.764
897.1	95.835
901.611	52.9023
906.12	38.9702
910.626	75.6768
915.129	34.8901
919.63	35.0654
924.129	41.998
928.625	48.9072
933.118	13.3701
937.609	71.2524
942.097	69.2368
946.582	31.8506
951.065	66.4448
955.546	10.9849
960.023	6.53564
964.499	55.8989
968.971	64.4722
973.441	15.9141
977.909	90.3457
982.374	115.783
986.836	84.5078
991.295	77.9644
995.753	109.444
1000.21	25.9448
1004.66	247.465
1009.11	77.9316
1013.55	63.438
1018	136.962
1022.44	23.792
1026.88	115.507
1031.32	99.0044
1035.75	115.642
1040.18	156.333
1044.61	167.038
1049.04	292.15
1053.46	274.601
1057.88	102.356
1062.3	135.769
1066.71	133.444
1071.13	27.0312
1075.54	138.786
1079.94	86.6362
1084.35	115.469
1088.75	145.753
1093.15	101.782
1097.55	50.7856
1101.94	129.147
1106.34	101.707
1110.73	39.8403
1115.11	65.0029
1119.5	196.25
1123.88	224.574
1128.26	109.947
1132.63	158.707
1137.01	90.8237
1141.38	60.5264
1145.75	55.9766
1150.12	63.5601
1154.48	153.668
1158.84	124.117
1163.2	98.9507
1167.55	142.836
1171.91	174.773
1176.26	312.761
1180.61	434.812
1184.95	844.967
1189.29	1856.18
1193.63	2611.47
1197.97	2118.92
1202.31	868.077
1206.64	318.663
1210.97	229.35
1215.29	197.998
1219.62	133.787
1223.94	80.6499
1228.26	79.5835
1232.57	28.4365
1236.89	66.5454
1241.2	96.5713
1245.51	109.819
1249.81	14.9692
1254.12	76.186
1258.42	1.54346
1262.72	44.7153
1267.01	163.984
1271.3	158.025
1275.59	69.3354
1279.88	80.1572
1284.17	27.3706
1288.45	101.518
1292.73	119.966
1297.01	142.484
1301.28	128.052
1305.55	66.6675
1309.82	104.329
1314.09	114.035
1318.35	167.788
1322.61	98.5825
1326.87	135.409
1331.13	108.287
1335.38	130.227
1339.63	3.21435
1343.88	109.245
1348.12	72.3213
1352.37	51.4395
1356.61	123.603
1360.85	111.103
1365.08	7.29004
1369.31	46.436
1373.54	81.6367
1377.77	17.9165
1381.99	69.2158
1386.22	158.431
1390.43	114.501
1394.65	87.1548
1398.87	66.687
1403.08	57.7148
1407.29	36.2617
1411.49	179.729
1415.69	1.29541
1419.89	139.032
1424.09	144.738
1428.29	90.2344
1432.48	36.7529
1436.67	92.2017
1440.86	208.93
1445.04	214.292
1449.23	277.165
1453.4	169.088
1457.58	211.068
1461.76	238.105
1465.93	72.1958
1470.1	179.395
1474.26	228.488
1478.43	190.807
1482.59	201.239
1486.75	177.68
1490.9	86.6675
1495.06	18.8086
1499.21	76.0967
1503.35	107.406
1507.5	128.774
1511.64	51.2085
1515.78	174.735
1519.92	204.29
1524.05	31.1401
1528.18	194.43
1532.31	87.3003
1536.44	130.048
1540.56	166.966
1544.69	144.905
1548.8	108.04
1552.92	221.043
1557.03	103.383
1561.14	98.6929
1565.25	86.9937
1569.36	67.0996
