Measurement: Raman, 514 nm, ccw, Raman Data Processed
Mineral: Diaspore
Rruff sample: R060546
Ideal chemistry: AlO(OH)
Locality: Turkey
Source: Gemological Institute of America
Description: Platy transparent pale yellow fragment
Measured chemistry: (Al_0.99_Fe^3+^_0.01_)_Î£=1_O(OH) ; OH estimated by difference; Fe^3+^ by charge balance
Pin_id: L01029
Orientation: Laser parallel to b* (0 1 0). Fiducial mark perpendicular to laser is parallel to c [0 0 1]
Raman shift (cm-1)	intensity
132.898	0
137.814	13.2119
142.728	360.463
147.639	768.471
152.549	600.528
157.455	1136.19
162.359	137.456
167.261	243.374
172.161	42.4746
177.058	90.3272
181.952	174.606
186.845	194.394
191.734	302.531
196.622	250.047
201.507	328.477
206.389	305.039
211.269	21.3838
216.147	100.645
221.022	119.649
225.895	240.416
230.765	127.383
235.633	267.535
240.498	236.363
245.361	125.884
250.222	105.242
255.08	204.724
259.936	721.417
264.789	142.09
269.64	91.3682
274.488	57.4873
279.334	33.8594
284.178	50.4238
289.019	46.3154
293.857	99.4873
298.693	88.1728
303.527	38.4316
308.358	28.2295
313.187	90.3633
318.013	131.936
322.837	367.904
327.659	1438.18
332.478	7387.85
337.294	6700.81
342.108	1393.19
346.92	613.275
351.729	428.033
356.535	391.49
361.34	41.9238
366.141	195.143
370.94	620.951
375.737	313.512
380.531	252.549
385.323	346.297
390.113	345.148
394.9	496.555
399.684	580.631
404.466	288.438
409.245	253.56
414.022	289.756
418.797	358.897
423.569	315.541
428.338	361.805
433.105	718.297
437.87	1434.15
442.632	4124.32
447.391	17382.8
452.149	46520.8
456.903	7889.06
461.655	2566.16
466.405	1280.28
471.152	862.436
475.897	748.633
480.639	329.891
485.378	562.221
490.116	1295.09
494.85	3822.15
499.582	21247.8
504.312	18599.2
509.039	2460.17
513.764	743.342
518.486	595.621
523.206	258.789
527.923	131.551
532.638	118.518
537.35	230.916
542.059	72.8164
546.766	144.277
551.471	279.166
556.173	1035.46
560.873	553.076
565.57	327.975
570.264	51.7988
574.957	15.7676
579.646	81.2969
584.333	118.103
589.018	97.1231
593.7	90.4707
598.379	34.9395
603.056	121.973
607.73	537.148
612.402	673.537
617.072	539.15
621.739	473.975
626.403	1198.09
631.065	1092.44
635.724	655.99
640.381	867.746
645.035	1394.7
649.687	1880.86
654.336	2780.2
658.983	4941.81
663.627	10345.6
668.268	16892.8
672.907	12658.2
677.544	6224.36
682.178	2973.05
686.809	2098.46
691.438	1287.61
696.065	1252.96
700.688	1304.35
705.31	1067.93
709.929	754.045
714.545	676.502
719.158	743.785
723.77	653.836
728.378	491.69
732.984	745.143
737.588	667.674
742.189	572.291
746.787	411.926
751.383	477.312
755.976	187.951
760.567	360.629
765.155	290.508
769.741	352.096
774.324	247.652
778.904	203.299
783.482	257.775
788.058	257.207
792.631	301.736
797.201	227.639
801.769	132.084
806.334	123.129
810.897	109.281
815.457	49.5117
820.014	20.5781
824.569	119.275
829.122	147.406
833.671	17.9277
838.219	41.3145
842.763	200.137
847.306	314.887
851.845	341.562
856.382	401.178
860.917	603.812
865.448	519.537
869.978	486.248
874.505	212.957
879.029	253.57
883.55	121.074
888.069	175.453
892.586	48.7031
897.1	77.1582
901.611	103.66
906.12	213.377
910.626	36.9922
915.129	109.498
919.63	219.91
924.129	87.2246
928.625	10.416
933.118	27.3516
937.609	170.147
942.097	14.5781
946.582	116.49
951.065	209.32
955.546	199.31
960.023	133.752
964.499	106.881
968.971	107.756
973.441	210.75
977.909	24.9043
982.374	98.0898
986.836	123.305
991.295	212.555
995.753	351.904
1000.21	504.352
1004.66	1416.38
1009.11	661.098
1013.55	592.742
1018	632.387
1022.44	678.348
1026.88	828.086
1031.32	724.674
1035.75	448.19
1040.18	450.674
1044.61	690.252
1049.04	1171.5
1053.46	1293.86
1057.88	377.334
1062.3	286.188
1066.71	246.764
1071.13	241.586
1075.54	520.92
1079.94	579.846
1084.35	334.76
1088.75	573.279
1093.15	258.273
1097.55	313.953
1101.94	332.902
1106.34	117.316
1110.73	43.9082
1115.11	249.672
1119.5	702.609
1123.88	955.361
1128.26	721.758
1132.63	253.223
1137.01	10.1484
1141.38	3.34961
1145.75	159.713
1150.12	46.0684
1154.48	294.625
1158.84	67.5137
1163.2	175.639
1167.55	84.041
1171.91	136.629
1176.26	50.4062
1180.61	745.373
1184.95	788.531
1189.29	2464.88
1193.63	2518.45
1197.97	788.279
1202.31	372.336
1206.64	69.4121
1210.97	13.4238
1215.29	60.7402
1219.62	112.832
1223.94	169.477
1228.26	84.1348
1232.57	128.746
1236.89	286.523
1241.2	141.455
1245.51	215.535
1249.81	151.762
1254.12	203.152
1258.42	80.5918
1262.72	287.117
1267.01	246.129
1271.3	453.113
1275.59	564.148
1279.88	396.312
1284.17	350.424
1288.45	519.34
1292.73	381.43
1297.01	398.519
1301.28	295.285
1305.55	221.152
1309.82	449.113
1314.09	414.17
1318.35	663.324
1322.61	755.582
1326.87	363.908
1331.13	405.33
1335.38	451.846
1339.63	440.94
1343.88	64.543
1348.12	235.727
1352.37	396.148
1356.61	282.398
1360.85	197.156
1365.08	165.258
1369.31	151.266
1373.54	212.219
1377.77	232.246
1381.99	51.7734
1386.22	189.91
1390.43	430.227
1394.65	9.44922
1398.87	50.9453
1403.08	227.438
1407.29	43.9297
1411.49	26.5156
1415.69	277.992
1419.89	122.285
1424.09	161.367
1428.29	297.234
1432.48	270.438
1436.67	730.379
1440.86	950.258
1445.04	1271.79
1449.23	1447.39
1453.4	1581.48
1457.58	1446.64
1461.76	1394.39
1465.93	1155.6
1470.1	932.289
1474.26	758.18
1478.43	395.199
1482.59	324.508
1486.75	470.426
1490.9	384.523
1495.06	636.449
1499.21	359.18
1503.35	387.32
1507.5	15.3711
1511.64	82.0703
1515.78	59.2969
1519.92	351.371
1524.05	374.91
1528.18	385.188
1532.31	258.957
1536.44	230.141
1540.56	273.234
1544.69	10.1289
1548.8	317.762
1552.92	255.141
1557.03	761.117
1561.14	344.391
1565.25	1.32422
1569.36	154.106
