Measurement: Raman, 514 nm, ccw, Raman Data Processed
Mineral: Diaspore
Rruff sample: R060287
Ideal chemistry: AlO(OH)
Locality: Selcuk, Mugla Province, Turkey
Source: Herb Obodda
Description: Colorless transparent platy fragment
Measured chemistry: (Al_0.99_Fe^3+^_0.01_)_Î£=1_O(OH) ; trace amounts of Ti;  OH estimated by difference ; Fe^3+^ by charge balance
Pin_id: L01505
Orientation: Laser parallel to b* (0 1 0). Fiducial mark perpendicular to laser is parallel to c [0 0 1]
Raman shift (cm-1)	intensity
132.898	0
137.814	56.2908
142.728	170.869
147.639	470.599
152.549	1760.69
157.455	11032
162.359	1618.64
167.261	525.635
172.161	462.872
177.058	348.332
181.952	465.141
186.845	660.334
191.734	631.475
196.622	531.882
201.507	523.57
206.389	344.638
211.269	242.289
216.147	170.198
221.022	90.0869
225.895	44.645
230.765	43.6187
235.633	37.7534
240.498	14.2185
245.361	34.3543
250.222	67.6331
255.08	43.2859
259.936	335.17
264.789	58.8481
269.64	62.887
274.488	202.776
279.334	216.6
284.178	237.804
289.019	348.895
293.857	485.928
298.693	502.523
303.527	532.543
308.358	613.821
313.187	626.175
318.013	944.756
322.837	1504.73
327.659	3182.88
332.478	14090.6
337.294	7227.76
342.108	1600.73
346.92	909.47
351.729	539.238
356.535	451.066
361.34	287.898
366.141	244.014
370.94	158.239
375.737	97.0859
380.531	121.569
385.323	388.308
390.113	55.6248
394.9	86.1985
399.684	29.9338
404.466	131.119
409.245	224.18
414.022	246.833
418.797	339.727
423.569	430.837
428.338	610.892
433.105	1105.85
437.87	2350.7
442.632	5701.46
447.391	29471.1
452.149	44465.7
456.903	6516.3
461.655	2434.82
466.405	1569.31
471.152	1237.8
475.897	1082.3
480.639	796.848
485.378	840.463
490.116	823.161
494.85	1276.94
499.582	4720.81
504.312	2345.76
509.039	497.809
513.764	225.974
518.486	87.3828
523.206	27.9258
527.923	7.03125
532.638	113.001
537.35	115.815
542.059	7.2583
546.766	58.4492
551.471	677.256
556.173	1971.27
560.873	583.721
565.57	209.575
570.264	239.818
574.957	234.332
579.646	227.843
584.333	381.926
589.018	457.93
593.7	591.046
598.379	623.277
603.056	878.623
607.73	1009.08
612.402	1203.65
617.072	838.338
621.739	877.136
626.403	804.043
631.065	753.057
635.724	695.176
640.381	764.398
645.035	820.721
649.687	927.139
654.336	1026.65
658.983	1779.26
663.627	3527.39
668.268	5109.08
672.907	3278.63
677.544	1524.94
682.178	513.148
686.809	225.036
691.438	92.0635
696.065	35.5312
700.688	120.728
705.31	173.786
709.929	157.12
714.545	144.357
719.158	352.245
723.77	310.714
728.378	415.356
732.984	488.976
737.588	559.574
742.189	637.145
746.787	718.687
751.383	705.195
755.976	808.667
760.567	803.098
765.155	764.484
769.741	817.823
774.324	791.109
778.904	788.34
783.482	611.511
788.058	646.618
792.631	582.659
797.201	446.629
801.769	397.539
806.334	186.431
810.897	290.41
815.457	105.569
820.014	30.8643
824.569	11.8652
829.122	13.0918
833.671	78.0981
838.219	54.7329
842.763	36.8198
847.306	21.2134
851.845	56.5752
856.382	101.603
860.917	139.307
865.448	142.876
869.978	318.425
874.505	340.961
879.029	450.419
883.55	600.774
888.069	525.047
892.586	572.249
897.1	733.349
901.611	698.342
906.12	848.231
910.626	746.015
915.129	835.696
919.63	833.275
924.129	750.754
928.625	635.134
933.118	750.293
937.609	614.383
942.097	551.698
946.582	465.697
951.065	349.599
955.546	371.279
960.023	105.901
964.499	204.951
968.971	24.2686
973.441	114.593
977.909	68.2817
982.374	8.78857
986.836	97.2349
991.295	84.2197
995.753	28.2363
1000.21	120.064
1004.66	287.016
1009.11	176.487
1013.55	378.556
1018	369.324
1022.44	573.862
1026.88	619.429
1031.32	590.774
1035.75	728.137
1040.18	838.52
1044.61	1209.92
1049.04	1988.34
1053.46	1461.79
1057.88	1002.26
1062.3	884.766
1066.71	797.299
1071.13	726.867
1075.54	772.47
1079.94	766.111
1084.35	650.793
1088.75	688.516
1093.15	528.373
1097.55	326.324
1101.94	378.329
1106.34	152.652
1110.73	345.888
1115.11	281.658
1119.5	289.637
1123.88	397.318
1128.26	188.962
1132.63	137.324
1137.01	72.1621
1141.38	1.96289
1145.75	4.77393
1150.12	31.3027
1154.48	26.585
1158.84	130.053
1163.2	414.004
1167.55	391.898
1171.91	313.723
1176.26	567.678
1180.61	616.689
1184.95	859.756
1189.29	1795.85
1193.63	1726.98
1197.97	1063.14
1202.31	931.32
1206.64	676.532
1210.97	686.567
1215.29	685.032
1219.62	689.596
1223.94	594.628
1228.26	679.957
1232.57	565.312
1236.89	474.731
1241.2	407.177
1245.51	331.638
1249.81	262.109
1254.12	316.655
1258.42	220.199
1262.72	156.938
1267.01	136.671
1271.3	43.1382
1275.59	0.946777
1279.88	41.2725
1284.17	61.1411
1288.45	29.3428
1292.73	63.0903
1297.01	102.092
1301.28	130.729
1305.55	134.423
1309.82	328.74
1314.09	382.885
1318.35	368.01
1322.61	553.125
1326.87	519.227
1331.13	452.307
1335.38	731.362
1339.63	642.391
1343.88	567.394
1348.12	695.368
1352.37	623.314
1356.61	686.232
1360.85	765.122
1365.08	865.986
1369.31	623.824
1373.54	498.518
1377.77	564.707
1381.99	553.723
1386.22	404.682
1390.43	483.63
1394.65	397.658
1398.87	211.919
1403.08	184.277
1407.29	88.8281
1411.49	20.5835
1415.69	49.833
1419.89	117.307
1424.09	37.0986
1428.29	34.6943
1432.48	23.5581
1436.67	78.6133
1440.86	86.2437
1445.04	38.0508
1449.23	337.533
1453.4	363.227
1457.58	344.878
1461.76	476.484
1465.93	473.044
1470.1	473.557
1474.26	408.019
1478.43	572.468
1482.59	581.938
1486.75	463.497
1490.9	470.397
1495.06	706.36
1499.21	516.805
1503.35	600.626
1507.5	558.034
1511.64	574.874
1515.78	430.485
1519.92	473.884
1524.05	535.031
1528.18	371.864
1532.31	498.257
1536.44	406.819
1540.56	418.207
1544.69	212.603
1548.8	117.165
1552.92	343.819
1557.03	104.078
1561.14	7.22119
1565.25	140.961
1569.36	128.782
