Measurement: Raman, 514 nm, ccw, Raman Data Processed
Mineral: Diaspore
Rruff sample: R060546
Ideal chemistry: AlO(OH)
Locality: Turkey
Source: Gemological Institute of America
Description: Platy transparent pale yellow fragment
Measured chemistry: (Al_0.99_Fe^3+^_0.01_)_Î£=1_O(OH) ; OH estimated by difference; Fe^3+^ by charge balance
Pin_id: L01871
Orientation: Laser parallel to a* (1 0 0). Fiducial mark perpendicular to laser is parallel to b [0 1 0]
Raman shift (cm-1)	intensity
132.898	0
137.814	59.7266
142.728	822.377
147.639	2771.3
152.549	4401.81
157.455	3388.43
162.359	763.842
167.261	349.519
172.161	145.414
177.058	190.004
181.952	202.217
186.845	218.133
191.734	185.691
196.622	433.918
201.507	347.639
206.389	193.164
211.269	120.023
216.147	150.543
221.022	191.412
225.895	141.959
230.765	202.609
235.633	143.975
240.498	83.9902
245.361	178.707
250.222	256.723
255.08	129.994
259.936	346.127
264.789	40.3633
269.64	687.408
274.488	30.0195
279.334	495.768
284.178	614.67
289.019	868.674
293.857	414.144
298.693	89.5938
303.527	180.26
308.358	138.889
313.187	33.5078
318.013	444.978
322.837	1631.71
327.659	2928.34
332.478	3112.13
337.294	1327.11
342.108	443.268
346.92	100.516
351.729	287.875
356.535	890.406
361.34	3497.15
366.141	4526.68
370.94	3647.9
375.737	894.875
380.531	334.59
385.323	335.861
390.113	331.941
394.9	587.606
399.684	142.156
404.466	294.82
409.245	63.2871
414.022	268.769
418.797	250.414
423.569	427.633
428.338	691.135
433.105	1803.91
437.87	7599.93
442.632	24421.6
447.391	32495.7
452.149	20365
456.903	3726.45
461.655	1482.15
466.405	727.584
471.152	444.279
475.897	244.242
480.639	341.475
485.378	449.986
490.116	3602.78
494.85	6956.44
499.582	6982.79
504.312	2875.43
509.039	602.367
513.764	43.6895
518.486	48.3086
523.206	3.03711
527.923	56.6191
532.638	103.094
537.35	20.4688
542.059	69.0566
546.766	148.162
551.471	329.109
556.173	375.449
560.873	244.231
565.57	151.336
570.264	660.91
574.957	669.166
579.646	801.996
584.333	496.19
589.018	46.752
593.7	48.0625
598.379	688.113
603.056	1485.82
607.73	1958.92
612.402	1555.5
617.072	912.635
621.739	516.201
626.403	223.092
631.065	410.242
635.724	300.68
640.381	408.43
645.035	818.486
649.687	1444.78
654.336	2848.81
658.983	6309.56
663.627	8921
668.268	8296.47
672.907	5144.52
677.544	2329.55
682.178	1438.19
686.809	775.621
691.438	701.342
696.065	611.078
700.688	574.793
705.31	530.035
709.929	374.891
714.545	488.635
719.158	344.791
723.77	285.906
728.378	377.688
732.984	424.695
737.588	340.978
742.189	342.285
746.787	342.51
751.383	264.279
755.976	301.168
760.567	159.752
765.155	351.428
769.741	289.201
774.324	618.762
778.904	879.031
783.482	1493.03
788.058	2194.8
792.631	2375.07
797.201	1758.62
801.769	981.479
806.334	688.846
810.897	490.305
815.457	55.7754
820.014	179.377
824.569	72.8144
829.122	53.0469
833.671	73.0762
838.219	89.7852
842.763	11.2891
847.306	33.1953
851.845	96.7148
856.382	20.7344
860.917	252.004
865.448	134.078
869.978	78.7031
874.505	48
879.029	13.4648
883.55	31.6914
888.069	224.184
892.586	77.4688
897.1	58.4023
901.611	26.1211
906.12	333.734
910.626	88.25
915.129	73.5312
919.63	366.664
924.129	179.719
928.625	228.707
933.118	265.629
937.609	71.4961
942.097	141.316
946.582	127.082
951.065	276.766
955.546	143.012
960.023	263.328
964.499	319.43
968.971	198.934
973.441	273.547
977.909	242.863
982.374	478.402
986.836	351.59
991.295	743.449
995.753	708.445
1000.21	690.324
1004.66	665.785
1009.11	643.371
1013.55	443.664
1018	605.484
1022.44	555.816
1026.88	571.961
1031.32	781.223
1035.75	684.34
1040.18	675.856
1044.61	1002.69
1049.04	1160.1
1053.46	776.598
1057.88	251.383
1062.3	389.441
1066.71	394.781
1071.13	482.414
1075.54	389.359
1079.94	455.637
1084.35	156.207
1088.75	398.098
1093.15	81.3359
1097.55	212.918
1101.94	197.898
1106.34	282.258
1110.73	350.473
1115.11	179.856
1119.5	1416.9
1123.88	1695.51
1128.26	559.844
1132.63	372.973
1137.01	146.273
1141.38	145.68
1145.75	83.1406
1150.12	120.957
1154.48	445.93
1158.84	229.777
1163.2	442.316
1167.55	427.285
1171.91	350.754
1176.26	456.629
1180.61	920.918
1184.95	2398.3
1189.29	4544.95
1193.63	4431.85
1197.97	2681
1202.31	1282.41
1206.64	737.148
1210.97	526.008
1215.29	191.09
1219.62	38.4062
1223.94	256.934
1228.26	177.664
1232.57	414.606
1236.89	101.254
1241.2	268.906
1245.51	277.254
1249.81	36.6641
1254.12	71.6484
1258.42	94.2891
1262.72	256.137
1267.01	84.1367
1271.3	124.172
1275.59	38.7422
1279.88	10.9805
1284.17	46.0117
1288.45	428.613
1292.73	166.832
1297.01	61.3164
1301.28	75.4258
1305.55	64.6797
1309.82	456.688
1314.09	269.691
1318.35	120.773
1322.61	288.926
1326.87	116.969
1331.13	438.019
1335.38	274.059
1339.63	367.098
1343.88	371.152
1348.12	176.223
1352.37	149.262
1356.61	342.32
1360.85	419.672
1365.08	144.981
1369.31	160.164
1373.54	295.863
1377.77	211.293
1381.99	199.551
1386.22	391.949
1390.43	386.793
1394.65	266.894
1398.87	482.457
1403.08	213.777
1407.29	184.609
1411.49	291.188
1415.69	259.297
1419.89	29.6523
1424.09	217.394
1428.29	407.055
1432.48	273.023
1436.67	114.629
1440.86	529.41
1445.04	144.621
1449.23	350.746
1453.4	571.715
1457.58	421.352
1461.76	157.09
1465.93	204.738
1470.1	374.293
1474.26	303.918
1478.43	510.633
1482.59	2.90625
1486.75	125.793
1490.9	564.961
1495.06	194.969
1499.21	25.3398
1503.35	276.981
1507.5	255.715
1511.64	227.297
1515.78	261.414
1519.92	313.699
1524.05	177.106
1528.18	38.5156
1532.31	402.93
1536.44	430.891
1540.56	209.238
1544.69	336.562
1548.8	189.731
1552.92	281.941
1557.03	1.89844
1561.14	16.5781
1565.25	155.18
1569.36	2.94141
