Measurement: Raman, 514 nm, ccw, Raman Data Processed
Mineral: Diaspore
Rruff sample: R060546
Ideal chemistry: AlO(OH)
Locality: Turkey
Source: Gemological Institute of America
Description: Platy transparent pale yellow fragment
Measured chemistry: (Al_0.99_Fe^3+^_0.01_)_Î£=1_O(OH) ; OH estimated by difference; Fe^3+^ by charge balance
Pin_id: L01635
Orientation: Laser parallel to c* (0 0 1). Fiducial mark perpendicular to laser is parallel to a [1 0 0]
Raman shift (cm-1)	intensity
132.898	0
137.814	136.865
142.728	710.825
147.639	3022.78
152.549	8257.79
157.455	9053.48
162.359	1985.91
167.261	318.293
172.161	53.5122
177.058	39.1924
181.952	84.6553
186.845	28.0181
191.734	0.390137
196.622	19.727
201.507	49.604
206.389	63.5972
211.269	16.7446
216.147	34.812
221.022	88.1148
225.895	55.6675
230.765	105.619
235.633	22.9702
240.498	48.0869
245.361	209.537
250.222	23.6519
255.08	37.3628
259.936	174.343
264.789	40.398
269.64	22.6279
274.488	81.2485
279.334	178.917
284.178	400.05
289.019	976.27
293.857	402.401
298.693	81.7876
303.527	31.7808
308.358	1.57666
313.187	30.4307
318.013	8.08057
322.837	179.783
327.659	262.062
332.478	629.256
337.294	296.878
342.108	50.4302
346.92	36.1709
351.729	36.2915
356.535	30.8389
361.34	158.103
366.141	313.951
370.94	449.351
375.737	102.237
380.531	53.7866
385.323	101.24
390.113	180.705
394.9	446.869
399.684	338.115
404.466	167.154
409.245	81.9048
414.022	205.25
418.797	215.756
423.569	424.201
428.338	761.723
433.105	1625.12
437.87	5788.37
442.632	20023.8
447.391	51439.3
452.149	38490.7
456.903	7185.34
461.655	2147.22
466.405	1173.9
471.152	806.645
475.897	593.359
480.639	430.06
485.378	403.728
490.116	803.308
494.85	1603.02
499.582	2588.55
504.312	1144.01
509.039	155.773
513.764	39.4023
518.486	11.3057
523.206	65.1294
527.923	14.5986
532.638	39.8545
537.35	7.26562
542.059	4.36719
546.766	47.1245
551.471	69.8613
556.173	94.8203
560.873	168.891
565.57	156.074
570.264	194.379
574.957	384.809
579.646	797.37
584.333	995.098
589.018	737.548
593.7	758.382
598.379	1509.96
603.056	2777.81
607.73	4674.93
612.402	4424.26
617.072	2346.77
621.739	1512.47
626.403	1297.39
631.065	956.614
635.724	618.085
640.381	750.809
645.035	1068.79
649.687	1516.03
654.336	2351.63
658.983	4247.59
663.627	7027.72
668.268	7714.86
672.907	4961.25
677.544	2297.31
682.178	1150.21
686.809	709.473
691.438	370.641
696.065	248.934
700.688	78.501
705.31	268.454
709.929	172.88
714.545	89.3164
719.158	90.9941
723.77	155.912
728.378	122.065
732.984	158.45
737.588	288.06
742.189	187.891
746.787	143.8
751.383	140.37
755.976	303.1
760.567	334.522
765.155	354.664
769.741	583.735
774.324	826.309
778.904	1354.73
783.482	2149.25
788.058	3857
792.631	5037.46
797.201	3836.11
801.769	2374.2
806.334	1278.82
810.897	803.9
815.457	468.068
820.014	417.979
824.569	299.3
829.122	162.853
833.671	96.9062
838.219	193.212
842.763	249.444
847.306	149.704
851.845	90.5
856.382	80.3203
860.917	262.156
865.448	239.001
869.978	142.852
874.505	97.7031
879.029	0.452148
883.55	94.6914
888.069	144.433
892.586	28.1338
897.1	42.7685
901.611	102.258
906.12	30.4658
910.626	122.689
915.129	10.1973
919.63	70.6982
924.129	46.4971
928.625	27.9795
933.118	40.5078
937.609	97.8994
942.097	26.8779
946.582	156.517
951.065	15.4121
955.546	2.17383
960.023	120.089
964.499	97.6611
968.971	37.127
973.441	3.50098
977.909	9.59375
982.374	95.2988
986.836	140.17
991.295	193.972
995.753	135.707
1000.21	239.379
1004.66	491.001
1009.11	174.58
1013.55	9.99707
1018	152.679
1022.44	222.756
1026.88	192.851
1031.32	158.42
1035.75	123.441
1040.18	101.367
1044.61	176.593
1049.04	138.537
1053.46	77.0693
1057.88	16.7188
1062.3	124.855
1066.71	79.5215
1071.13	128.972
1075.54	183.102
1079.94	119.327
1084.35	293.183
1088.75	204.752
1093.15	80.0508
1097.55	112.514
1101.94	2.72461
1106.34	53.1397
1110.73	106.993
1115.11	129.151
1119.5	377.448
1123.88	675.861
1128.26	250.384
1132.63	207.02
1137.01	28.2812
1141.38	178.588
1145.75	88.2978
1150.12	36.4316
1154.48	216.487
1158.84	180.565
1163.2	420.054
1167.55	425.006
1171.91	584.201
1176.26	933.571
1180.61	1597.09
1184.95	3693.86
1189.29	8077.79
1193.63	12273.1
1197.97	9115.38
1202.31	3595.88
1206.64	1480.77
1210.97	663.945
1215.29	434.312
1219.62	348.076
1223.94	196.024
1228.26	62.1201
1232.57	125.872
1236.89	131.861
1241.2	274.198
1245.51	166.144
1249.81	93.4873
1254.12	140.549
1258.42	164.773
1262.72	150.131
1267.01	192.576
1271.3	151.165
1275.59	197.605
1279.88	45.5205
1284.17	105.265
1288.45	60.9102
1292.73	169.079
1297.01	282.273
1301.28	28.6094
1305.55	327.014
1309.82	208.481
1314.09	204.002
1318.35	291.859
1322.61	196.212
1326.87	264.912
1331.13	99.7051
1335.38	165.574
1339.63	41.5215
1343.88	106.378
1348.12	95.0615
1352.37	141.72
1356.61	12.4238
1360.85	34.0605
1365.08	71.1856
1369.31	62.3184
1373.54	32.1494
1377.77	107.197
1381.99	95.4756
1386.22	56.0547
1390.43	169.671
1394.65	163.723
1398.87	91.9473
1403.08	62.5254
1407.29	181.709
1411.49	94.2031
1415.69	96.8789
1419.89	85.6152
1424.09	72.3076
1428.29	128.357
1432.48	143.217
1436.67	286.729
1440.86	265.089
1445.04	576.077
1449.23	591.926
1453.4	663.465
1457.58	540.019
1461.76	608.638
1465.93	518.198
1470.1	355.068
1474.26	365.874
1478.43	322.046
1482.59	169.269
1486.75	232.493
1490.9	169.917
1495.06	114.289
1499.21	98.2686
1503.35	166.222
1507.5	20.1406
1511.64	144.084
1515.78	30.7949
1519.92	50.0518
1524.05	22.3418
1528.18	98.0156
1532.31	175.553
1536.44	128.941
1540.56	174.011
1544.69	227.212
1548.8	96.1748
1552.92	121.759
1557.03	143.417
1561.14	96.3389
1565.25	47.6279
1569.36	99.2734
