Measurement: Raman, 514 nm, ccw, Raman Data Processed
Mineral: Diaspore
Rruff sample: R060287
Ideal chemistry: AlO(OH)
Locality: Selcuk, Mugla Province, Turkey
Source: Herb Obodda
Description: Colorless transparent platy fragment
Measured chemistry: (Al_0.99_Fe^3+^_0.01_)_Î£=1_O(OH) ; trace amounts of Ti;  OH estimated by difference ; Fe^3+^ by charge balance
Pin_id: L01505
Orientation: Laser parallel to b* (0 1 0). Fiducial mark perpendicular to laser is parallel to c [0 0 1]
Raman shift (cm-1)	intensity
168.486	0
173.385	225.222
178.282	27.5498
183.176	216.879
188.067	144.257
192.956	338.518
197.843	136.718
202.727	588.307
207.609	151.297
212.489	360.281
217.366	221.148
222.24	287.248
227.112	57.124
231.982	325.79
236.849	169.72
241.714	293.938
246.577	209.269
251.437	141.734
256.294	17.0908
261.149	585.088
266.002	25.5479
270.852	308.268
275.7	44.9795
280.545	124.818
285.388	73.9385
290.229	129.233
295.067	48.6631
299.902	248.101
304.735	144.262
309.566	156.382
314.394	38.79
319.22	491.233
324.043	603.733
328.864	2842.16
333.682	10679.2
338.498	3064.99
343.311	661.207
348.122	668.727
352.931	267.915
357.737	516.736
362.54	111.316
367.341	481.424
372.14	226.393
376.936	383.259
381.73	77.0088
386.521	483.492
391.31	188.461
396.096	510.545
400.88	347.622
405.661	446.435
410.44	389.353
415.216	294.233
419.99	313.192
424.761	283.812
429.53	644.554
434.297	916.322
439.061	2630.21
443.822	6367.77
448.581	39911.8
453.337	20322.6
458.091	3822.3
462.843	1326.6
467.592	935.04
472.338	810.639
477.082	678.398
481.824	440.329
486.563	654.443
491.3	2399.76
496.034	6912.28
500.765	33695
505.494	6360.02
510.221	1556.24
514.945	463.768
519.666	549.615
524.385	275.738
529.102	256.177
533.816	297.005
538.527	14.1172
543.236	377.656
547.943	46.3633
552.647	898.952
557.348	679.666
562.047	438.713
566.744	119.112
571.438	117.942
576.129	28.4023
580.818	24.5352
585.504	237.793
590.188	65.7129
594.87	289.879
599.549	36.4385
604.225	472.221
608.899	570.293
613.57	687.669
618.239	578.273
622.905	293.144
627.569	940.288
632.23	421.666
636.889	829.295
641.545	731.168
646.198	1211.24
650.849	1873.49
655.498	3036.93
660.144	6703.55
664.787	13412.8
669.428	16611.9
674.067	9171.82
678.703	4590.64
683.336	2721.43
687.967	1560.83
692.595	1525.35
697.221	1247.1
701.844	1490.77
706.465	1193.87
711.083	917.523
715.698	1054.28
720.311	662.92
724.922	981.113
729.53	740.371
734.135	790.484
738.738	836.055
743.338	632.609
747.936	1037.39
752.531	254.424
757.124	744.992
761.714	431.982
766.302	182.92
770.887	640.932
775.469	136.695
780.049	672.176
784.626	204.606
789.201	176.022
793.773	318.283
798.343	275.49
802.91	534.363
807.475	130.023
812.037	26.0742
816.596	687.686
821.153	115.969
825.707	489.529
830.259	179.992
834.808	181.773
839.355	523.311
843.899	20.2441
848.441	413.488
852.98	272.51
857.516	92.9082
862.05	736.104
866.581	234.258
871.11	295.248
875.636	362.148
880.159	22.6953
884.68	450.906
889.199	181.797
893.714	97.4492
898.228	391.785
902.738	76.7988
907.246	505.602
911.752	132.15
916.255	119.438
920.755	563.514
925.253	78.3887
929.748	361.131
934.241	405.582
938.731	34.6953
943.218	574.137
947.703	208.613
952.186	42.0762
956.665	573.086
961.142	116.144
965.617	315.01
970.089	469.449
974.558	176.918
979.025	812.273
983.489	275.707
987.951	365.793
992.41	780.283
996.866	341.986
1001.32	773.555
1005.77	1169.82
1010.22	285.135
1014.67	771.146
1019.11	730.029
1023.55	406.469
1027.99	977.215
1032.42	323.617
1036.86	473.752
1041.29	847.809
1045.72	691.252
1050.14	1530.85
1054.56	1073.62
1058.98	262.326
1063.4	652.791
1067.82	578.006
1072.23	274.566
1076.64	812.775
1081.05	700.736
1085.45	152.221
1089.85	103.338
1094.25	228.152
1098.65	182.127
1103.04	734.961
1107.43	174.549
1111.82	378.981
1116.21	814.051
1120.59	628.531
1124.97	713.812
1129.35	982.707
1133.73	63.6699
1138.1	296.719
1142.47	589.877
1146.84	1.75195
1151.21	460.785
1155.57	839.432
1159.93	122.184
1164.29	499.074
1168.64	763.082
1172.99	28.6426
1177.34	731.758
1181.69	968.992
1186.04	1164.29
1190.38	3382.64
1194.72	2198.99
1199.05	207.475
1203.39	462.053
1207.72	634.494
1212.05	72.0762
1216.37	480.178
1220.7	504.457
1225.02	173.397
1229.34	468.723
1233.65	787.047
1237.97	15.041
1242.28	587.141
1246.59	872.606
1250.89	69.4336
1255.19	329.918
1259.49	848.26
1263.79	159.551
1268.09	417.91
1272.38	877.344
1276.67	459.65
1280.95	378.092
1285.24	731.385
1289.52	518.715
1293.8	333.932
1298.08	787.613
1302.35	629.861
1306.62	200.004
1310.89	727.293
1315.15	934.049
1319.42	219.773
1323.68	677.516
1327.94	972.229
1332.19	162.342
1336.44	404.107
1340.69	953.658
1344.94	382.289
1349.19	543.213
1353.43	925.041
1357.67	789.299
1361.9	176.232
1366.14	838.166
1370.37	697.695
1374.6	55.75
1378.83	458.65
1383.05	999.414
1387.27	162.652
1391.49	257.918
1395.7	846.916
1399.92	533.086
1404.13	17.0586
1408.34	594.062
1412.54	670.975
1416.74	65.918
1420.94	124.176
1425.14	814.758
1429.34	260.244
1433.53	18.1855
1437.72	847.766
1441.9	1023.16
1446.09	372.635
1450.27	712.238
1454.45	1263.89
1458.63	571.939
1462.8	153.213
1466.97	1088.87
1471.14	766.746
1475.31	81.4238
1479.47	258.002
1483.63	875.9
1487.79	269.838
1491.94	32.793
1496.09	719.631
1500.24	820.557
1504.39	144.188
1508.54	200.969
1512.68	1102.77
1516.82	557.619
1520.95	293.818
1525.09	713.086
1529.22	995.26
1533.35	108.123
1537.47	354.918
1541.6	849.416
1545.72	699.381
1549.83	36.1719
1553.95	691.561
1558.06	967.014
1562.17	659.438
1566.28	167.383
1570.38	826.336
