Measurement: Raman, 514 nm, ccw, Raman Data Processed
Mineral: Diopside
Rruff sample: R060861
Ideal chemistry: CaMgSi_2_O_6_
Locality: Red Mountain Volcano, NW of Flagstaff, Arizona, USA
Source: Jennifer Sano
Description: Worn brown fragment
Measured chemistry: (Ca_0.72_Fe^2+^_0.23_Na_0.05_)_Σ=1_(Mg_0.80_Al_0.15_Ti_0.03_Fe^3+^_0.02_)_Σ=1_(Si_1.82_Al_0.18_)_Σ=2_O_6_
Pin_id: M00947
Orientation: Laser parallel to a* (1 0 0). Fiducial mark perpendicular to laser is parallel to b [0 1 0]
Raman shift (cm-1)	intensity
156.179	0
161.122	115.908
166.062	1101.99
170.999	2356.42
175.933	3166.56
180.864	3683.78
185.791	4337.4
190.715	5033.6
195.636	5302.09
200.554	4951.23
205.469	3321.29
210.38	2767.88
215.288	3394.75
220.194	4295.28
225.096	4971.28
229.994	4512.42
234.89	3276.76
239.783	2508.3
244.672	1681.17
249.558	1393.6
254.441	955.699
259.321	327.836
264.198	102.42
269.072	412.402
273.943	517.723
278.81	98.4961
283.675	547.057
288.536	1853.56
293.395	2947.49
298.25	4420.5
303.102	6929.13
307.951	9090.77
312.797	12513.3
317.64	16277.4
322.48	20790
327.317	24772.1
332.151	26325
336.982	26050.6
341.81	24162.1
346.634	21331
351.456	20258.5
356.275	17835.3
361.091	16422
365.903	15440.4
370.713	15466.4
375.52	15550
380.323	16585.9
385.124	19194.2
389.922	23595.7
394.717	26331.2
399.508	24253.8
404.297	17556.2
409.083	10578.3
413.866	6027.46
418.646	3255.73
423.423	2085.49
428.197	1390.8
432.968	680.906
437.736	245.422
442.502	71.8223
447.264	11.2773
452.024	31.0996
456.78	204.252
461.534	613.498
466.284	784.541
471.032	1199.86
475.777	1050.93
480.519	1228.58
485.258	1400.33
489.995	1754.09
494.728	2073.99
499.459	2813.7
504.186	4226.39
508.911	6375.79
513.633	7664.84
518.352	8550.48
523.069	8400.62
527.782	8652.2
532.493	8682.16
537.2	8751.44
541.905	8216.99
546.608	7664.74
551.307	7381.68
556.003	7275.43
560.697	7251.75
565.388	6975.11
570.076	6550.51
574.761	5753.85
579.444	5720.26
584.124	4499.91
588.801	2977.32
593.475	1743.54
598.146	715.676
602.815	126.352
607.481	289.163
612.144	182.971
616.805	153.73
621.462	35.5527
626.117	396.201
630.769	1436.74
635.419	1916.18
640.066	3133
644.71	5093.32
649.351	8153.16
653.99	13488.6
658.625	22324.6
663.259	33092.4
667.889	39173.8
672.517	32990.1
677.142	21833.3
681.765	13888.3
686.384	8788.44
691.001	5758.62
695.616	4193.98
700.228	3000.54
704.837	2267.4
709.443	1902.62
714.047	1427.31
718.648	967.55
723.246	737.529
727.842	325.575
732.435	126.582
737.026	26.3652
741.614	244.894
746.199	300.312
750.782	421.854
755.362	477.029
759.94	270.676
764.514	383.988
769.087	120.559
773.656	146.533
778.224	339.127
782.788	352.803
787.35	529.719
791.909	606.027
796.466	812.881
801.02	1363.43
805.572	1490.81
810.121	2194.4
814.668	2373.62
819.212	2623.34
823.753	2764.45
828.292	2783.06
832.829	2933.32
837.362	2797.52
841.894	2619.26
846.423	2615.9
850.949	2528.24
855.473	2859.54
859.994	3143.21
864.513	3254.45
869.029	3142.29
873.543	3238.44
878.054	3047.68
882.563	2898.61
887.069	2591.38
891.573	2605.94
896.074	2546.82
900.573	2587.43
905.069	2655.63
909.563	2648.69
914.055	2991.91
918.544	3142.33
923.03	3600.91
927.514	3831.22
931.996	3949.17
936.475	3980.38
940.952	4042.64
945.426	4154.94
949.898	4594.56
954.368	5306.54
958.835	5989.48
963.299	7002.57
967.762	8202.68
972.221	9917.76
976.679	12017.7
981.134	14821.6
985.587	17939.2
990.037	22856.7
994.485	28946
998.93	36199
1003.37	42052.7
1007.81	43545.4
1012.25	38542.6
1016.69	29422.3
1021.12	21312.6
1025.55	16626.6
1029.98	14102.6
1034.41	12613
1038.83	11343
1043.26	10555.1
1047.67	9262.54
1052.09	8062.41
1056.51	7113.56
1060.92	6023.44
1065.33	5094.9
1069.74	4687.38
1074.14	4098.05
1078.55	3874.47
1082.95	3592.67
1087.35	3403.63
1091.74	3146.49
1096.14	2795.69
1100.53	2770.03
1104.92	2590.37
1109.31	2558.46
1113.69	2306.52
1118.07	2090.78
1122.45	2084.28
1126.83	1601.84
1131.21	749.872
1135.58	423.516
1139.95	234.624
1144.32	131.056
1148.69	81.3379
1153.05	379.444
1157.42	371.894
1161.78	220.462
1166.13	342.879
1170.49	193.06
1174.85	215.754
1179.2	183.097
1183.55	247.815
1187.89	14.6025
1192.24	103.303
1196.58	230.068
1200.92	114.526
1205.26	291.886
1209.59	224.158
1213.93	235.441
1218.26	353.759
1222.59	412.339
1226.91	411.251
1231.24	731.464
1235.56	628.056
1239.88	667.023
1244.2	689.378
1248.52	701.053
1252.83	668.99
1257.14	828.357
1261.45	780.339
1265.76	854.508
1270.07	885.789
1274.37	1010.14
1278.67	976.668
1282.97	1005.58
1287.27	898.442
1291.57	923.012
1295.86	750.008
1300.15	812.457
1304.44	644.005
1308.72	689.038
1313.01	635.901
1317.29	542.782
1321.57	615.47
1325.85	549.333
1330.12	633.819
1334.4	736.092
1338.67	518.889
1342.94	543.343
1347.21	709.168
1351.47	686.995
1355.74	696.007
1360	677.922
1364.26	514.516
1368.52	582.508
1372.77	640.137
1377.03	562.667
1381.28	591.41
1385.53	517.806
1389.77	550.037
1394.02	534.095
1398.26	590.94
1402.5	350.361
1406.74	467.755
1410.98	359.775
1415.21	382.125
1419.45	538.065
1423.68	375.854
1427.91	318.865
1432.13	196.866
1436.36	326.417
1440.58	272.124
1444.8	215.707
1449.02	276.618
1453.24	218.409
1457.46	205.57
1461.67	128.253
1465.88	227.552
1470.09	256.699
1474.3	88.5635
1478.5	215.326
1482.71	191.651
1486.91	91.7314
1491.11	38.5537
1495.3	231.044
1499.5	210.317
1503.69	7.58496
1507.88	160.815
1512.08	63.6406
1516.26	150.519
1520.45	213.87
1524.63	212.309
1528.81	147.455
1532.99	83.5977
1537.17	97.0029
1541.35	193.856
1545.52	265.392
1549.7	237.994
1553.87	115.406
1558.04	156.637
1562.2	154.553
