Measurement: Raman, 514 nm, ccw, Raman Data Processed
Mineral: Diopside
Rruff sample: R060861
Ideal chemistry: CaMgSi_2_O_6_
Locality: Red Mountain Volcano, NW of Flagstaff, Arizona, USA
Source: Jennifer Sano
Description: Worn brown fragment
Measured chemistry: (Ca_0.72_Fe^2+^_0.23_Na_0.05_)_Σ=1_(Mg_0.80_Al_0.15_Ti_0.03_Fe^3+^_0.02_)_Σ=1_(Si_1.82_Al_0.18_)_Σ=2_O_6_
Pin_id: M00947
Orientation: Laser parallel to a* (1 0 0). Fiducial mark perpendicular to laser is parallel to b [0 1 0]
Raman shift (cm-1)	intensity
148.757	0
153.706	266.193
158.651	115.915
163.593	274.392
168.531	450.641
173.467	727.2
178.399	983.501
183.328	1164.68
188.254	1178.31
193.176	1094.22
198.096	1188.67
203.012	2021.58
207.925	1348.26
212.835	1985.52
217.741	2682.64
222.645	3410.63
227.545	3428.85
232.443	3137.37
237.337	2504.31
242.228	2073.72
247.116	1804.36
252	1729.44
256.882	1281.83
261.76	884.333
266.636	199.718
271.508	49.2227
276.377	91.291
281.243	348.037
286.106	1020.73
290.966	2032.12
295.823	3445.46
300.676	5145.3
305.527	7818.57
310.375	11261.3
315.219	15329.3
320.061	20389
324.899	24345.2
329.734	27255.6
334.567	27427.6
339.396	24510.6
344.222	20693.3
349.046	17401.6
353.866	14872.9
358.683	13156.8
363.497	12244.2
368.308	11951.9
373.117	13203.8
377.922	15763.9
382.724	20006
387.523	25986.2
392.32	32836.1
397.113	34001.9
401.903	27106.2
406.691	17706
411.475	10091.1
416.256	5796.14
421.035	3530.57
425.81	2145.01
430.583	1483.32
435.353	791.387
440.119	371.14
444.883	43.0195
449.644	38.3565
454.402	57.832
459.157	164.51
463.909	536.857
468.659	706.457
473.405	936.956
478.149	1124.84
482.889	1390.21
487.627	1467.98
492.362	1536.17
497.094	1623.15
501.823	1816.11
506.549	2359.97
511.273	3002.64
515.993	3671.01
520.711	4601.99
525.426	5417.49
530.138	5927.4
534.847	6333.64
539.553	6002.42
544.257	5306.74
548.958	5105.94
553.655	4639.13
558.351	4034.74
563.043	4236.97
567.732	3903.52
572.419	3580.52
577.103	3093.17
581.784	2367.4
586.463	1641.12
591.138	963.846
595.811	413.685
600.481	158.72
605.148	282.232
609.813	367.462
614.475	146.843
619.134	34.1494
623.79	390.052
628.444	605.959
633.095	1213.15
637.743	2022.03
642.388	3358.68
647.031	5462.11
651.671	8779.37
656.308	14292.5
660.942	22550.4
665.574	30407.2
670.203	29222
674.83	21017.8
679.454	13486.5
684.075	8652.38
688.693	5760.33
693.309	3814.46
697.922	2833.82
702.532	2135.48
707.14	1584.5
711.745	1160.6
716.348	541.907
720.947	373.44
725.545	245.545
730.139	161.185
734.731	72.4717
739.32	228.5
743.907	311.271
748.491	251.9
753.072	270.415
757.651	278.633
762.227	174.97
766.801	210.578
771.372	260.399
775.94	497.929
780.506	620.292
785.069	747.623
789.63	725.637
794.188	837.731
798.744	899.775
803.297	1129.65
807.847	1177.48
812.395	1635.39
816.94	1666.92
821.483	1792.93
826.023	1839.81
830.561	1760.91
835.096	1542.36
839.628	1522.26
844.158	1537.74
848.686	1484.89
853.211	1636.82
857.734	1974.82
862.254	1923.89
866.771	1932.61
871.286	1949.15
875.798	1695.41
880.308	1596.1
884.816	1548.71
889.321	1647.61
893.824	1379.54
898.324	1426.24
902.821	1351.03
907.316	1338.57
911.809	1307.34
916.299	1759.3
920.787	1857.4
925.272	2187.72
929.755	2488.18
934.236	2580.38
938.714	2923.28
943.189	3120.91
947.662	3714.16
952.133	4363.06
956.601	5151.57
961.067	6153.01
965.531	7522.21
969.992	9200.24
974.45	11516.7
978.907	14225.5
983.361	17794.6
987.812	23044.1
992.261	29527.9
996.708	37729.7
1001.15	46133.3
1005.59	50388.9
1010.03	47626.7
1014.47	37602
1018.91	26710
1023.34	19638
1027.77	15298.1
1032.2	12897.2
1036.62	11569.6
1041.05	10318.7
1045.46	9037.15
1049.88	7662.4
1054.3	6386.63
1058.71	5564.74
1063.12	4524.35
1067.53	3755.07
1071.94	3456.61
1076.35	3121.1
1080.75	2735.8
1085.15	2608.84
1089.55	2320.18
1093.94	2208.41
1098.33	2180.43
1102.72	2093.98
1107.11	2087.82
1111.5	1913.21
1115.88	2027.91
1120.26	1919.76
1124.64	1644.9
1129.02	1250.22
1133.4	719.493
1137.77	378.795
1142.14	122.269
1146.51	111.589
1150.87	367.129
1155.24	306.414
1159.6	372.916
1163.96	288.148
1168.31	235.251
1172.67	117.99
1177.02	199.046
1181.37	41.8408
1185.72	79.1397
1190.07	27.0938
1194.41	198.737
1198.75	201.17
1203.09	212.144
1207.43	254.462
1211.76	219.397
1216.09	361.803
1220.42	297.832
1224.75	423.422
1229.08	453.713
1233.4	511.76
1237.72	657.368
1242.04	658.843
1246.36	609.067
1250.68	741.035
1254.99	640.749
1259.3	676.167
1263.61	752.27
1267.92	737.907
1272.22	821.609
1276.52	748.184
1280.82	788.742
1285.12	776.077
1289.42	774.54
1293.71	688.981
1298	694.747
1302.29	566.185
1306.58	601.074
1310.87	521.491
1315.15	671.771
1319.43	480.951
1323.71	616.112
1327.99	463.149
1332.26	539.918
1336.54	488.2
1340.81	593.714
1345.08	609.588
1349.34	601.079
1353.61	484.608
1357.87	536.628
1362.13	465.597
1366.39	445.043
1370.64	527.476
1374.9	431.648
1379.15	355.123
1383.4	298.274
1387.65	386.931
1391.9	383.619
1396.14	354.344
1400.38	346.712
1404.62	359.078
1408.86	222.518
1413.1	291.792
1417.33	177.888
1421.56	258.079
1425.79	111.351
1430.02	65.1719
1434.25	204.352
1438.47	181.506
1442.69	93.4233
1446.91	163.631
1451.13	82.0347
1455.35	117.741
1459.56	135.662
1463.78	158.644
1467.98	90.5596
1472.19	15.3301
1476.4	123.106
1480.6	42.2432
1484.81	73.3926
1489.01	17.1138
1493.2	21.1387
1497.4	71.6123
1501.6	11.4898
1505.79	28.3662
1509.98	123.432
1514.17	42.7324
1518.36	140.597
1522.54	75.1323
1526.72	25.085
1530.9	157.697
1535.08	77.2837
1539.26	118.272
1543.44	97.6338
1547.61	69.3936
1551.78	10.1435
1555.95	89.3164
1560.12	124.932
1564.29	108.874
