Measurement: Raman, 514 nm, ccw, Raman Data Processed
Mineral: Diopside
Rruff sample: R050406
Ideal chemistry: CaMgSi_2_O_6_
Locality: unknown
Source: University of Arizona Mineral Museum
Description: Brownish gray massive
Measured chemistry: (Ca_0.95_Na_0.05_)(Mg_0.75_Fe^2+^_0.18_Fe^3+^_0.05_Al_0.01_Ti_0.01_Mn^2+^_0.01_)(Si_0.98_Al_0.02_)_2_O_6_
Pin_id: M00191
Orientation: Laser parallel to -b* (0 -1 0). Fiducial mark perpendicular to laser is parallel to c [0 0 1]
Raman shift (cm-1)	intensity
116.903	0
121.827	812.96
126.749	5114.6
131.668	10095.3
136.585	9486.14
141.5	9796.7
146.412	4099.21
151.321	1351.47
156.229	29.9199
161.134	60.5391
166.036	349.073
170.936	732.023
175.834	577.563
180.729	551.182
185.622	675.087
190.512	653.673
195.4	845.172
200.286	1036.65
205.169	52.5537
210.049	22.4336
214.928	0.423828
219.803	79.4014
224.677	329.765
229.548	304.478
234.416	290.31
239.282	259.077
244.146	196.828
249.007	264.815
253.866	385.14
258.722	990.713
263.576	55.6143
268.427	32.748
273.276	160.774
278.123	194.23
282.967	156.566
287.809	340.044
292.648	966.976
297.485	1451.61
302.319	2494.18
307.151	4046.15
311.98	6475.48
316.807	8595.5
321.631	9111.73
326.454	8390.91
331.273	6470.3
336.09	4964.73
340.905	4980.03
345.717	6213.36
350.527	7051.46
355.334	7571.06
360.139	7035.72
364.941	5982.99
369.741	5770.48
374.538	7372.39
379.333	11100.4
384.126	13350
388.916	13153
393.703	9756.85
398.488	4937.8
403.271	2442.83
408.051	1128
412.828	829.119
417.603	467.012
422.376	234.946
427.146	100.1
431.914	45.7422
436.679	55.9297
441.442	8.37012
446.202	21.8418
450.96	262.336
455.715	463.248
460.467	372.103
465.218	361.898
469.965	280.465
474.711	310.259
479.454	176.732
484.194	152.392
488.932	311.206
493.667	722.29
498.4	1080.11
503.13	1455.38
507.858	1720.44
512.583	1326.88
517.306	1396.35
522.026	1437.47
526.744	1522.55
531.459	1820.85
536.172	1819.33
540.882	1640.69
545.59	1863.9
550.295	2059.97
554.998	2067.17
559.698	1913.72
564.396	1481.44
569.091	1189.02
573.784	897.775
578.474	586.734
583.162	345.917
587.847	63.2969
592.529	119.218
597.209	22.7666
601.887	58.5293
606.562	85.6533
611.235	211.887
615.905	349.64
620.572	551
625.237	1198.83
629.9	1616.26
634.56	2015.41
639.217	3163.57
643.872	4853.92
648.524	8264.22
653.174	16646.6
657.821	31649.1
662.466	40636.6
667.108	39196.6
671.748	25225
676.385	12111.7
681.02	6669.39
685.652	3710.29
690.281	2388.44
694.908	1748.83
699.533	1245.45
704.155	901.296
708.774	565.368
713.391	377.666
718.005	194.345
722.617	143.311
727.226	143.297
731.833	11.5088
736.437	43.7666
741.039	81.0215
745.638	7.00879
750.234	20.0811
754.828	145.902
759.419	172.799
764.008	101.41
768.595	25.083
773.178	202.881
777.759	36.919
782.338	43.2285
786.914	27.6143
791.488	89.3447
796.059	29.0996
800.627	53.6133
805.193	59.2647
809.756	69.2353
814.317	53.1103
818.875	87.1553
823.431	86.9307
827.984	233.465
832.534	259.793
837.082	522.942
841.627	1299.94
846.17	3061.83
850.71	5209.62
855.248	5858.02
859.783	4546.07
864.316	3122.47
868.846	2345.72
873.373	1786.27
877.898	1488.29
882.42	1499.94
886.94	1484.97
891.457	1364.2
895.971	1351.22
900.483	1107.14
904.993	1108.15
909.5	1006.09
914.004	693.569
918.505	861.791
923.004	654.961
927.501	533.33
931.995	701.104
936.486	562.594
940.975	345.841
945.461	351.412
949.945	708.334
954.426	1064.2
958.904	1117.79
963.38	1525.4
967.853	1522.9
972.324	1850.17
976.792	2190.28
981.258	2363.16
985.72	3055.79
990.181	4287.22
994.639	6529.45
999.094	11346.5
1003.55	23078.7
1008	40483.9
1012.44	43380.4
1016.89	30655.4
1021.33	14633.2
1025.77	8658.37
1030.21	6895.71
1034.64	6533.12
1039.07	7483.84
1043.5	7671.97
1047.93	6248.48
1052.35	4566.9
1056.78	3026.67
1061.19	2248.15
1065.61	1944.26
1070.02	1780.89
1074.43	1243.27
1078.84	1273.26
1083.25	1302.98
1087.65	1036.39
1092.05	1124.33
1096.45	1245.35
1100.85	908.799
1105.24	1086.12
1109.63	1196.49
1114.02	1009.29
1118.4	1417.8
1122.78	1698.22
1127.16	1041.95
1131.54	997.997
1135.92	940.355
1140.29	699.954
1144.66	420.592
1149.02	517.347
1153.39	47.9688
1157.75	1.53809
1162.11	227.01
1166.46	187.661
1170.82	91.3428
1175.17	18.1953
1179.52	39.623
1183.86	52.8545
1188.21	102.571
1192.55	33.2197
1196.89	67.958
1201.22	162.132
1205.55	97.6865
1209.88	65.2891
1214.21	155.68
1218.54	255.993
1222.86	14.1865
1227.18	222.611
1231.5	296.818
1235.81	6.59766
1240.12	256.93
1244.43	352.853
1248.74	68.3633
1253.04	217.4
1257.34	234.017
1261.64	120.183
1265.94	360.983
1270.23	403.44
1274.52	379.459
1278.81	443.035
1283.1	498.229
1287.38	241.829
1291.66	416.019
1295.94	336.231
1300.21	331.07
1304.48	459.337
1308.75	459.707
1313.02	479.243
1317.29	541.142
1321.55	617.311
1325.81	488.729
1330.06	392.252
1334.32	489.539
1338.57	461.932
1342.82	378.58
1347.06	542.812
1351.31	412.816
1355.55	215.553
1359.79	504.143
1364.02	375.963
1368.26	333.894
1372.49	317.832
1376.71	457.852
1380.94	304.658
1385.16	454.523
1389.38	323.877
1393.6	208.144
1397.81	316.211
1402.02	204.016
1406.23	193.998
1410.44	178.353
1414.64	361.424
1418.85	45.748
1423.04	16.6328
1427.24	233.002
1431.43	142.256
1435.62	174.098
1439.81	345.062
1444	333.732
1448.18	303.295
1452.36	349.32
1456.54	621.764
1460.71	262.094
1464.89	256.887
1469.06	278.6
1473.22	291.098
1477.39	219.719
1481.55	223.508
1485.71	207.121
1489.86	18.7891
1494.02	94.6016
1498.17	90.4844
1502.32	137.156
1506.46	72.3672
1510.61	195.06
1514.75	22.5488
1518.88	96.6426
1523.02	302.24
1527.15	295.394
1531.28	101.463
1535.41	316.402
1539.53	305.92
1543.66	97.2715
1547.78	326.348
1551.89	573.861
1556.01	516.615
1560.12	254.348
1564.23	330.674
1568.33	54.4082
1572.43	0
