Measurement: Raman, 514 nm, ccw, Raman Data Processed
Mineral: Diopside
Rruff sample: R050666
Ideal chemistry: CaMgSi_2_O_6_
Locality: Franklin, Sussex County, New Jersey, USA
Source: University of Arizona Mineral Museum
Description: Brown cleavage fragment with white hardystonite
Measured chemistry: Ca(Mg_0.66_Mn_0.33_Fe_0.01_)Si_2_O_6_
Pin_id: L00874
Orientation: Laser parallel to -b* (0 -1 0). Fiducial mark perpendicular to laser is parallel to -c [0 0 -1]
Raman shift (cm-1)	intensity
109.512	0
114.44	170.057
119.365	419.418
124.288	2320.61
129.209	5771.43
134.127	8107.78
139.043	2971.42
143.956	687.046
148.867	192.681
153.775	154.991
158.681	23.5376
163.585	34.5933
168.486	144.022
173.385	423.741
178.282	256.826
183.176	28.0122
188.067	42.7524
192.956	68.2095
197.843	115.41
202.727	283.178
207.609	56.2925
212.489	6.75781
217.366	44.002
222.24	120.855
227.112	483.166
231.982	1075.65
236.849	569.855
241.714	121.001
246.577	315.14
251.437	279.255
256.294	246.435
261.149	348.938
266.002	138.093
270.852	170.201
275.7	209.07
280.545	327.739
285.388	316.401
290.229	549.418
295.067	945.648
299.902	1768.09
304.735	3374.97
309.566	5784.09
314.394	7230.6
319.22	5299.87
324.043	2902.8
328.864	2059.57
333.682	1790.45
338.498	2431
343.311	3681.68
348.122	4597.58
352.931	3627.56
357.737	2425.58
362.54	2123.21
367.341	2237.67
372.14	3737.48
376.936	6904.17
381.73	9119.05
386.521	5694.16
391.31	2342.47
396.096	819.643
400.88	405.664
405.661	383.559
410.44	197.334
415.216	93.9297
419.99	15.3252
424.761	15.4155
429.53	115.78
434.297	69.1226
439.061	5.7417
443.822	54.8272
448.581	134.783
453.337	174.185
458.091	159.948
462.843	15.2749
467.592	81.7212
472.338	28.0596
477.082	11.4077
481.824	23.5444
486.563	34.3911
491.3	194.904
496.034	748.163
500.765	1340.25
505.494	789.191
510.221	431.155
514.945	266.021
519.666	325.617
524.385	488.008
529.102	366.373
533.816	345.674
538.527	313.611
543.236	393.313
547.943	805.697
552.647	1348.77
557.348	1180.56
562.047	528.908
566.744	331.245
571.438	216.688
576.129	187.37
580.818	73.3272
585.504	9.68945
590.188	2.47803
594.87	66.4004
599.549	40.8877
604.225	211.367
608.899	233.445
613.57	353.135
618.239	446.246
622.905	680.613
627.569	824.266
632.23	1106.31
636.889	1674.03
641.545	2851.39
646.198	5189.81
650.849	11138.5
655.498	22012.1
660.144	28491
664.787	19207.8
669.428	9112.03
674.067	4522.47
678.703	2588.79
683.336	1574.12
687.967	1112.54
692.595	851.5
697.221	776.227
701.844	509.123
706.465	377.468
711.083	290.17
715.698	135.601
720.311	127.419
724.922	226.94
729.53	66.21
734.135	21.1245
738.738	220.125
743.338	90.4824
747.936	65.9995
752.531	180.713
757.124	62.0312
761.714	35.3145
766.302	88.5854
770.887	35.876
775.469	85.5107
780.049	4.50391
784.626	108.463
789.201	23.6621
793.773	68.249
798.343	74.4775
802.91	120.119
807.475	21.9297
812.037	51.3828
816.596	45.9258
821.153	2.11719
825.707	72.2051
830.259	200.965
834.808	336.289
839.355	1027.19
843.899	2543.7
848.441	3600.81
852.98	1949.79
857.516	978.752
862.05	679.267
866.581	479.353
871.11	394.045
875.636	405.478
880.159	261.612
884.68	534.074
889.199	390.16
893.714	204.534
898.228	259.304
902.738	326.461
907.246	338.881
911.752	236.704
916.255	312.727
920.755	271.194
925.253	213.523
929.748	204.546
934.241	115.372
938.731	81.6152
943.218	62.2353
947.703	134.936
952.186	65.5225
956.665	185.03
961.142	390.985
965.617	290.716
970.089	463.649
974.558	530.866
979.025	704.197
983.489	947.672
987.951	1288.26
992.41	1836
996.866	3581.88
1001.32	7390.92
1005.77	18879.2
1010.22	41797.6
1014.67	39918.2
1019.11	15268.1
1023.55	6583.3
1027.99	4524.56
1032.42	4388.19
1036.86	5729.95
1041.29	6214.23
1045.72	3598.84
1050.14	1990.45
1054.56	1421.68
1058.98	1034.12
1063.4	856.759
1067.82	671.678
1072.23	634.99
1076.64	883.828
1081.05	577.837
1085.45	663.304
1089.85	497.738
1094.25	537.093
1098.65	603.951
1103.04	291.796
1107.43	428.742
1111.82	476.303
1116.21	674.433
1120.59	1120.62
1124.97	1067.88
1129.35	460.207
1133.73	389.6
1138.1	307.054
1142.47	223.56
1146.84	209.156
1151.21	261.627
1155.57	63.9541
1159.93	84.2451
1164.29	39.0478
1168.64	36.5508
1172.99	18.5947
1177.34	108.547
1181.69	46.2197
1186.04	111.797
1190.38	203.529
1194.72	52.2324
1199.05	16.8721
1203.39	23.4775
1207.72	199.037
1212.05	21.4551
1216.37	42.9111
1220.7	37.2031
1225.02	215.364
1229.34	158.337
1233.65	42.2305
1237.97	119.024
1242.28	264.648
1246.59	153.118
1250.89	252.503
1255.19	178.84
1259.49	115.142
1263.79	124.356
1268.09	173.481
1272.38	140.656
1276.67	37.4961
1280.95	12.2412
1285.24	75.8731
1289.52	173.017
1293.8	107.95
1298.08	255.289
1302.35	218.327
1306.62	187.376
1310.89	316.348
1315.15	324.76
1319.42	207.926
1323.68	403.791
1327.94	209.076
1332.19	148.748
1336.44	277.26
1340.69	213.801
1344.94	278.221
1349.19	141.037
1353.43	192.836
1357.67	202.25
1361.9	230.768
1366.14	207.268
1370.37	205.238
1374.6	271.709
1378.83	394.211
1383.05	90.7578
1387.27	132.545
1391.49	377.107
1395.7	8.70508
1399.92	327.697
1404.13	281.262
1408.34	249.537
1412.54	9.88867
1416.74	55.0645
1420.94	239.459
1425.14	252.516
1429.34	166.451
1433.53	231.981
1437.72	195.285
1441.9	242.943
1446.09	350.977
1450.27	114.736
1454.45	100.193
1458.63	100.705
1462.8	92.3281
1466.97	277.361
1471.14	76.1602
1475.31	238.418
1479.47	284.688
1483.63	201.947
1487.79	105.283
1491.94	77.8965
1496.09	241.379
1500.24	115.469
1504.39	30.2363
1508.54	10.3223
1512.68	312.775
1516.82	245.816
1520.95	110.725
1525.09	145.83
1529.22	1.01562
1533.35	217.592
1537.47	259.844
1541.6	155.109
1545.72	239.715
1549.83	234.65
1553.95	367.746
1558.06	134.154
1562.17	57.1367
1566.28	129.527
1570.38	18.082
