Measurement: Raman, 514 nm, ccw, Raman Data Processed
Mineral: Dioptase
Rruff sample: R050010
Ideal chemistry: CuSiO_3_H_2_O
Locality: Tsumeb mine, Tsumeb, Otavi District, Oshikoto, Namibia
Source: Eugene Schlepp
Description: Bluish green single crystals
Measured chemistry: Cu_1.00_Si_1.00_O_3_Â·H_2_O ; trace amounts of Mg and Al; OH estimated by difference
Pin_id: M00232
Orientation: Laser parallel to a* (1 0 0). Fiducial mark perpendicular to laser is parallel to c [0 0 1]
Raman shift (cm-1)	intensity
87.064	0
91.262	32.627
95.458	69.132
99.652	542.724
103.843	551.785
108.033	1269.73
112.22	1884.31
116.406	1806.66
120.589	2867.47
124.77	7256.72
128.949	15608.3
133.126	11763.7
137.301	4493.03
141.473	1809.31
145.644	1059.29
149.812	664.107
153.979	455.984
158.143	337.498
162.305	315.875
166.465	347.206
170.623	1088.72
174.778	2460.74
178.932	1921.53
183.083	666.539
187.233	81.987
191.38	6.998
195.525	29.37
199.669	92.854
203.81	266.443
207.949	590.745
212.085	1349.87
216.22	2953.79
220.353	5465.46
224.483	6860.84
228.612	6546.82
232.738	5185.33
236.863	3046.33
240.985	1540.82
245.105	581.778
249.223	206.204
253.339	414.456
257.453	2279.76
261.565	6690.92
265.675	7426.17
269.783	3538.4
273.888	1508.28
277.992	1166.56
282.093	2154.04
286.193	5396.52
290.29	8039.78
294.386	4836.66
298.479	1660.07
302.57	339.931
306.659	188.823
310.746	286.581
314.831	257.672
318.914	86.111
322.995	115.439
327.074	309.168
331.151	416.103
335.226	795.239
339.299	1524.58
343.37	3155.13
347.438	8068.89
351.505	25244.8
355.57	46450.9
359.632	28576.5
363.693	10922
367.751	4910.69
371.808	3047.21
375.862	2598.96
379.914	2816.93
383.965	3686.1
388.013	6201.51
392.06	11817.1
396.104	20263
400.146	18879.1
404.186	11565.3
408.225	8471.75
412.261	9838.36
416.295	11995.1
420.327	13333.5
424.357	13748.7
428.386	13393.8
432.412	12699.8
436.436	11591.7
440.458	9650.4
444.478	7719.04
448.496	5842.71
452.513	4390.23
456.527	3286.05
460.539	2352.99
464.549	1842.01
468.557	1562.91
472.563	1335.71
476.567	1408.59
480.57	1832.08
484.57	2744.5
488.568	3115.45
492.564	2044.37
496.558	1185.26
500.551	763.115
504.541	643.928
508.529	590.689
512.515	696.393
516.5	758.035
520.482	775.619
524.462	726.156
528.441	729.646
532.417	673.102
536.391	548.514
540.364	460.052
544.334	306.952
548.303	290.949
552.269	334.028
556.234	563.633
560.197	755.559
564.157	678.935
568.116	478.341
572.073	232.257
576.027	120.089
579.98	8.378
583.931	0.346
587.88	37.193
591.827	117.391
595.772	76.399
599.715	99.145
603.656	25.612
607.595	20.369
611.532	47.939
615.468	142.464
619.401	211.886
623.332	353.406
627.262	548.775
631.189	765.828
635.115	1051.28
639.039	1467.02
642.96	2185.69
646.88	3444.18
650.798	6251.48
654.714	12396.7
658.628	16958
662.54	12158.8
666.45	6209.28
670.358	3099.6
674.264	1740.73
678.169	987.246
682.071	626.672
685.972	390.012
689.87	253.896
693.767	131.557
697.662	112.493
701.555	36.205
705.446	79.616
709.335	116.735
713.222	80.56
717.107	33.134
720.99	44.415
724.872	80.404
728.751	94.154
732.629	140.692
736.504	230.538
740.378	376.234
744.25	355.137
748.12	277.526
751.988	252.537
755.854	85.767
759.719	78.045
763.581	6.719
767.442	5.761
771.3	27.051
775.157	77.196
779.012	14.645
782.865	4.323
786.716	19.004
790.565	40.201
794.413	55.314
798.258	70.344
802.102	84.298
805.943	51.191
809.783	13.974
813.621	47.788
817.457	26.681
821.292	3.167
825.124	20.777
828.954	53.338
832.783	2.15
836.61	2.705
840.435	31.314
844.258	11.192
848.079	12.205
851.898	23.097
855.715	37.085
859.531	84.694
863.345	51.482
867.157	58.674
870.967	128.699
874.775	115.84
878.581	171.193
882.386	216.531
886.188	227.834
889.989	308.29
893.788	357.909
897.585	432.81
901.38	543.037
905.174	725.645
908.965	944.61
912.755	1149.9
916.543	1120.97
920.329	924.661
924.113	967.193
927.895	1047.72
931.676	1179.09
935.454	1353.3
939.231	1692.48
943.006	2135.76
946.78	2978.16
950.551	4426.75
954.32	6731.25
958.088	7468.26
961.854	5069.54
965.618	2873.19
969.38	1732.24
973.141	1284.58
976.9	1048.02
980.656	950.633
984.411	987.757
988.165	1000.98
991.916	1180.4
995.665	1549.88
999.413	2479.15
1003.16	3726.9
1006.9	3721.86
1010.65	3163.02
1014.39	2954.39
1018.12	2637.95
1021.86	2042.7
1025.6	1537.65
1029.33	1159.77
1033.06	947.067
1036.79	672.51
1040.52	633.095
1044.25	509.821
1047.97	538.684
1051.69	534.68
1055.41	455.803
1059.13	474.05
1062.85	392.412
1066.57	364.892
1070.28	298.489
1073.99	221.226
1077.7	162.193
1081.41	141.364
1085.12	167.693
1088.82	133.149
1092.52	96.738
1096.22	22.526
1099.92	11.562
1103.62	8.659
1107.32	23.018
1111.01	7.51
1114.7	38.036
1118.39	37.02
1122.08	138.167
1125.77	91.819
1129.45	102.089
1133.14	115.542
1136.82	170.201
1140.5	178.123
1144.18	192.678
1147.85	200.271
1151.53	236.284
1155.2	254.895
1158.87	248.281
1162.54	295.741
1166.21	330.5
1169.88	296.752
1173.54	283.872
1177.2	281.877
1180.86	216.109
1184.52	242.216
1188.18	181.31
1191.83	184.384
1195.49	160.434
1199.14	173.459
1202.79	182.447
1206.44	192.396
1210.08	189.301
1213.73	194.255
1217.37	162.138
1221.01	164.332
1224.65	104.554
1228.29	73.853
1231.93	88.122
1235.56	46.087
1239.19	4.918
1242.83	5.401
1246.46	1.243
1250.08	2.422
1253.71	33.014
1257.33	4.924
1260.96	18.734
1264.58	6.047
1268.19	29.194
1271.81	23.211
1275.43	5.586
1279.04	5.296
1282.65	24.73
1286.27	7.378
1289.87	7.907
1293.48	18.907
1297.09	23.659
1300.69	15.967
1304.29	44.114
1307.89	13.011
1311.49	91.687
1315.09	95.082
1318.68	121.167
1322.28	99.014
1325.87	137.59
1329.46	139.926
1333.05	139.042
1336.63	115.917
1340.22	91.55
1343.8	93.949
1347.38	109.106
1350.96	114.025
1354.54	100.716
1358.12	110.181
1361.69	72.422
1365.26	99.459
1368.83	25.384
1372.4	23.978
1375.97	31.491
1379.54	11.651
1383.1	24.966
1386.66	38.72
1390.23	15.134
1393.79	39.215
1397.34	55.085
1400.9	46.947
1404.45	54.503
1408.01	39.002
1411.56	20.291
1415.11	49.041
1418.66	55.659
1422.2	12.12
1425.75	85.379
1429.29	35.453
1432.83	39.351
1436.37	71.106
1439.91	86.569
1443.44	81.147
1446.98	114.376
1450.51	103.183
1454.04	97.459
1457.57	104.528
1461.1	126.684
1464.63	106.036
1468.15	113.388
1471.67	126.546
1475.19	97.364
1478.71	142.013
1482.23	107.998
1485.75	61.313
1489.26	67.493
1492.78	48.429
1496.29	66.79
1499.8	32.156
1503.31	23.823
1506.81	8.012
1510.32	29.829
1513.82	22.288
1517.32	55.327
1520.82	0
