Measurement: Raman, 514 nm, ccw, Raman Data Processed
Mineral: Diopside
Rruff sample: R060171
Ideal chemistry: CaMgSi_2_O_6_
Locality: Jeffrey mine, Asbestos, Quebec, Canada
Source: Guy Ouellet
Description: Yellowish-brown tabular crystals associated with vesuvianite, R060170
Measured chemistry: Ca_1.00_(Mg_0.98_Mn_0.02_)_Î£=1_Si_2.00_O_6_
Pin_id: L00630
Orientation: Laser parallel to (-1 0 -1). Fiducial mark perpendicular to laser is parallel to -b [0 -1 0]
Raman shift (cm-1)	intensity
109.512	0
114.44	66.6982
119.365	215.312
124.288	348.928
129.209	625.51
134.127	1747.65
139.043	7744.02
143.956	20072.1
148.867	3114.51
153.775	1068.09
158.681	624.752
163.585	788.682
168.486	1177.35
173.385	450.368
178.282	449.336
183.176	1044.73
188.067	582.856
192.956	262.438
197.843	426.069
202.727	486.745
207.609	308.45
212.489	75.7852
217.366	258.366
222.24	413.726
227.112	1215.6
231.982	4218.15
236.849	1740.73
241.714	383.575
246.577	295.38
251.437	187.092
256.294	867.691
261.149	268.621
266.002	71.8721
270.852	104.659
275.7	47.8496
280.545	35.2275
285.388	33.3887
290.229	152.787
295.067	34.2832
299.902	595.644
304.735	2512.13
309.566	1166.49
314.394	1667.16
319.22	3487.83
324.043	12611.3
328.864	9005.75
333.682	2236.03
338.498	971.299
343.311	675.777
348.122	911.955
352.931	2138.82
357.737	7425.01
362.54	6985.82
367.341	4452.84
372.14	3122.24
376.936	1953.95
381.73	2901.97
386.521	7868.25
391.31	22343.8
396.096	8179.52
400.88	2080.51
405.661	1021.12
410.44	422.293
415.216	323.223
419.99	265.166
424.761	138.082
429.53	259.465
434.297	21.0059
439.061	36.0293
443.822	57.4707
448.581	4.20117
453.337	7.03516
458.091	55.2305
462.843	70.3613
467.592	224.057
472.338	56.1875
477.082	1.53711
481.824	38.7441
486.563	137.76
491.3	81.7559
496.034	8.66406
500.765	205.053
505.494	168.242
510.221	334.453
514.945	324.738
519.666	421.992
524.385	281.211
529.102	519.475
533.816	433.846
538.527	208.254
543.236	179.565
547.943	204.766
552.647	198.848
557.348	790.797
562.047	1411.65
566.744	258.356
571.438	229.932
576.129	14.7637
580.818	252.19
585.504	119.715
590.188	177.744
594.87	414.707
599.549	217.791
604.225	170.289
608.899	280.35
613.57	241.461
618.239	197.631
622.905	629.066
627.569	445.932
632.23	750.725
636.889	820.209
641.545	946.455
646.198	1493.06
650.849	2320.73
655.498	4183.6
660.144	9650.66
664.787	24112.8
669.428	27076.8
674.067	11426.3
678.703	4764.8
683.336	2607.8
687.967	1466.06
692.595	1024.35
697.221	904.709
701.844	597.049
706.465	751.344
711.083	638.223
715.698	438.572
720.311	78.6113
724.922	208.777
729.53	314.029
734.135	340.83
738.738	270.398
743.338	140.17
747.936	106.799
752.531	9.64062
757.124	200.281
761.714	15.8945
766.302	80.7051
770.887	145.252
775.469	39.5
780.049	222.85
784.626	107.527
789.201	190.678
793.773	162.623
798.343	55.1641
802.91	15.2871
807.475	99.0488
812.037	74.0234
816.596	258.199
821.153	276.506
825.707	257.875
830.259	249.287
834.808	269.654
839.355	351.469
843.899	753.188
848.441	1739.23
852.98	5299.02
857.516	5237.76
862.05	1645.63
866.581	715.66
871.11	441.445
875.636	376.562
880.159	234.963
884.68	117.769
889.199	70.4531
893.714	114.57
898.228	301.66
902.738	165.582
907.246	237.082
911.752	337.633
916.255	332.994
920.755	213.453
925.253	24.5664
929.748	105.832
934.241	35.1426
938.731	55.7754
943.218	212.928
947.703	30.4688
952.186	116.58
956.665	107.51
961.142	211.76
965.617	37.4004
970.089	270.982
974.558	116.959
979.025	239.539
983.489	412.49
987.951	515.818
992.41	682.229
996.866	1033.41
1001.32	1938.14
1005.77	4372.22
1010.22	15089.5
1014.67	31720.5
1019.11	11476.8
1023.55	3789.05
1027.99	1783.85
1032.42	1245.32
1036.86	887.736
1041.29	730.711
1045.72	985.6
1050.14	1042.09
1054.56	654.18
1058.98	556.154
1063.4	554.734
1067.82	312.023
1072.23	354.693
1076.64	241.199
1081.05	301.363
1085.45	282.731
1089.85	190.191
1094.25	256.568
1098.65	417.152
1103.04	225.225
1107.43	268.432
1111.82	242
1116.21	353.853
1120.59	644.553
1124.97	275.717
1129.35	284.889
1133.73	376.57
1138.1	172.225
1142.47	58.9375
1146.84	244.887
1151.21	282.455
1155.57	87.8457
1159.93	151.387
1164.29	298.551
1168.64	282.133
1172.99	215.281
1177.34	95.6719
1181.69	178.625
1186.04	302.906
1190.38	292.316
1194.72	195.856
1199.05	310.617
1203.39	233.398
1207.72	327.945
1212.05	24.8203
1216.37	133.481
1220.7	402.16
1225.02	48.1367
1229.34	238.227
1233.65	144.41
1237.97	61.2578
1242.28	182.664
1246.59	321.023
1250.89	244.691
1255.19	246.121
1259.49	98.0742
1263.79	205.699
1268.09	227.156
1272.38	320.477
1276.67	374.394
1280.95	195.285
1285.24	310.375
1289.52	246.031
1293.8	137.703
1298.08	120.324
1302.35	45.4453
1306.62	3.90234
1310.89	319.559
1315.15	193.535
1319.42	425.672
1323.68	536.059
1327.94	666.961
1332.19	273.051
1336.44	591.398
1340.69	188.539
1344.94	497.004
1349.19	367.617
1353.43	382.102
1357.67	413.106
1361.9	456.473
1366.14	289.441
1370.37	482.699
1374.6	278.531
1378.83	468.754
1383.05	12.2266
1387.27	373.801
1391.49	147.668
1395.7	245.336
1399.92	261.207
1404.13	322.977
1408.34	207.164
1412.54	243.098
1416.74	86.5156
1420.94	242
1425.14	69.8828
1429.34	143.391
1433.53	137.824
1437.72	391.457
1441.9	181.797
1446.09	337.523
1450.27	278.098
1454.45	300.094
1458.63	188.09
1462.8	71.2188
1466.97	34.1055
1471.14	353.859
1475.31	389.211
1479.47	318.434
1483.63	418.019
1487.79	300.465
1491.94	380.051
1496.09	140.383
1500.24	354.254
1504.39	363.336
1508.54	403.859
1512.68	247.856
1516.82	105.926
1520.95	116.07
1525.09	331.504
1529.22	175.594
1533.35	118.59
1537.47	194.141
1541.6	339.144
1545.72	187.707
1549.83	335.469
1553.95	136.945
1558.06	221.242
1562.17	304.231
1566.28	330.481
1570.38	2.5
