Measurement: Raman, 514 nm, ccw, Raman Data Processed
Mineral: Diopside
Rruff sample: R060171
Ideal chemistry: CaMgSi_2_O_6_
Locality: Jeffrey mine, Asbestos, Quebec, Canada
Source: Guy Ouellet
Description: Yellowish-brown tabular crystals associated with vesuvianite, R060170
Measured chemistry: Ca_1.00_(Mg_0.98_Mn_0.02_)_Î£=1_Si_2.00_O_6_
Pin_id: L01396
Orientation: Laser parallel to -a* (-1 0 0). Fiducial mark perpendicular to laser is parallel to b [0 1 0]
Raman shift (cm-1)	intensity
129.209	0
132.898	419.109
136.585	1495.41
140.271	3134.95
143.956	1071.61
147.639	380.65
151.321	170.049
155.002	9.83594
158.681	12.3574
162.359	50.6797
166.036	194.076
169.711	55.2383
173.385	110.287
177.058	173.57
180.729	360.815
184.399	165.84
188.067	76.4902
191.734	195.631
195.4	153.16
199.064	93.9844
202.727	189.018
206.389	162.678
210.049	34.7305
213.708	82.2598
217.366	79.3418
221.022	395.982
224.677	127.244
228.33	468.164
231.982	204.867
235.633	214.356
239.282	106.459
242.93	332.176
246.577	216.488
250.222	276.385
253.866	385.879
257.508	180.949
261.149	242.615
264.789	197.801
268.427	10.5391
272.064	98.7812
275.7	333.24
279.334	355.766
282.967	263.199
286.598	0.15625
290.229	120.209
293.857	236.168
297.485	324.059
301.111	383.352
304.735	394.883
308.358	228.406
311.98	610.49
315.601	997.729
319.22	1865.51
322.837	2626.83
326.454	1653.61
330.068	819.17
333.682	608.242
337.294	315.703
340.905	186.848
344.514	335.522
348.122	249.662
351.729	478.133
355.334	258.879
358.938	381.949
362.54	367.338
366.141	338.043
369.741	378.057
373.339	590.662
376.936	444.269
380.531	586.162
384.126	933.379
387.718	1594.82
391.31	1308.53
394.9	737.496
398.488	372.717
402.075	330.871
405.661	200.572
409.245	99.5078
412.828	67.6699
416.41	89.1875
419.99	147.85
423.569	148.246
427.146	4.24414
430.722	90.2676
434.297	90.5488
437.87	27.0215
441.442	20.5957
445.012	58.8066
448.581	52.543
452.149	127.527
455.715	247.889
459.28	113.58
462.843	72.9746
466.405	192.975
469.965	170.893
473.525	43.7305
477.082	42.4375
480.639	238.174
484.194	322.961
487.747	141.926
491.3	221.137
494.85	322.523
498.4	201.119
501.948	63.9121
505.494	375.867
509.039	276.971
512.583	214.244
516.125	90.7266
519.666	95.3164
523.206	167.09
526.744	140.051
530.281	218.1
533.816	80.3203
537.35	254.914
540.882	66.1289
544.413	166.664
547.943	63.2754
551.471	317.971
554.998	151.756
558.523	338.244
562.047	86.1465
565.57	54.8105
569.091	14.7031
572.611	55.8066
576.129	32.3594
579.646	304.754
583.162	49.0859
586.676	47.0898
590.188	160.213
593.7	11.8262
597.209	196.106
600.718	148.065
604.225	184.492
607.73	22.8828
611.235	94.4375
614.737	11.7305
618.239	159.879
621.739	225.475
625.237	259.568
628.734	219.541
632.23	266.059
635.724	146.908
639.217	414.074
642.708	351.49
646.198	372.69
649.687	823.027
653.174	1183.36
656.66	2138.5
660.144	3769.64
663.627	5445.6
667.108	5124.02
670.588	3342.96
674.067	1794.27
677.544	1203.9
681.02	667.066
684.494	433.098
687.967	385.047
691.438	182.07
694.908	188.914
698.377	258.691
701.844	209.547
705.31	152.676
708.774	259.391
712.237	192.234
715.698	79.543
719.158	154.922
722.617	91.5391
726.074	132.863
729.53	0.304688
732.984	163.672
736.437	37.9688
739.888	117.773
743.338	232.273
746.787	142.457
750.234	32.875
753.68	122.281
757.124	240.715
760.567	133.195
764.008	119.043
767.448	86.7148
770.887	46.9141
774.324	52.5
777.759	8.375
781.194	137.426
784.626	159.031
788.058	51.5469
791.488	59.168
794.916	114.144
798.343	48.8125
801.769	226.438
805.193	270.32
808.616	116.891
812.037	49.5156
815.457	329.164
818.875	306.644
822.292	275.754
825.707	259.125
829.122	157.043
832.534	115.285
835.945	123.621
839.355	226.375
842.763	513.894
846.17	431.594
849.576	586.977
852.98	890.656
856.382	524.133
859.783	232.973
863.183	476.684
866.581	319.402
869.978	66.2383
873.373	274.664
876.767	110.426
880.159	108.637
883.55	186.996
886.94	219.859
890.328	141.59
893.714	266.992
897.1	281.41
900.483	104.555
903.866	185.922
907.246	66.7578
910.626	465.449
914.004	210.863
917.38	281.344
920.755	275.078
924.129	307.828
927.501	293.746
930.872	320.82
934.241	72.4062
937.609	72.4453
940.975	146.359
944.34	438.871
947.703	140.719
951.065	170.973
954.426	22.7852
957.785	187.531
961.142	84.3125
964.499	156.027
967.853	9.59375
971.207	308.629
974.558	179.18
977.909	357.867
981.258	199.113
984.605	208.633
987.951	418.25
991.295	241.488
994.639	298.402
997.98	450.348
1001.32	694.535
1004.66	1405.44
1008	2504.28
1011.33	3770.3
1014.67	3497.48
1018	1634.77
1021.33	676.84
1024.66	612.789
1027.99	247.34
1031.32	492.074
1034.64	456.816
1037.97	147.207
1041.29	257.973
1044.61	429.902
1047.93	402.309
1051.25	419.809
1054.56	321.644
1057.88	365.457
1061.19	251.438
1064.51	323.234
1067.82	301.469
1071.13	95.2383
1074.43	321.414
1077.74	320.66
1081.05	334.934
1084.35	434.578
1087.65	367.969
1090.95	165.797
1094.25	229.402
1097.55	361.231
1100.85	123.629
1104.14	171.758
1107.43	23.8945
1110.73	350.898
1114.02	162.793
1117.31	15.6953
1120.59	488.508
1123.88	359.414
1127.16	106.144
1130.45	18.4258
1133.73	38.9414
1137.01	91.9805
1140.29	182.637
1143.57	237.875
1146.84	128.328
1150.12	37.3711
1153.39	265.945
1156.66	323.379
1159.93	297.059
1163.2	223.672
1166.46	152.656
1169.73	156.637
1172.99	196.641
1176.26	51.9219
1179.52	597.023
1182.78	240.445
1186.04	72.2266
1189.29	314.934
1192.55	443.035
1195.8	156.82
1199.05	67.1758
1202.31	167.566
1205.55	571.312
1208.8	206.961
1212.05	289.566
1215.29	71.3008
1218.54	10.457
1221.78	21.9453
1225.02	252.637
1228.26	343.793
1231.5	392.078
1234.73	231.906
1237.97	244.34
1241.2	483.891
1244.43	280.828
1247.66	275.809
1250.89	166.012
1254.12	139.844
1257.34	219.445
1260.57	76.0273
1263.79	417.934
1267.01	75.0703
1270.23	37.4023
1273.45	0
