Measurement: Raman, 514 nm, ccw, Raman Data Processed
Mineral: Diopside
Rruff sample: R040009
Ideal chemistry: CaMgSi_2_O_6_
Locality: Otter Lake, Quebec, Canada
Source: University of Arizona Mineral Museum
Description: Green square prismatic crystal associated with pale orange calcite
Measured chemistry: (Ca_0.97_Fe_0.02_Na_0.01_)_Σ=1_(Mg_0.97_Fe_0.02_Al_0.01_)_Σ=1_Si_2.00_O_6_; trace amounts of Mn and Ti
Pin_id: M00056
Orientation: Laser parallel to -c [0 0 -1]. Fiducial mark perpendicular to laser is parallel to b* (0 1 0)
Raman shift (cm-1)	intensity
89.193	0
93.375	16.585
97.554	31.231
101.732	18.552
105.908	84.646
110.082	139.73
114.254	307.598
118.424	143.084
122.592	104.714
126.758	79.052
130.922	129.261
135.083	359.452
139.243	390.743
143.401	105.125
147.557	61.52
151.711	25.628
155.863	48.101
160.013	150.899
164.161	230.971
168.308	82.275
172.452	206.789
176.594	635.406
180.734	1465.27
184.872	568.697
189.008	302.804
193.143	431.187
197.275	285.698
201.405	28.333
205.534	17.955
209.66	16.124
213.784	19.029
217.907	69.456
222.027	375.981
226.146	881.509
230.263	1474.12
234.377	1349.59
238.49	629.089
242.601	280.656
246.709	340.285
250.816	853.974
254.921	1066.3
259.024	372.886
263.125	88.99
267.224	24.355
271.321	4.101
275.416	7.418
279.51	73.416
283.601	62.395
287.69	197.886
291.778	356.073
295.863	693.26
299.947	1175.51
304.029	1638.83
308.108	2522.19
312.186	4129.59
316.262	7550.01
320.336	16049.3
324.408	19593.1
328.478	11024.7
332.546	4971.2
336.612	2730.11
340.677	1801.1
344.739	1421.71
348.799	1718.27
352.858	2361.85
356.915	2620.47
360.969	1829.11
365.022	1472.78
369.073	1471.44
373.122	1815.6
377.169	3001.78
381.215	5850.52
385.258	13656.3
389.299	23553
393.339	16031.8
397.376	6648.57
401.412	2814.36
405.446	1393.16
409.478	768.641
413.508	512.808
417.536	359.854
421.562	210.185
425.586	139.1
429.609	101.069
433.629	39.17
437.648	59.01
441.665	5.905
445.68	32.473
449.693	65.059
453.704	63.183
457.713	208.077
461.721	352.472
465.726	392.395
469.73	161.126
473.731	20.85
477.731	14.562
481.729	1.247
485.725	24.893
489.72	34.478
493.712	26.052
497.703	5.469
501.691	71.816
505.678	137.125
509.663	236.398
513.646	347.617
517.627	489.763
521.607	889.86
525.584	1703.92
529.56	2330.92
533.534	1471.9
537.506	745.827
541.476	414.643
545.444	380.325
549.41	453.127
553.375	997.023
557.337	1797.05
561.298	1402.63
565.257	569.836
569.214	252.299
573.17	136.653
577.123	116.873
581.075	61.057
585.024	47.789
588.972	51.626
592.918	1.625
596.863	14.281
600.805	28.115
604.746	67.898
608.685	53.275
612.621	19.584
616.557	86.773
620.49	133.477
624.421	210.806
628.351	194.281
632.279	250.477
636.205	447.059
640.129	583.552
644.051	743.484
647.972	1148.63
651.89	1883.01
655.807	3264.77
659.722	7065.44
663.636	13599.8
667.547	13382.6
671.457	7279.15
675.365	3526.76
679.271	1837.76
683.175	1106.37
687.077	726.137
690.978	560.192
694.877	381.102
698.774	378.394
702.669	187.196
706.562	287.67
710.454	136.084
714.344	144.101
718.232	184.518
722.118	111.127
726.002	96.659
729.885	107.115
733.766	64.041
737.645	119.145
741.522	103.215
745.397	39.276
749.271	10.376
753.143	42.584
757.013	38.348
760.881	13.744
764.748	1.988
768.613	35.99
772.476	59.961
776.337	28.36
780.196	46.885
784.054	30.164
787.91	28.606
791.764	33.664
795.616	6.304
799.467	28.401
803.316	91.89
807.163	18.78
811.008	12.265
814.851	8.315
818.693	54.69
822.533	15.282
826.371	1.497
830.208	25.621
834.042	17.25
837.875	9.72
841.706	43.326
845.536	38.563
849.363	196.441
853.189	421.023
857.013	390.225
860.836	327.123
864.656	238.057
868.475	152.8
872.292	225.708
876.108	208.077
879.922	199.008
883.733	200.724
887.544	262.901
891.352	308.071
895.159	192.922
898.964	221.97
902.767	263.144
906.568	234.732
910.368	251.707
914.166	246.071
917.962	185.062
921.757	87.344
925.55	238.102
929.341	164.965
933.13	113.837
936.918	170.825
940.703	118.058
944.488	126.076
948.27	78.548
952.051	151.191
955.83	251.521
959.607	358.22
963.383	378.549
967.156	460.933
970.928	559.429
974.699	729.766
978.468	896.863
982.234	1194.81
986	1366.52
989.763	1781.62
993.525	2571.15
997.285	3860.23
1001.04	6355.49
1004.8	12377.5
1008.55	28695.8
1012.31	51801.3
1016.06	32158.6
1019.81	12779.8
1023.56	5971.61
1027.31	3502.22
1031.05	2332.48
1034.79	2007.78
1038.53	1914.15
1042.27	2000.78
1046.01	2511.13
1049.75	2118.64
1053.48	1405.48
1057.22	926.096
1060.95	767.659
1064.68	504.314
1068.4	490.505
1072.13	416.714
1075.86	301.251
1079.58	343.611
1083.3	275.17
1087.02	207.163
1090.74	178.381
1094.45	230.496
1098.17	58.802
1101.88	178.572
1105.59	50.099
1109.3	103.931
1113.01	132.205
1116.71	144.117
1120.42	143.431
1124.12	127.459
1127.82	78.614
1131.52	122.826
1135.22	217.935
1138.91	81.863
1142.61	144.545
1146.3	84.614
1149.99	20.564
1153.68	36.669
1157.37	7.604
1161.06	13.091
1164.74	107.392
1168.42	175.922
1172.1	186.832
1175.78	139.646
1179.46	107.28
1183.14	186.339
1186.81	80.869
1190.48	239.589
1194.15	181.424
1197.83	137.853
1201.49	279.165
1205.16	123.658
1208.82	193.936
1212.49	274.522
1216.15	119.188
1219.81	222.398
1223.46	178.988
1227.12	156.893
1230.78	210.259
1234.43	248.776
1238.08	148.809
1241.73	193.071
1245.38	209.979
1249.03	277.219
1252.67	256.686
1256.31	48.772
1259.95	158.927
1263.6	123.134
1267.23	84.962
1270.87	127.604
1274.51	71.378
1278.14	161.416
1281.77	160.012
1285.4	13.159
1289.03	40.474
1292.66	10.691
1296.28	5.412
1299.91	26.804
1303.53	14.907
1307.15	95.04
1310.77	47.197
1314.38	241.58
1318	117.987
1321.61	30.643
1325.23	346.866
1328.84	301.127
1332.45	205.666
1336.06	217.77
1339.66	302.812
1343.27	187.245
1346.87	461.362
1350.47	530.438
1354.07	516.736
1357.67	512.65
1361.26	422.625
1364.86	457.547
1368.45	372.9
1372.04	430.881
1375.63	413.77
1379.22	387.23
1382.81	290.113
1386.39	184.164
1389.98	430.172
1393.56	241.748
1397.14	190.955
1400.72	356.535
1404.3	117.408
1407.87	173.35
1411.45	258.059
1415.02	369.67
1418.59	225.336
1422.16	232.523
1425.73	150.82
1429.29	17.996
1432.86	202.854
1436.42	282.434
1439.98	69.008
1443.54	105.463
