Measurement: Raman, 514 nm, ccw, Raman Data Processed
Mineral: Diopside
Rruff sample: R070123
Ideal chemistry: CaMgSi_2_O_6_
Locality: Yates mine, Otter Lake, Huddersfield Township, Pontiac County, Québec, Canada
Source: Michael Scott
Description: Black prismatic crystals associated with orange calcite
Measured chemistry: (Ca_0.95_Na_0.04_Mn_0.01_)_Σ=1_(Mg_0.63_Fe_0.33_Al_0.04_)_Σ=1_Si_2.00_O_6_
Pin_id: M01382
Orientation: Laser parallel to (1 0 -1). Fiducial mark perpendicular to laser is parallel to b [0 1 0]
Raman shift (cm-1)	intensity
106.9	0
111.855	254.66
116.808	247.73
121.758	9.78918
126.705	80.9895
131.649	173.452
136.591	260.909
141.529	134.616
146.465	13.975
151.398	47.5515
156.328	60.7824
161.256	175.575
166.18	276.779
171.102	399.288
176.021	601.015
180.937	697.881
185.85	953.376
190.76	1052.05
195.668	798.128
200.572	572.917
205.474	233.7
210.374	91.1166
215.27	32.1467
220.163	27.8203
225.054	219.132
229.942	435.072
234.827	484.623
239.709	296.772
244.589	310.499
249.465	352.788
254.339	345.597
259.21	361.39
264.079	224.333
268.944	174.282
273.807	173.676
278.667	186.778
283.524	211.825
288.378	389.229
293.23	688.192
298.079	1000.5
302.925	1515.73
307.768	2311.31
312.609	3629.51
317.446	5178.36
322.281	5642.83
327.113	3995.78
331.943	2516.12
336.769	1729.82
341.593	1566.89
346.414	1915.32
351.233	2359.09
356.048	2304.18
360.861	1566.6
365.671	1500.32
370.478	1857.34
375.283	3059.65
380.084	5145.22
384.883	7460.07
389.68	7199.16
394.473	4040.51
399.264	1782.1
404.052	713.976
408.837	337.175
413.62	210.714
418.4	69.589
423.177	56.7451
427.951	10.7262
432.722	72.5533
437.491	53.0732
442.257	7.64258
447.021	158.548
451.781	314.43
456.539	521.809
461.294	431.496
466.047	271.222
470.797	119.532
475.544	79.95
480.288	52.5599
485.03	62.2965
489.768	122.109
494.504	263.978
499.238	532.894
503.969	939.846
508.697	977.822
513.422	882.82
518.144	733.867
522.864	795.06
527.582	838.33
532.296	647.656
537.008	540.024
541.717	548.363
546.423	833.65
551.127	1531.87
555.828	2700.01
560.526	2261.06
565.222	978.022
569.915	504.594
574.605	300.029
579.292	157.138
583.977	33.0745
588.659	3.51746
593.339	30.1061
598.016	33.741
602.69	13.0585
607.361	20.2052
612.03	140.189
616.696	178.55
621.359	220.821
626.02	370.777
630.678	549.605
635.333	720.115
639.986	1044.38
644.636	1534.39
649.284	2559.14
653.928	4969.2
658.57	9947.93
663.21	15985.7
667.846	14555
672.481	7378.2
677.112	3441.94
681.741	1785.45
686.367	1111.98
690.99	713.227
695.611	529.18
700.229	451.288
704.845	319.804
709.458	251.105
714.068	241.945
718.676	128.576
723.281	100.933
727.883	54.2474
732.483	76.5851
737.08	40.7516
741.674	15.5905
746.266	12.223
750.855	6.70007
755.442	4.88977
760.025	4.10828
764.607	22.0817
769.185	68.8798
773.761	69.5198
778.335	30.0115
782.906	39.3654
787.474	15.5929
792.039	22.3131
796.602	26.4767
801.162	24.0204
805.72	39.8096
810.275	4.14941
814.828	24.0543
819.378	11.6626
823.925	55.3471
828.47	89.011
833.012	16.334
837.551	10.6929
842.088	12.0504
846.622	68.6086
851.154	195.303
855.683	256.397
860.209	318.793
864.733	286.616
869.254	310.779
873.773	350.728
878.289	413.055
882.803	450.959
887.314	566.991
891.822	569.4
896.328	635.109
900.831	632.79
905.332	607.907
909.83	642.286
914.325	609.275
918.818	539.976
923.308	403.373
927.796	386.21
932.281	322.697
936.764	282.702
941.244	210.111
945.721	273.296
950.196	386.432
954.668	519.219
959.138	648.326
963.605	818.779
968.07	972.282
972.532	1158.04
976.991	1353.29
981.448	1677.95
985.903	1910.98
990.355	2461.31
994.804	3632.96
999.251	6081.92
1003.7	11930.2
1008.14	24775.9
1012.58	36036.9
1017.01	22548.4
1021.45	9478.34
1025.88	5179.67
1030.31	3819.22
1034.73	3387.16
1039.16	3604.35
1043.58	3551.73
1048	2748.9
1052.41	1740.01
1056.83	1247.7
1061.24	936.18
1065.65	722.725
1070.05	576.315
1074.46	472.432
1078.86	435.942
1083.26	421.634
1087.65	353.671
1092.05	389.785
1096.44	366.07
1100.83	372.551
1105.21	299.84
1109.6	306.139
1113.98	362.143
1118.36	293.911
1122.73	354.017
1127.1	329.582
1131.47	320.181
1135.84	248.806
1140.21	209.447
1144.57	143.092
1148.93	85.7304
1153.29	25.3505
1157.65	16.0586
1162	38.5378
1166.35	32.8248
1170.7	10.9222
1175.05	35.8994
1179.39	38.1173
1183.73	30.7056
1188.07	42.6776
1192.41	11.0177
1196.74	11.5436
1201.07	23.4163
1205.4	16.5916
1209.72	33.9772
1214.05	6.64172
1218.37	11.4933
1222.69	26.4175
1227.01	50.1099
1231.32	36.619
1235.63	40.9453
1239.94	28.0746
1244.24	48.0164
1248.55	54.785
1252.85	72.3772
1257.15	95.7874
1261.44	133.026
1265.74	107.091
1270.03	138.562
1274.32	92.6985
1278.61	82.2479
1282.89	113.623
1287.17	95.3832
1291.45	104.583
1295.73	73.4086
1300	127.183
1304.27	69.2806
1308.54	109.899
1312.81	62.2778
1317.08	83.1273
1321.34	74.9336
1325.6	102.801
1329.85	122.096
1334.11	123.048
1338.36	111.301
1342.61	107.166
1346.86	99.0831
1351.1	66.4635
1355.35	87.5092
1359.59	79.4241
1363.82	64.8905
1368.06	83.5282
1372.29	90.0974
1376.52	43.4801
1380.75	78.6035
1384.97	41.0853
1389.2	84.4723
1393.42	38.8237
1397.64	61.1923
1401.85	54.5496
1406.07	52.7579
1410.28	30.9041
1414.49	59.0935
1418.69	24.1355
1422.9	48.2736
1427.1	63.5708
1431.3	18.6753
1435.49	48.2747
1439.69	2.14893
1443.88	48.9827
1448.07	71.3594
1452.26	38.9531
1456.44	23.6612
1460.62	46.4976
1464.8	23.3933
1468.98	34.3565
1473.15	18.3536
1477.33	31.3954
1481.5	33.4835
1485.66	48.6183
1489.83	12.7624
1493.99	0.96875
1498.15	17.0046
1502.31	15.1355
1506.47	53.6086
1510.62	28.1339
1514.77	66.7234
1518.92	37.2588
1523.07	38.3618
1527.21	36.8177
1531.35	44.563
1535.49	31.8245
1539.63	38.0117
1543.76	74.9429
1547.9	25.7649
1552.03	87.3688
1556.15	22.4716
1560.28	20.6014
