Measurement: Raman, 514 nm, ccw, Raman Data Processed
Mineral: Dioptase
Rruff sample: R040028
Ideal chemistry: CuSiO_3_H_2_O
Locality: Tantara mine, Democratic Republic of the Congo
Source: University of Arizona Mineral Museum
Description: Bluish green coarsely crystallized fragment
Measured chemistry: Cu_1.00_Si_1.00_O_3_Â·H_2_O; H_2_O estimated by difference
Pin_id: M00307
Orientation: Laser parallel to a* (1 0 0). Fiducial mark perpendicular to laser is parallel to b [0 1 0]
Raman shift (cm-1)	intensity
109.987	0
114.171	91.7744
118.353	887.165
122.533	1158.08
126.711	3969.61
130.886	13301.7
135.06	16526
139.231	4353.51
143.401	1528.48
147.568	591.425
151.733	242.032
155.896	309.47
160.058	325.342
164.217	186.089
168.374	52.4165
172.528	324.964
176.681	2073.63
180.832	2774.31
184.981	782.405
189.127	114.251
193.272	142.548
197.414	26.6504
201.555	63.7105
205.693	49.1143
209.83	189.568
213.964	747.001
218.096	1849.59
222.226	4235.48
226.355	6636.5
230.481	6736.34
234.605	5715.28
238.727	3611.69
242.847	1733.53
246.965	526.976
251.08	2.5625
255.194	69.9146
259.306	914.407
263.416	4528.83
267.524	8982.75
271.629	4607.22
275.733	1534.44
279.835	809.567
283.934	1462.43
288.032	3711.08
292.127	8263.1
296.221	6650.51
300.312	2352.43
304.402	671.015
308.489	49.0527
312.575	167.286
316.658	88.0449
320.74	137.793
324.819	104.221
328.897	322.286
332.972	473.154
337.045	704.108
341.117	1172.12
345.186	2463.05
349.253	5460.31
353.319	15045.9
357.382	42708.6
361.443	38106
365.503	12873
369.56	5508.37
373.616	3221.99
377.669	2774.31
381.72	2810.28
385.77	3245.9
389.817	4611.42
393.863	8406.89
397.906	16972.3
401.947	21637.7
405.987	13813.1
410.024	8587.38
414.06	9103.63
418.093	11495.8
422.125	12908.8
426.154	13418.8
430.182	13355.6
434.208	12634.8
438.231	11608
442.253	9855.37
446.273	8222.43
450.29	6297.48
454.306	4663.21
458.32	3345.67
462.332	2507.78
466.341	1798.12
470.349	1524.87
474.355	1317.06
478.359	1294.43
482.361	1501.54
486.361	2243.57
490.359	3210.6
494.356	2199.89
498.35	1251.05
502.342	835.826
506.332	560.516
510.321	509.122
514.307	547.77
518.292	638.689
522.274	693.102
526.255	617.842
530.233	559.858
534.21	662.004
538.185	441.18
542.158	311.315
546.129	196.402
550.098	260.291
554.065	286.574
558.03	416.691
561.993	541.616
565.954	629.542
569.913	431.714
573.871	256.2
577.826	20.2354
581.78	111.706
585.731	138.974
589.681	104.789
593.629	6.22754
597.575	172.315
601.519	46.2197
605.461	53.4863
609.401	28.9365
613.339	120.191
617.275	155.373
621.21	211.608
625.142	315.228
629.073	482.724
633.001	724.785
636.928	857.974
640.853	1188.1
644.776	1699.52
648.697	2770.05
652.616	4481.44
656.534	9042.16
660.449	15863.4
664.362	14434.3
668.274	7465.23
672.184	3708.73
676.092	1879.88
679.997	1171.11
683.901	823.072
687.804	524.489
691.704	256.002
695.602	123.613
699.499	131.332
703.393	171.165
707.286	193.079
711.177	105.093
715.066	167.23
718.953	69.5039
722.838	91.9199
726.722	164.484
730.603	227.186
734.483	148.932
738.361	133.12
742.236	320.082
746.11	244.125
749.983	369.724
753.853	165.923
757.721	84.8193
761.588	130.76
765.453	113.278
769.315	26.5039
773.176	108.237
777.036	102.827
780.893	47.2734
784.748	18.4893
788.602	94.5166
792.454	10.8027
796.303	12.5957
800.151	114.335
803.998	131.607
807.842	79.2324
811.685	137.24
815.525	75.6436
819.364	104.426
823.201	66.3955
827.036	73.1309
830.869	53.0703
834.701	63.4277
838.531	24.1904
842.358	5.37402
846.184	120.672
850.008	229.055
853.831	271.567
857.651	164.537
861.47	176.131
865.287	249.761
869.102	263.997
872.915	198.835
876.726	294.204
880.536	299.756
884.343	235.539
888.149	292.432
891.953	439.896
895.756	468.065
899.556	637.035
903.355	636.833
907.152	674.294
910.947	909.141
914.74	1161.42
918.531	1724.4
922.321	1417.99
926.109	995.67
929.895	1044.88
933.679	1244.19
937.461	1518.7
941.242	1672.65
945.021	2216.23
948.798	2553.41
952.573	3660.93
956.346	5439.69
960.118	7298.3
963.888	6322.4
967.656	3742.72
971.422	2164.14
975.186	1554.99
978.949	1208.08
982.71	1041.66
986.469	1155.38
990.226	1069.1
993.982	1206.91
997.735	1519.85
1001.49	2026.14
1005.24	3183.14
1008.99	3660.84
1012.73	3169.19
1016.48	3058.17
1020.22	2677.73
1023.96	2227.9
1027.7	1718.7
1031.44	1380.1
1035.17	1082.1
1038.91	974.666
1042.64	767.783
1046.37	741.477
1050.1	635.711
1053.83	480.481
1057.55	635.775
1061.28	651.589
1065	577.91
1068.72	554.727
1072.44	472.043
1076.15	329.929
1079.87	318.38
1083.58	267.399
1087.29	266.931
1091	216.977
1094.71	158.549
1098.42	100.588
1102.12	53.7373
1105.82	27.9658
1109.53	128.766
1113.22	79.208
1116.92	53.0059
1120.62	97.2119
1124.31	130
1128	83.1035
1131.69	66.0772
1135.38	67.7246
1139.07	92.5908
1142.76	156.488
1146.44	218.609
1150.12	258.481
1153.8	347.682
1157.48	172.23
1161.15	263.628
1164.83	179.044
1168.5	288.603
1172.17	255.706
1175.84	314.523
1179.51	325.754
1183.18	349.343
1186.84	260.31
1190.51	208.681
1194.17	153.378
1197.83	235.185
1201.48	182.471
1205.14	339.566
1208.79	252.445
1212.45	311.639
1216.1	278.435
1219.75	165.529
1223.39	190.633
1227.04	201.506
1230.68	114.954
1234.33	96.29
1237.96	172.819
1241.6	84.1152
1245.24	99.918
1248.88	9.00537
1252.51	19.3286
1256.14	4.70947
1259.77	6.84668
1263.4	81.3721
1267.03	160.086
1270.65	44.6875
1274.28	39.3198
1277.9	33.0732
1281.52	3.81006
1285.14	93.1665
1288.76	33.1108
1292.37	13.2451
1295.98	28.6626
1299.6	70.5225
1303.21	170.243
1306.81	8.80225
1310.42	230.247
1314.03	16.5571
1317.63	11.3481
1321.23	16.6811
1324.83	67.5503
1328.43	113.436
1332.03	212.048
1335.62	218.43
1339.21	127.537
1342.81	79.4175
1346.4	165.065
1349.98	66.4648
1353.57	126.584
1357.16	210.44
1360.74	104.748
1364.32	49.1128
1367.9	128.368
1371.48	102.996
1375.06	148.215
1378.63	90.6636
1382.2	139.543
1385.78	68.0337
1389.35	19.9736
1392.91	75.1768
1396.48	14.5596
1400.05	90.0942
1403.61	42.7363
1407.17	51.4126
1410.73	144.823
1414.29	179.456
1417.85	189.431
1421.4	129.456
1424.96	65.9385
1428.51	42.8423
1432.06	152.648
1435.61	87.7964
1439.15	181.32
1442.7	202.079
1446.24	195.083
1449.79	240.537
1453.33	292.485
1456.87	250.506
1460.4	208.649
1463.94	157.184
1467.47	191.318
1471	200.585
1474.54	222.052
1478.06	190.727
1481.59	144.129
1485.12	141.858
1488.64	199.052
1492.16	110.445
1495.68	132.298
1499.2	5.60205
1502.72	134.424
1506.24	18.7339
1509.75	106.1
1513.27	61.6187
1516.78	1.45606
1520.29	25.459
1523.79	40.6011
1527.3	0
