Measurement: Raman, 514 nm, ccw, Raman Data Processed
Mineral: Dioptase
Rruff sample: R050010
Ideal chemistry: CuSiO_3_H_2_O
Locality: Tsumeb mine, Tsumeb, Otavi District, Oshikoto, Namibia
Source: Eugene Schlepp
Description: Bluish green single crystals
Measured chemistry: Cu_1.00_Si_1.00_O_3_Â·H_2_O ; trace amounts of Mg and Al; OH estimated by difference
Pin_id: L00476
Orientation: Laser parallel to c* (0 0 1). Fiducial mark perpendicular to laser is parallel to a [1 0 0]
Raman shift (cm-1)	intensity
105.994	0
110.174	703.33
114.351	3005.14
118.527	3339.93
122.701	2441.93
126.873	5027.29
131.042	16712.6
135.21	19568
139.376	16473.1
143.539	1822.92
147.701	280.094
151.861	192.887
156.018	2622.38
160.174	10584.8
164.327	6143.83
168.479	1560.25
172.628	1132.57
176.776	3808.59
180.922	4277.62
185.065	2204.17
189.207	1168.51
193.346	1289.23
197.484	2406.54
201.619	1177.18
205.753	1255.78
209.884	2323.33
214.014	4820.4
218.141	10183
222.267	18702.5
226.391	18943.9
230.512	11157.3
234.632	4911.4
238.749	2168.03
242.865	1616.99
246.979	592.984
251.09	78.957
255.2	223.887
259.308	2162.78
263.414	9005.06
267.517	10058.9
271.619	4176.51
275.719	2882.13
279.817	3542.3
283.913	4662.68
288.007	6381.71
292.099	8899.6
296.189	6190.36
300.277	1600.67
304.363	13.576
308.447	374.045
312.529	401.382
316.609	256.988
320.687	564.659
324.764	2725.86
328.838	1988.46
332.91	515.469
336.981	40.918
341.049	78.672
345.116	632.032
349.18	1929.63
353.243	8762.91
357.304	18954.9
361.362	8496.56
365.419	3061.91
369.474	1556.84
373.527	1195.94
377.578	1326.3
381.627	1587.3
385.674	2419.16
389.719	4912.38
393.762	10655.5
397.804	18408.5
401.843	14551.4
405.881	6824.24
409.916	3536
413.95	2601.76
417.981	2882.8
422.011	3455.29
426.039	3809.71
430.065	4015.65
434.089	4100.1
438.111	4082.9
442.131	3777.74
446.149	3247.96
450.166	3141.85
454.18	3492.4
458.193	3048.38
462.203	1847.82
466.212	1103.62
470.219	834.811
474.224	659.096
478.227	561.299
482.228	399.106
486.227	557.853
490.224	556.332
494.22	503.288
498.213	440.383
502.205	515.676
506.194	840.24
510.182	1344.52
514.168	1551.59
518.152	1506.51
522.134	1385.24
526.114	1427.8
530.093	1213.28
534.069	725.608
538.044	471.868
542.017	424.104
545.987	404.323
549.956	584.47
553.923	877.563
557.889	1688.61
561.852	2656.6
565.813	2638.54
569.773	2150.42
573.731	1876.3
577.686	1247.46
581.64	545.555
585.593	318.557
589.543	5.45
593.491	56.814
597.438	67.389
601.382	67.539
605.325	45.43
609.266	194.055
613.205	106.584
617.142	57.788
621.078	85.598
625.011	160.928
628.943	215.867
632.872	352.131
636.8	703.723
640.726	1141.88
644.651	1611.98
648.573	2848.04
652.494	5965.03
656.412	12970.1
660.329	16165.3
664.244	9910.69
668.157	5126.06
672.069	2968.16
675.978	2108.53
679.886	1373.51
683.792	984.712
687.696	729.929
691.598	654.365
695.498	613.849
699.397	599.264
703.293	523.399
707.188	482.954
711.081	579.607
714.972	900.542
718.862	1177.37
722.749	1535.12
726.635	2254.38
730.519	4631.68
734.401	6584.41
738.281	10219.1
742.16	11163.8
746.036	8076.74
749.911	5625.62
753.784	3216.68
757.655	2218.95
761.525	1403.81
765.392	863.889
769.258	626.724
773.122	517.392
776.984	483.209
780.844	519.339
784.703	311.089
788.56	246.88
792.415	317.699
796.268	366.533
800.119	415.38
803.969	271.242
807.816	143.121
811.662	101.023
815.506	187.958
819.349	190.921
823.189	96.901
827.028	17.153
830.865	37.246
834.7	24.383
838.534	6.381
842.365	40.022
846.195	40.35
850.023	68.85
853.85	75.484
857.674	17.239
861.497	1
865.318	41.179
869.137	31.674
872.955	47.589
876.77	27.555
880.584	31.482
884.396	62.556
888.207	90.655
892.015	93.809
895.822	153.019
899.627	216.304
903.43	463.7
907.232	889.295
911.032	1401.25
914.83	1617.59
918.626	1141.37
922.42	750.608
926.213	599.169
930.004	597.917
933.793	609.757
937.581	456.685
941.366	444.693
945.15	509.312
948.932	669.483
952.713	898.75
956.491	1167.12
960.268	1092.68
964.044	836.682
967.817	648.024
971.589	790.818
975.359	812.695
979.127	972.8
982.893	1034.8
986.658	1259.93
990.421	1640.66
994.183	2492.19
997.942	4138.3
1001.7	7916.22
1005.46	10718.5
1009.21	8336.43
1012.96	7333.83
1016.71	7409.85
1020.46	7485.62
1024.21	7340.52
1027.96	6598.39
1031.7	4864.22
1035.44	3206.62
1039.18	2096.65
1042.92	1577.72
1046.66	1277.94
1050.39	1005.25
1054.13	846.661
1057.86	677.156
1061.59	513.733
1065.32	473.386
1069.05	412.337
1072.77	331.894
1076.49	300.737
1080.22	279.647
1083.94	214.469
1087.65	117.902
1091.37	29.374
1095.09	21.48
1098.8	41.119
1102.51	84.716
1106.22	64.865
1109.93	14.253
1113.63	35.234
1117.34	10.034
1121.04	47.275
1124.74	220.197
1128.44	106.361
1132.14	86.68
1135.84	87.738
1139.53	134.568
1143.22	158.522
1146.91	132.049
1150.61	110.326
1154.29	155.218
1157.98	220.987
1161.66	251.074
1165.35	198.58
1169.03	103.372
1172.71	175.756
1176.38	135.294
1180.06	122.909
1183.73	111.57
1187.41	175.361
1191.08	114.222
1194.75	83.985
1198.41	27.458
1202.08	72.943
1205.74	66.116
1209.41	100.454
1213.07	123.479
1216.73	155.583
1220.38	151.515
1224.04	84.71
1227.69	18.51
1231.35	10.947
1235	1.642
1238.65	2.559
1242.3	53.372
1245.94	42.663
1249.59	37.187
1253.23	32.139
1256.87	11.195
1260.51	12.897
1264.15	10.504
1267.78	33.688
1271.42	36.299
1275.05	29.197
1278.68	32.174
1282.31	26.09
1285.94	30.797
1289.56	14.813
1293.19	2.779
1296.81	25.897
1300.43	12.637
1304.05	27.122
1307.67	99.771
1311.29	87.328
1314.9	35.641
1318.52	34.611
1322.13	77.323
1325.74	62.758
1329.34	50.961
1332.95	58.909
1336.56	77.612
1340.16	64.083
1343.76	88.362
1347.36	82.326
1350.96	82.051
1354.56	135.546
1358.15	56.815
1361.74	71.858
1365.34	69.684
1368.93	52.471
1372.52	57.6
1376.1	8.965
1379.69	69.36
1383.27	74.924
1386.85	44.933
1390.43	94.772
1394.01	42.585
1397.59	108.517
1401.17	42.823
1404.74	57.39
1408.31	68.695
1411.88	99.069
1415.45	47.971
1419.02	32.505
1422.59	74.154
1426.15	89.722
1429.71	48.852
1433.28	58.564
1436.84	37.05
1440.39	85.784
1443.95	82.703
1447.5	93.142
1451.06	52.501
1454.61	63.165
1458.16	81.585
1461.71	69.508
1465.26	95.707
1468.8	69.673
1472.34	75.259
1475.89	85.088
1479.43	1.153
1482.97	36.993
1486.5	51.312
1490.04	47.93
1493.57	40.052
1497.11	46.506
1500.64	45.188
1504.17	44.597
1507.69	30.15
1511.22	36.399
1514.74	13.912
1518.27	7.897
1521.79	0
