Measurement: Raman, 514 nm, ccw, Raman Data Processed
Mineral: Diopside
Rruff sample: R050406
Ideal chemistry: CaMgSi_2_O_6_
Locality: unknown
Source: University of Arizona Mineral Museum
Description: Brownish gray massive
Measured chemistry: (Ca_0.95_Na_0.05_)(Mg_0.75_Fe^2+^_0.18_Fe^3+^_0.05_Al_0.01_Ti_0.01_Mn^2+^_0.01_)(Si_0.98_Al_0.02_)_2_O_6_
Pin_id: M00100
Orientation: Laser parallel to (1 0 1). Fiducial mark perpendicular to laser is parallel to -b [0 -1 0]
Raman shift (cm-1)	intensity
94.714	0
99.649	111.161
104.582	681.46
109.512	3223.62
114.44	927.915
119.365	288.636
124.288	255.744
129.209	1325.87
134.127	3219.69
139.043	3207.76
143.956	953.429
148.867	157.389
153.775	272.6
158.681	873.037
163.585	1519.17
168.486	469.502
173.385	323.182
178.282	605.023
183.176	268.702
188.067	236.5
192.956	157.962
197.843	56.3291
202.727	98.8203
207.609	83.7969
212.489	352.497
217.366	909.716
222.24	1716.77
227.112	2028.5
231.982	1808.98
236.849	1236.17
241.714	1227.49
246.577	1194.31
251.437	1099.2
256.294	758.525
261.149	1614.31
266.002	217.945
270.852	127.039
275.7	144.278
280.545	543.453
285.388	1098.38
290.229	1900.15
295.067	3245.69
299.902	3971.04
304.735	5017.77
309.566	6931.8
314.394	10761.7
319.22	14930.6
324.043	13503.6
328.864	9731.9
333.682	7264.36
338.498	6700.9
343.311	8313.9
348.122	12298.4
352.931	15783.9
357.737	12021.9
362.54	8741.97
367.341	6580.85
372.14	6245.5
376.936	9078.84
381.73	15473
386.521	21112.8
391.31	14524.7
396.096	6956.7
400.88	2889.68
405.661	1476.56
410.44	745.3
415.216	686.826
419.99	400.098
424.761	20.0713
429.53	51.3652
434.297	198.631
439.061	180.508
443.822	69.2598
448.581	198.879
453.337	327.4
458.091	513.831
462.843	495.293
467.592	532.789
472.338	439.348
477.082	453.322
481.824	521.297
486.563	544.608
491.3	524.149
496.034	605.857
500.765	740.669
505.494	920.191
510.221	1062.41
514.945	1416.33
519.666	1789.37
524.385	2404.56
529.102	2568.95
533.816	2338.36
538.527	2302.68
543.236	2168.78
547.943	3006.62
552.647	4382.18
557.348	5019.42
562.047	2922.32
566.744	1952.83
571.438	1428.41
576.129	1069.89
580.818	461.162
585.504	217.704
590.188	35.9912
594.87	56.5264
599.549	45.5117
604.225	7.74805
608.899	203.512
613.57	284.175
618.239	261.975
622.905	665.644
627.569	841.314
632.23	1160.66
636.889	1648.9
641.545	2304.35
646.198	3482.55
650.849	6143.41
655.498	12553.3
660.144	25156
664.787	31533
669.428	19881.9
674.067	9684.93
678.703	4901.86
683.336	2957.75
687.967	1864.76
692.595	1344.9
697.221	882.167
701.844	949.571
706.465	653.122
711.083	463.893
715.698	337.692
720.311	181.174
724.922	99.624
729.53	166.403
734.135	23.0391
738.738	3.375
743.338	104.78
747.936	13.8721
752.531	35.6065
757.124	19.5801
761.714	47.1084
766.302	202.485
770.887	127.426
775.469	188.857
780.049	55.8486
784.626	72.4072
789.201	54.4853
793.773	76.1299
798.343	19.9502
802.91	120.818
807.475	20.5078
812.037	61.667
816.596	137.886
821.153	254.315
825.707	276.658
830.259	225.949
834.808	234.224
839.355	407.515
843.899	831.859
848.441	2355.29
852.98	4139.84
857.516	3893.62
862.05	2721
866.581	2282.85
871.11	2285.94
875.636	2142.2
880.159	2320.54
884.68	2576.49
889.199	2711.89
893.714	2617.16
898.228	2395.94
902.738	2325.7
907.246	2072.77
911.752	1792.91
916.255	1597.84
920.755	1551.12
925.253	1390.99
929.748	1201.94
934.241	994.052
938.731	858.407
943.218	690.922
947.703	949.507
952.186	1676.47
956.665	1844.45
961.142	2348.37
965.617	2688.21
970.089	3020.01
974.558	3486.83
979.025	3856.64
983.489	4245.38
987.951	4734.06
992.41	5942.7
996.866	8514.41
1001.32	14516.2
1005.77	27728.4
1010.22	49075.8
1014.67	41400.7
1019.11	19014.9
1023.55	9580.33
1027.99	6467.59
1032.42	5464.85
1036.86	5505.42
1041.29	6308.48
1045.72	5897.66
1050.14	4229.63
1054.56	3099.85
1058.98	2473.6
1063.4	1948.12
1067.82	1807.9
1072.23	1411.59
1076.64	1138.13
1081.05	1070.64
1085.45	1047.27
1089.85	973.482
1094.25	925.81
1098.65	913.921
1103.04	889.748
1107.43	771.803
1111.82	889.529
1116.21	1284.52
1120.59	1687.69
1124.97	1681.36
1129.35	1056.49
1133.73	628.302
1138.1	646.297
1142.47	418.176
1146.84	209.838
1151.21	255.83
1155.57	99.3838
1159.93	105.76
1164.29	101.917
1168.64	26.5518
1172.99	76.665
1177.34	42.9395
1181.69	14.7852
1186.04	60.915
1190.38	26.5283
1194.72	21.1318
1199.05	17.6445
1203.39	21.2588
1207.72	75.6191
1212.05	22.9014
1216.37	95.3369
1220.7	72.6856
1225.02	121.564
1229.34	54.001
1233.65	169.985
1237.97	123.249
1242.28	145.081
1246.59	262.349
1250.89	157.13
1255.19	210.463
1259.49	211.298
1263.79	153.676
1268.09	225.487
1272.38	152.794
1276.67	289.065
1280.95	237.402
1285.24	217.432
1289.52	268.511
1293.8	140.522
1298.08	171.59
1302.35	244.665
1306.62	164.773
1310.89	231.39
1315.15	210.762
1319.42	192.379
1323.68	185.709
1327.94	250.164
1332.19	235.301
1336.44	239.171
1340.69	227.777
1344.94	181.774
1349.19	187.019
1353.43	187.114
1357.67	133.684
1361.9	172.477
1366.14	213.537
1370.37	91.1787
1374.6	227.536
1378.83	198.915
1383.05	177.659
1387.27	93.9033
1391.49	149.161
1395.7	177.682
1399.92	162.621
1404.13	100.456
1408.34	90.0293
1412.54	22.2051
1416.74	84.1777
1420.94	160.075
1425.14	60.7978
1429.34	93.4336
1433.53	46.4541
1437.72	204.591
1441.9	218.045
1446.09	79.2334
1450.27	114.34
1454.45	147.757
1458.63	99.4697
1462.8	145.617
1466.97	8.77051
1471.14	81.9853
1475.31	60.5205
1479.47	166.757
1483.63	155.671
1487.79	179.348
1491.94	166.219
1496.09	38.0723
1500.24	41.6406
1504.39	83.4717
1508.54	126.38
1512.68	132.669
1516.82	72.9189
1520.95	167.517
1525.09	176.708
1529.22	141.118
1533.35	43.1777
1537.47	108.82
1541.6	89.9053
1545.72	134.669
1549.83	213.15
1553.95	239.933
1558.06	8.59082
1562.17	144.398
1566.28	149.051
1570.38	0.199219
