Measurement: Raman, 514 nm, ccw, Raman Data Processed
Mineral: Diopside
Rruff sample: R050666
Ideal chemistry: CaMgSi_2_O_6_
Locality: Franklin, Sussex County, New Jersey, USA
Source: University of Arizona Mineral Museum
Description: Brown cleavage fragment with white hardystonite
Measured chemistry: Ca(Mg_0.66_Mn_0.33_Fe_0.01_)Si_2_O_6_
Pin_id: L00874
Orientation: Laser parallel to -b* (0 -1 0). Fiducial mark perpendicular to laser is parallel to -c [0 0 -1]
Raman shift (cm-1)	intensity
109.512	0
114.44	267.331
119.365	351.93
124.288	1297.34
129.209	5103.67
134.127	7136.74
139.043	2834.78
143.956	521.278
148.867	3.31934
153.775	72.4092
158.681	6.46533
163.585	102.799
168.486	102.879
173.385	684.411
178.282	291.793
183.176	128.938
188.067	77.9087
192.956	135.638
197.843	67.1553
202.727	281.547
207.609	85.9683
212.489	59.2231
217.366	54.0972
222.24	37.7837
227.112	373.522
231.982	1239.46
236.849	596.21
241.714	283
246.577	176.901
251.437	249.918
256.294	285.194
261.149	389.261
266.002	248.838
270.852	219.078
275.7	324.669
280.545	304.798
285.388	272.228
290.229	503.993
295.067	840.503
299.902	1699.57
304.735	3127.8
309.566	5529.56
314.394	7465.89
319.22	5774.45
324.043	3220.19
328.864	2119.45
333.682	1681.94
338.498	2095.1
343.311	3316.9
348.122	3929.05
352.931	3247.64
357.737	2122.22
362.54	1652.23
367.341	1799.36
372.14	2821.57
376.936	5245.94
381.73	7779.34
386.521	5044.77
391.31	2101.21
396.096	886.687
400.88	412.158
405.661	307.614
410.44	214.065
415.216	106.485
419.99	2.88184
424.761	77.7495
429.53	10.3491
434.297	6.39209
439.061	10.0727
443.822	92.2988
448.581	149.473
453.337	264.774
458.091	225.288
462.843	109.186
467.592	39.4453
472.338	34.4692
477.082	22.7056
481.824	27.5977
486.563	70.7568
491.3	284.854
496.034	785.972
500.765	1653.17
505.494	1013.38
510.221	467.638
514.945	355.1
519.666	301.711
524.385	423.47
529.102	394.304
533.816	225.229
538.527	217.23
543.236	347.228
547.943	730.172
552.647	1274.07
557.348	1112.87
562.047	656.331
566.744	428.161
571.438	292.967
576.129	123.796
580.818	34.5093
585.504	59.5674
590.188	156.86
594.87	81.4922
599.549	117.196
604.225	74.3106
608.899	221.416
613.57	196.069
618.239	386.896
622.905	564.564
627.569	941.539
632.23	1073.6
636.889	1662.79
641.545	2469.33
646.198	4465.13
650.849	9573.44
655.498	20303.5
660.144	28767.2
664.787	19691.3
669.428	9206.14
674.067	4519.56
678.703	2505.45
683.336	1592.64
687.967	1124.07
692.595	742.332
697.221	649.558
701.844	453.503
706.465	370.195
711.083	235.755
715.698	149.129
720.311	58.1431
724.922	32.71
729.53	42.9941
734.135	87.9961
738.738	13.9902
743.338	84.4482
747.936	89.606
752.531	98.5278
757.124	221.528
761.714	71.043
766.302	16.5547
770.887	44.7353
775.469	40.6343
780.049	54.2373
784.626	13.519
789.201	25.6294
793.773	1.43994
798.343	99.062
802.91	41.2095
807.475	19.8472
812.037	43.9717
816.596	39.5903
821.153	22.4868
825.707	14.6499
830.259	82.9785
834.808	301.488
839.355	712.195
843.899	1820.21
848.441	3017.44
852.98	1894.59
857.516	913.283
862.05	563.716
866.581	470.589
871.11	439.963
875.636	480.824
880.159	367.109
884.68	330.16
889.199	350.267
893.714	349.109
898.228	283.819
902.738	345.976
907.246	412.275
911.752	399.04
916.255	404.46
920.755	261.308
925.253	359.806
929.748	241.466
934.241	124.465
938.731	160.042
943.218	61.4849
947.703	167.51
952.186	288.928
956.665	360.183
961.142	347.996
965.617	524.214
970.089	557.936
974.558	695.954
979.025	908.233
983.489	1211.66
987.951	1473.65
992.41	2237.77
996.866	3673.18
1001.32	7187.89
1005.77	17570
1010.22	42822.4
1014.67	43023.2
1019.11	16491.3
1023.55	7044.75
1027.99	4655.56
1032.42	4509.33
1036.86	5904.82
1041.29	6176.85
1045.72	3836.76
1050.14	2229.42
1054.56	1581.82
1058.98	1384.97
1063.4	1008.59
1067.82	976.65
1072.23	777.901
1076.64	756.071
1081.05	736.375
1085.45	729.424
1089.85	615.168
1094.25	530.146
1098.65	529.091
1103.04	438.528
1107.43	590.097
1111.82	621.969
1116.21	883.927
1120.59	3107.15
1124.97	1582.55
1129.35	681.743
1133.73	505.675
1138.1	355.204
1142.47	260.693
1146.84	236.432
1151.21	133.314
1155.57	144.015
1159.93	51.1587
1164.29	18.7715
1168.64	51.228
1172.99	72.4868
1177.34	16.5278
1181.69	31.4766
1186.04	11.1846
1190.38	2.75684
1194.72	10.2949
1199.05	70.7637
1203.39	2.13086
1207.72	61.373
1212.05	65.4736
1216.37	33.2266
1220.7	81.7812
1225.02	66.2481
1229.34	79.3691
1233.65	93.6123
1237.97	171.47
1242.28	7.23926
1246.59	74.8506
1250.89	218.327
1255.19	84.6719
1259.49	111.884
1263.79	97.0488
1268.09	121.856
1272.38	133.516
1276.67	196.138
1280.95	98.5293
1285.24	281.712
1289.52	66.6611
1293.8	78.9609
1298.08	162.312
1302.35	84.085
1306.62	199.171
1310.89	139.582
1315.15	207.847
1319.42	170.287
1323.68	210.466
1327.94	234.053
1332.19	251.696
1336.44	261.174
1340.69	192.307
1344.94	189.959
1349.19	101.066
1353.43	257.521
1357.67	263.702
1361.9	91.7119
1366.14	94.4326
1370.37	169.602
1374.6	151.248
1378.83	75.9883
1383.05	228.139
1387.27	163.08
1391.49	141.189
1395.7	205.933
1399.92	37.6357
1404.13	208.831
1408.34	177.812
1412.54	80.8603
1416.74	92.5928
1420.94	107.949
1425.14	115.773
1429.34	1.38574
1433.53	22.084
1437.72	121.415
1441.9	79.9492
1446.09	5.88574
1450.27	52.1875
1454.45	89.1807
1458.63	8.18457
1462.8	160.461
1466.97	98.6143
1471.14	119.067
1475.31	167.381
1479.47	118.686
1483.63	126.881
1487.79	175.035
1491.94	12.3037
1496.09	80.1641
1500.24	70.7832
1504.39	107.398
1508.54	64.9385
1512.68	138.509
1516.82	30.7402
1520.95	116.677
1525.09	148.293
1529.22	97.8506
1533.35	101.876
1537.47	255.018
1541.6	232.252
1545.72	168.73
1549.83	59.9492
1553.95	186.562
1558.06	106.952
1562.17	43.5947
1566.28	143.13
1570.38	41.5918
