Measurement: Raman, 514 nm, ccw, Raman Data Processed
Mineral: Diopside
Rruff sample: R060171
Ideal chemistry: CaMgSi_2_O_6_
Locality: Jeffrey mine, Asbestos, Quebec, Canada
Source: Guy Ouellet
Description: Yellowish-brown tabular crystals associated with vesuvianite, R060170
Measured chemistry: Ca_1.00_(Mg_0.98_Mn_0.02_)_Î£=1_Si_2.00_O_6_
Pin_id: L00630
Orientation: Laser parallel to (-1 0 -1). Fiducial mark perpendicular to laser is parallel to -b [0 -1 0]
Raman shift (cm-1)	intensity
109.512	0
114.44	115.883
119.365	190.513
124.288	292.636
129.209	576.564
134.127	978.49
139.043	4376.38
143.956	10301.2
148.867	1685.41
153.775	769.564
158.681	315.406
163.585	732.037
168.486	1165.98
173.385	485.812
178.282	310.125
183.176	943.454
188.067	427.546
192.956	374.31
197.843	467.065
202.727	415.178
207.609	248.122
212.489	261.478
217.366	330.717
222.24	422.695
227.112	1239.24
231.982	3754.47
236.849	1550.14
241.714	434.756
246.577	278.255
251.437	427.599
256.294	717.401
261.149	512.501
266.002	132.592
270.852	155.106
275.7	70.2041
280.545	49.374
285.388	44.6279
290.229	61.4482
295.067	182.429
299.902	715.769
304.735	2289.11
309.566	1153.21
314.394	1502.56
319.22	3311.91
324.043	11399.1
328.864	8359.5
333.682	2260.92
338.498	988.106
343.311	666.701
348.122	872.36
352.931	1722.95
357.737	5874.38
362.54	4727.86
367.341	3479.81
372.14	2598.02
376.936	1495.54
381.73	2446.16
386.521	6398.25
391.31	18045.6
396.096	6991.18
400.88	1883.01
405.661	1011.39
410.44	259.315
415.216	220.691
419.99	270.469
424.761	176.555
429.53	21.541
434.297	208.34
439.061	32.6055
443.822	109.709
448.581	52.1641
453.337	37.0215
458.091	155.332
462.843	112.637
467.592	169.82
472.338	37.9297
477.082	30.1094
481.824	9.67773
486.563	8.58008
491.3	55.5742
496.034	30.3008
500.765	153.947
505.494	117.603
510.221	166.293
514.945	266.322
519.666	397.295
524.385	97.7148
529.102	482.924
533.816	548.135
538.527	255.369
543.236	263.57
547.943	224.586
552.647	338.785
557.348	627.777
562.047	997.662
566.744	395.424
571.438	200.94
576.129	150.695
580.818	255.158
585.504	237.117
590.188	5.79102
594.87	226.068
599.549	111.234
604.225	175.996
608.899	166.369
613.57	32.7734
618.239	13.209
622.905	153.295
627.569	152.113
632.23	393.467
636.889	472.076
641.545	826.758
646.198	1179.47
650.849	1668.79
655.498	2838.86
660.144	6800.68
664.787	16908.2
669.428	19320.9
674.067	7933.4
678.703	3368.5
683.336	1679.82
687.967	1099.02
692.595	630.844
697.221	717.996
701.844	508.754
706.465	702.561
711.083	701.039
715.698	233.037
720.311	223.191
724.922	94.6094
729.53	245.996
734.135	113.182
738.738	17.6152
743.338	372.717
747.936	243.139
752.531	67.1269
757.124	40.666
761.714	61.4746
766.302	64.4609
770.887	179.344
775.469	155.67
780.049	54.7793
784.626	74.7266
789.201	15.8633
793.773	95.0117
798.343	153.84
802.91	211.06
807.475	89.8457
812.037	84.3809
816.596	142.014
821.153	263.838
825.707	324.027
830.259	222.947
834.808	100.07
839.355	364.772
843.899	502.215
848.441	980.68
852.98	3177.24
857.516	3361.7
862.05	996.719
866.581	583.869
871.11	393.213
875.636	414.504
880.159	348.256
884.68	136.322
889.199	164.35
893.714	181.828
898.228	274.527
902.738	210.83
907.246	254.07
911.752	388.557
916.255	300.217
920.755	100.545
925.253	234.353
929.748	104.818
934.241	92.5156
938.731	212.869
943.218	149.264
947.703	163.332
952.186	98.3691
956.665	132.119
961.142	151.768
965.617	414.938
970.089	103.252
974.558	251.055
979.025	210.414
983.489	342.287
987.951	491.846
992.41	631.766
996.866	811.779
1001.32	1692.49
1005.77	3720.52
1010.22	12251.9
1014.67	26692.8
1019.11	9816.9
1023.55	3190.13
1027.99	1684.67
1032.42	984.144
1036.86	666.086
1041.29	661.125
1045.72	629.791
1050.14	906.135
1054.56	375.606
1058.98	246.68
1063.4	447.445
1067.82	237.178
1072.23	199.367
1076.64	405.072
1081.05	54.6152
1085.45	134.057
1089.85	47.4414
1094.25	82.041
1098.65	94.3438
1103.04	75.7266
1107.43	75.4141
1111.82	7.85547
1116.21	175.078
1120.59	466.492
1124.97	520.322
1129.35	98.0606
1133.73	88.3848
1138.1	379.701
1142.47	212.332
1146.84	140.894
1151.21	349.022
1155.57	184.451
1159.93	59.7812
1164.29	19.6328
1168.64	185.572
1172.99	92.0215
1177.34	238.375
1181.69	275.785
1186.04	183.742
1190.38	82.9766
1194.72	82.7656
1199.05	81.6484
1203.39	186.434
1207.72	72.4492
1212.05	236.731
1216.37	166.551
1220.7	56.7734
1225.02	190.246
1229.34	98.9961
1233.65	141.121
1237.97	254.918
1242.28	189.996
1246.59	80.7734
1250.89	297.383
1255.19	238.215
1259.49	298.262
1263.79	135.43
1268.09	152.215
1272.38	249.5
1276.67	202.438
1280.95	192.32
1285.24	167.18
1289.52	109.637
1293.8	358.133
1298.08	379.535
1302.35	178.457
1306.62	449.727
1310.89	205.875
1315.15	393.164
1319.42	403.477
1323.68	396.887
1327.94	626.988
1332.19	202.398
1336.44	362.59
1340.69	232.359
1344.94	280.293
1349.19	315.973
1353.43	288.699
1357.67	98.2188
1361.9	368.078
1366.14	342.336
1370.37	151.512
1374.6	245.594
1378.83	191.574
1383.05	189.738
1387.27	137.297
1391.49	366.312
1395.7	105.894
1399.92	202.738
1404.13	117.781
1408.34	334.582
1412.54	131.34
1416.74	74.1523
1420.94	155.031
1425.14	205.738
1429.34	230.801
1433.53	147.828
1437.72	96.7305
1441.9	435.859
1446.09	340.172
1450.27	200.426
1454.45	262.875
1458.63	169.648
1462.8	596.684
1466.97	204.719
1471.14	238.973
1475.31	255.297
1479.47	111.848
1483.63	254.144
1487.79	556.289
1491.94	392.43
1496.09	452.672
1500.24	91.5547
1504.39	642.18
1508.54	310.551
1512.68	506.344
1516.82	334.934
1520.95	469.574
1525.09	386.481
1529.22	150.055
1533.35	261.438
1537.47	517.66
1541.6	199.34
1545.72	136.305
1549.83	3.71875
1553.95	213.516
1558.06	62.6953
1562.17	70.5625
1566.28	279.914
1570.38	105.496
