Measurement: Raman, 514 nm, ccw, Raman Data Processed
Mineral: Diopside
Rruff sample: R060171
Ideal chemistry: CaMgSi_2_O_6_
Locality: Jeffrey mine, Asbestos, Quebec, Canada
Source: Guy Ouellet
Description: Yellowish-brown tabular crystals associated with vesuvianite, R060170
Measured chemistry: Ca_1.00_(Mg_0.98_Mn_0.02_)_Î£=1_Si_2.00_O_6_
Pin_id: L00630
Orientation: Laser parallel to (-1 0 -1). Fiducial mark perpendicular to laser is parallel to -b [0 -1 0]
Raman shift (cm-1)	intensity
109.512	0
114.44	132.042
119.365	324.185
124.288	243.344
129.209	270.286
134.127	477.964
139.043	1392.73
143.956	3574.83
148.867	806.871
153.775	638.604
158.681	607.641
163.585	468.291
168.486	871.059
173.385	508.576
178.282	531.543
183.176	1490.56
188.067	663.412
192.956	430.008
197.843	558.967
202.727	454.662
207.609	412.424
212.489	306.887
217.366	450.08
222.24	640.092
227.112	791.809
231.982	2123.13
236.849	1485.98
241.714	488.539
246.577	210.103
251.437	416.617
256.294	1076.04
261.149	457.486
266.002	137.986
270.852	254.801
275.7	69.1621
280.545	135.566
285.388	388.695
290.229	171.273
295.067	241.578
299.902	666.66
304.735	1165.96
309.566	1091.63
314.394	2070.88
319.22	3711.94
324.043	11326.6
328.864	8030.96
333.682	2252.71
338.498	1084.28
343.311	877.973
348.122	602.959
352.931	975.891
357.737	2312.84
362.54	1566.87
367.341	1620.36
372.14	1321.37
376.936	1155.78
381.73	2006.57
386.521	4859.69
391.31	13385.1
396.096	5278.86
400.88	1366.91
405.661	491.519
410.44	337.752
415.216	211.887
419.99	95.0801
424.761	89.6836
429.53	27.5977
434.297	67.1875
439.061	56.3047
443.822	68.0977
448.581	7.89258
453.337	29.6855
458.091	15.916
462.843	54.3262
467.592	14.4414
472.338	30.6426
477.082	63.6895
481.824	20.2637
486.563	60.1562
491.3	91.1016
496.034	161.852
500.765	251.877
505.494	124.557
510.221	129.92
514.945	231.422
519.666	504.078
524.385	498.797
529.102	1116.52
533.816	1099.31
538.527	482.082
543.236	34.7988
547.943	135.438
552.647	90.9883
557.348	323.434
562.047	310.736
566.744	205.115
571.438	297.922
576.129	74.4902
580.818	111.43
585.504	73.5644
590.188	181.375
594.87	31.5742
599.549	97.0176
604.225	45.4922
608.899	285.445
613.57	198.32
618.239	149.906
622.905	241.275
627.569	309.049
632.23	86.5801
636.889	189.014
641.545	419.603
646.198	714.209
650.849	774.236
655.498	1409.65
660.144	3024.44
664.787	7331.11
669.428	8355.35
674.067	3650.48
678.703	1505.98
683.336	704.352
687.967	641.057
692.595	442.801
697.221	324.144
701.844	211.574
706.465	322.994
711.083	352.043
715.698	116.059
720.311	348.785
724.922	199.156
729.53	345.357
734.135	208.891
738.738	234.402
743.338	373.94
747.936	404.477
752.531	13.1855
757.124	93.1641
761.714	66.7891
766.302	405.32
770.887	50.8594
775.469	362.113
780.049	243.332
784.626	379.065
789.201	125.166
793.773	20.834
798.343	193.42
802.91	86.5019
807.475	81.5078
812.037	376.504
816.596	145.102
821.153	104.014
825.707	269.779
830.259	54.6016
834.808	183.357
839.355	60.3809
843.899	244.945
848.441	325.244
852.98	1020.55
857.516	995.977
862.05	404.457
866.581	432.941
871.11	322.555
875.636	259.652
880.159	372.082
884.68	114.406
889.199	251.078
893.714	177.637
898.228	159.215
902.738	311.356
907.246	244.078
911.752	326.242
916.255	275.578
920.755	217.375
925.253	134.508
929.748	33.3633
934.241	308.426
938.731	20.6367
943.218	80.5898
947.703	115.258
952.186	270.996
956.665	87.3125
961.142	166.84
965.617	6.88281
970.089	238.941
974.558	255.629
979.025	308.551
983.489	407.656
987.951	314.215
992.41	731.363
996.866	740.394
1001.32	1837.58
1005.77	4267.4
1010.22	13453.2
1014.67	26843.6
1019.11	9781.81
1023.55	2945.02
1027.99	1643.08
1032.42	1031.92
1036.86	739.539
1041.29	988.856
1045.72	917.769
1050.14	884.785
1054.56	363.965
1058.98	584.676
1063.4	56.9922
1067.82	145.141
1072.23	188.043
1076.64	239.043
1081.05	399.195
1085.45	284.68
1089.85	49.6875
1094.25	295.238
1098.65	374.992
1103.04	96.1484
1107.43	213.371
1111.82	103.535
1116.21	426.988
1120.59	392.918
1124.97	241.309
1129.35	195.426
1133.73	173.231
1138.1	68.3008
1142.47	98.0195
1146.84	348.527
1151.21	214.977
1155.57	265.039
1159.93	12.9297
1164.29	20.8477
1168.64	356.555
1172.99	120.191
1177.34	101.414
1181.69	190.519
1186.04	221.012
1190.38	7.00391
1194.72	270.16
1199.05	270.992
1203.39	147.969
1207.72	0.746094
1212.05	362.414
1216.37	187.16
1220.7	489.148
1225.02	413.258
1229.34	238.848
1233.65	330.32
1237.97	338.492
1242.28	304.648
1246.59	515.504
1250.89	212.852
1255.19	456.926
1259.49	518.094
1263.79	488.438
1268.09	318.102
1272.38	278.906
1276.67	176.051
1280.95	240.812
1285.24	341.266
1289.52	87.5586
1293.8	250.519
1298.08	25.5039
1302.35	158.031
1306.62	21.9336
1310.89	217.504
1315.15	300.332
1319.42	587.273
1323.68	757.426
1327.94	639.914
1332.19	543.312
1336.44	569.293
1340.69	451.547
1344.94	655.133
1349.19	221.578
1353.43	213.144
1357.67	870.859
1361.9	590.348
1366.14	455.387
1370.37	234.535
1374.6	630.91
1378.83	485.18
1383.05	171.801
1387.27	406.988
1391.49	482.801
1395.7	443.301
1399.92	247.516
1404.13	459.656
1408.34	427.449
1412.54	487.391
1416.74	217.504
1420.94	216.707
1425.14	257.422
1429.34	78.0703
1433.53	332.438
1437.72	393.977
1441.9	573.254
1446.09	360.812
1450.27	142.852
1454.45	149.871
1458.63	391.289
1462.8	244.172
1466.97	440.277
1471.14	233.672
1475.31	427.348
1479.47	401.309
1483.63	471.602
1487.79	430.371
1491.94	819.648
1496.09	366.258
1500.24	459.223
1504.39	566.668
1508.54	366.266
1512.68	360.617
1516.82	556.106
1520.95	545.727
1525.09	378.676
1529.22	439.18
1533.35	582.539
1537.47	316.16
1541.6	254.293
1545.72	287.629
1549.83	23.9375
1553.95	414.394
1558.06	613.805
1562.17	34.4336
1566.28	270.141
1570.38	95.4961
