Measurement: Raman, 514 nm, ccw, Raman Data Processed
Mineral: Diopside
Rruff sample: R060861
Ideal chemistry: CaMgSi_2_O_6_
Locality: Red Mountain Volcano, NW of Flagstaff, Arizona, USA
Source: Jennifer Sano
Description: Worn brown fragment
Measured chemistry: (Ca_0.72_Fe^2+^_0.23_Na_0.05_)_Σ=1_(Mg_0.80_Al_0.15_Ti_0.03_Fe^3+^_0.02_)_Σ=1_(Si_1.82_Al_0.18_)_Σ=2_O_6_
Pin_id: M01674
Orientation: Laser parallel to b* (0 1 0). Fiducial mark perpendicular to laser is parallel to c [0 0 1]
Raman shift (cm-1)	intensity
164.828	0
169.765	365.316
174.7	419.831
179.631	984.205
184.56	1064.02
189.484	1581.62
194.406	1985.08
199.325	1815.14
204.24	1212.77
209.153	106.873
214.062	44.8184
218.968	146.427
223.87	96.1406
228.77	225.148
233.666	108.059
238.56	292.086
243.45	707.97
248.337	1084.27
253.221	3111.48
258.102	3249.2
262.979	820.957
267.854	371.094
272.726	152.562
277.594	276.87
282.459	711.981
287.321	1175.84
292.18	1861.37
297.036	2993.91
301.889	4089.78
306.739	6624.07
311.586	7703.32
316.43	9944.77
321.271	12790.5
326.108	15047.3
330.943	16675.7
335.774	16877
340.603	16136.9
345.428	14638.3
350.251	13597.5
355.07	12337
359.887	11116.9
364.7	9688.56
369.511	8401.77
374.318	7502.52
379.123	7095.18
383.924	7250.82
388.723	7833.04
393.518	8357.78
398.311	7791
403.1	5806.69
407.887	3784.82
412.671	2117.39
417.451	1001.38
422.229	604.584
427.004	451.349
431.776	248.424
436.545	24.7432
441.311	83.832
446.074	66.8076
450.834	248.833
455.591	3.01562
460.346	176.904
465.097	254.224
469.846	616.973
474.591	610.766
479.334	655.565
484.074	658.652
488.811	927.365
493.545	1376.78
498.276	2129.89
503.005	3606.87
507.73	5698.62
512.453	6066.15
517.173	4703.22
521.89	4210.76
526.604	4075.73
531.315	4372.09
536.024	4883.81
540.729	4923.87
545.432	4551.25
550.132	4471.92
554.83	4507.88
559.524	4267.05
564.216	4122.47
568.904	3585.74
573.59	3332.8
578.274	2909.01
582.954	2196.01
587.632	1537.66
592.307	789.193
596.979	220.24
601.648	66.0723
606.315	126.199
610.979	356.222
615.64	519.16
620.298	949.673
624.954	1405.35
629.607	2258.75
634.257	3397.9
638.904	4930.82
643.549	7378.53
648.191	11224
652.83	17987.4
657.467	28270.7
662.101	42526.8
666.732	52571.9
671.36	47449
675.986	32821.2
680.609	20693.4
685.23	12833.8
689.847	8197.3
694.462	5466.1
699.075	3741.21
703.685	2854.67
708.292	2130.56
712.896	1560.98
717.498	1136.03
722.097	415.94
726.694	123.171
731.287	143.543
735.879	488.983
740.467	380.024
745.053	482.121
749.637	479.637
754.217	317.046
758.795	83.4766
763.371	198.284
767.944	303.938
772.514	393.441
777.082	498.909
781.647	624.459
786.21	851.211
790.77	835.285
795.327	1202.34
799.882	1249.87
804.434	1551.59
808.984	1698.09
813.531	1986.45
818.076	2137.8
822.618	2323.55
827.158	2411.26
831.695	2269.66
836.229	2049.88
840.761	1936.56
845.291	1770.78
849.817	1911.63
854.342	2128.2
858.864	2678.57
863.383	3320.37
867.9	3321.79
872.414	3450.77
876.926	3024.85
881.436	2895.01
885.942	2575.48
890.447	2374.76
894.949	2460.92
899.448	2192
903.945	2219.45
908.44	2355.95
912.932	2478.38
917.421	2677.13
921.909	2875.23
926.393	3186.47
930.876	3350.88
935.355	3742.03
939.833	3789.54
944.308	4094.41
948.78	4534.56
953.25	5117.21
957.718	5821.3
962.183	6474.8
966.646	7503.61
971.107	8775.72
975.565	10768.1
980.02	12592.6
984.474	15565.4
988.925	19649.3
993.373	25146.3
997.819	31817.3
1002.26	38485.8
1006.7	40875.5
1011.14	37222.6
1015.58	28869
1020.01	20699
1024.45	14938.3
1028.88	11800.3
1033.3	9919.36
1037.73	8502.39
1042.15	7575.82
1046.57	6566.08
1050.99	5547.46
1055.4	4727.23
1059.82	4063.8
1064.23	3444.69
1068.64	3142.62
1073.04	2927.6
1077.45	2686.94
1081.85	2462.31
1086.25	2413.11
1090.64	2272.12
1095.04	2231.79
1099.43	2080.8
1103.82	2027.42
1108.21	1976.42
1112.6	1946.79
1116.98	1923.7
1121.36	1891.57
1125.74	1465.83
1130.12	928.688
1134.49	458.978
1138.86	266.416
1143.23	91.1865
1147.6	102.632
1151.96	262.945
1156.33	246.351
1160.69	203.988
1165.05	218.208
1169.4	128.247
1173.76	69.5054
1178.11	223.987
1182.46	154.724
1186.81	2.82031
1191.15	39.3301
1195.49	75.2134
1199.84	101.817
1204.17	26.6157
1208.51	166.534
1212.84	339.835
1217.18	322.675
1221.51	385.027
1225.83	455.987
1230.16	495.627
1234.48	557.962
1238.8	640.991
1243.12	481.721
1247.44	657.046
1251.76	755.83
1256.07	647.636
1260.38	775.916
1264.69	902.862
1268.99	1027.33
1273.3	795.61
1277.6	1012.62
1281.9	982.188
1286.2	810.573
1290.49	811.223
1294.79	848.826
1299.08	832.301
1303.37	764.537
1307.65	755.679
1311.94	708.81
1316.22	644.815
1320.5	492.953
1324.78	584.746
1329.06	661.627
1333.33	635.073
1337.6	583.073
1341.87	719.148
1346.14	686.691
1350.41	564.333
1354.67	647.693
1358.93	522.951
1363.19	422.378
1367.45	551.614
1371.71	488.42
1375.96	503.086
1380.21	497.473
1384.46	482.945
1388.71	339.258
1392.96	401.012
1397.2	352.487
1401.44	357.086
1405.68	414.151
1409.92	277.325
1414.16	306.042
1418.39	252.82
1422.62	300.092
1426.85	303.408
1431.08	311.384
1435.3	246.646
1439.53	361.153
1443.75	125.815
1447.97	304.426
1452.19	246.012
1456.4	258.13
1460.62	260.447
1464.83	128.704
1469.04	163.914
1473.24	115.366
1477.45	183.102
1481.65	58.2349
1485.86	144.777
1490.06	44.0478
1494.26	121.317
1498.45	203.642
1502.64	54.8438
1506.84	31.5059
1511.03	13.4937
1515.22	25.5547
1519.4	134.372
1523.59	51.7353
1527.77	47.021
1531.95	82.6953
1536.13	89.4844
1540.31	97.4394
1544.48	92.3047
1548.65	137.478
1552.82	52.1397
1556.99	81.5215
1561.16	70.7891
1565.33	0
