Measurement: Raman, 514 nm, ccw, Raman Data Processed
Mineral: Diopside
Rruff sample: R060861
Ideal chemistry: CaMgSi_2_O_6_
Locality: Red Mountain Volcano, NW of Flagstaff, Arizona, USA
Source: Jennifer Sano
Description: Worn brown fragment
Measured chemistry: (Ca_0.72_Fe^2+^_0.23_Na_0.05_)_Σ=1_(Mg_0.80_Al_0.15_Ti_0.03_Fe^3+^_0.02_)_Σ=1_(Si_1.82_Al_0.18_)_Σ=2_O_6_
Pin_id: M01599
Orientation: Laser parallel to (1 0 1). Fiducial mark perpendicular to laser is parallel to b [0 1 0]
Raman shift (cm-1)	intensity
183.328	0
188.254	424.341
193.176	1005.21
198.096	1095.27
203.012	1091.68
207.925	214.323
212.835	332.679
217.741	1855.71
222.645	2262.51
227.545	2530.91
232.443	1977.2
237.337	1270.44
242.228	762.462
247.116	643.457
252	719.815
256.882	664.587
261.76	710.207
266.636	57.3379
271.508	116.514
276.377	195.335
281.243	797.432
286.106	1796.69
290.966	2837.04
295.823	4529.33
300.676	5940.27
305.527	7573.01
310.375	9721.08
315.219	12686
320.061	16629.6
324.899	20857.7
329.734	23958.2
334.567	25085.2
339.396	24345.3
344.222	22872.7
349.046	22123.9
353.866	21482
358.683	21206.8
363.497	20746.7
368.308	19376.8
373.117	18357.6
377.922	18181.6
382.724	19716.3
387.523	23165.4
392.32	26335.7
397.113	26607.1
401.903	21899.4
406.691	14664.5
411.475	8440.26
416.256	4686.22
421.035	2842.9
425.81	1690.18
430.583	1064.75
435.353	698.5
440.119	256.318
444.883	58.5742
449.644	20.4395
454.402	203.994
459.157	534.44
463.909	1292.73
468.659	1507.21
473.405	1831.25
478.149	1752.77
482.889	1832.35
487.627	1870.75
492.362	1953.38
497.094	1905.78
501.823	1959.03
506.549	2227.71
511.273	2987.69
515.993	3434.86
520.711	4117.12
525.426	4946.36
530.138	5595.46
534.847	6100.32
539.553	6315.85
544.257	6268.84
548.958	6365.53
553.655	6439.51
558.351	6591.87
563.043	5821.97
567.732	4878.41
572.419	3946.3
577.103	2965.18
581.784	2124.52
586.463	1259.26
591.138	584.108
595.811	23.0645
600.481	325.264
605.148	276.026
609.813	83.4873
614.475	373.695
619.134	746.899
623.79	1132.6
628.444	1805.73
633.095	2806.42
637.743	4426.65
642.388	6627.42
647.031	10051.7
651.671	16104.6
656.308	25512
660.942	38158
665.574	49099.6
670.203	47067.8
674.83	34553.7
679.454	21991.3
684.075	13706.6
688.693	8579.7
693.309	5799.65
697.922	4035.48
702.532	2865.27
707.14	1936.06
711.745	1429.92
716.348	723.938
720.947	335.144
725.545	110.173
730.139	311.152
734.731	532.768
739.32	622.642
743.907	658.619
748.491	473.965
753.072	237.542
757.651	151.804
762.227	663.068
766.801	1056.61
771.372	1265.33
775.94	1527.39
780.506	1546.44
785.069	1584.2
789.63	1683.28
794.188	1710.36
798.744	1854.6
803.297	1861.16
807.847	2112.19
812.395	2456.84
816.94	2592.27
821.483	2593.61
826.023	2599.02
830.561	2461.63
835.096	2242.59
839.628	1849.03
844.158	1964.1
848.686	2008.2
853.211	2530.66
857.734	3125.76
862.254	3817.09
866.771	4224.84
871.286	4390.09
875.798	4277.67
880.308	4219.18
884.816	3776.14
889.321	3751.54
893.824	3682.84
898.324	3671.09
902.821	3657.9
907.316	3476.32
911.809	3654.41
916.299	3726.99
920.787	4183.03
925.272	4079.34
929.755	4367.88
934.236	4538.56
938.714	4755.1
943.189	5005.44
947.662	5427.55
952.133	6372.32
956.601	7437.68
961.067	8500.57
965.531	9766.98
969.992	11289.9
974.45	13467.2
978.907	15717.9
983.361	19005.9
987.812	23864.3
992.261	30185
996.708	37913.6
1001.15	46399
1005.59	51400.3
1010.03	49137.6
1014.47	39656.9
1018.91	28292.1
1023.34	19882.8
1027.77	14921.3
1032.2	11986.7
1036.62	10037.3
1041.05	8790.68
1045.46	7591.64
1049.88	6319.1
1054.3	5570.37
1058.71	4554.68
1063.12	3830.89
1067.53	3176.68
1071.94	2936.75
1076.35	2647.39
1080.75	2584.67
1085.15	2352.11
1089.55	2314.86
1093.94	2098.32
1098.33	2134.95
1102.72	2065.35
1107.11	2153.92
1111.5	2050.6
1115.88	2036.82
1120.26	1955.01
1124.64	1699.86
1129.02	962.583
1133.4	610.612
1137.77	532.456
1142.14	144.343
1146.51	208.842
1150.87	302.062
1155.24	453.859
1159.6	445.441
1163.96	324.171
1168.31	352.06
1172.67	350.876
1177.02	203.611
1181.37	98.2676
1185.72	41.0654
1190.07	11.8271
1194.41	52.5449
1198.75	154.369
1203.09	303.731
1207.43	288.691
1211.76	374.289
1216.09	502.695
1220.42	565.617
1224.75	550.239
1229.08	723.353
1233.4	765.423
1237.72	752.441
1242.04	777.383
1246.36	940.24
1250.68	967.393
1254.99	961.085
1259.3	1023.64
1263.61	978.096
1267.92	1052.42
1272.22	1188.62
1276.52	1174
1280.82	1101.72
1285.12	1094.69
1289.42	1027.38
1293.71	918.382
1298	927.34
1302.29	814.53
1306.58	702.346
1310.87	833.707
1315.15	836.611
1319.43	660.434
1323.71	762.594
1327.99	790.819
1332.26	574.246
1336.54	678.602
1340.81	644.936
1345.08	646.851
1349.34	659.272
1353.61	587.151
1357.87	596.489
1362.13	539.036
1366.39	530.393
1370.64	540.527
1374.9	443.418
1379.15	402.012
1383.4	478.364
1387.65	470.485
1391.9	425.278
1396.14	416.194
1400.38	309.179
1404.62	348.005
1408.86	225.277
1413.1	202.062
1417.33	144.737
1421.56	242.229
1425.79	167.373
1430.02	163.209
1434.25	164.655
1438.47	71.0298
1442.69	145.209
1446.91	172.583
1451.13	41.7246
1455.35	131.216
1459.56	135.631
1463.78	123.933
1467.98	135.137
1472.19	110.756
1476.4	124.07
1480.6	94.8999
1484.81	26.8047
1489.01	2.44141
1493.2	20.7637
1497.4	141.824
1501.6	2.78369
1505.79	7.3501
1509.98	129.016
1514.17	116.951
1518.36	51.9639
1522.54	90.9658
1526.72	6.85693
1530.9	55.5005
1535.08	22.0576
1539.26	17.2031
1543.44	88.1143
1547.61	73.1372
1551.78	4.76172
1555.95	94.3218
1560.12	125.126
1564.29	0.283203
