Measurement: Raman, 514 nm, ccw, Raman Data Processed
Mineral: Diopside
Rruff sample: R050406
Ideal chemistry: CaMgSi_2_O_6_
Locality: unknown
Source: University of Arizona Mineral Museum
Description: Brownish gray massive
Measured chemistry: (Ca_0.95_Na_0.05_)(Mg_0.75_Fe^2+^_0.18_Fe^3+^_0.05_Al_0.01_Ti_0.01_Mn^2+^_0.01_)(Si_0.98_Al_0.02_)_2_O_6_
Pin_id: M00086
Orientation: Laser parallel to c* (0 0 1). Fiducial mark perpendicular to laser is parallel to a [1 0 0]
Raman shift (cm-1)	intensity
116.903	0
121.827	113.154
126.749	48.0664
131.668	306.881
136.585	482.522
141.5	933.24
146.412	887.297
151.321	652.279
156.229	429.918
161.134	459.929
166.036	1124.01
170.936	1030.56
175.834	811.914
180.729	1308.63
185.622	1350.35
190.512	1179.73
195.4	1638.46
200.286	1233
205.169	695.277
210.049	491.852
214.928	407.137
219.803	539.332
224.677	976.384
229.548	1312.34
234.416	1480.18
239.282	1042.9
244.146	884.436
249.007	909.722
253.866	1064.71
258.722	1240.01
263.576	663.74
268.427	372.129
273.276	409.263
278.123	168.379
282.967	360.462
287.809	467.062
292.648	880.423
297.485	1336.88
302.319	2054.24
307.151	2939.65
311.98	4045.9
316.807	6193.35
321.631	9713.53
326.454	11420.4
331.273	8296.7
336.09	5373.43
340.905	3854.35
345.717	3559.38
350.527	4213.49
355.334	5670.04
360.139	5492.17
364.941	3890.26
369.741	3227.27
374.538	3500.16
379.333	4921.91
384.126	8286.48
388.916	14052.8
393.703	14232
398.488	7493.79
403.271	3363.33
408.051	1456.57
412.828	757.785
417.603	523.753
422.376	330.255
427.146	66.3516
431.914	92.7295
436.679	76.2822
441.442	117.711
446.202	97.833
450.96	3.49219
455.715	280.89
460.467	270.397
465.218	499.203
469.965	311.284
474.711	167.001
479.454	367.408
484.194	192.859
488.932	34.501
493.667	101.622
498.4	244.171
503.13	306.008
507.858	396.053
512.583	536.277
517.306	700.644
522.026	917.114
526.744	1570.72
531.459	1735.4
536.172	1318.34
540.882	1084.87
545.59	1139.43
550.295	1385.42
554.998	2166.31
559.698	3087.06
564.396	2381.65
569.091	1091.04
573.784	754.114
578.474	425.925
583.162	153.022
587.847	82.3467
592.529	140.249
597.209	79.9619
601.887	19.8164
606.562	108.27
611.235	40.5498
615.905	33.6465
620.572	96.1494
625.237	394.462
629.9	529.316
634.56	729.801
639.217	844.9
643.872	1347.35
648.524	1859.59
653.174	3165.2
657.821	6095.26
662.466	12371.4
667.108	20219
671.748	15691.1
676.385	7705.01
681.02	3826.88
685.652	2206.65
690.281	1349.39
694.908	930.721
699.533	808.596
704.155	678.031
708.774	479.252
713.391	349.154
718.005	355.279
722.617	129.293
727.226	124.361
731.833	144.66
736.437	231.019
741.039	17.8496
745.638	84.7988
750.234	80.043
754.828	66.6523
759.419	131.318
764.008	104.316
768.595	15.2559
773.178	32.7637
777.759	73.8301
782.338	86.8398
786.914	17.9805
791.488	4.35156
796.059	35.7891
800.627	63.4609
805.193	107.621
809.756	58.7734
814.317	36.0684
818.875	70.1465
823.431	127.99
827.984	107.519
832.534	41.7832
837.082	113.805
841.627	97.6055
846.17	317.209
850.71	336.414
855.248	1159.73
859.783	1430.32
864.316	991.898
868.846	935.051
873.373	878.35
877.898	772.68
882.42	935.08
886.94	1219.8
891.457	1115.9
895.971	1198.37
900.483	1547.28
904.993	1177.48
909.5	1066.47
914.004	958.232
918.505	856.664
923.004	812.727
927.501	689.447
931.995	491.106
936.486	475.928
940.975	520.066
945.461	391.627
949.945	370.541
954.426	886.668
958.904	1036.7
963.38	1376.52
967.853	1703.5
972.324	1873.71
976.792	2284.26
981.258	2541.79
985.72	3087.45
990.181	3554.76
994.639	4439.67
999.094	6580.23
1003.55	11336.5
1008	21865.7
1012.44	38983.6
1016.89	37319.4
1021.33	17109
1025.77	8388.67
1030.21	5526.94
1034.64	4605.27
1039.07	4681.88
1043.5	5237.16
1047.93	5132.74
1052.35	3919.45
1056.78	2580.1
1061.19	2079.09
1065.61	1473.98
1070.02	1236.96
1074.43	896.269
1078.84	701.17
1083.25	858.066
1087.65	594.574
1092.05	597.106
1096.45	723.635
1100.85	223.418
1105.24	675.238
1109.63	430.477
1114.02	521.057
1118.4	644.582
1122.78	732.432
1127.16	565.481
1131.54	657.844
1135.92	462.152
1140.29	453.625
1144.66	303.549
1149.02	83.3281
1153.39	47.6934
1157.75	166.641
1162.11	147.443
1166.46	121.275
1170.82	106.801
1175.17	83.7051
1179.52	90.8184
1183.86	67.0195
1188.21	7.85352
1192.55	19.6289
1196.89	44.4785
1201.22	86.5195
1205.55	20.5703
1209.88	175.951
1214.21	2.54297
1218.54	31.5566
1222.86	236.135
1227.18	99.4023
1231.5	248.166
1235.81	228.502
1240.12	117.603
1244.43	110.83
1248.74	314.166
1253.04	219.324
1257.34	271.688
1261.64	84.9492
1265.94	178.662
1270.23	163.783
1274.52	311.582
1278.81	180.209
1283.1	252.832
1287.38	373.658
1291.66	215.918
1295.94	93.4629
1300.21	198.678
1304.48	529.994
1308.75	136.065
1313.02	307.35
1317.29	294.117
1321.55	708.541
1325.81	457.859
1330.06	662.043
1334.32	109.924
1338.57	388.658
1342.82	263.725
1347.06	462.129
1351.31	420.566
1355.55	280.906
1359.79	145.191
1364.02	257.389
1368.26	133.082
1372.49	357.945
1376.71	235.914
1380.94	281.367
1385.16	189.721
1389.38	238.803
1393.6	280.867
1397.81	209.926
1402.02	217.707
1406.23	93.1602
1410.44	106.947
1414.64	146.059
1418.85	299.734
1423.04	61.5918
1427.24	84.6992
1431.43	106.482
1435.62	271.85
1439.81	225.289
1444	187.781
1448.18	179.859
1452.36	215.668
1456.54	95.7324
1460.71	131.098
1464.89	218.514
1469.06	20.8027
1473.22	296.168
1477.39	397.039
1481.55	294.264
1485.71	236.045
1489.86	199.529
1494.02	182.371
1498.17	477.752
1502.32	131.783
1506.46	4.70703
1510.61	178.842
1514.75	168.826
1518.88	138.853
1523.02	262.59
1527.15	148.795
1531.28	198.752
1535.41	283.725
1539.53	222.836
1543.66	243.996
1547.78	156.332
1551.89	734.879
1556.01	14.9531
1560.12	198.914
1564.23	437.25
1568.33	138.982
1572.43	0
