Measurement: Raman, 514 nm, ccw, Raman Data Processed
Mineral: Diopside
Rruff sample: R060276
Ideal chemistry: CaMgSi_2_O_6_
Locality: Inagli, Yakutia, Siberia, Russia
Source: Herb Obodda
Description: Transparent green cleavage fragment
Measured chemistry: (Ca_0.97_Na_0.03_)_Σ=1_(Mg_0.96_Fe_0.03_Cr_0.01_)_Σ=1_(Si_1.98_Al_0.02_)_Σ=2_O_6_
Pin_id: L01339
Orientation: Laser parallel to -b* (0 -1 0). Fiducial mark perpendicular to laser is parallel to c [0 0 1]
Raman shift (cm-1)	intensity
109.512	0
114.44	11.1636
119.365	248.978
124.288	208.315
129.209	524.643
134.127	1122.93
139.043	2040.92
143.956	1974.1
148.867	843.762
153.775	394.525
158.681	216.785
163.585	320.075
168.486	278.867
173.385	420.755
178.282	762.403
183.176	758.519
188.067	466.926
192.956	412.299
197.843	336.218
202.727	186.745
207.609	58.5107
212.489	170.261
217.366	116.398
222.24	402.007
227.112	725.171
231.982	1273.71
236.849	921.564
241.714	762.702
246.577	1012.1
251.437	2084.73
256.294	1972.83
261.149	628.182
266.002	240.838
270.852	126.276
275.7	45.4873
280.545	107.198
285.388	85.3272
290.229	224.221
295.067	235.296
299.902	412.856
304.735	807.995
309.566	1749.83
314.394	3591.06
319.22	7106.71
324.043	9319.64
328.864	5693.44
333.682	2557.24
338.498	1299.85
343.311	906.468
348.122	850.726
352.931	867.523
357.737	1134.38
362.54	903.273
367.341	619.204
372.14	412.153
376.936	537.11
381.73	547.069
386.521	819.019
391.31	1239.95
396.096	985.859
400.88	389.748
405.661	131.783
410.44	140.894
415.216	21.083
419.99	58.4336
424.761	62.9795
429.53	42.1103
434.297	3.65137
439.061	100.234
443.822	185.367
448.581	48.4365
453.337	82.3106
458.091	123.017
462.843	187.488
467.592	103.117
472.338	26.3857
477.082	32.7988
481.824	118.908
486.563	29.9385
491.3	154.963
496.034	559.92
500.765	1621.85
505.494	3860.67
510.221	3152.33
514.945	1286.88
519.666	661.257
524.385	543.537
529.102	491.643
533.816	468.551
538.527	410.305
543.236	334.94
547.943	238.377
552.647	346.994
557.348	512.254
562.047	395.025
566.744	194.033
571.438	323.894
576.129	393.856
580.818	147.953
585.504	37.4043
590.188	249.262
594.87	58.4141
599.549	18.3809
604.225	141.631
608.899	148.633
613.57	10.9844
618.239	214.828
622.905	418.324
627.569	534.26
632.23	854.059
636.889	1147.54
641.545	1437.56
646.198	2216.44
650.849	3978.62
655.498	8187.59
660.144	17696
664.787	28267.5
669.428	21515.4
674.067	9567.67
678.703	4369.89
683.336	2308.14
687.967	1529.2
692.595	1011.87
697.221	728.938
701.844	547.314
706.465	566.875
711.083	392.324
715.698	446.103
720.311	220.111
724.922	54.8281
729.53	18.2832
734.135	192.66
738.738	110.012
743.338	102.062
747.936	42.0078
752.531	26.3574
757.124	121.242
761.714	84.7246
766.302	85.6562
770.887	15.0195
775.469	142.209
780.049	16.4863
784.626	227.533
789.201	128.098
793.773	195.219
798.343	105.723
802.91	100.123
807.475	182.191
812.037	89.3203
816.596	105.264
821.153	179.117
825.707	39.6523
830.259	45.8613
834.808	10.6953
839.355	97.1113
843.899	172.217
848.441	339.049
852.98	250.603
857.516	404.81
862.05	280.348
866.581	356.756
871.11	175.982
875.636	574.279
880.159	497.978
884.68	162.291
889.199	378.611
893.714	271.648
898.228	210.416
902.738	239.117
907.246	234.496
911.752	133.356
916.255	31.0586
920.755	97.5664
925.253	193.602
929.748	85.1641
934.241	41.7461
938.731	64.3945
943.218	177.51
947.703	70.5859
952.186	50.2207
956.665	40.7559
961.142	511.385
965.617	340.824
970.089	292.223
974.558	546.354
979.025	521.123
983.489	671.812
987.951	1172.93
992.41	1699.62
996.866	2965.11
1001.32	5784.23
1005.77	13580.7
1010.22	28169.2
1014.67	25845
1019.11	10196.2
1023.55	4197.87
1027.99	2623.25
1032.42	1656.76
1036.86	1668.56
1041.29	1444.07
1045.72	1715.32
1050.14	1563.32
1054.56	921.438
1058.98	798.656
1063.4	665.215
1067.82	608.035
1072.23	563.207
1076.64	526.615
1081.05	169.016
1085.45	669.668
1089.85	595.609
1094.25	102.725
1098.65	201.709
1103.04	51.1738
1107.43	85.1738
1111.82	96.7656
1116.21	264.422
1120.59	68.0723
1124.97	231.68
1129.35	248.029
1133.73	255.49
1138.1	209.723
1142.47	183.123
1146.84	41.0996
1151.21	63.7754
1155.57	252.328
1159.93	260.787
1164.29	193.713
1168.64	42.7559
1172.99	17.6133
1177.34	195.041
1181.69	320.873
1186.04	33.5605
1190.38	219.867
1194.72	119.412
1199.05	390.109
1203.39	7.41406
1207.72	124.635
1212.05	113.666
1216.37	228.769
1220.7	18.4531
1225.02	255.793
1229.34	75.457
1233.65	274.59
1237.97	399.066
1242.28	394.914
1246.59	72.5391
1250.89	49.918
1255.19	21.1914
1259.49	255.879
1263.79	434.293
1268.09	172.328
1272.38	274.41
1276.67	457.641
1280.95	238.172
1285.24	361.07
1289.52	273.488
1293.8	113.691
1298.08	110.684
1302.35	30.2031
1306.62	88.0859
1310.89	304.523
1315.15	267.188
1319.42	297.598
1323.68	232.422
1327.94	412.398
1332.19	371.641
1336.44	410.875
1340.69	417.426
1344.94	432.981
1349.19	329.973
1353.43	346.387
1357.67	486.129
1361.9	285.219
1366.14	405.25
1370.37	480.305
1374.6	453.242
1378.83	190.426
1383.05	540.551
1387.27	414.922
1391.49	316.352
1395.7	203.203
1399.92	146.051
1404.13	200.945
1408.34	104.359
1412.54	319.773
1416.74	453.981
1420.94	267.141
1425.14	236.602
1429.34	271.992
1433.53	104.293
1437.72	203.074
1441.9	340.832
1446.09	326.184
1450.27	93.5664
1454.45	16.2344
1458.63	209.856
1462.8	149.371
1466.97	411.875
1471.14	114.414
1475.31	172.027
1479.47	214.551
1483.63	403.996
1487.79	287.602
1491.94	533.41
1496.09	83.7656
1500.24	470.262
1504.39	171.519
1508.54	463.856
1512.68	393.965
1516.82	390.297
1520.95	174.285
1525.09	59.6523
1529.22	273.121
1533.35	150.301
1537.47	136.586
1541.6	312.602
1545.72	58.9961
1549.83	205.492
1553.95	135.352
1558.06	48.3398
1562.17	177.641
1566.28	110.332
1570.38	105.629
