Measurement: Raman, 514 nm, ccw, Raman Data Processed
Mineral: Diopside
Rruff sample: R070123
Ideal chemistry: CaMgSi_2_O_6_
Locality: Yates mine, Otter Lake, Huddersfield Township, Pontiac County, Québec, Canada
Source: Michael Scott
Description: Black prismatic crystals associated with orange calcite
Measured chemistry: (Ca_0.95_Na_0.04_Mn_0.01_)_Σ=1_(Mg_0.63_Fe_0.33_Al_0.04_)_Σ=1_Si_2.00_O_6_
Pin_id: M01501
Orientation: Laser parallel to -b* (0 -1 0). Fiducial mark perpendicular to laser is parallel to c [0 0 1]
Raman shift (cm-1)	intensity
115.57	0
120.521	3.91309
125.469	96.4221
130.414	380.317
135.356	578.926
140.295	388.732
145.232	7.49146
150.165	3.00464
155.096	102.434
160.024	210.183
164.949	439.928
169.872	905.296
174.791	1340.05
179.708	1208.96
184.622	457.858
189.533	411.239
194.441	414.796
199.347	417.961
204.249	267.232
209.149	141.942
214.046	194.98
218.94	350.323
223.832	991.243
228.72	2058.48
233.606	2680.96
238.489	1686.69
243.369	1256.64
248.247	1258.83
253.121	1205.24
257.993	1223.85
262.862	1028.21
267.728	903.898
272.592	862.037
277.452	749.199
282.31	804.266
287.165	961.254
292.017	1190.07
296.867	1766.13
301.714	2723.64
306.558	4535.42
311.399	7461.38
316.237	11581.4
321.073	13403.7
325.906	10263.5
330.736	6398.6
335.563	4423.43
340.387	3413.43
345.209	3322.6
350.028	3467.91
354.844	2917.36
359.658	2117.94
364.469	1505.63
369.277	1108.44
374.082	805.355
378.884	824.365
383.684	697.471
388.481	607.67
393.275	431.96
398.066	212.336
402.855	21.7913
407.641	41.321
412.424	46.0227
417.205	3.66235
421.983	81.6675
426.758	14.5896
431.53	1.76294
436.299	12.8621
441.066	60.9871
445.83	0.852539
450.591	64.3613
455.35	37.7246
460.106	15.2607
464.859	29.0002
469.609	26.853
474.357	15.8723
479.102	57.1882
483.844	124.758
488.584	492.407
493.321	1081.15
498.055	2825.9
502.786	4778.66
507.515	3670.39
512.241	1708.15
516.964	1047.93
521.685	826.781
526.402	899.773
531.118	926.312
535.83	834.997
540.54	869.038
545.247	723.002
549.951	733.398
554.653	777.596
559.352	744.261
564.048	707.493
568.742	696.832
573.432	614.904
578.121	424.815
582.806	329.959
587.489	195.172
592.169	81.1372
596.847	98.4314
601.521	133.819
606.193	204.422
610.863	319.964
615.53	431.361
620.194	768.229
624.855	1074.4
629.514	1457.06
634.17	2027.48
638.823	2778.02
643.474	4051.98
648.122	6604.67
652.767	12127.8
657.41	24754.8
662.05	43526.7
666.688	45777
671.322	25615.3
675.954	11803.5
680.584	6003.36
685.211	3446.98
689.835	2257.34
694.456	1595.45
699.075	1055.37
703.691	772.141
708.305	543.902
712.916	369.491
717.524	218.903
722.13	226.093
726.733	25.0605
731.333	43.2747
735.931	29.0647
740.526	0.142578
745.118	24.3127
749.708	14.8794
754.295	64.0356
758.88	1.021
763.462	14.4509
768.041	19.4016
772.618	17.4277
777.192	15.0698
781.763	15.5686
786.332	29.0576
790.898	64.0574
795.462	23.0117
800.023	59.4021
804.581	62.1233
809.137	12.5457
813.69	167.265
818.24	355.986
822.788	411.723
827.334	318.491
831.876	224.306
836.416	140.18
840.954	45.1267
845.489	98.1582
850.021	137.286
854.551	259.523
859.078	320.883
863.602	466.239
868.124	534.034
872.644	710.232
877.16	828.558
881.675	959.302
886.186	1024.21
890.695	967.361
895.202	984.778
899.705	908.96
904.207	706.128
908.705	702.479
913.201	556.023
917.695	582.454
922.186	692.888
926.674	612.392
931.16	627.038
935.643	531.089
940.124	529.996
944.602	397.691
949.077	538.287
953.55	652.457
958.021	922.144
962.489	900.326
966.954	1090
971.417	1255.18
975.877	1494.88
980.334	1861.09
984.789	2454.78
989.242	3395.96
993.692	5307.62
998.139	8983.77
1002.58	17226.5
1007.03	36222.8
1011.47	57571.7
1015.9	42949.3
1020.34	18305.7
1024.77	9526.71
1029.2	6104.18
1033.63	4754.09
1038.05	4118.58
1042.47	3676.4
1046.89	2981.03
1051.31	2303.61
1055.72	1810.53
1060.14	1475.73
1064.55	1256.36
1068.95	993.09
1073.36	975.818
1077.76	785.181
1082.16	860.185
1086.55	745.659
1090.95	779.757
1095.34	712.909
1099.73	621.174
1104.12	557.924
1108.5	517.873
1112.88	517.91
1117.26	393.049
1121.64	442.275
1126.01	495.575
1130.38	377.942
1134.75	343.343
1139.12	234.771
1143.48	149.248
1147.84	139.676
1152.2	19.0759
1156.56	28.5456
1160.91	22.1484
1165.27	35.2398
1169.61	7.61768
1173.96	63.3547
1178.31	13.5913
1182.65	25.2903
1186.98	26.5256
1191.32	47.3262
1195.66	10.7041
1199.99	41.553
1204.32	53.0535
1208.64	2.19629
1212.97	1.19336
1217.29	67.0002
1221.61	151.906
1225.93	43.5327
1230.24	109.876
1234.55	23.9302
1238.86	137.634
1243.17	115.064
1247.47	187.222
1251.78	136.107
1256.07	123.714
1260.37	213.04
1264.67	209.084
1268.96	165.891
1273.25	164.367
1277.54	141.561
1281.82	186.489
1286.1	175.929
1290.38	180.769
1294.66	207.959
1298.93	143.647
1303.21	152.812
1307.48	154.855
1311.74	150.471
1316.01	161.552
1320.27	136.319
1324.53	193.45
1328.79	188.53
1333.05	198.927
1337.3	206.473
1341.55	104.644
1345.8	164.615
1350.04	136.193
1354.29	114.291
1358.53	135.163
1362.76	123.975
1367	131.207
1371.23	106.889
1375.46	152.46
1379.69	112.941
1383.92	195.342
1388.14	66.2852
1392.36	23.2956
1396.58	104.507
1400.8	67.6689
1405.01	112.49
1409.22	2.47876
1413.43	36.9873
1417.64	68.9334
1421.85	8.25
1426.05	60.2454
1430.25	48.6877
1434.44	57.4124
1438.64	47.9793
1442.83	56.4658
1447.02	83.698
1451.21	53.4163
1455.39	26.6138
1459.58	110.941
1463.76	7.323
1467.94	99.4189
1472.11	92.3704
1476.28	43.979
1480.45	34.6018
1484.62	54.3909
1488.79	39.1814
1492.95	59.979
1497.11	46.9429
1501.27	83.28
1505.43	71.8833
1509.58	34.6702
1513.73	38.6917
1517.88	38.8565
1522.03	34.2398
1526.18	89.501
1530.32	62.2971
1534.46	4.55908
1538.6	80.895
1542.73	36.5442
1546.86	75.6863
1550.99	96.2466
1555.12	110.625
1559.25	59.8569
1563.37	0
