Measurement: Raman, 514 nm, ccw, Raman Data Processed
Mineral: Diopside
Rruff sample: R040009
Ideal chemistry: CaMgSi_2_O_6_
Locality: Otter Lake, Quebec, Canada
Source: University of Arizona Mineral Museum
Description: Green square prismatic crystal associated with pale orange calcite
Measured chemistry: (Ca_0.97_Fe_0.02_Na_0.01_)_Σ=1_(Mg_0.97_Fe_0.02_Al_0.01_)_Σ=1_Si_2.00_O_6_; trace amounts of Mn and Ti
Pin_id: L00101
Orientation: Laser parallel to -a [-1 0 0]. Fiducial mark perpendicular to laser is parallel to -b* (0 -1 0)
Raman shift (cm-1)	intensity
86.404	0
90.587	302.29
94.768	310.968
98.947	165.477
103.124	195.984
107.3	739.238
111.473	475.834
115.644	788.208
119.813	1233.78
123.981	792.904
128.146	661.484
132.309	1320.84
136.47	3514.06
140.63	3650.96
144.787	1174.65
148.942	461.105
153.096	213.022
157.247	110.245
161.396	83.714
165.544	276.734
169.689	119.221
173.833	192.532
177.974	839.179
182.114	1781.85
186.251	495.062
190.387	689.418
194.52	1975.51
198.652	694
202.782	225.866
206.909	185.166
211.035	122.961
215.159	16.091
219.281	131.462
223.4	600.035
227.518	1800.8
231.634	2377.73
235.748	1402.83
239.86	527.073
243.97	232.454
248.079	466.958
252.185	1347.14
256.289	1312.7
260.391	301.078
264.492	36.09
268.59	59.735
272.687	108.749
276.781	67.135
280.874	26.926
284.964	26.13
289.053	110.914
293.14	303.348
297.225	684.104
301.308	1231.74
305.389	1440.52
309.468	2239.43
313.545	3729.44
317.62	7404.51
321.693	17518.2
325.765	18998.3
329.834	8904.37
333.902	4043.63
337.967	2365.49
342.031	1719.98
346.093	1298.06
350.153	1334.99
354.21	1779.96
358.267	2009.97
362.321	2331.02
366.373	4011.09
370.423	3547.19
374.471	2195.3
378.518	2764.4
382.563	5068.49
386.605	11982.6
390.646	20102.7
394.685	11815.8
398.722	4787.81
402.757	2028.83
406.79	1044.82
410.821	658.198
414.851	426.057
418.878	261.729
422.904	211.384
426.927	88.549
430.949	77.088
434.969	2.232
438.987	39.704
443.003	59.686
447.018	51.747
451.03	6.876
455.041	16.814
459.049	226.513
463.056	524.977
467.061	564.224
471.064	306.341
475.065	92.384
479.064	78.396
483.062	39.282
487.057	13.001
491.051	16.499
495.043	31.976
499.032	116.407
503.02	484.811
507.007	1455.17
510.991	1700.42
514.973	2087.53
518.954	1398.52
522.933	1016.39
526.91	1610.12
530.885	1998.71
534.858	1112.15
538.829	535.416
542.799	393.494
546.766	265.368
550.732	220.886
554.696	300.479
558.658	583.708
562.618	464.723
566.576	298.524
570.533	159.334
574.488	135.103
578.44	74.583
582.391	4.155
586.341	8.179
590.288	121.637
594.233	19.255
598.177	11.845
602.119	108.484
606.059	99.083
609.997	127.986
613.933	56.117
617.868	130.873
621.801	183.236
625.731	349.625
629.66	315.931
633.588	519.87
637.513	656.321
641.437	923.821
645.358	1136.58
649.278	1640.63
653.196	2892.4
657.113	5215.64
661.027	11266.9
664.94	21999.4
668.851	20097.4
672.76	9936.8
676.667	4698.15
680.572	2738.37
684.476	1703.89
688.378	1082.92
692.278	929.589
696.176	632.942
700.072	783.78
703.967	835.229
707.86	1076.29
711.751	679.954
715.64	515.87
719.527	389.675
723.413	296.824
727.297	245.126
731.179	228.57
735.059	173.22
738.937	90.562
742.814	8.231
746.689	82.191
750.562	43.834
754.433	114.892
758.303	82.291
762.17	36.75
766.036	5.254
769.901	23.41
773.763	130.195
777.624	27.563
781.482	63.173
785.339	60.199
789.195	67.549
793.048	42.505
796.9	734.714
800.75	881.773
804.598	39.807
808.445	73.617
812.289	56.798
816.132	53.16
819.973	69.676
823.813	70.784
827.65	49.423
831.486	104.615
835.32	27.372
839.152	29.721
842.983	10.66
846.812	162.21
850.639	362.397
854.464	904.282
858.288	657.859
862.11	443.149
865.93	258.161
869.748	288.854
873.564	146.246
877.379	224.292
881.192	263.575
885.004	239.5
888.813	181.384
892.621	259.021
896.427	306.499
900.232	391.673
904.034	397.473
907.835	582.84
911.634	514.656
915.432	752.856
919.227	554.734
923.021	270.661
926.813	228.818
930.604	151.271
934.393	98.44
938.18	207.489
941.965	163.904
945.749	47.665
949.53	79.37
953.311	217.249
957.089	175.83
960.866	367.665
964.641	429.771
968.414	488.479
972.185	549.146
975.955	776.515
979.723	815.502
983.49	1131.01
987.254	1381.12
991.017	1707.72
994.779	2425.66
998.538	3778.38
1002.3	5895.77
1006.05	11505
1009.81	26981.4
1013.56	49107.7
1017.31	27914.6
1021.06	10571.8
1024.81	5300.19
1028.55	3176.57
1032.3	2342.96
1036.04	1920.97
1039.78	1952.69
1043.52	2133.97
1047.26	2254.41
1050.99	1830.08
1054.73	1227.74
1058.46	755.982
1062.19	608.269
1065.92	653.277
1069.65	485.129
1073.37	434.992
1077.1	382.679
1080.82	315.448
1084.54	547.089
1088.26	355.493
1091.97	221.622
1095.69	61.604
1099.4	111.573
1103.12	69.657
1106.83	13.756
1110.54	1.95
1114.24	59.67
1117.95	137.915
1121.65	287.23
1125.35	704.954
1129.06	114.775
1132.75	142.38
1136.45	356.752
1140.15	53.488
1143.84	79.133
1147.53	178.583
1151.22	19.088
1154.91	75.216
1158.6	55.005
1162.28	39.86
1165.97	134.125
1169.65	78.951
1173.33	102.715
1177.01	160.895
1180.69	81.209
1184.36	265.914
1188.04	207.484
1191.71	160.998
1195.38	148.91
1199.05	72.447
1202.71	391.074
1206.38	236.279
1210.04	313.908
1213.71	276.834
1217.37	304.32
1221.03	177.918
1224.68	485.295
1228.34	149.74
1231.99	335.992
1235.65	355.875
1239.3	260.076
1242.95	202.547
1246.59	373.922
1250.24	427.387
1253.88	433.682
1257.53	84.061
1261.17	54.301
1264.81	259.074
1268.45	301.189
1272.08	304.176
1275.72	133.922
1279.35	222.309
1282.98	99.018
1286.61	269.877
1290.24	180.875
1293.87	29.902
1297.49	181.096
1301.11	207.932
1304.73	118.482
1308.36	125.125
1311.97	9.977
1315.59	111.199
1319.2	93.76
1322.82	204.822
1326.43	117.375
1330.04	129.236
1333.65	156.576
1337.26	24.537
1340.86	29.301
1344.47	122.559
1348.07	258.172
1351.67	223.346
1355.27	296.809
1358.87	557.848
1362.46	130.119
1366.06	320.053
1369.65	479.955
1373.24	374.627
1376.83	588.035
1380.42	463.24
1384	486.25
1387.59	398.584
1391.17	445.482
1394.75	591.461
1398.33	438.361
1401.91	235.791
1405.49	399.27
1409.06	263.443
1412.64	732.275
1416.21	562.912
1419.78	684.268
1423.35	199.721
1426.91	183.641
1430.48	388.098
1434.05	494.793
1437.61	700.844
1441.17	503.312
1444.73	644.041
1448.29	448.777
1451.84	498.184
1455.4	723.965
1458.95	773.996
1462.5	55.168
1466.05	51.266
1469.6	218.379
1473.15	5.906
1476.69	14.047
1480.24	181.102
1483.78	520.305
1487.32	0
