Measurement: Raman, 514 nm, ccw, Raman Data Processed
Mineral: Diopside
Rruff sample: R060276
Ideal chemistry: CaMgSi_2_O_6_
Locality: Inagli, Yakutia, Siberia, Russia
Source: Herb Obodda
Description: Transparent green cleavage fragment
Measured chemistry: (Ca_0.97_Na_0.03_)_Σ=1_(Mg_0.96_Fe_0.03_Cr_0.01_)_Σ=1_(Si_1.98_Al_0.02_)_Σ=2_O_6_
Pin_id: L01339
Orientation: Laser parallel to -b* (0 -1 0). Fiducial mark perpendicular to laser is parallel to c [0 0 1]
Raman shift (cm-1)	intensity
109.512	0
114.44	126.316
119.365	97.9287
124.288	351.434
129.209	1092.48
134.127	2597.23
139.043	4543.4
143.956	3319.11
148.867	1082.61
153.775	470.485
158.681	195.453
163.585	302.553
168.486	365.242
173.385	274.411
178.282	483.824
183.176	498.265
188.067	255.739
192.956	438.856
197.843	407.442
202.727	271.081
207.609	16.6602
212.489	121.616
217.366	181.92
222.24	347.573
227.112	668.691
231.982	777.148
236.849	586.812
241.714	426.646
246.577	528.62
251.437	951.715
256.294	1047.79
261.149	423.392
266.002	80.5869
270.852	60.4805
275.7	0.59082
280.545	41.2471
285.388	141.206
290.229	1.56445
295.067	333.843
299.902	470.675
304.735	724.014
309.566	1215.71
314.394	2400.79
319.22	4641.17
324.043	5874.75
328.864	3907.44
333.682	1662.95
338.498	965.856
343.311	861.129
348.122	865.654
352.931	1122.53
357.737	1650.89
362.54	1414.17
367.341	881.451
372.14	773.314
376.936	884.053
381.73	1333.89
386.521	2632.88
391.31	3040.77
396.096	1828.62
400.88	832.32
405.661	322.065
410.44	141.832
415.216	177.607
419.99	206.988
424.761	68.2207
429.53	158.752
434.297	89.9707
439.061	65.2481
443.822	18.7246
448.581	107.184
453.337	54.4121
458.091	66.3477
462.843	255.467
467.592	226.533
472.338	349.922
477.082	29.916
481.824	219.24
486.563	196.076
491.3	61.7344
496.034	367.291
500.765	919.619
505.494	2301.72
510.221	1905.68
514.945	758.447
519.666	414.996
524.385	491.381
529.102	417.695
533.816	313.75
538.527	264.533
543.236	350.023
547.943	461.293
552.647	531.33
557.348	676.121
562.047	512.916
566.744	416.805
571.438	364.033
576.129	175.674
580.818	61.1602
585.504	170.656
590.188	15.1094
594.87	42.6758
599.549	98.8418
604.225	75.293
608.899	207.791
613.57	152.164
618.239	227.893
622.905	649.203
627.569	355.816
632.23	657.641
636.889	933.658
641.545	1165.62
646.198	1684.31
650.849	3044.18
655.498	5900.33
660.144	12893.6
664.787	20483.7
669.428	15648.2
674.067	7163.48
678.703	3378.09
683.336	1668.37
687.967	1201.31
692.595	884.256
697.221	648.205
701.844	509.652
706.465	608.481
711.083	473.518
715.698	440.938
720.311	25.7285
724.922	201.022
729.53	144.912
734.135	323.758
738.738	144.746
743.338	148.328
747.936	142.275
752.531	218.435
757.124	15.9043
761.714	204.695
766.302	18.1758
770.887	230.894
775.469	9.34766
780.049	6.36133
784.626	84.0762
789.201	110.949
793.773	76.3574
798.343	59.6309
802.91	18.1504
807.475	101.189
812.037	43.4238
816.596	172.582
821.153	75.1172
825.707	28.7773
830.259	31.2949
834.808	43.4727
839.355	99.2461
843.899	338.742
848.441	407.981
852.98	1118.98
857.516	1122.33
862.05	655.998
866.581	665.748
871.11	308.789
875.636	398.695
880.159	143.775
884.68	366.723
889.199	406.113
893.714	291.297
898.228	339.41
902.738	354.147
907.246	219.662
911.752	506.369
916.255	317.379
920.755	59.6758
925.253	171.275
929.748	150.555
934.241	12.5801
938.731	4.46289
943.218	3.00586
947.703	80.8398
952.186	39.5586
956.665	270.168
961.142	109.902
965.617	364.434
970.089	121.547
974.558	283.012
979.025	442.809
983.489	581.582
987.951	726.656
992.41	1298.36
996.866	2197.05
1001.32	4526.77
1005.77	10946.6
1010.22	22667.9
1014.67	21283.5
1019.11	8597.28
1023.55	3755.75
1027.99	1990.75
1032.42	1753.35
1036.86	1784.53
1041.29	2255.38
1045.72	2795.37
1050.14	1893.94
1054.56	1401.06
1058.98	854.656
1063.4	714.586
1067.82	394.891
1072.23	549.098
1076.64	277.074
1081.05	407.008
1085.45	388.695
1089.85	343.25
1094.25	381.465
1098.65	207.359
1103.04	311.152
1107.43	539.731
1111.82	198.824
1116.21	137.906
1120.59	593.598
1124.97	599.977
1129.35	149.863
1133.73	123.434
1138.1	388.266
1142.47	374.254
1146.84	344.758
1151.21	217.316
1155.57	298.117
1159.93	354.258
1164.29	280.793
1168.64	17.1289
1172.99	42.1641
1177.34	219.574
1181.69	6.6875
1186.04	50.1641
1190.38	294.34
1194.72	27.9258
1199.05	263.07
1203.39	245.879
1207.72	263.812
1212.05	97.0352
1216.37	43.9453
1220.7	258.582
1225.02	71.8125
1229.34	87.5625
1233.65	108.973
1237.97	639.008
1242.28	436.707
1246.59	473.992
1250.89	327.731
1255.19	431.426
1259.49	341.758
1263.79	290.633
1268.09	94.2266
1272.38	145.801
1276.67	557.805
1280.95	477.496
1285.24	47.0312
1289.52	152.609
1293.8	260.445
1298.08	45.0312
1302.35	285.945
1306.62	430.027
1310.89	112.504
1315.15	232.996
1319.42	418.934
1323.68	462.887
1327.94	367.324
1332.19	283.055
1336.44	526.84
1340.69	123.762
1344.94	290.941
1349.19	486.481
1353.43	389.227
1357.67	142.387
1361.9	285.246
1366.14	515.336
1370.37	460.242
1374.6	485.879
1378.83	512.488
1383.05	113.09
1387.27	275.879
1391.49	104.461
1395.7	56.8438
1399.92	358.996
1404.13	9.01953
1408.34	137.516
1412.54	356.891
1416.74	398.773
1420.94	172.746
1425.14	510.648
1429.34	222.008
1433.53	170.812
1437.72	223.219
1441.9	221.688
1446.09	255.922
1450.27	264.852
1454.45	671.519
1458.63	269.047
1462.8	182.719
1466.97	261.664
1471.14	147.734
1475.31	430.965
1479.47	342.324
1483.63	819.688
1487.79	405.039
1491.94	380.285
1496.09	530.055
1500.24	203.398
1504.39	467.602
1508.54	166.793
1512.68	425.43
1516.82	396.359
1520.95	278.258
1525.09	425.18
1529.22	256.269
1533.35	379.445
1537.47	231.91
1541.6	247.727
1545.72	367.703
1549.83	40.6992
1553.95	232.082
1558.06	116.934
1562.17	188.59
1566.28	20.9961
1570.38	1.52344
