Measurement: Raman, 514 nm, ccw, Raman Data Processed
Mineral: Diopside
Rruff sample: R060276
Ideal chemistry: CaMgSi_2_O_6_
Locality: Inagli, Yakutia, Siberia, Russia
Source: Herb Obodda
Description: Transparent green cleavage fragment
Measured chemistry: (Ca_0.97_Na_0.03_)_Σ=1_(Mg_0.96_Fe_0.03_Cr_0.01_)_Σ=1_(Si_1.98_Al_0.02_)_Σ=2_O_6_
Pin_id: L01049
Orientation: Laser parallel to a* (1 0 0). Fiducial mark perpendicular to laser is parallel to -b [0 -1 0]
Raman shift (cm-1)	intensity
109.512	0
114.44	182.303
119.365	173.046
124.288	906.156
129.209	4305.32
134.127	7384.87
139.043	9449.23
143.956	6486.59
148.867	1778.88
153.775	537.164
158.681	161.394
163.585	262.572
168.486	375.361
173.385	751.137
178.282	969.108
183.176	1218.51
188.067	934.668
192.956	962.922
197.843	1045.85
202.727	505.027
207.609	107.207
212.489	69.4404
217.366	373.617
222.24	1342.27
227.112	2182.35
231.982	2534.76
236.849	1408.69
241.714	686.775
246.577	1082.02
251.437	1529.4
256.294	1480.99
261.149	521.952
266.002	24.7803
270.852	132.717
275.7	102.789
280.545	91.8491
285.388	48.5405
290.229	430.572
295.067	1055.21
299.902	1652.87
304.735	2638.86
309.566	4661.66
314.394	10408.6
319.22	16587.6
324.043	20445.6
328.864	14755.6
333.682	6665.66
338.498	3562.92
343.311	2804.42
348.122	2842.21
352.931	3551.33
357.737	4453.77
362.54	4753.3
367.341	5103.88
372.14	4423.47
376.936	4485.09
381.73	8468.73
386.521	13303.4
391.31	15913.1
396.096	9966.79
400.88	3686.51
405.661	1507.3
410.44	732.879
415.216	296.068
419.99	323.266
424.761	109.817
429.53	14.2754
434.297	21.8511
439.061	22.6929
443.822	43.0786
448.581	91.2319
453.337	93.5
458.091	464.037
462.843	488.605
467.592	436.019
472.338	119.436
477.082	64.9126
481.824	21.7739
486.563	77.3662
491.3	79.3242
496.034	290.071
500.765	937.986
505.494	1839.85
510.221	2346.67
514.945	2126.41
519.666	1517.15
524.385	1587.02
529.102	1459.9
533.816	1188.24
538.527	719.9
543.236	456.919
547.943	518.001
552.647	555.079
557.348	550.312
562.047	454.032
566.744	381.775
571.438	314.658
576.129	181.536
580.818	154.247
585.504	104.839
590.188	15.5713
594.87	114.726
599.549	10.6123
604.225	58.834
608.899	3.84766
613.57	84.043
618.239	219.788
622.905	359.574
627.569	755.44
632.23	935.038
636.889	1380.35
641.545	1959.31
646.198	3201.24
650.849	6034.4
655.498	13832.1
660.144	27867.6
664.787	37881.3
669.428	30967
674.067	14752
678.703	6670.35
683.336	3409.77
687.967	2298.31
692.595	1655.71
697.221	1365.22
701.844	1324.72
706.465	1295.28
711.083	1072.16
715.698	759.625
720.311	504.709
724.922	350.053
729.53	209.265
734.135	14.5254
738.738	51.8057
743.338	34.7988
747.936	66.0967
752.531	11.998
757.124	83.5644
761.714	76.9941
766.302	100.878
770.887	132.326
775.469	93.3457
780.049	52.999
784.626	130.242
789.201	122.119
793.773	39.3516
798.343	79.4228
802.91	11.8076
807.475	35.4277
812.037	109.508
816.596	4.20898
821.153	32.6631
825.707	71.8564
830.259	14.6309
834.808	184.13
839.355	86.4287
843.899	611.542
848.441	1617.48
852.98	2276.26
857.516	2086.9
862.05	1218.42
866.581	837.759
871.11	500.695
875.636	503.968
880.159	477.185
884.68	542.303
889.199	553.212
893.714	478.416
898.228	615.13
902.738	557.806
907.246	544.027
911.752	762.235
916.255	650.802
920.755	706.776
925.253	408.19
929.748	340.148
934.241	174.608
938.731	216.337
943.218	214.632
947.703	100.491
952.186	169.438
956.665	283.772
961.142	435.706
965.617	508.438
970.089	484.347
974.558	729.592
979.025	1007.15
983.489	1232.96
987.951	1816.03
992.41	2728.33
996.866	4735.9
1001.32	9705.72
1005.77	22976.8
1010.22	41270.1
1014.67	40849.8
1019.11	18187.8
1023.55	7165.23
1027.99	3864.11
1032.42	2852.2
1036.86	2683.72
1041.29	3118.34
1045.72	3238.9
1050.14	2792.02
1054.56	1895.21
1058.98	1439.97
1063.4	1110.74
1067.82	944.322
1072.23	787.307
1076.64	674.031
1081.05	702.866
1085.45	470.985
1089.85	443.148
1094.25	499.649
1098.65	400.41
1103.04	507.818
1107.43	409.066
1111.82	310.379
1116.21	469.071
1120.59	393.348
1124.97	355.295
1129.35	336.602
1133.73	323.904
1138.1	277.425
1142.47	251.352
1146.84	261.294
1151.21	202.761
1155.57	127.719
1159.93	65.6348
1164.29	74.1182
1168.64	71.0244
1172.99	201.156
1177.34	6.78223
1181.69	42.5801
1186.04	16.707
1190.38	76.5117
1194.72	9.76953
1199.05	45.877
1203.39	170.102
1207.72	47.8438
1212.05	13.7695
1216.37	72.1172
1220.7	25.0137
1225.02	203.201
1229.34	57.8818
1233.65	169.543
1237.97	64.2393
1242.28	47.8145
1246.59	95.9512
1250.89	224.052
1255.19	53.7861
1259.49	197.185
1263.79	83.9717
1268.09	190.142
1272.38	305.487
1276.67	103.428
1280.95	182.868
1285.24	128.417
1289.52	134.966
1293.8	238.33
1298.08	78.8633
1302.35	241.572
1306.62	239.004
1310.89	190.658
1315.15	34.5469
1319.42	64.4004
1323.68	334.012
1327.94	191.586
1332.19	174.363
1336.44	309.902
1340.69	348.228
1344.94	307.002
1349.19	281.81
1353.43	276.275
1357.67	251.59
1361.9	261.315
1366.14	152.779
1370.37	272.34
1374.6	299.125
1378.83	134.969
1383.05	122.539
1387.27	19.8496
1391.49	49.9219
1395.7	193.068
1399.92	266.879
1404.13	85.3164
1408.34	9.15039
1412.54	160.853
1416.74	87.168
1420.94	172.789
1425.14	81.0586
1429.34	102.891
1433.53	52.2129
1437.72	116.738
1441.9	43.3125
1446.09	73
1450.27	196.455
1454.45	95.6856
1458.63	203.195
1462.8	107.981
1466.97	189.719
1471.14	690.152
1475.31	886.609
1479.47	258.188
1483.63	101.352
1487.79	194.301
1491.94	158.068
1496.09	107.506
1500.24	31.5566
1504.39	158.424
1508.54	319.06
1512.68	155.158
1516.82	267.324
1520.95	196.262
1525.09	94.4102
1529.22	132.853
1533.35	196.139
1537.47	93.9121
1541.6	216.334
1545.72	86.9922
1549.83	123.703
1553.95	461.268
1558.06	256.254
1562.17	214.195
1566.28	94.6484
1570.38	67.4141
