Measurement: Raman, 514 nm, ccw, Raman Data Processed
Mineral: Diopside
Rruff sample: R060171
Ideal chemistry: CaMgSi_2_O_6_
Locality: Jeffrey mine, Asbestos, Quebec, Canada
Source: Guy Ouellet
Description: Yellowish-brown tabular crystals associated with vesuvianite, R060170
Measured chemistry: Ca_1.00_(Mg_0.98_Mn_0.02_)_Î£=1_Si_2.00_O_6_
Pin_id: L00876
Orientation: Laser parallel to -b* (0 -1 0). Fiducial mark perpendicular to laser is parallel to -c [0 0 -1]
Raman shift (cm-1)	intensity
95.948	0
100.883	29.989
105.815	400.661
110.744	402.918
115.671	644.271
120.596	743.632
125.519	1163.43
130.439	5181.14
135.356	8986.25
140.271	12418.2
145.184	12141.7
150.094	1901.47
155.002	692.322
159.908	380.738
164.811	211.385
169.711	225.084
174.61	239.787
179.505	372.656
184.399	702.429
189.29	208.164
194.178	119.576
199.064	190.577
203.948	169.32
208.829	14.8188
213.708	11.7036
218.585	48.7964
223.459	203.266
228.33	377.076
233.199	795.199
238.066	679.632
242.93	281.506
247.792	343.203
252.651	771.121
257.508	1302.52
262.363	240.445
267.215	5.51514
272.064	26.5464
276.912	94.0249
281.756	41.9292
286.598	37.3555
291.438	56.8408
296.276	198.583
301.111	605.984
305.943	1331.09
310.773	2440.87
315.601	4537.88
320.426	6160.8
325.248	9017.37
330.068	4261.3
334.886	1285.57
339.701	675.607
344.514	765.789
349.324	1546.11
354.132	3144.31
358.938	4903.38
363.741	4848.98
368.541	2227.66
373.339	1945.41
378.135	3113.21
382.928	6811.06
387.718	10571
392.506	12527.1
397.292	3842.43
402.075	1208.05
406.856	532.871
411.634	335.512
416.41	212.78
421.183	54.9106
425.954	148.69
430.722	73.6118
435.488	1.74853
440.251	41.2778
445.012	55.7666
449.77	20.6753
454.526	116.247
459.28	37.5615
464.03	37.8516
468.779	77.0811
473.525	30.2554
478.268	88.4424
483.009	92.5708
487.747	79.46
492.483	151.426
497.217	404.893
501.948	1052.33
506.676	1750.74
511.402	1819.11
516.125	466.445
520.846	220.734
525.565	224.014
530.281	361.285
534.994	108.504
539.705	130.674
544.413	27.7602
549.119	91.7192
553.822	161.579
558.523	140.368
563.222	226.237
567.917	76.9893
572.611	20.8789
577.302	74.7505
581.99	50.354
586.676	135.994
591.359	40.9404
596.04	116.56
600.718	97.3472
605.394	118.111
610.067	206.548
614.737	277.397
619.406	373.966
624.071	610.984
628.734	803.415
633.395	1008.03
638.053	1414.04
642.708	2109.2
647.361	3492.31
652.012	6563.33
656.66	14758.3
661.305	28925
665.948	42069.5
670.588	30582.7
675.226	12324.3
679.861	5530.29
684.494	2828.17
689.124	1788.83
693.752	1065.46
698.377	784.832
702.999	475.059
707.619	383.923
712.237	261.916
716.852	198.599
721.464	139.522
726.074	82.1484
730.681	74.8477
735.286	44.355
739.888	114.234
744.488	25.8555
749.085	25.6816
753.68	101.963
758.272	31.3848
762.861	25.4243
767.448	25.8984
772.033	54.355
776.614	82.6348
781.194	89.5474
785.77	140.163
790.345	63.5947
794.916	113.481
799.485	90.1865
804.052	7.66162
808.616	70.144
813.177	25.0049
817.736	56.9141
822.292	0.682617
826.846	159.308
831.397	242.815
835.945	331.205
840.491	584.481
845.035	1807.66
849.576	4323.77
854.114	7135.78
858.65	3845.7
863.183	1258.38
867.713	589.015
872.241	228.559
876.767	80.5493
881.29	155.375
885.81	17.042
890.328	6.07764
894.843	46.3633
899.356	72.8955
903.866	66.2446
908.373	18.1748
912.878	38.5791
917.38	26.2432
921.88	5.13037
926.377	104.897
930.872	39.8491
935.364	54.727
939.853	66.0059
944.34	92.7983
948.824	154.3
953.306	76.8521
957.785	244.957
962.261	104.52
966.735	318.062
971.207	318.758
975.675	417.445
980.141	562.113
984.605	828.755
989.066	1279.37
993.524	1975.96
997.98	3470.53
1002.43	7701.05
1006.88	23245.5
1011.33	47022
1015.78	44892.5
1020.22	13907.7
1024.66	5411.15
1029.1	3370.93
1033.53	2928.95
1037.97	3759.2
1042.4	7364.15
1046.82	11612.5
1051.25	9554.47
1055.67	3414.63
1060.09	1513.24
1064.51	1025.13
1068.92	496.402
1073.33	494.246
1077.74	441.249
1082.15	279.945
1086.55	301.853
1090.95	187.203
1095.35	257.965
1099.75	387.987
1104.14	177.458
1108.53	275.94
1112.92	238.254
1117.31	337.379
1121.69	406.348
1126.07	304.787
1130.45	256.082
1134.82	146.228
1139.19	193.225
1143.57	173.289
1147.93	198.217
1152.3	104.758
1156.66	91.1689
1161.02	121.667
1165.38	102.768
1169.73	57.2275
1174.08	66.8144
1178.43	13.4482
1182.78	72.3106
1187.12	69.3682
1191.46	39.7412
1195.8	50.8574
1200.14	27.7061
1204.47	64.2568
1208.8	6.54688
1213.13	53.249
1217.46	50.4424
1221.78	77.3799
1226.1	82.8447
1230.42	175.806
1234.73	103.512
1239.04	53.9414
1243.35	98.7744
1247.66	192.089
1251.97	189.893
1256.27	268.86
1260.57	137.863
1264.86	167.038
1269.16	162.037
1273.45	189.971
1277.74	263.999
1282.03	218.201
1286.31	171.959
1290.59	169.224
1294.87	309.466
1299.14	132.635
1303.42	119.283
1307.69	220.177
1311.95	166.145
1316.22	113.369
1320.48	355.809
1324.74	215.193
1329	244.583
1333.26	261.803
1337.51	306.911
1341.76	223.962
1346	289.088
1350.25	67.0312
1354.49	113.144
1358.73	129.969
1362.96	85.7744
1367.2	110.269
1371.43	26.9902
1375.66	116.734
1379.88	187.275
1384.11	91.1484
1388.33	87.9688
1392.54	39.7656
1396.76	111.351
1400.97	24.7119
1405.18	52.9766
1409.39	43.4346
1413.59	27.3105
1417.8	87.6582
1421.99	69.8486
1426.19	5.05762
1430.38	114.993
1434.58	218.209
1438.77	110.274
1442.95	221.864
1447.13	48.2705
1451.32	191.688
1455.49	126.173
1459.67	155.863
1463.84	245.983
1468.01	145.553
1472.18	145.745
1476.35	13.7852
1480.51	122.45
1484.67	213.125
1488.83	134.094
1492.98	74.3633
1497.13	101.531
1501.28	132.13
1505.43	182.197
1509.57	114.481
1513.71	14.5205
1517.85	140.362
1521.99	94.5019
1526.12	24.6533
1530.25	129.924
1534.38	190.472
1538.5	156.016
1542.62	35.6855
1546.74	144.431
1550.86	181.718
1554.98	209.542
1559.09	88.2158
1563.2	161.726
1567.31	23.8164
1571.41	0.149414
