Measurement: Raman, 514 nm, ccw, Raman Data Processed
Mineral: Diopside
Rruff sample: R040009
Ideal chemistry: CaMgSi_2_O_6_
Locality: Otter Lake, Quebec, Canada
Source: University of Arizona Mineral Museum
Description: Green square prismatic crystal associated with pale orange calcite
Measured chemistry: (Ca_0.97_Fe_0.02_Na_0.01_)_Σ=1_(Mg_0.97_Fe_0.02_Al_0.01_)_Σ=1_Si_2.00_O_6_; trace amounts of Mn and Ti
Pin_id: M00056
Orientation: Laser parallel to -c [0 0 -1]. Fiducial mark perpendicular to laser is parallel to b* (0 1 0)
Raman shift (cm-1)	intensity
85.009	0
89.193	89.476
93.375	90.437
97.554	61.869
101.732	90.584
105.908	213.958
110.082	302.201
114.254	421.707
118.424	163.969
122.592	125.469
126.758	75.883
130.922	53.019
135.083	167.537
139.243	122.759
143.401	43.222
147.557	9.927
151.711	17.106
155.863	77.167
160.013	225.481
164.161	482.015
168.308	124.735
172.452	49.442
176.594	117.211
180.734	196.831
184.872	170.896
189.008	538.789
193.143	1019.82
197.275	626.971
201.405	171.24
205.534	28.764
209.66	13.636
213.784	39.784
217.907	78.081
222.027	409.424
226.146	1025.81
230.263	1214.24
234.377	701.676
238.49	354.147
242.601	247.655
246.709	262.195
250.816	586.735
254.921	627.921
259.024	208.837
263.125	67.941
267.224	16.633
271.321	15.947
275.416	54.299
279.51	29.042
283.601	95.875
287.69	141.343
291.778	290.911
295.863	637.568
299.947	1270.3
304.029	1372.09
308.108	1852.93
312.186	2504.83
316.262	3417.34
320.336	6033.05
324.408	6307.1
328.478	3442.13
332.546	1702.64
336.612	1031.48
340.677	782.743
344.739	863.922
348.799	1507.92
352.858	3204.94
356.915	3733.98
360.969	2211.05
365.022	1332.13
369.073	967.236
373.122	831.347
377.169	1193.17
381.215	2083.28
385.258	4606.4
389.299	7118.51
393.339	5829.62
397.376	3036.72
401.412	1300.81
405.446	562.912
409.478	271.014
413.508	245.127
417.536	141.276
421.562	4.543
425.586	67.217
429.609	2.959
433.629	7.367
437.648	19.191
441.665	16.883
445.68	6.136
449.693	26.35
453.704	57.528
457.713	251.713
461.721	607.889
465.726	616.055
469.73	371.25
473.731	70.497
477.731	34.209
481.729	9.007
485.725	2.197
489.72	6.681
493.712	11.699
497.703	7.178
501.691	55.03
505.678	161.824
509.663	285.427
513.646	310.297
517.627	226.95
521.607	225.539
525.584	279.069
529.56	263.693
533.534	277.896
537.506	254.183
541.476	263.363
545.444	381.429
549.41	617.377
553.375	1609.2
557.337	3233.18
561.298	2157.92
565.257	877.407
569.214	386.515
573.17	251.245
577.123	121.263
581.075	24.178
585.024	82.655
588.972	127.582
592.918	22.053
596.863	47.342
600.805	78.031
604.746	87.621
608.685	142.628
612.621	156.411
616.557	189.285
620.49	339.385
624.421	516.04
628.351	536.47
632.279	654.381
636.205	917.704
640.129	1202.75
644.051	1616.14
647.972	2328.33
651.89	3775.17
655.807	6776.8
659.722	14592.4
663.636	26574.5
667.547	25124.6
671.457	13179.5
675.365	6410.26
679.271	3339.22
683.175	2073.47
687.077	1203.45
690.978	930.522
694.877	643.258
698.774	536.623
702.669	365.716
706.562	334.537
710.454	224.086
714.344	214.36
718.232	184.341
722.118	79.042
726.002	92.62
729.885	88.9
733.766	85.042
737.645	6.397
741.522	47.333
745.397	66.76
749.271	57.167
753.143	15.457
757.013	60.652
760.881	27.309
764.748	53.116
768.613	30.344
772.476	95.661
776.337	25.373
780.196	84.187
784.054	36.6
787.91	21.956
791.764	14.542
795.616	59.382
799.467	21.432
803.316	53.27
807.163	43.844
811.008	34.924
814.851	58.911
818.693	43.4
822.533	85.563
826.371	72.413
830.208	117.952
834.042	59.181
837.875	64.107
841.706	24.739
845.536	216.1
849.363	679.228
853.189	1601.16
857.013	1305.9
860.836	852.478
864.656	466.893
868.475	349.827
872.292	264.508
876.108	214.828
879.922	200.674
883.733	214.497
887.544	338.68
891.352	263.192
895.159	225.849
898.964	280.855
902.767	278.156
906.568	363.036
910.368	335.827
914.166	291.693
917.962	256.211
921.757	230.31
925.55	330.24
929.341	216.942
933.13	235.173
936.918	299.748
940.703	255.383
944.488	50.033
948.27	154.601
952.051	268.52
955.83	389.252
959.607	443.06
963.383	468.729
967.156	552.192
970.928	605.282
974.699	787.485
978.468	970.522
982.234	1257.98
986	1365.74
989.763	1751.8
993.525	2487
997.285	3855.02
1001.04	6196.97
1004.8	12233.2
1008.55	28722.9
1012.31	50308.9
1016.06	30706.8
1019.81	12441.3
1023.56	6180.96
1027.31	3886.2
1031.05	3039.63
1034.79	3080.38
1038.53	3574.23
1042.27	5253.21
1046.01	7850.11
1049.75	6711.31
1053.48	3617.02
1057.22	2099.38
1060.95	1336.57
1064.68	960.087
1068.4	747.936
1072.13	513.956
1075.86	429.921
1079.58	448.753
1083.3	454.127
1087.02	338.526
1090.74	263.855
1094.45	128.199
1098.17	196.31
1101.88	200.324
1105.59	123.731
1109.3	110.444
1113.01	133.934
1116.71	123.455
1120.42	163.839
1124.12	300.032
1127.82	209.231
1131.52	134.014
1135.22	380.329
1138.91	146.357
1142.61	136.919
1146.3	129.244
1149.99	25.945
1153.68	36.307
1157.37	91.479
1161.06	38.341
1164.74	148.296
1168.42	98.962
1172.1	22.589
1175.78	103.393
1179.46	1.625
1183.14	20.021
1186.81	11.727
1190.48	4.802
1194.15	10.932
1197.83	65.035
1201.49	128.261
1205.16	209.784
1208.82	66.083
1212.49	161.938
1216.15	53.884
1219.81	39.27
1223.46	115.436
1227.12	95.582
1230.78	83.234
1234.43	83.921
1238.08	85.79
1241.73	139.673
1245.38	28.474
1249.03	124.096
1252.67	146.598
1256.31	12.44
1259.95	71.571
1263.6	2.343
1267.23	119.697
1270.87	121.451
1274.51	38.151
1278.14	108.93
1281.77	13.493
1285.4	189.858
1289.03	34.601
1292.66	176.966
1296.28	129.949
1299.91	78.722
1303.53	9.746
1307.15	192.835
1310.77	16.82
1314.38	256.555
1318	208.867
1321.61	268.005
1325.23	228.502
1328.84	351.128
1332.45	193.215
1336.06	217.271
1339.66	337.807
1343.27	266.221
1346.87	186.787
1350.47	387.738
1354.07	315.248
1357.67	262.547
1361.26	176.865
1364.86	270.73
1368.45	261.781
1372.04	230.684
1375.63	320.307
1379.22	285.193
1382.81	196.027
1386.39	92.77
1389.98	100.98
1393.56	240.635
1397.14	43.92
1400.72	263.08
1404.3	78.787
1407.87	242.107
1411.45	269.441
1415.02	0
