Measurement: Raman, 514 nm, ccw, Raman Data Processed
Mineral: Diopside
Rruff sample: R070123
Ideal chemistry: CaMgSi_2_O_6_
Locality: Yates mine, Otter Lake, Huddersfield Township, Pontiac County, Québec, Canada
Source: Michael Scott
Description: Black prismatic crystals associated with orange calcite
Measured chemistry: (Ca_0.95_Na_0.04_Mn_0.01_)_Σ=1_(Mg_0.63_Fe_0.33_Al_0.04_)_Σ=1_Si_2.00_O_6_
Pin_id: M00826
Orientation: Laser parallel to a* (1 0 0). Fiducial mark perpendicular to laser is parallel to -b [0 -1 0]
Raman shift (cm-1)	intensity
117.295	0
122.247	138.626
127.196	820.091
132.143	2472.21
137.086	4929.07
142.026	2504.03
146.963	521.918
151.898	173.261
156.829	34.7456
161.758	135.497
166.683	145.472
171.606	331.816
176.526	451.834
181.442	594.683
186.356	585.415
191.267	665.045
196.175	728.583
201.08	849.669
205.983	463.738
210.882	458.237
215.778	399.417
220.672	359.929
225.563	401.804
230.45	495.138
235.335	494.721
240.217	331.342
245.096	244.982
249.973	217.628
254.846	138.263
259.716	157.723
264.584	72.3901
269.449	62.8059
274.31	83.4351
279.169	72.6834
284.026	10.9812
288.879	165.277
293.729	367.315
298.577	571.666
303.422	979.185
308.263	1808.82
313.103	3243.82
317.939	5280.89
322.772	6109.2
327.603	4619.05
332.43	2854.87
337.255	2085.56
342.077	1777.39
346.896	1845.93
351.713	2069.36
356.526	1994.75
361.337	1736.09
366.145	1811.35
370.95	1971.6
375.753	2611.61
380.552	3943.59
385.349	5577.47
390.143	5350.22
394.934	2829.86
399.722	1321.38
404.508	534.775
409.29	276.048
414.07	267.058
418.848	9.90942
423.622	3.57178
428.394	28.5271
433.163	11.0825
437.929	4.74268
442.692	29.0298
447.453	32.5806
452.21	79.6475
456.966	195.825
461.718	177.557
466.467	141.325
471.214	6.66821
475.958	71.1409
480.699	14.4668
485.438	49.1877
490.174	157.72
494.907	258.029
499.637	385.123
504.365	803.004
509.09	983.717
513.812	1006.22
518.531	788.492
523.248	807.605
527.962	924.516
532.673	794.306
537.382	624.931
542.088	555.379
546.791	547.585
551.491	587.55
556.189	714.303
560.884	733.98
565.576	530.133
570.266	465.401
574.953	296.704
579.637	246.806
584.319	116.89
588.998	80.0977
593.674	20.457
598.348	40.7676
603.018	14.5776
607.687	39.3557
612.352	9.37842
617.015	67.5537
621.675	136.097
626.333	268.258
630.988	347.237
635.64	512.563
640.289	692.656
644.936	1045.52
649.581	1842.94
654.222	3597.35
658.861	7540.08
663.497	13090.5
668.131	12859
672.762	6696.53
677.391	3193.84
682.016	1676.89
686.639	1050.73
691.26	707.356
695.878	521.769
700.493	471.981
705.106	497.01
709.716	425.859
714.323	269.55
718.928	224.18
723.53	177.788
728.13	63.7891
732.727	67.4895
737.321	10.032
741.913	6.81445
746.502	8.28979
751.089	9.73242
755.673	22.9043
760.254	97.8389
764.833	41.4783
769.41	55.9438
773.983	17.3318
778.554	23.6487
783.123	66.864
787.689	68.9341
792.252	39.9434
796.813	4.88672
801.371	1.68311
805.927	67.6148
810.48	34.8511
815.031	14.1812
819.579	59.456
824.124	79.7612
828.667	67.106
833.208	40.5
837.745	24.9534
842.281	134.474
846.813	282.071
851.344	703.751
855.871	963.521
860.396	718.388
864.919	581.222
869.439	498.182
873.957	438.999
878.472	384.22
882.984	432.55
887.494	435.317
892.002	427.625
896.507	585.134
901.009	516.039
905.509	414.012
910.006	479.23
914.501	434.674
918.994	431.33
923.484	369.47
927.971	368.732
932.456	280.75
936.938	294.252
941.418	224.641
945.896	207.735
950.371	105.869
954.843	162.313
959.313	266.031
963.781	228.071
968.246	341.428
972.709	399.051
977.169	474.933
981.626	558.076
986.082	684.478
990.534	1057.14
994.985	1644.06
999.432	2965.23
1003.88	6018.67
1008.32	12479.4
1012.76	19892.5
1017.2	13052.8
1021.63	5312.51
1026.07	2815.75
1030.5	2038.8
1034.93	1745.9
1039.35	1737.85
1043.78	1562.54
1048.2	1265.1
1052.62	1071.52
1057.03	804.665
1061.44	651.572
1065.86	557.866
1070.27	531.194
1074.67	489.852
1079.08	449.141
1083.48	398.633
1087.88	376.803
1092.27	368.011
1096.67	348.696
1101.06	307.968
1105.45	327.301
1109.84	287.708
1114.22	307.148
1118.6	270.63
1122.98	333.148
1127.36	199.695
1131.73	222.265
1136.11	197.851
1140.48	130.445
1144.85	171.039
1149.21	69.6257
1153.58	33.196
1157.94	29.7334
1162.3	0.213867
1166.65	11.3848
1171.01	4.11279
1175.36	1.00977
1179.7	40.0378
1184.05	15.0161
1188.4	23.6726
1192.74	1.89307
1197.08	70.4812
1201.41	16.7869
1205.75	17.9888
1210.08	43.8108
1214.41	100.353
1218.74	6.74976
1223.07	86.9702
1227.39	2.96582
1231.71	91.7427
1236.03	94.4021
1240.34	96.9419
1244.66	147.361
1248.97	77.6604
1253.28	146.865
1257.59	117.567
1261.89	147.005
1266.19	205.915
1270.49	227.704
1274.79	252.37
1279.09	233.914
1283.38	180.339
1287.67	225.407
1291.96	178.84
1296.24	262.871
1300.53	271.034
1304.81	243.323
1309.09	276.76
1313.37	312.137
1317.64	315.404
1321.91	303.04
1326.18	258.657
1330.45	184.817
1334.71	162.716
1338.98	108.27
1343.24	134.678
1347.5	156.798
1351.75	74.2981
1356.01	116.725
1360.26	96.5691
1364.51	160.387
1368.76	94.1641
1373	141.076
1377.24	131.973
1381.48	182.816
1385.72	44.8508
1389.96	91.728
1394.19	103.309
1398.42	103.129
1402.65	125.981
1406.88	130.872
1411.1	47.1277
1415.33	95.7459
1419.55	83.5137
1423.76	140.064
1427.98	50.4702
1432.19	82.8132
1436.4	213.093
1440.61	174.388
1444.82	286.498
1449.03	301.15
1453.23	306.411
1457.43	294.002
1461.62	322.806
1465.82	260.827
1470.02	195.927
1474.21	91.061
1478.39	193.119
1482.58	54.2031
1486.77	39.3875
1490.95	31.6685
1495.13	63.0979
1499.31	45.7332
1503.48	8.62158
1507.66	36.8528
1511.83	75.3809
1516	6.84961
1520.16	66.5134
1524.33	136.336
1528.49	77.0171
1532.65	12.6506
1536.81	71.3069
1540.97	82.5786
1545.12	20.2632
1549.27	76.064
1553.42	73.8789
1557.57	51.3652
1561.71	0.940918
