Measurement: Raman, 514 nm, ccw, Raman Data Processed
Mineral: Diopside
Rruff sample: R050406
Ideal chemistry: CaMgSi_2_O_6_
Locality: unknown
Source: University of Arizona Mineral Museum
Description: Brownish gray massive
Measured chemistry: (Ca_0.95_Na_0.05_)(Mg_0.75_Fe^2+^_0.18_Fe^3+^_0.05_Al_0.01_Ti_0.01_Mn^2+^_0.01_)(Si_0.98_Al_0.02_)_2_O_6_
Pin_id: M00086
Orientation: Laser parallel to c* (0 0 1). Fiducial mark perpendicular to laser is parallel to a [1 0 0]
Raman shift (cm-1)	intensity
116.903	0
121.827	193.868
126.749	23.0508
131.668	152.853
136.585	209.547
141.5	574.125
146.412	395.394
151.321	195.211
156.229	130.209
161.134	211.52
166.036	772.892
170.936	673.006
175.834	409.564
180.729	683.394
185.622	931.366
190.512	1184.37
195.4	2061.39
200.286	1384.81
205.169	503.082
210.049	19.8018
214.928	20.8057
219.803	51.1006
224.677	224.175
229.548	416.664
234.416	387.353
239.282	337.228
244.146	426.181
249.007	474.247
253.866	862.428
258.722	924.057
263.576	423.114
268.427	190.108
273.276	96.6494
278.123	48.8809
282.967	71.2871
287.809	231.013
292.648	539.239
297.485	1084.82
302.319	1558.87
307.151	1971.61
311.98	3123.51
316.807	5253.55
321.631	9421
326.454	11304.6
331.273	8361.18
336.09	5208.55
340.905	3684.69
345.717	3290.55
350.527	3837.12
355.334	5120.39
360.139	4831.32
364.941	3401.23
369.741	2889.44
374.538	2892.29
379.333	4326.74
384.126	7790.77
388.916	13257.4
393.703	13761.5
398.488	7375.11
403.271	3210.26
408.051	1431.89
412.828	629.118
417.603	504.019
422.376	447.598
427.146	159.752
431.914	42.4844
436.679	42.2588
441.442	54.669
446.202	21.0986
450.96	69.7197
455.715	358.44
460.467	1444.26
465.218	856.588
469.965	565.648
474.711	401.791
479.454	358.418
484.194	314.037
488.932	199.46
493.667	254.179
498.4	320.094
503.13	313.164
507.858	443.381
512.583	815.776
517.306	999.339
522.026	958.046
526.744	1212.81
531.459	1238.58
536.172	1043.37
540.882	1100.37
545.59	1063.46
550.295	1483.49
554.998	2485.43
559.698	4106.31
564.396	2663.11
569.091	1173.82
573.784	716.325
578.474	399.576
583.162	287.676
587.847	43.5723
592.529	122.799
597.209	58.2539
601.887	49.293
606.562	82.4551
611.235	67.8633
615.905	153.798
620.572	108.188
625.237	330.786
629.9	500.718
634.56	784.806
639.217	1022.94
643.872	1401.6
648.524	2264.68
653.174	3911.3
657.821	7270.13
662.466	15056.6
667.108	24661
671.748	19120.8
676.385	9166.09
681.02	4410.24
685.652	2367.85
690.281	1474.07
694.908	1045.83
699.533	719.321
704.155	597.073
708.774	504.424
713.391	404.34
718.005	327.603
722.617	145.312
727.226	121.996
731.833	287.611
736.437	66.6445
741.039	56.6553
745.638	36.1299
750.234	4.3584
754.828	33.5674
759.419	29.2012
764.008	112.432
768.595	90.8809
773.178	139.037
777.759	168.471
782.338	228.433
786.914	112.921
791.488	113.899
796.059	93.2481
800.627	13.8906
805.193	67.9619
809.756	41.2852
814.317	235.56
818.875	105.264
823.431	84.6856
827.984	78.8428
832.534	24.7402
837.082	46.3242
841.627	71.4219
846.17	76.5674
850.71	238.438
855.248	812.104
859.783	763.595
864.316	739.456
868.846	759.693
873.373	649.709
877.898	770.526
882.42	928.614
886.94	1128.83
891.457	1102.73
895.971	1109.51
900.483	1155.06
904.993	1175.73
909.5	1032.49
914.004	971.271
918.505	792.583
923.004	656.471
927.501	614.744
931.995	556.723
936.486	546.926
940.975	404.091
945.461	416.637
949.945	629.896
954.426	825.013
958.904	1153.65
963.38	1431.51
967.853	1619.71
972.324	1983.08
976.792	2257.27
981.258	2625.18
985.72	3002.65
990.181	3558.62
994.639	4547.12
999.094	7189.15
1003.55	12141.7
1008	23856
1012.44	43585.1
1016.89	41423
1021.33	18629.5
1025.77	8881.85
1030.21	5373.62
1034.64	4065.39
1039.07	3733.26
1043.5	3918.04
1047.93	3995.31
1052.35	3016.01
1056.78	2245.76
1061.19	1664.83
1065.61	1468.95
1070.02	1090.5
1074.43	959.096
1078.84	833.498
1083.25	766.529
1087.65	831.144
1092.05	751.043
1096.45	587.071
1100.85	600.774
1105.24	475.957
1109.63	564.355
1114.02	579.861
1118.4	723.725
1122.78	707.237
1127.16	647.53
1131.54	541.941
1135.92	418.94
1140.29	505.466
1144.66	371.239
1149.02	340.533
1153.39	207.971
1157.75	16.7666
1162.11	94.7051
1166.46	47.2324
1170.82	1.27344
1175.17	35.0303
1179.52	178.388
1183.86	57.3897
1188.21	30.3994
1192.55	61.9043
1196.89	48.7022
1201.22	42.9111
1205.55	0.083008
1209.88	26.3711
1214.21	58.418
1218.54	227.175
1222.86	149.179
1227.18	227.773
1231.5	116.941
1235.81	309.688
1240.12	108.322
1244.43	119.46
1248.74	143.371
1253.04	116.644
1257.34	151.588
1261.64	217.519
1265.94	207.846
1270.23	25.9648
1274.52	14.5156
1278.81	168.603
1283.1	53.3398
1287.38	103.953
1291.66	214.727
1295.94	55.3496
1300.21	152.85
1304.48	167.928
1308.75	53.2637
1313.02	75.3906
1317.29	136.83
1321.55	171.371
1325.81	345.887
1330.06	279.393
1334.32	203.269
1338.57	368.99
1342.82	232.529
1347.06	150.779
1351.31	197.891
1355.55	324.496
1359.79	224.328
1364.02	169.592
1368.26	133.611
1372.49	256.043
1376.71	38.5977
1380.94	143.734
1385.16	195.961
1389.38	188.076
1393.6	89.4023
1397.81	185.133
1402.02	182.326
1406.23	223.062
1410.44	39.4199
1414.64	186.959
1418.85	124.971
1423.04	251.006
1427.24	191.785
1431.43	44.6758
1435.62	131.361
1439.81	180.344
1444	161.264
1448.18	93.4941
1452.36	113.996
1456.54	158.272
1460.71	108.635
1464.89	52.291
1469.06	4.9707
1473.22	220.356
1477.39	683.205
1481.55	153.301
1485.71	187.307
1489.86	359.549
1494.02	86.3438
1498.17	126.041
1502.32	210.191
1506.46	273.535
1510.61	107.416
1514.75	167.191
1518.88	58.0254
1523.02	50.623
1527.15	86.9336
1531.28	120.727
1535.41	178.463
1539.53	199.018
1543.66	276.252
1547.78	198.51
1551.89	292.391
1556.01	207.234
1560.12	56.2773
1564.23	139.144
1568.33	76.3144
1572.43	0
