Measurement: Raman, 514 nm, ccw, Raman Data Processed
Mineral: Diopside
Rruff sample: R070123
Ideal chemistry: CaMgSi_2_O_6_
Locality: Yates mine, Otter Lake, Huddersfield Township, Pontiac County, Québec, Canada
Source: Michael Scott
Description: Black prismatic crystals associated with orange calcite
Measured chemistry: (Ca_0.95_Na_0.04_Mn_0.01_)_Σ=1_(Mg_0.63_Fe_0.33_Al_0.04_)_Σ=1_Si_2.00_O_6_
Pin_id: M01164
Orientation: Laser parallel to c* (0 0 1). Fiducial mark perpendicular to laser is parallel to a [1 0 0]
Raman shift (cm-1)	intensity
117.295	0
122.247	105.376
127.196	39.0455
132.143	252.365
137.086	449.192
142.026	199.245
146.963	39.3603
151.898	72.8036
156.829	261.195
161.758	448.145
166.683	451.214
171.606	285.409
176.526	309.582
181.442	455.513
186.356	447.039
191.267	522.024
196.175	316.584
201.08	257.59
205.983	20.6731
210.882	5.57581
215.778	67.927
220.672	237.12
225.563	388.048
230.45	515.71
235.335	556.099
240.217	637.062
245.096	663.703
249.973	789.036
254.846	707.039
259.716	660.564
264.584	455.344
269.449	390.671
274.31	367.668
279.169	391.957
284.026	542.748
288.879	859.264
293.729	1284.91
298.577	1829.64
303.422	2418.16
308.263	3563.3
313.103	5181.07
317.939	7679.71
322.772	7386.06
327.603	5590.96
332.43	4076.34
337.255	3565.19
342.077	3924.49
346.896	5233.23
351.713	6723.4
356.526	6029.95
361.337	4125.91
366.145	3017.23
370.95	2979.92
375.753	4402.94
380.552	7094.3
385.349	9914.98
390.143	9076.98
394.934	4855.27
399.722	2076.86
404.508	979.723
409.29	512.859
414.07	365.38
418.848	217.296
423.622	90.5695
428.394	28.8381
433.163	27.0631
437.929	77.2532
442.692	27.4155
447.453	81.4513
452.21	343.754
456.966	489.619
461.718	414.524
466.467	248.416
471.214	184.926
475.958	145.125
480.699	109.63
485.438	119.072
490.174	113.695
494.907	181.392
499.637	284.192
504.365	271.065
509.09	461.97
513.812	529.894
518.531	679.833
523.248	873.823
527.962	1067
532.673	978.307
537.382	936.681
542.088	970.047
546.791	1281.34
551.491	2189.56
556.189	3427.68
560.884	2692.68
565.576	1268.56
570.266	692.89
574.953	458.251
579.637	235.203
584.319	59.4163
588.998	12.5657
593.674	34.1841
598.348	7.41174
603.018	31.9537
607.687	51.679
612.352	173.007
617.015	268.125
621.675	362.477
626.333	500.119
630.988	763.201
635.64	1008.96
640.289	1494.38
644.936	2180.47
649.581	3720.22
654.222	7235.62
658.861	14624.5
663.497	22650.3
668.131	19338.2
672.762	9680.87
677.391	4591.8
682.016	2447.22
686.639	1446.02
691.26	961.425
695.878	692.442
700.493	496.109
705.106	416.354
709.716	270.236
714.323	152.814
718.928	100.173
723.53	93.3159
728.13	25.8724
732.727	8.1344
737.321	20.8027
741.913	26.4724
746.502	54.9224
751.089	0.923218
755.673	31.1755
760.254	28.0059
764.833	64.5568
769.41	95.8651
773.983	87.9471
778.554	68.8168
783.123	46.4898
787.689	34.981
792.252	3.69385
796.813	7.44128
801.371	80.5665
805.927	35.4562
810.48	38.5774
815.031	13.9905
819.579	59.4634
824.124	70.8622
828.667	39.2233
833.208	2.43799
837.745	52.8921
842.281	163.231
846.813	632.596
851.344	1451
855.871	1842.97
860.396	1386.65
864.919	942.39
869.439	780.272
873.957	835.612
878.472	922.758
882.984	1028.46
887.494	1082.35
892.002	1119.63
896.507	1141.23
901.009	1091.27
905.509	981.896
910.006	962.691
914.501	736.08
918.994	729.922
923.484	688.242
927.971	564.918
932.456	470.502
936.938	409.927
941.418	306.653
945.896	321.558
950.371	525.162
954.843	823.746
959.313	1028.82
963.781	1225.35
968.246	1419.28
972.709	1647.69
977.169	1848.52
981.626	2163.79
986.082	2464.48
990.534	2931.61
994.985	4500.22
999.432	7443.31
1003.88	14956
1008.32	30691.3
1012.76	41910.2
1017.2	25131.9
1021.63	10674.2
1026.07	5816.51
1030.5	4478.64
1034.93	4422.54
1039.35	4561.31
1043.78	4654.36
1048.2	3392.47
1052.62	2125.25
1057.03	1525.86
1061.44	1086.16
1065.86	855.552
1070.27	655.897
1074.67	578.212
1079.08	522.509
1083.48	450.227
1087.88	460.922
1092.27	448.125
1096.67	366.039
1101.06	388.57
1105.45	369.77
1109.84	361.394
1114.22	414.974
1118.6	418.661
1122.98	416.738
1127.36	455.32
1131.73	376.848
1136.11	302.451
1140.48	285.017
1144.85	193.575
1149.21	115.134
1153.58	15.6509
1157.94	17.9309
1162.3	6.30493
1166.65	27.5183
1171.01	30.9351
1175.36	50.703
1179.7	17.9518
1184.05	34.5592
1188.4	3.30347
1192.74	26.7623
1197.08	2.2428
1201.41	12.474
1205.75	10.1774
1210.08	24.6824
1214.41	5.67761
1218.74	29.4247
1223.07	52.4446
1227.39	44.0583
1231.71	67.3806
1236.03	68.4496
1240.34	108.27
1244.66	93.83
1248.97	56.1368
1253.28	137.166
1257.59	127.931
1261.89	135.438
1266.19	111.682
1270.49	120.661
1274.79	141.373
1279.09	157.815
1283.38	171.986
1287.67	155.894
1291.96	147.255
1296.24	141.313
1300.53	126.218
1304.81	129.126
1309.09	90.1352
1313.37	98.5617
1317.64	93.6129
1321.91	104.277
1326.18	132.436
1330.45	139.083
1334.71	151.237
1338.98	158.789
1343.24	132.851
1347.5	96.9363
1351.75	109.281
1356.01	107.609
1360.26	142.95
1364.51	90.3001
1368.76	98.1547
1373	70.9933
1377.24	97.4901
1381.48	100.802
1385.72	66.7007
1389.96	79.3561
1394.19	104.837
1398.42	46.2289
1402.65	76.4972
1406.88	89.6457
1411.1	38.766
1415.33	43.8181
1419.55	68.8565
1423.76	23.9165
1427.98	47.3446
1432.19	28.2702
1436.4	25.5701
1440.61	28.9461
1444.82	49.24
1449.03	15.7715
1453.23	22.5594
1457.43	15.4872
1461.62	28.5624
1465.82	3.66052
1470.02	53.7358
1474.21	14.8215
1478.39	34.923
1482.58	24.0508
1486.77	1.76099
1490.95	42.5218
1495.13	11.4381
1499.31	36.9457
1503.48	19.9719
1507.66	37.4651
1511.83	47.1934
1516	61.3754
1520.16	52.9006
1524.33	23.7662
1528.49	24.7936
1532.65	31.7342
1536.81	38.0504
1540.97	3.82434
1545.12	10.8791
1549.27	31.6594
1553.42	77.5546
1557.57	38.3882
1561.71	16.4011
