Measurement: Raman, 514 nm, ccw, Raman Data Processed
Mineral: Diopside
Rruff sample: R050666
Ideal chemistry: CaMgSi_2_O_6_
Locality: Franklin, Sussex County, New Jersey, USA
Source: University of Arizona Mineral Museum
Description: Brown cleavage fragment with white hardystonite
Measured chemistry: Ca(Mg_0.66_Mn_0.33_Fe_0.01_)Si_2_O_6_
Pin_id: L00536
Orientation: Laser parallel to c* (0 0 1). Fiducial mark perpendicular to laser is parallel to -a [-1 0 0]
Raman shift (cm-1)	intensity
109.512	0
114.44	198.961
119.365	70.1194
124.288	142.669
129.209	686.157
134.127	837.951
139.043	452.736
143.956	5.21997
148.867	107.068
153.775	437.325
158.681	342.277
163.585	150.89
168.486	238.081
173.385	516.583
178.282	314.693
183.176	143.357
188.067	90.7537
192.956	17.2214
197.843	38.9575
202.727	139.117
207.609	8.6521
212.489	85.76
217.366	89.3603
222.24	68.5305
227.112	243.522
231.982	511.771
236.849	359.968
241.714	253.258
246.577	320.652
251.437	378.147
256.294	424.262
261.149	487.47
266.002	260.485
270.852	197.862
275.7	191.369
280.545	263.589
285.388	481.357
290.229	699.432
295.067	1256.52
299.902	2138.05
304.735	3992.62
309.566	7218.06
314.394	9341.79
319.22	6786.69
324.043	3971.76
328.864	2790.31
333.682	2595.34
338.498	3284.63
343.311	5450.18
348.122	7228.01
352.931	5222.61
357.737	3302.95
362.54	2610.47
367.341	2815.11
372.14	5024.94
376.936	10358.8
381.73	15226.7
386.521	8953.64
391.31	3837.61
396.096	1521.62
400.88	671.651
405.661	494.649
410.44	276.678
415.216	163.809
419.99	67.9951
424.761	25.2244
429.53	27.5742
434.297	20.481
439.061	72.6245
443.822	268.975
448.581	542.861
453.337	535.642
458.091	271.324
462.843	118.628
467.592	0.300293
472.338	32.3582
477.082	28.3262
481.824	45.6025
486.563	10.1089
491.3	29.2942
496.034	295.68
500.765	473.106
505.494	480.585
510.221	310.082
514.945	374.661
519.666	753.352
524.385	1157.11
529.102	771.93
533.816	432.914
538.527	505.026
543.236	808.234
547.943	2172.42
552.647	4897.57
557.348	3128.64
562.047	1142.62
566.744	515.327
571.438	323.116
576.129	148.27
580.818	61.1318
585.504	40.4644
590.188	102.288
594.87	85.228
599.549	38.6868
604.225	66.7471
608.899	91.2249
613.57	198.745
618.239	306.182
622.905	465.137
627.569	601.537
632.23	922.41
636.889	1318.29
641.545	2111.7
646.198	3869.76
650.849	8336.98
655.498	17356.8
660.144	23333.3
664.787	14747.4
669.428	6811.04
674.067	3346.77
678.703	1813.48
683.336	1119.64
687.967	760.784
692.595	546.598
697.221	481.359
701.844	344.86
706.465	237.102
711.083	148.151
715.698	81.0098
720.311	71.6011
724.922	44.675
729.53	38.075
734.135	35.2153
738.738	23.0217
743.338	89.1611
747.936	31.6165
752.531	114.067
757.124	123.447
761.714	83.7385
766.302	193.904
770.887	121.881
775.469	1.63745
780.049	12.1167
784.626	47.2124
789.201	69.9831
793.773	8.29736
798.343	1.11963
802.91	6.49707
807.475	37.5461
812.037	57.1931
816.596	36.4214
821.153	21.0586
825.707	13.0757
830.259	21.0073
834.808	155.808
839.355	547.509
843.899	1349.12
848.441	1978.65
852.98	1195.71
857.516	581.157
862.05	399.452
866.581	371.13
871.11	360.533
875.636	397.041
880.159	357.5
884.68	344.264
889.199	375.509
893.714	433.691
898.228	512.2
902.738	591.605
907.246	592.262
911.752	589.741
916.255	493.194
920.755	391.766
925.253	355.4
929.748	235.085
934.241	163.633
938.731	145.581
943.218	128.429
947.703	249.533
952.186	299.009
956.665	386.359
961.142	538.747
965.617	569.306
970.089	615.819
974.558	815.548
979.025	984.489
983.489	1176.89
987.951	1625.09
992.41	2501.77
996.866	4237.69
1001.32	8645.87
1005.77	22349.3
1010.22	53918.1
1014.67	47751.2
1019.11	16861.4
1023.55	7125.89
1027.99	4904
1032.42	4865.81
1036.86	6324.6
1041.29	6915.02
1045.72	3862.75
1050.14	1926.18
1054.56	1349.02
1058.98	972.047
1063.4	752.697
1067.82	646.445
1072.23	594.043
1076.64	533.672
1081.05	476.782
1085.45	487.364
1089.85	447.862
1094.25	468.115
1098.65	364.182
1103.04	336.207
1107.43	360.798
1111.82	398.85
1116.21	529.3
1120.59	806.44
1124.97	706.729
1129.35	422.091
1133.73	335.502
1138.1	274.793
1142.47	294.078
1146.84	192.386
1151.21	116.148
1155.57	29.0818
1159.93	92.603
1164.29	12.3572
1168.64	19.2873
1172.99	9.11572
1177.34	53.2268
1181.69	48.9082
1186.04	1.96143
1190.38	40.8877
1194.72	23.4282
1199.05	5.91724
1203.39	36.8557
1207.72	19.6406
1212.05	84.7978
1216.37	32.3162
1220.7	29.2419
1225.02	77.9858
1229.34	50.5657
1233.65	14.0059
1237.97	78.2698
1242.28	56.385
1246.59	106.283
1250.89	8.97778
1255.19	146.517
1259.49	50.4817
1263.79	119.85
1268.09	127.856
1272.38	212.699
1276.67	149.439
1280.95	166.942
1285.24	168.361
1289.52	120.007
1293.8	120.233
1298.08	147.557
1302.35	187.196
1306.62	151.547
1310.89	155.461
1315.15	196.945
1319.42	198.446
1323.68	204.621
1327.94	101.365
1332.19	172.918
1336.44	178.264
1340.69	119.296
1344.94	145.813
1349.19	151.237
1353.43	113.229
1357.67	147.215
1361.9	173.524
1366.14	132.359
1370.37	104.124
1374.6	61.7654
1378.83	36.2612
1383.05	86.0576
1387.27	69.0234
1391.49	121.358
1395.7	143.806
1399.92	52.9683
1404.13	52.9575
1408.34	34.8813
1412.54	127.613
1416.74	98.9717
1420.94	120.809
1425.14	47.5737
1429.34	94.3179
1433.53	103.958
1437.72	53.331
1441.9	82.8203
1446.09	135.846
1450.27	74.8428
1454.45	54.3545
1458.63	108.015
1462.8	110.916
1466.97	42.8101
1471.14	26.3189
1475.31	14.6177
1479.47	127.512
1483.63	44.542
1487.79	63.5093
1491.94	70.4995
1496.09	67.6597
1500.24	27.3232
1504.39	138.874
1508.54	121.981
1512.68	145.907
1516.82	27.2446
1520.95	127.441
1525.09	124.134
1529.22	54.0107
1533.35	193.804
1537.47	62.1338
1541.6	7.70312
1545.72	92.4497
1549.83	114.965
1553.95	171.05
1558.06	75.2778
1562.17	97.8994
1566.28	43.9004
1570.38	10.2104
