Measurement: Raman, 514 nm, ccw, Raman Data Processed
Mineral: Diopside
Rruff sample: R050666
Ideal chemistry: CaMgSi_2_O_6_
Locality: Franklin, Sussex County, New Jersey, USA
Source: University of Arizona Mineral Museum
Description: Brown cleavage fragment with white hardystonite
Measured chemistry: Ca(Mg_0.66_Mn_0.33_Fe_0.01_)Si_2_O_6_
Pin_id: L01400
Orientation: Laser parallel to -a* (-1 0 0). Fiducial mark perpendicular to laser is parallel to -b [0 -1 0]
Raman shift (cm-1)	intensity
129.209	0
134.127	1717.94
139.043	647.121
143.956	143.928
148.867	402.967
153.775	103.91
158.681	119.514
163.585	31.793
168.486	0.986328
173.385	405.887
178.282	250.17
183.176	252.469
188.067	284.219
192.956	344.654
197.843	561.885
202.727	653.848
207.609	359.887
212.489	287.68
217.366	118.5
222.24	157.965
227.112	239.375
231.982	437.094
236.849	661.18
241.714	376.629
246.577	415.672
251.437	398.695
256.294	347.328
261.149	365.418
266.002	163.973
270.852	388.793
275.7	313.383
280.545	278.367
285.388	458.258
290.229	672
295.067	545.828
299.902	1165.75
304.735	1768.2
309.566	3204.46
314.394	4365.41
319.22	3761.53
324.043	2451.79
328.864	1737.98
333.682	1657.65
338.498	1734.61
343.311	2247.4
348.122	2822.03
352.931	2416.47
357.737	1923.73
362.54	1400.81
367.341	1579.72
372.14	2267.26
376.936	4276.88
381.73	6309.33
386.521	5102.61
391.31	2097.72
396.096	1046.63
400.88	410.352
405.661	381.867
410.44	238.172
415.216	292.246
419.99	209.09
424.761	84.2344
429.53	59.3086
434.297	211.875
439.061	358.637
443.822	193.586
448.581	273.902
453.337	129.106
458.091	278.027
462.843	66.125
467.592	120.981
472.338	95.0898
477.082	66.2383
481.824	177.234
486.563	7.17969
491.3	290.168
496.034	364.246
500.765	543.305
505.494	681.309
510.221	286.359
514.945	442.379
519.666	521.906
524.385	729.246
529.102	665.109
533.816	356.043
538.527	205.957
543.236	175.797
547.943	559.516
552.647	932.266
557.348	1051.86
562.047	532.254
566.744	525.379
571.438	194.027
576.129	233.746
580.818	106.266
585.504	128.551
590.188	47.2188
594.87	41.7617
599.549	8.47266
604.225	156.391
608.899	195.391
613.57	292.977
618.239	74.293
622.905	388.211
627.569	376.664
632.23	461.312
636.889	524.215
641.545	1037.16
646.198	1650.94
650.849	3361.12
655.498	6868.18
660.144	9889.68
664.787	7304.54
669.428	3368.75
674.067	1877.36
678.703	1234.67
683.336	795.043
687.967	664.727
692.595	548.894
697.221	413.398
701.844	473.012
706.465	419.727
711.083	242.523
715.698	156.344
720.311	92.9727
724.922	213.856
729.53	43.3008
734.135	255.016
738.738	35.1758
743.338	147.219
747.936	51.1719
752.531	33.7227
757.124	148.582
761.714	136.59
766.302	2.50391
770.887	28.4219
775.469	90.6406
780.049	214.582
784.626	20.8242
789.201	111.445
793.773	142.438
798.343	32.3711
802.91	64.582
807.475	182.66
812.037	411.477
816.596	190.492
821.153	96.0703
825.707	62.2031
830.259	345.731
834.808	485.957
839.355	388.898
843.899	747.531
848.441	1164.87
852.98	914.879
857.516	564.867
862.05	423.422
866.581	331.981
871.11	426.742
875.636	184.883
880.159	143.613
884.68	174.68
889.199	499.648
893.714	541.512
898.228	284.953
902.738	82.4961
907.246	273.992
911.752	506.394
916.255	256.731
920.755	254.422
925.253	5.48047
929.748	359.969
934.241	77.3438
938.731	118.027
943.218	32.9336
947.703	95.6523
952.186	310.43
956.665	252.566
961.142	115.047
965.617	407.82
970.089	220.914
974.558	350.688
979.025	739.144
983.489	580.281
987.951	937.09
992.41	1075.58
996.866	1615.9
1001.32	3072.56
1005.77	7067.09
1010.22	15863.9
1014.67	18497.9
1019.11	7546.41
1023.55	2955.09
1027.99	1860.98
1032.42	1760.4
1036.86	2264.77
1041.29	2346.28
1045.72	1581.75
1050.14	1198.62
1054.56	650.66
1058.98	461.559
1063.4	575.836
1067.82	620.363
1072.23	524.727
1076.64	376.188
1081.05	217.184
1085.45	699.773
1089.85	278.184
1094.25	297.731
1098.65	225.769
1103.04	281.016
1107.43	304.211
1111.82	279.176
1116.21	576.504
1120.59	1160.46
1124.97	885.309
1129.35	239.133
1133.73	374.328
1138.1	394.086
1142.47	301.307
1146.84	297.356
1151.21	191.988
1155.57	241.652
1159.93	242.627
1164.29	198.324
1168.64	120.121
1172.99	38.9355
1177.34	16.957
1181.69	119.703
1186.04	200.023
1190.38	152.315
1194.72	169.191
1199.05	104.893
1203.39	278.57
1207.72	99.5508
1212.05	47.7734
1216.37	132.981
1220.7	87.8984
1225.02	111.703
1229.34	156.85
1233.65	289.293
1237.97	387.641
1242.28	337.959
1246.59	388.049
1250.89	100.996
1255.19	84.209
1259.49	98.207
1263.79	178.562
1268.09	91.0625
1272.38	269.381
1276.67	127.519
1280.95	249.514
1285.24	129.252
1289.52	282.435
1293.8	191.08
1298.08	288.615
1302.35	335.912
1306.62	328.465
1310.89	166.424
1315.15	327.81
1319.42	342.875
1323.68	493.815
1327.94	358.533
1332.19	356.09
1336.44	319.766
1340.69	237.609
1344.94	188.859
1349.19	335.914
1353.43	177.027
1357.67	350.5
1361.9	266.514
1366.14	297.889
1370.37	303.647
1374.6	141.408
1378.83	266.986
1383.05	239.381
1387.27	334.268
1391.49	191.106
1395.7	281.301
1399.92	176.092
1404.13	179.121
1408.34	208.375
1412.54	106.035
1416.74	164.516
1420.94	183.658
1425.14	251.736
1429.34	99.4043
1433.53	117.857
1437.72	227.838
1441.9	284.658
1446.09	27.5781
1450.27	18.0957
1454.45	10.2617
1458.63	378.996
1462.8	25.7871
1466.97	128.127
1471.14	157.824
1475.31	380.812
1479.47	262.894
1483.63	125.725
1487.79	78.7676
1491.94	186.193
1496.09	154.135
1500.24	91.5
1504.39	217.736
1508.54	300.832
1512.68	308.609
1516.82	424.131
1520.95	25.8066
1525.09	240.969
1529.22	243.394
1533.35	334.705
1537.47	244.51
1541.6	16.5938
1545.72	111.894
1549.83	303.889
1553.95	149.242
1558.06	234.857
1562.17	270.09
1566.28	85.3047
1570.38	168.473
