Measurement: Raman, 514 nm, ccw, Raman Data Processed
Mineral: Diopside
Rruff sample: R070123
Ideal chemistry: CaMgSi_2_O_6_
Locality: Yates mine, Otter Lake, Huddersfield Township, Pontiac County, Québec, Canada
Source: Michael Scott
Description: Black prismatic crystals associated with orange calcite
Measured chemistry: (Ca_0.95_Na_0.04_Mn_0.01_)_Σ=1_(Mg_0.63_Fe_0.33_Al_0.04_)_Σ=1_Si_2.00_O_6_
Pin_id: M01501
Orientation: Laser parallel to -b* (0 -1 0). Fiducial mark perpendicular to laser is parallel to c [0 0 1]
Raman shift (cm-1)	intensity
115.57	0
120.521	127.034
125.469	1348.27
130.414	4064.57
135.356	7980.29
140.295	5572.42
145.232	1352.18
150.165	251.847
155.096	96.5779
160.024	52.8748
164.949	140.957
169.872	281.896
174.791	538.548
179.708	535.17
184.622	211.586
189.533	266.69
194.441	265.931
199.347	301.728
204.249	111.535
209.149	29.1043
214.046	15.2363
218.94	7.83374
223.832	106.21
228.72	354.88
233.606	560.812
238.489	276.729
243.369	115.698
248.247	159.909
253.121	60.3467
257.993	148.993
262.862	22.6829
267.728	11.5562
272.592	16.9204
277.452	106.526
282.31	159.685
287.165	207.249
292.017	328.501
296.867	621.175
301.714	1172.64
306.558	2229.72
311.399	3607.62
316.237	5265.31
321.073	6217.35
325.906	4870.6
330.736	3323.98
335.563	2489.49
340.387	2223.9
345.209	2520.47
350.028	2993.04
354.844	2998.01
359.658	2378.79
364.469	1867.1
369.277	1624.97
374.082	1984.9
378.884	3136.88
383.684	4756.91
388.481	5147.98
393.275	3042.1
398.066	1380.25
402.855	603.437
407.641	239.647
412.424	166.944
417.205	118.651
421.983	20.02
426.758	6.60205
431.53	24.323
436.299	39.3433
441.066	41.7417
445.83	12.1616
450.591	89.4727
455.35	198.315
460.106	85.2485
464.859	224.308
469.609	116.594
474.357	71.2334
479.102	107.283
483.844	215.348
488.584	227.343
493.321	526.268
498.055	920.154
502.786	1670.04
507.515	1328.86
512.241	778.575
516.964	674.27
521.685	825.958
526.402	957.576
531.118	962.115
535.83	946.537
540.54	766.825
545.247	867.957
549.951	767.929
554.653	718.733
559.352	712.483
564.048	708.106
568.742	616.672
573.432	535.054
578.121	382.913
582.806	306.266
587.489	57.9336
592.169	104.54
596.847	80.4614
601.521	14.9822
606.193	114.08
610.863	227.424
615.53	264.112
620.194	438.319
624.855	654.606
629.514	801.882
634.17	1103.83
638.823	1638.2
643.474	2395.3
648.122	3835.14
652.767	7085.42
657.41	14331.6
662.05	25149.8
666.688	27086.6
671.322	15057.8
675.954	6993.35
680.584	3524.28
685.211	2093.95
689.835	1329.35
694.456	909.48
699.075	574.355
703.691	406.972
708.305	286.342
712.916	155.542
717.524	162.673
722.13	63.7488
726.733	60.959
731.333	68.6575
735.931	35.3555
740.526	0.770508
745.118	104.666
749.708	15.7085
754.295	7.44067
758.88	22.1196
763.462	49.0207
768.041	0.128418
772.618	111.859
777.192	59.5923
781.763	52.2329
786.332	1.79468
790.898	55.2217
795.462	16.354
800.023	37.7197
804.581	1.98144
809.137	4.6665
813.69	32.2632
818.24	14.8611
822.788	70.4937
827.334	126.174
831.876	56.9155
836.416	75.731
840.954	217.633
845.489	622.634
850.021	1799.74
854.551	2846.98
859.078	2274.12
863.602	1361.77
868.124	822.35
872.644	666.182
877.16	564.451
881.675	549.928
886.186	516.742
890.695	639.644
895.202	507.624
899.705	505.372
904.207	515.732
908.705	301.182
913.201	348.127
917.695	278.599
922.186	213.501
926.674	257.206
931.16	273.182
935.643	247.051
940.124	219.019
944.602	184.648
949.077	288.199
953.55	400.568
958.021	481.373
962.489	519.605
966.954	676.253
971.417	838.332
975.877	831.813
980.334	1061.69
984.789	1364.97
989.242	1932.66
993.692	2953.76
998.139	5043.28
1002.58	9591.27
1007.03	20554.8
1011.47	33894.9
1015.9	26094.5
1020.34	11425.8
1024.77	5986.64
1029.2	4314.34
1033.63	3915.31
1038.05	4377.32
1042.47	4527.57
1046.89	3745.24
1051.31	2466.66
1055.72	1590.76
1060.14	1242.33
1064.55	952.462
1068.95	668.241
1073.36	623.812
1077.76	641.577
1082.16	523.007
1086.55	488.468
1090.95	517.05
1095.34	441.023
1099.73	515.174
1104.12	489.015
1108.5	445.084
1112.88	455.013
1117.26	435.816
1121.64	497.626
1126.01	399.915
1130.38	430.674
1134.75	316.142
1139.12	295.166
1143.48	242.364
1147.84	180.84
1152.2	37.0908
1156.56	30.7305
1160.91	0.246094
1165.27	40.5122
1169.61	24.8179
1173.96	49.408
1178.31	36.5239
1182.65	10.9976
1186.98	11.0662
1191.32	16.2451
1195.66	40.0938
1199.99	48.8398
1204.32	10.1736
1208.64	22.7854
1212.97	42.5962
1217.29	13.8791
1221.61	3.90185
1225.93	46.6648
1230.24	68.1738
1234.55	44.4363
1238.86	146.476
1243.17	82.3176
1247.47	94.9241
1251.78	60.2803
1256.07	72.4004
1260.37	92.2861
1264.67	177.97
1268.96	119.434
1273.25	62.6699
1277.54	93.6792
1281.82	186.463
1286.1	211.976
1290.38	56.9788
1294.66	168.901
1298.93	183.549
1303.21	111.666
1307.48	185.505
1311.74	170.734
1316.01	176.997
1320.27	153.667
1324.53	246.482
1328.79	181.46
1333.05	203.197
1337.3	161.563
1341.55	164.025
1345.8	150.965
1350.04	139.978
1354.29	161.594
1358.53	155.801
1362.76	130.023
1367	157.555
1371.23	117.925
1375.46	110.392
1379.69	126.682
1383.92	132.638
1388.14	96.3081
1392.36	140.701
1396.58	122.472
1400.8	135.003
1405.01	107.841
1409.22	58.5576
1413.43	46.2483
1417.64	118.444
1421.85	111.028
1426.05	75.501
1430.25	25.9951
1434.44	75.6985
1438.64	49.1191
1442.83	76.2786
1447.02	109.039
1451.21	72.1348
1455.39	37.8169
1459.58	62.6497
1463.76	19.594
1467.94	56.5813
1472.11	122.638
1476.28	48.8023
1480.45	32.9636
1484.62	43.2056
1488.79	27.4802
1492.95	82.8594
1497.11	83.051
1501.27	105.872
1505.43	66.8027
1509.58	3.31982
1513.73	40.8525
1517.88	54.1804
1522.03	46.4387
1526.18	14.1619
1530.32	72.1001
1534.46	78.9517
1538.6	89.8367
1542.73	40.8726
1546.86	86.7529
1550.99	80.0786
1555.12	104.937
1559.25	0.949707
1563.37	0
