Measurement: Raman, 514 nm, ccw, Raman Data Processed
Mineral: Dioptase
Rruff sample: R040028
Ideal chemistry: CuSiO_3_H_2_O
Locality: Tantara mine, Democratic Republic of the Congo
Source: University of Arizona Mineral Museum
Description: Bluish green coarsely crystallized fragment
Measured chemistry: Cu_1.00_Si_1.00_O_3_Â·H_2_O; H_2_O estimated by difference
Pin_id: M00307
Orientation: Laser parallel to a* (1 0 0). Fiducial mark perpendicular to laser is parallel to b [0 1 0]
Raman shift (cm-1)	intensity
105.801	0
109.987	375.498
114.171	1088.93
118.353	2115.37
122.533	1707.73
126.711	3216.23
130.886	10830.9
135.06	11077.9
139.231	9225.47
143.401	1840.31
147.568	31.7637
151.733	235.208
155.896	306.688
160.058	2947.22
164.217	2891.32
168.374	836.152
172.528	579.223
176.681	2568.11
180.832	5191.77
184.981	2914.89
189.127	1491.3
193.272	1027.53
197.414	1603.49
201.555	1139.11
205.693	1253.99
209.83	1963.71
213.964	3550.66
218.096	6832.32
222.226	14058
226.355	18970.8
230.481	13124.1
234.605	6067.11
238.727	2730.18
242.847	1508.14
246.965	569.732
251.08	64.1773
255.194	155.706
259.306	1244.09
263.416	5431.66
267.524	9751.4
271.629	4636.88
275.733	2167.03
279.835	1654.28
283.934	1939.44
288.032	3002.71
292.127	4953.46
296.221	4050.65
300.312	1362.36
304.402	216.951
308.489	182.983
312.575	339.348
316.658	313.368
320.74	17.7017
324.819	716.12
328.897	880.111
332.972	336.321
337.045	133.734
341.117	112.279
345.186	370.496
349.253	1315.65
353.319	4890.34
357.382	15674.6
361.443	11388.4
365.503	4371.71
369.56	2254.58
373.616	1651.4
377.669	1563.85
381.72	1769.31
385.77	2345.42
389.817	3860.8
393.863	7045.85
397.906	14030.7
401.947	16125.4
405.987	9309.88
410.024	4403.81
414.06	3086.51
418.093	3180.86
422.125	3452.41
426.154	3618.51
430.182	3870.29
434.208	3963.58
438.231	3973.19
442.253	3358
446.273	2975.45
450.29	2643.94
454.306	2404.15
458.32	2070.84
462.332	1519.07
466.341	1137.63
470.349	776.238
474.355	616.948
478.359	436.357
482.361	457.965
486.361	552.509
490.359	605.502
494.356	431.417
498.35	490.954
502.342	440.841
506.332	581.139
510.321	551.28
514.307	776.521
518.292	839.593
522.274	996.518
526.255	879.312
530.233	739.96
534.21	660.504
538.185	639.983
542.158	427.484
546.129	368.949
550.098	348.391
554.065	702.835
558.03	1227.3
561.993	1893.74
565.954	1990.17
569.913	1656.6
573.871	1233.13
577.826	890.921
581.78	412.83
585.731	139.753
589.681	134.685
593.629	21.6182
597.575	31.5205
601.519	127.956
605.461	170.793
609.401	50.1973
613.339	44.0527
617.275	133.293
621.21	41.8926
625.142	41.4951
629.073	249.384
633.001	346.305
636.928	419.462
640.853	627.591
644.776	1206.08
648.697	2014.73
652.616	3624.25
656.534	7783.36
660.449	13482.9
664.362	11282.8
668.274	6003.86
672.184	3384.89
676.092	1996.88
679.997	1239.57
683.901	960.893
687.804	802.078
691.704	457.159
695.602	314.259
699.499	206.583
703.393	301.012
707.286	404.441
711.177	392.364
715.066	335.323
718.953	528.558
722.838	612.6
726.722	938.606
730.603	1312.96
734.483	2037.35
738.361	3052.26
742.236	4027.26
746.11	3681.74
749.983	2616.72
753.853	1673.4
757.721	1061.83
761.588	740.693
765.453	488.03
769.315	316.885
773.176	193.74
777.036	75.5
780.893	184.194
784.748	163.328
788.602	112.894
792.454	232.885
796.303	143.295
800.151	74.1221
803.998	105.371
807.842	87.042
811.685	149.129
815.525	71.6514
819.364	104.612
823.201	21.9873
827.036	21.8252
830.869	86.0752
834.701	200.736
838.531	15.8115
842.358	78.6543
846.184	7.25488
850.008	36.4209
853.831	140.248
857.651	37.3701
861.47	25.0527
865.287	62.9062
869.102	61.3213
872.915	19.7637
876.726	169.639
880.536	99.5088
884.343	169.864
888.149	9.26855
891.953	142.108
895.756	214.006
899.556	316.435
903.355	419.403
907.152	582.992
910.947	697.317
914.74	1122.4
918.531	1028.34
922.321	835.068
926.109	552.576
929.895	520.786
933.679	389.569
937.461	538.891
941.242	618.748
945.021	649.144
948.798	660.093
952.573	761.586
956.346	863.618
960.118	975.498
963.888	958.75
967.656	832.443
971.422	717.149
975.186	740.966
978.949	826.56
982.71	801.425
986.469	1095.86
990.226	1322.48
993.982	1727.35
997.735	2404.59
1001.49	3826.76
1005.24	5985.85
1008.99	6344.6
1012.73	5743.49
1016.48	5910.17
1020.22	5721.96
1023.96	4893.76
1027.7	4066.64
1031.44	3017.88
1035.17	2181.6
1038.91	1595.88
1042.64	1230.9
1046.37	1086.45
1050.1	772.506
1053.83	559.061
1057.55	476.1
1061.28	603.614
1065	411.621
1068.72	550.101
1072.44	395.032
1076.15	243.415
1079.87	219.252
1083.58	248.524
1087.29	223.232
1091	143.371
1094.71	171.919
1098.42	39.2051
1102.12	22.9893
1105.82	72.9941
1109.53	49.167
1113.22	41.0088
1116.92	6.57324
1120.62	80.6992
1124.31	176.315
1128	60.2949
1131.69	1.5918
1135.38	1.13086
1139.07	39.2949
1142.76	74.6689
1146.44	128.341
1150.12	104.014
1153.8	231.894
1157.48	120.961
1161.15	222.988
1164.83	120.221
1168.5	98.291
1172.17	210.308
1175.84	201.092
1179.51	251.525
1183.18	156.959
1186.84	163.985
1190.51	123.537
1194.17	109.74
1197.83	120.492
1201.48	109.182
1205.14	151.768
1208.79	133.445
1212.45	105.039
1216.1	236.181
1219.75	190.697
1223.39	80.3018
1227.04	58.7319
1230.68	35.0972
1234.33	88.2144
1237.96	119.214
1241.6	23.5962
1245.24	46.4087
1248.88	27.897
1252.51	116.733
1256.14	27.2959
1259.77	16.7085
1263.4	47.5523
1267.03	46.1777
1270.65	58.062
1274.28	105.218
1277.9	30.981
1281.52	20.1108
1285.14	19.4199
1288.76	19.7832
1292.37	82.8418
1295.98	64.5054
1299.6	53.1011
1303.21	89.2427
1306.81	61.0366
1310.42	48.6289
1314.03	55.9438
1317.63	0.733398
1321.23	27.272
1324.83	8.11621
1328.43	103.784
1332.03	136.28
1335.62	162.616
1339.21	138.807
1342.81	50.7988
1346.4	177.643
1349.98	85.3096
1353.57	7.09521
1357.16	72.2485
1360.74	76.4512
1364.32	52.5137
1367.9	38.4302
1371.48	81.4731
1375.06	54.4121
1378.63	76.5205
1382.2	125.024
1385.78	92.1152
1389.35	46.1645
1392.91	81.0288
1396.48	77.0019
1400.05	94.7705
1403.61	179.417
1407.17	101.213
1410.73	224.136
1414.29	159.764
1417.85	71.2129
1421.4	201.893
1424.96	135.89
1428.51	86.0596
1432.06	74.2407
1435.61	49.1865
1439.15	113.647
1442.7	59.4048
1446.24	128.503
1449.79	171.29
1453.33	201.994
1456.87	156.8
1460.4	149.381
1463.94	92.8052
1467.47	117.895
1471	174.882
1474.54	103.198
1478.06	98.3809
1481.59	137.63
1485.12	157.5
1488.64	85.751
1492.16	107.626
1495.68	87.916
1499.2	116.545
1502.72	66.5952
1506.24	80.8931
1509.75	86.0317
1513.27	80.4844
1516.78	88.5019
1520.29	24.1279
1523.79	50.6943
1527.3	0
