Measurement: Raman, 514 nm, ccw, Raman Data Processed
Mineral: Diopside
Rruff sample: R040009
Ideal chemistry: CaMgSi_2_O_6_
Locality: Otter Lake, Quebec, Canada
Source: University of Arizona Mineral Museum
Description: Green square prismatic crystal associated with pale orange calcite
Measured chemistry: (Ca_0.97_Fe_0.02_Na_0.01_)_Σ=1_(Mg_0.97_Fe_0.02_Al_0.01_)_Σ=1_Si_2.00_O_6_; trace amounts of Mn and Ti
Pin_id: L00436
Orientation: Laser parallel to -b [0 -1 0]. Fiducial mark perpendicular to laser is parallel to -c* (0 0 -1)
Raman shift (cm-1)	intensity
107.3	0
111.473	16.271
115.644	424.242
119.813	428.988
123.981	579.807
128.146	1169.89
132.309	3147.65
136.47	6570.77
140.63	8381.81
144.787	4827.22
148.942	1639.84
153.096	549.847
157.247	334.718
161.396	143.94
165.544	192.288
169.689	219.586
173.833	298.692
177.974	535.485
182.114	671.3
186.251	437.748
190.387	219.537
194.52	304.262
198.652	206.916
202.782	154.222
206.909	153.788
211.035	96.511
215.159	135.818
219.281	131.52
223.4	156.75
227.518	353.109
231.634	751.588
235.748	825.152
239.86	501.779
243.97	270.459
248.079	467.182
252.185	1038.94
256.289	1358.72
260.391	552.52
264.492	156.673
268.59	27.795
272.687	43.671
276.781	35.636
280.874	1.348
284.964	101.729
289.053	82.25
293.14	208.748
297.225	360.531
301.308	563.703
305.389	926.483
309.468	1678.89
313.545	2328.39
317.62	3719.47
321.693	6634.34
325.765	7725.67
329.834	4976.1
333.902	2505.91
337.967	1659.44
342.031	1255.02
346.093	1048.62
350.153	1196.25
354.21	1633.66
358.267	2342.8
362.321	2307.89
366.373	1708.94
370.423	1253.96
374.471	995.938
378.518	1139.87
382.563	1820.76
386.605	3583.59
390.646	5103.39
394.685	3660.09
398.722	1663.82
402.757	705.381
406.79	417.858
410.821	161.42
414.851	253.744
418.878	32.246
422.904	66.163
426.927	25.187
430.949	14.484
434.969	46.622
438.987	63.746
443.003	34.784
447.018	41.517
451.03	90.033
455.041	8.445
459.049	19.119
463.056	108.67
467.061	171.299
471.064	93.918
475.065	66.499
479.064	64.021
483.062	180.451
487.057	179.805
491.051	91.049
495.043	356.182
499.032	460.199
503.02	1358.07
507.007	2789.78
510.991	2654.33
514.973	1301.69
518.954	655.851
522.933	449.807
526.91	516.557
530.885	495.089
534.858	516.398
538.829	444.479
542.799	405.33
546.766	373.942
550.732	323.313
554.696	338.075
558.658	416.312
562.618	420.931
566.576	253.29
570.533	357.434
574.488	378.377
578.44	371.488
582.391	223.572
586.341	299.677
590.288	420.019
594.233	540.516
598.177	309.637
602.119	413.079
606.059	655.734
609.997	683.519
613.933	516.257
617.868	779.786
621.801	755.43
625.731	1117.57
629.66	1030.47
633.588	1419.15
637.513	1489.8
641.437	1831.05
645.358	2282.15
649.278	3024.84
653.196	4672.88
657.113	7850.55
661.027	15904.4
664.94	28192.8
668.851	27956.5
672.76	16295.5
676.667	8393.33
680.572	4594.7
684.476	3165.23
688.378	2208.25
692.278	1693.86
696.176	1281.06
700.072	1178.85
703.967	872.225
707.86	971.154
711.751	663.712
715.64	639.761
719.527	570.497
723.413	473.735
727.297	428.555
731.179	321.013
735.059	183.767
738.937	136.015
742.814	148.088
746.689	90.571
750.562	37.19
754.433	70.559
758.303	132.222
762.17	74.606
766.036	101.052
769.901	18.795
773.763	48.967
777.624	20.631
781.482	74.927
785.339	55.504
789.195	129.071
793.048	66.996
796.9	164.731
800.75	82.59
804.598	155.27
808.445	226.056
812.289	209.389
816.132	203.297
819.973	292.789
823.813	437.891
827.65	323.623
831.486	454.007
835.32	398.04
839.152	584.751
842.983	603.213
846.812	894.386
850.639	1656.28
854.464	2802.88
858.288	2605.2
862.11	1690.34
865.93	1197.95
869.748	935.751
873.564	855.495
877.379	684.35
881.192	780.889
885.004	766.688
888.813	826.301
892.621	830.012
896.427	656.819
900.232	727.907
904.034	725.468
907.835	1221.94
911.634	550.56
915.432	702.154
919.227	588.631
923.021	515.646
926.813	454.25
930.604	477.025
934.393	202.823
938.18	511.9
941.965	507.116
945.749	271.687
949.53	284.404
953.311	317.192
957.089	349.144
960.866	433.441
964.641	468.484
968.414	403.212
972.185	396.932
975.955	655.358
979.723	776.854
983.49	1091.97
987.254	1163.38
991.017	1331.45
994.779	1970.24
998.538	3238.51
1002.3	4841.69
1006.05	9692.13
1009.81	22604.9
1013.56	39602.2
1017.31	25690.7
1021.06	10924.9
1024.81	5356.85
1028.55	3404.72
1032.3	2593.47
1036.04	2516.44
1039.78	3030.79
1043.52	4186.24
1047.26	5778.54
1050.99	4883.14
1054.73	2641.38
1058.46	1545.47
1062.19	1039.35
1065.92	691.633
1069.65	584.391
1073.37	450.625
1077.1	440.219
1080.82	488.137
1084.54	284.898
1088.26	251.182
1091.97	204.383
1095.69	150.035
1099.4	144.541
1103.12	287.02
1106.83	24.516
1110.54	113.727
1114.24	100.873
1117.95	149.059
1121.65	223.533
1125.35	259.135
1129.06	0.033
1132.75	240.17
1136.45	201.938
1140.15	115.557
1143.84	2.203
1147.53	90.154
1151.22	48.715
1154.91	25.199
1158.6	25.793
1162.28	1.725
1165.97	0.252
1169.65	102.611
1173.33	85.387
1177.01	44.422
1180.69	47.199
1184.36	195.566
1188.04	93.129
1191.71	192.23
1195.38	10.051
1199.05	20.029
1202.71	327.328
1206.38	183.211
1210.04	161.107
1213.71	196.271
1217.37	36.412
1221.03	80.152
1224.68	12.475
1228.34	45.443
1231.99	164.99
1235.65	284.316
1239.3	94.23
1242.95	182.688
1246.59	263.863
1250.24	343.869
1253.88	208.898
1257.53	77.002
1261.17	72.793
1264.81	277.746
1268.45	260.242
1272.08	329.736
1275.72	67.918
1279.35	397.336
1282.98	342.586
1286.61	329.648
1290.24	52.027
1293.87	223.309
1297.49	3.174
1301.11	333.465
1304.73	177.967
1308.36	339.65
1311.97	226.686
1315.59	585.012
1319.2	60.139
1322.82	0.512
1326.43	403.295
1330.04	156.922
1333.65	106.689
1337.26	239.52
1340.86	295.211
1344.47	210.426
1348.07	335.074
1351.67	310.812
1355.27	286.92
1358.87	279.932
1362.46	51.582
1366.06	70.531
1369.65	334.258
1373.24	44.492
1376.83	265.57
1380.42	165.143
1384	305.008
1387.59	194.043
1391.17	239.643
1394.75	304.734
1398.33	56.684
1401.91	301.271
1405.49	153.791
1409.06	265.396
1412.64	198.535
1416.21	214.277
1419.78	445.035
1423.35	164.615
1426.91	193.992
1430.48	243.469
1434.05	221.936
1437.61	153.496
1441.17	298.398
1444.73	478.07
1448.29	403.094
1451.84	859.43
1455.4	637.797
1458.95	841.785
1462.5	137.172
1466.05	243.109
1469.6	320.176
1473.15	133.809
1476.69	129.199
1480.24	180.973
1483.78	364.578
1487.32	195.082
1490.86	199.047
1494.39	260.508
1497.93	1.637
