Measurement: Raman, 514 nm, ccw, Raman Data Processed
Mineral: Diopside
Rruff sample: R040009
Ideal chemistry: CaMgSi_2_O_6_
Locality: Otter Lake, Quebec, Canada
Source: University of Arizona Mineral Museum
Description: Green square prismatic crystal associated with pale orange calcite
Measured chemistry: (Ca_0.97_Fe_0.02_Na_0.01_)_Σ=1_(Mg_0.97_Fe_0.02_Al_0.01_)_Σ=1_Si_2.00_O_6_; trace amounts of Mn and Ti
Pin_id: L00436
Orientation: Laser parallel to -b [0 -1 0]. Fiducial mark perpendicular to laser is parallel to -c* (0 0 -1)
Raman shift (cm-1)	intensity
98.947	0
103.124	27.236
107.3	154.356
111.473	90.775
115.644	374.199
119.813	319.807
123.981	210.471
128.146	283.318
132.309	557.15
136.47	1065.12
140.63	1108.62
144.787	760.149
148.942	326.4
153.096	152.175
157.247	151.493
161.396	95.47
165.544	87.626
169.689	195.695
173.833	337.238
177.974	845.492
182.114	1191.4
186.251	541.45
190.387	192.914
194.52	100.201
198.652	79.234
202.782	19.648
206.909	87.242
211.035	76.368
215.159	11.703
219.281	80.156
223.4	255.706
227.518	602.349
231.634	1452.08
235.748	1741.89
239.86	1061.78
243.97	687.725
248.079	1264.73
252.185	2618.79
256.289	2830.08
260.391	1391.52
264.492	508.651
268.59	175.048
272.687	23.261
276.781	12.302
280.874	36.586
284.964	50.884
289.053	92.354
293.14	135.325
297.225	318.992
301.308	494.197
305.389	824.953
309.468	1508.99
313.545	2650.18
317.62	5378.78
321.693	10492.3
325.765	12139.7
329.834	7617.9
333.902	3591.32
337.967	2072.79
342.031	1301.3
346.093	1003.85
350.153	916.428
354.21	974.031
358.267	1115.65
362.321	916.266
366.373	577.241
370.423	364.477
374.471	316.058
378.518	309.615
382.563	287.214
386.605	451.932
390.646	497.43
394.685	471.854
398.722	222.235
402.757	18.572
406.79	3.008
410.821	55.487
414.851	1.669
418.878	3.917
422.904	19.768
426.927	6.203
430.949	35.897
434.969	37.556
438.987	15.485
443.003	66.898
447.018	27.486
451.03	39.162
455.041	17.135
459.049	13.217
463.056	106.537
467.061	125.264
471.064	64.93
475.065	54.512
479.064	55.813
483.062	66.994
487.057	11.109
491.051	103.167
495.043	302.244
499.032	745.321
503.02	2296.38
507.007	5370.39
510.991	4672.33
514.973	2165.16
518.954	838.886
522.933	490.5
526.91	462.998
530.885	523.393
534.858	427.72
538.829	267.926
542.799	265.004
546.766	237.935
550.732	138.708
554.696	178.327
558.658	249.791
562.618	208.101
566.576	93.099
570.533	249.186
574.488	207.055
578.44	93.068
582.391	139.324
586.341	22.224
590.288	183.001
594.233	123.175
598.177	203.683
602.119	224.015
606.059	247.115
609.997	295.573
613.933	316.296
617.868	372.979
621.801	420.245
625.731	665.925
629.66	759.798
633.588	946.398
637.513	1184.39
641.437	1563.81
645.358	2083.01
649.278	3106.71
653.196	5143.38
657.113	9480.08
661.027	20281
664.94	36350
668.851	35811.1
672.76	20272.3
676.667	9888.69
680.572	5160.79
684.476	3225.73
688.378	2099.86
692.278	1473.94
696.176	1153.09
700.072	876.971
703.967	762.439
707.86	594.485
711.751	472.312
715.64	401.952
719.527	430.499
723.413	245.011
727.297	284.977
731.179	206.414
735.059	121.139
738.937	184.703
742.814	90.58
746.689	86.02
750.562	59.562
754.433	22.298
758.303	102.236
762.17	32.794
766.036	1.717
769.901	87.151
773.763	134.148
777.624	14.054
781.482	99.218
785.339	81.84
789.195	93.853
793.048	25.195
796.9	13.014
800.75	3.621
804.598	154.1
808.445	38.791
812.289	49.165
816.132	7.08
819.973	87.685
823.813	130.022
827.65	112.107
831.486	49.947
835.32	68.542
839.152	1.9
842.983	6.946
846.812	112.687
850.639	162.185
854.464	267.443
858.288	316.504
862.11	236.422
865.93	230.2
869.748	355.851
873.564	313.391
877.379	179.863
881.192	251.019
885.004	367.957
888.813	314.993
892.621	315.926
896.427	205.759
900.232	239.817
904.034	247.73
907.835	208.513
911.634	214.51
915.432	285.331
919.227	260.476
923.021	199.547
926.813	179.869
930.604	227.796
934.393	76.127
938.18	320.514
941.965	213.885
945.749	257.36
949.53	121.803
953.311	204.318
957.089	296.283
960.866	270.727
964.641	405.962
968.414	394.617
972.185	520.723
975.955	694.827
979.723	871.634
983.49	1164.17
987.254	1362.52
991.017	1871.23
994.779	2469.05
998.538	3825.35
1002.3	5963.45
1006.05	11730
1009.81	27875.8
1013.56	48031.5
1017.31	31044.7
1021.06	12660.7
1024.81	6192.71
1028.55	3724.93
1032.3	2596.8
1036.04	2158.58
1039.78	2038.62
1043.52	2160.82
1047.26	2374.25
1050.99	2006.72
1054.73	1320.93
1058.46	982.782
1062.19	672.957
1065.92	622.352
1069.65	400.673
1073.37	249.699
1077.1	282.943
1080.82	289.134
1084.54	378.411
1088.26	192.949
1091.97	214.81
1095.69	317.531
1099.4	229.66
1103.12	196.476
1106.83	42.115
1110.54	150.162
1114.24	131.69
1117.95	121.067
1121.65	176.222
1125.35	217.888
1129.06	150.743
1132.75	99.193
1136.45	270.627
1140.15	118.243
1143.84	19.282
1147.53	168.082
1151.22	718.311
1154.91	45.589
1158.6	47.861
1162.28	70.323
1165.97	72.646
1169.65	34.146
1173.33	54.546
1177.01	94.434
1180.69	73.21
1184.36	96.817
1188.04	168.338
1191.71	101.744
1195.38	78.705
1199.05	45.462
1202.71	184.906
1206.38	255.521
1210.04	115.109
1213.71	227.113
1217.37	149.803
1221.03	156.742
1224.68	130.543
1228.34	29.551
1231.99	174.762
1235.65	159.438
1239.3	30.281
1242.95	84.256
1246.59	226.639
1250.24	151.541
1253.88	216.561
1257.53	29.053
1261.17	40.398
1264.81	231.105
1268.45	87.426
1272.08	170.242
1275.72	114.037
1279.35	178.074
1282.98	12.412
1286.61	135.432
1290.24	43.01
1293.87	49.773
1297.49	92.561
1301.11	133.969
1304.73	19.869
1308.36	100.654
1311.97	58.566
1315.59	59.244
1319.2	61.752
1322.82	7.152
1326.43	218.047
1330.04	69.389
1333.65	195.211
1337.26	21.588
1340.86	86.678
1344.47	67.141
1348.07	264.135
1351.67	368.152
1355.27	188.586
1358.87	192.309
1362.46	84.254
1366.06	176.99
1369.65	221.633
1373.24	95.395
1376.83	87.598
1380.42	255.234
1384	309.764
1387.59	15.912
1391.17	398.643
1394.75	391.305
1398.33	234.713
1401.91	360.193
1405.49	86.51
1409.06	151.025
1412.64	229.729
1416.21	191.33
1419.78	288.609
1423.35	25.447
1426.91	214.389
1430.48	225.035
1434.05	154.207
1437.61	399.359
1441.17	296.059
1444.73	516.621
1448.29	295.176
1451.84	594.889
1455.4	614.176
1458.95	545.787
1462.5	7.791
1466.05	284.975
1469.6	133.123
1473.15	84.428
1476.69	13.746
1480.24	55.004
1483.78	273.953
1487.32	5.457
1490.86	167.502
1494.39	144.414
1497.93	0
