Measurement: Raman, 514 nm, ccw, Raman Data Processed
Mineral: Dioptase
Rruff sample: R040028
Ideal chemistry: CuSiO_3_H_2_O
Locality: Tantara mine, Democratic Republic of the Congo
Source: University of Arizona Mineral Museum
Description: Bluish green coarsely crystallized fragment
Measured chemistry: Cu_1.00_Si_1.00_O_3_Â·H_2_O; H_2_O estimated by difference
Pin_id: M00307
Orientation: Laser parallel to a* (1 0 0). Fiducial mark perpendicular to laser is parallel to b [0 1 0]
Raman shift (cm-1)	intensity
108.592	0
112.777	522.847
116.959	2147.6
121.14	2102.59
125.318	2205.73
129.495	5628.15
133.669	12656.6
137.841	7171.62
142.011	2869.62
146.179	305.997
150.345	155.315
154.509	33.498
158.671	1092.05
162.83	2514.19
166.988	787.679
171.144	14.5605
175.297	484.792
179.449	2401.61
183.598	1862.33
187.745	602.646
191.891	250.782
196.034	790.197
200.175	651.815
204.314	158.28
208.451	431.728
212.586	1006.99
216.719	2642.97
220.85	5979.85
224.979	10152.9
229.105	9174.66
233.23	5590.02
237.353	3094.75
241.474	2258.78
245.592	1652.2
249.709	158.19
253.823	218.247
257.936	97.8975
262.046	1801.58
266.155	6180.73
270.261	4618.24
274.365	1671.13
278.468	1019.09
282.568	1376.12
286.666	2469.66
290.762	5458.94
294.857	7583.82
298.949	4210.2
303.039	1355.17
307.127	247.926
311.213	138.372
315.297	267.232
319.379	104.878
323.46	792.453
327.538	1765.02
331.614	1166.62
335.688	524.721
339.76	474.18
343.83	623.112
347.898	1618.83
351.964	4311.25
356.028	14705.6
360.09	21501.8
364.15	8192.73
368.208	3301.86
372.264	1703.77
376.318	1310.98
380.37	1208.27
384.42	1505.09
388.468	2321.56
392.514	4047.63
396.558	8573.48
400.6	14189.1
404.641	10604.5
408.679	5589.76
412.715	4055.21
416.749	4437.37
420.781	5385.18
424.811	5595.15
428.84	5719.74
432.866	5761.62
436.89	5474.62
440.913	5026.03
444.933	4149.61
448.951	3635.64
452.968	3355.35
456.982	3109.51
460.995	2219.88
465.005	1443.45
469.014	1083.89
473.02	819.64
477.025	688.616
481.027	545.873
485.028	910.428
489.027	1298.6
493.024	1346.47
497.019	870.996
501.012	920.085
505.002	1093.26
508.992	1460.17
512.979	1677.1
516.964	2293.94
520.947	2790.72
524.928	2967.38
528.907	2794.03
532.885	2500.72
536.86	2217.38
540.834	1835.16
544.805	1341.68
548.775	938.201
552.742	744.672
556.708	761.117
560.672	1117.55
564.634	1283.98
568.594	1150.44
572.552	866.934
576.508	853.988
580.462	621.929
584.414	140.112
588.365	128.309
592.313	26.4482
596.26	25.75
600.204	78.5381
604.147	91.916
608.088	146.006
612.026	60.7217
615.963	45.9648
619.898	1.72754
623.832	102.205
627.763	216.231
631.692	317.576
635.619	436.483
639.545	393.263
643.469	700.634
647.39	1268.24
651.31	2456.06
655.228	4904.15
659.144	9522.57
663.058	10751.3
666.97	6410.37
670.881	3419.78
674.789	1900.02
678.696	970.152
682.6	412.007
686.503	394.659
690.404	238.629
694.303	299.872
698.2	81.6973
702.095	58.3145
705.989	190.614
709.88	154.398
713.77	207.486
717.658	132.731
721.543	251.556
725.427	295.912
729.31	550.688
733.19	1045.91
737.068	1651.58
740.945	2127.7
744.819	2594.06
748.692	2121.59
752.563	1417.6
756.432	1094.72
760.299	531.787
764.165	563.869
768.028	360.31
771.89	298.069
775.749	271.322
779.607	31.5781
783.463	113.941
787.318	206.988
791.17	240.721
795.02	325.133
798.869	200.23
802.716	206.027
806.561	272.448
810.404	239.764
814.245	257.709
818.085	236.394
821.922	4.16797
825.758	33.9502
829.592	12.9717
833.424	98.7656
837.254	231.265
841.083	154.477
844.909	108.404
848.734	16.8965
852.557	7.40723
856.378	213.681
860.197	80.7031
864.015	138.549
867.83	82.7861
871.644	133.321
875.456	196.897
879.266	237.945
883.074	59.8613
886.881	222.655
890.686	16.3301
894.488	260.891
898.29	306.35
902.089	552.791
905.886	730.375
909.682	1269.51
913.476	1679.27
917.268	1950.64
921.058	1483.28
924.846	1317.16
928.633	992.252
932.418	938.464
936.201	785.606
939.982	783.686
943.761	1042.7
947.539	1372.66
951.315	1783.54
955.089	2366.85
958.861	3269.66
962.631	2853.46
966.4	2028.23
970.167	1405.39
973.932	1154.18
977.695	1083.69
981.456	942.024
985.216	941.982
988.974	1230.86
992.73	1680.23
996.484	2399.63
1000.24	3782.83
1003.99	6997.26
1007.74	8998.55
1011.48	6404.85
1015.23	5031.09
1018.97	4647.64
1022.72	4273.63
1026.45	3432.2
1030.19	2683.31
1033.93	1955.34
1037.66	1458.23
1041.4	1141.98
1045.13	1036.58
1048.86	1092.03
1052.59	698.344
1056.31	545.486
1060.04	583.445
1063.76	412.227
1067.48	551.793
1071.2	462.131
1074.92	513.248
1078.63	275.117
1082.35	257.709
1086.06	101.045
1089.77	16.5879
1093.47	182.713
1097.18	88.2334
1100.89	165.427
1104.59	215.215
1108.29	97.6318
1111.99	60.0488
1115.69	50.9746
1119.38	20.0039
1123.08	56.9766
1126.77	185.853
1130.46	138.272
1134.15	127.233
1137.84	152.784
1141.53	73.1406
1145.21	64.7314
1148.89	149.746
1152.57	288.519
1156.25	129.011
1159.93	293.103
1163.61	224.765
1167.28	68.4356
1170.95	107.864
1174.62	141.842
1178.29	161.448
1181.96	349.473
1185.62	368.471
1189.28	257.556
1192.95	186.834
1196.61	99.0166
1200.26	90.1484
1203.92	119.841
1207.58	142.317
1211.23	263.957
1214.88	254.662
1218.53	216.236
1222.18	120.202
1225.82	71.1523
1229.47	82.5596
1233.11	10.9346
1236.75	82.8672
1240.39	115.995
1244.03	255.836
1247.66	59.6641
1251.3	122.426
1254.93	128.075
1258.56	53.5693
1262.19	8.31934
1265.82	51.6885
1269.45	71.8711
1273.07	114.367
1276.69	56.8857
1280.31	189.152
1283.93	171.281
1287.55	83.5469
1291.16	44.8359
1294.78	34.2256
1298.39	13.3818
1302	166.756
1305.61	17.3223
1309.22	12.2979
1312.82	117.801
1316.43	7.61035
1320.03	67.0478
1323.63	106.302
1327.23	75.0459
1330.83	83.5244
1334.42	111.758
1338.02	129.736
1341.61	67.8965
1345.2	164.942
1348.79	252.309
1352.38	91.376
1355.96	162.065
1359.55	164.54
1363.13	33.7695
1366.71	163.615
1370.29	133.658
1373.86	6.18066
1377.44	143.983
1381.01	120.48
1384.59	51.8565
1388.16	103.959
1391.72	134.71
1395.29	79.4209
1398.86	99.4981
1402.42	11.5537
1405.98	82.4502
1409.55	122.114
1413.11	69.9316
1416.66	163.428
1420.22	208.631
1423.77	201.328
1427.32	205.874
1430.88	184.653
1434.42	195.291
1437.97	258.036
1441.52	167.978
1445.06	313.585
1448.61	195.491
1452.15	185.048
1455.68	265.539
1459.22	321.2
1462.76	265.334
1466.29	259.431
1469.83	260.835
1473.36	202.856
1476.89	189.494
1480.41	84.6138
1483.94	156.325
1487.47	38.3628
1490.99	46.0869
1494.51	121.769
1498.03	34.0547
1501.55	39.3418
1505.07	22.4434
1508.58	13.3711
1512.09	59.4087
1515.61	65.6977
1519.12	146.243
1522.62	65.7983
1526.13	45.7778
