Measurement: Raman, 514 nm, ccw, Raman Data Processed
Mineral: Diopside
Rruff sample: R060171
Ideal chemistry: CaMgSi_2_O_6_
Locality: Jeffrey mine, Asbestos, Quebec, Canada
Source: Guy Ouellet
Description: Yellowish-brown tabular crystals associated with vesuvianite, R060170
Measured chemistry: Ca_1.00_(Mg_0.98_Mn_0.02_)_Î£=1_Si_2.00_O_6_
Pin_id: M00055
Orientation: Laser parallel to c* (0 0 1). Fiducial mark perpendicular to laser is parallel to a [1 0 0]
Raman shift (cm-1)	intensity
123.058	0
127.979	70.8691
132.898	76.792
137.814	267.005
142.728	236.645
147.639	81.3398
152.549	107.21
157.455	230.276
162.359	494.714
167.261	444.531
172.161	441.423
177.058	848.352
181.952	1126.19
186.845	610.879
191.734	719.206
196.622	522.493
201.507	190.897
206.389	3.70557
211.269	31.2891
216.147	160.496
221.022	526.044
225.895	1304.33
230.765	1667.6
235.633	1176.19
240.498	423.244
245.361	358.984
250.222	578.227
255.08	730.964
259.936	219.175
264.789	151.846
269.64	25.2153
274.488	91.6582
279.334	37.21
284.178	85.4912
289.019	231.399
293.857	501.9
298.693	1252.59
303.527	1827.04
308.358	2697.71
313.187	6156.35
318.013	10946.5
322.837	15145.1
327.659	7767.26
332.478	2559.9
337.294	1263.04
342.108	1084.98
346.92	1784.63
351.729	3236.16
356.535	3622.93
361.34	1924.51
366.141	1192.38
370.94	1526.54
375.737	2601.99
380.531	7181.69
385.323	13813.6
390.113	16523.8
394.9	7853.13
399.684	2529.69
404.466	1090.44
409.245	438.637
414.022	402.74
418.797	237.2
423.569	184.194
428.338	119.948
433.105	6.30371
437.87	14.834
442.632	85.6328
447.391	15.8398
452.149	188.96
456.903	326.157
461.655	561.889
466.405	473.06
471.152	168.189
475.897	20.2637
480.639	12.4297
485.378	169.299
490.116	12.4453
494.85	8.65137
499.582	87.0527
504.312	144.842
509.039	238.737
513.764	350.749
518.486	621.875
523.206	1134.12
527.923	1606.46
532.638	1047.9
537.35	435.432
542.059	261.077
546.766	545.852
551.471	1363.74
556.173	2848.72
560.873	1983.78
565.57	588.903
570.264	176.082
574.957	112.23
579.646	147.857
584.333	98.0332
589.018	95.542
593.7	92.4941
598.379	116.572
603.056	134.322
607.73	28.0078
612.402	92.1211
617.072	136.991
621.739	247.815
626.403	340.53
631.065	219.347
635.724	358.654
640.381	552.194
645.035	988.805
649.687	1924.3
654.336	3983.4
658.983	8868.27
663.627	14287.4
668.268	11115.1
672.907	5039.24
677.544	2031.11
682.178	1177.19
686.809	710.883
691.438	412.434
696.065	361.565
700.688	169.822
705.31	212.741
709.929	149.046
714.545	110.176
719.158	140.095
723.77	162.932
728.378	6.45898
732.984	135.577
737.588	11.8428
742.189	106.022
746.787	59.2637
751.383	50.2373
755.976	122.699
760.567	33.1065
765.155	5.61719
769.741	35.1865
774.324	109.287
778.904	97.6103
783.482	75.9932
788.058	87.3447
792.631	155.299
797.201	14.1074
801.769	131.102
806.334	23.4668
810.897	122.201
815.457	31.4141
820.014	107.213
824.569	58.3994
829.122	31.2637
833.671	4.14551
838.219	123.132
842.763	139.231
847.306	398.087
851.845	880.698
856.382	629.062
860.917	193.198
865.448	71.9863
869.978	93.9619
874.505	206.864
879.029	151.947
883.55	123.191
888.069	8.31543
892.586	153.311
897.1	136.867
901.611	23.4375
906.12	124.488
910.626	46.1924
915.129	9.9248
919.63	204.052
924.129	86.0254
928.625	15.8555
933.118	108.767
937.609	120.922
942.097	73.8457
946.582	95.2412
951.065	215.601
955.546	331.048
960.023	242.514
964.499	286.103
968.971	214.95
973.441	354.08
977.909	435.582
982.374	755.709
986.836	877.621
991.295	1345.27
995.753	2416.1
1000.21	4661.24
1004.66	13642.8
1009.11	36371.5
1013.55	42849.6
1018	16486.7
1022.44	5361.49
1026.88	2727.77
1031.32	1989.64
1035.75	1531.96
1040.18	2370.53
1044.61	4038.38
1049.04	3835.03
1053.46	1746.01
1057.88	762.12
1062.3	393.059
1066.71	294.319
1071.13	318.712
1075.54	189.125
1079.94	212.689
1084.35	251.855
1088.75	135.07
1093.15	111.926
1097.55	3.84375
1101.94	11.7315
1106.34	50.6299
1110.73	85.2129
1115.11	110.071
1119.5	239.8
1123.88	149.803
1128.26	122.964
1132.63	39.623
1137.01	93.001
1141.38	147.855
1145.75	186.825
1150.12	97.2022
1154.48	206.734
1158.84	59.6641
1163.2	26.9268
1167.55	141.342
1171.91	151.289
1176.26	148.368
1180.61	81.8398
1184.95	69.9834
1189.29	88.9268
1193.63	88.7607
1197.97	66.6768
1202.31	156.63
1206.64	175.841
1210.97	105.329
1215.29	175.182
1219.62	24.6377
1223.94	106.644
1228.26	94.4756
1232.57	131.109
1236.89	178.423
1241.2	137.481
1245.51	138.825
1249.81	211.945
1254.12	199.807
1258.42	41.916
1262.72	215.715
1267.01	210.311
1271.3	47.8555
1275.59	134.507
1279.88	153.065
1284.17	253.008
1288.45	165.362
1292.73	198.136
1297.01	181.92
1301.28	153.121
1305.55	317.034
1309.82	255.988
1314.09	214.821
1318.35	339.667
1322.61	356.806
1326.87	39.3193
1331.13	414.383
1335.38	177.472
1339.63	247.894
1343.88	167.151
1348.12	334.612
1352.37	342.93
1356.61	180.486
1360.85	253.086
1365.08	220.51
1369.31	227.072
1373.54	354.012
1377.77	93.7402
1381.99	114.897
1386.22	173.807
1390.43	148.348
1394.65	78.1875
1398.87	112.231
1403.08	139.668
1407.29	130.82
1411.49	3.28711
1415.69	122.186
1419.89	178.859
1424.09	229.162
1428.29	174.496
1432.48	106.9
1436.67	5.47852
1440.86	226.738
1445.04	16.9004
1449.23	132.484
1453.4	168.457
1457.58	271.912
1461.76	166.231
1465.93	151.647
1470.1	75.9258
1474.26	41.1738
1478.43	16.4805
1482.59	147.816
1486.75	5.70117
1490.9	189.57
1495.06	184.26
1499.21	280.203
1503.35	170.838
1507.5	217.481
1511.64	169.853
1515.78	106.701
1519.92	170.565
1524.05	273.35
1528.18	272.148
1532.31	10.8848
1536.44	84.5273
1540.56	156.953
1544.69	126.891
1548.8	60.0156
1552.92	220.291
1557.03	118.014
1561.14	45.5898
1565.25	8.35742
1569.36	124.695
