Measurement: Raman, 514 nm, ccw, Raman Data Processed
Mineral: Diopside
Rruff sample: R060276
Ideal chemistry: CaMgSi_2_O_6_
Locality: Inagli, Yakutia, Siberia, Russia
Source: Herb Obodda
Description: Transparent green cleavage fragment
Measured chemistry: (Ca_0.97_Na_0.03_)_Σ=1_(Mg_0.96_Fe_0.03_Cr_0.01_)_Σ=1_(Si_1.98_Al_0.02_)_Σ=2_O_6_
Pin_id: L01812
Orientation: Laser parallel to -c* (0 0 -1). Fiducial mark perpendicular to laser is parallel to -a [-1 0 0]
Raman shift (cm-1)	intensity
109.512	0
114.44	199.236
119.365	6.22144
124.288	38.2332
129.209	560.898
134.127	1406.31
139.043	2198.09
143.956	1031.46
148.867	213.154
153.775	83.0549
158.681	360.147
163.585	946.005
168.486	624.107
173.385	289.71
178.282	497.846
183.176	567.566
188.067	540.688
192.956	850.616
197.843	704.744
202.727	229.823
207.609	31.8823
212.489	133.571
217.366	747.434
222.24	2107.55
227.112	4073.84
231.982	3410.57
236.849	1437.69
241.714	636.303
246.577	539.401
251.437	770.981
256.294	752.823
261.149	262.205
266.002	27.1287
270.852	69.0322
275.7	55.1113
280.545	65.8948
285.388	208.593
290.229	748.94
295.067	1811.33
299.902	3262.64
304.735	3719.08
309.566	4495.41
314.394	7254.23
319.22	12114.6
324.043	14863.5
328.864	10442.6
333.682	5063.18
338.498	3127.68
343.311	3309.23
348.122	5571.4
352.931	9352.16
357.737	10036.6
362.54	7204.52
367.341	5048.7
372.14	3938.18
376.936	4800.95
381.73	9603.01
386.521	17177.4
391.31	19413
396.096	11880.9
400.88	4686.03
405.661	1821.46
410.44	888.223
415.216	529.63
419.99	324.375
424.761	231.122
429.53	132.116
434.297	2.62305
439.061	41.1685
443.822	1.65381
448.581	18.5098
453.337	234.448
458.091	440.31
462.843	818.495
467.592	683.249
472.338	342.29
477.082	58.3843
481.824	126.655
486.563	98.1519
491.3	79.7803
496.034	85.5478
500.765	66.4365
505.494	276.425
510.221	473.548
514.945	522.758
519.666	708.093
524.385	1083.65
529.102	1456.71
533.816	1349.45
538.527	963.755
543.236	910.109
547.943	1399.46
552.647	2978.8
557.348	4605.18
562.047	3350.74
566.744	1441.3
571.438	579.756
576.129	425.821
580.818	188.981
585.504	111.241
590.188	52.1577
594.87	49.8667
599.549	41.8364
604.225	12.581
608.899	102.478
613.57	68.2519
618.239	224.805
622.905	325.938
627.569	521.027
632.23	793.564
636.889	1027.94
641.545	1682.93
646.198	2639.79
650.849	4893.18
655.498	10822.2
660.144	22808.6
664.787	32899.1
669.428	25179.2
674.067	11707.5
678.703	5296.03
683.336	2700.78
687.967	1627.56
692.595	1146.43
697.221	806.468
701.844	609.561
706.465	629.112
711.083	406.162
715.698	293.713
720.311	270.816
724.922	1.99365
729.53	52.9023
734.135	60.1938
738.738	8.30566
743.338	15.4624
747.936	3.10498
752.531	40.2524
757.124	19.1201
761.714	100.337
766.302	112.003
770.887	256.241
775.469	104.078
780.049	71.5176
784.626	73.5391
789.201	46.082
793.773	4.94629
798.343	13.167
802.91	2.67139
807.475	76.1553
812.037	65.9805
816.596	32.8872
821.153	32.1748
825.707	65.1665
830.259	33.1421
834.808	6.25537
839.355	403.409
843.899	684.382
848.441	2183.19
852.98	3323.93
857.516	3132.38
862.05	1849.41
866.581	1070.04
871.11	1014.46
875.636	980.457
880.159	851.07
884.68	905.162
889.199	856.36
893.714	950.539
898.228	942.347
902.738	825.088
907.246	707.279
911.752	731.725
916.255	662.547
920.755	601.828
925.253	495.003
929.748	407.974
934.241	418.902
938.731	292.007
943.218	172.211
947.703	282.403
952.186	328.923
956.665	459.485
961.142	710.94
965.617	915.201
970.089	1122.14
974.558	1332.98
979.025	1672.14
983.489	2052.65
987.951	2561.53
992.41	3608.76
996.866	6044.41
1001.32	12179.6
1005.77	27963.3
1010.22	52914.5
1014.67	50107.2
1019.11	22052.4
1023.55	9098.13
1027.99	5406.31
1032.42	4391.46
1036.86	4733.73
1041.29	6640.28
1045.72	8365.35
1050.14	6833.75
1054.56	3837.09
1058.98	2269.27
1063.4	1557.57
1067.82	1193.84
1072.23	831.114
1076.64	721.037
1081.05	565.95
1085.45	588.446
1089.85	489.596
1094.25	493.921
1098.65	404.077
1103.04	569.657
1107.43	349.126
1111.82	413.864
1116.21	536.797
1120.59	527.289
1124.97	674.368
1129.35	515.447
1133.73	525.25
1138.1	383.394
1142.47	356.385
1146.84	280.782
1151.21	212.606
1155.57	96.1152
1159.93	55.4941
1164.29	51.5488
1168.64	45.3506
1172.99	30.9321
1177.34	22.2812
1181.69	23.5488
1186.04	57.2212
1190.38	3.79297
1194.72	39.4971
1199.05	56.063
1203.39	2.42285
1207.72	66.521
1212.05	39.3813
1216.37	91.811
1220.7	88.2861
1225.02	8.8833
1229.34	20.6445
1233.65	121.143
1237.97	132.115
1242.28	149.764
1246.59	140.995
1250.89	109.538
1255.19	112.088
1259.49	154.959
1263.79	178.878
1268.09	191.872
1272.38	189.09
1276.67	133.98
1280.95	208.321
1285.24	351.334
1289.52	206.507
1293.8	321.04
1298.08	276.539
1302.35	131.096
1306.62	69.5029
1310.89	134.089
1315.15	148.911
1319.42	254.867
1323.68	290.211
1327.94	207.978
1332.19	224.44
1336.44	297.985
1340.69	387.21
1344.94	269.067
1349.19	247.709
1353.43	292.377
1357.67	179.468
1361.9	217.054
1366.14	171.444
1370.37	128.959
1374.6	129.869
1378.83	45.9395
1383.05	125.664
1387.27	212.632
1391.49	152.226
1395.7	122.434
1399.92	189.557
1404.13	178.657
1408.34	46.206
1412.54	130.768
1416.74	106.101
1420.94	80.6279
1425.14	11.0977
1429.34	68.9981
1433.53	92.1523
1437.72	28.4395
1441.9	63.8203
1446.09	12.1035
1450.27	30.9033
1454.45	28.1943
1458.63	76.04
1462.8	32.0635
1466.97	33.3984
1471.14	62.2725
1475.31	112.897
1479.47	134.265
1483.63	134.215
1487.79	85.2803
1491.94	206.709
1496.09	105.405
1500.24	178.328
1504.39	75.3818
1508.54	157.65
1512.68	195.658
1516.82	165.699
1520.95	210.536
1525.09	137.469
1529.22	24.0869
1533.35	282.012
1537.47	131.633
1541.6	137.497
1545.72	79.292
1549.83	9.74414
1553.95	135.447
1558.06	84.2432
1562.17	7.39062
1566.28	105.867
1570.38	100.727
