Measurement: Raman, 514 nm, ccw, Raman Data Processed
Mineral: Diopside
Rruff sample: R050406
Ideal chemistry: CaMgSi_2_O_6_
Locality: unknown
Source: University of Arizona Mineral Museum
Description: Brownish gray massive
Measured chemistry: (Ca_0.95_Na_0.05_)(Mg_0.75_Fe^2+^_0.18_Fe^3+^_0.05_Al_0.01_Ti_0.01_Mn^2+^_0.01_)(Si_0.98_Al_0.02_)_2_O_6_
Pin_id: M00100
Orientation: Laser parallel to (1 0 1). Fiducial mark perpendicular to laser is parallel to -b [0 -1 0]
Raman shift (cm-1)	intensity
94.714	0
99.649	189.597
104.582	417.612
109.512	1583.79
114.44	749.894
119.365	265.625
124.288	346.301
129.209	462.451
134.127	798.947
139.043	635.543
143.956	122.254
148.867	89.6816
153.775	41.3711
158.681	17.0059
163.585	72.6948
168.486	245.613
173.385	729.304
178.282	1288.68
183.176	381.114
188.067	219.123
192.956	260.755
197.843	283.166
202.727	324.107
207.609	209.397
212.489	351.13
217.366	654.296
222.24	963.849
227.112	1491.76
231.982	1103.98
236.849	510.478
241.714	487.462
246.577	564.609
251.437	529.902
256.294	273.659
261.149	251.334
266.002	51.3784
270.852	66.728
275.7	114.114
280.545	135.556
285.388	344.356
290.229	738.136
295.067	1388.5
299.902	2319.6
304.735	4120.61
309.566	7245.24
314.394	13675.1
319.22	20165.4
324.043	16807
328.864	10374.5
333.682	6287.59
338.498	4272.83
343.311	3327.03
348.122	3104.37
352.931	3178.42
357.737	2993.17
362.54	3175.58
367.341	3916.64
372.14	5906.31
376.936	11097.6
381.73	20509.4
386.521	27147.8
391.31	17309
396.096	7750.99
400.88	3411.66
405.661	1800
410.44	1179.42
415.216	972.902
419.99	543.457
424.761	242.272
429.53	217.578
434.297	47.4019
439.061	84.3867
443.822	34.937
448.581	110.365
453.337	142.38
458.091	350.951
462.843	341.125
467.592	298.464
472.338	263.243
477.082	271.763
481.824	278.333
486.563	320.758
491.3	340.398
496.034	346.209
500.765	383.155
505.494	608.211
510.221	863.352
514.945	1319.56
519.666	2026.81
524.385	2926.08
529.102	2635.46
533.816	1693.94
538.527	1184.49
543.236	1097.05
547.943	1055.54
552.647	1136.97
557.348	1148.34
562.047	1015.79
566.744	830.174
571.438	754.383
576.129	656.428
580.818	350.383
585.504	62.8701
590.188	66.7773
594.87	22.9434
599.549	68.6694
604.225	4.7793
608.899	78.6465
613.57	169.736
618.239	130.958
622.905	291.129
627.569	474.349
632.23	646.788
636.889	856.835
641.545	1228.9
646.198	2012.41
650.849	3574.28
655.498	7669.68
660.144	15381.6
664.787	19658.8
669.428	11809
674.067	5915.82
678.703	3152.48
683.336	1870.96
687.967	1202.46
692.595	906.88
697.221	699.959
701.844	581.881
706.465	423.024
711.083	320.101
715.698	207.648
720.311	163.744
724.922	154.598
729.53	225.124
734.135	28.6826
738.738	86.375
743.338	80.3555
747.936	42.8252
752.531	16.5098
757.124	70.9297
761.714	27.0205
766.302	80.5537
770.887	19.7124
775.469	25.5215
780.049	32.0386
784.626	32.2842
789.201	152.282
793.773	82.0527
798.343	46.6177
802.91	105.023
807.475	8.86328
812.037	20.4009
816.596	56.5903
821.153	44.4341
825.707	45.6108
830.259	37.082
834.808	64.541
839.355	5.896
843.899	36.4287
848.441	212.739
852.98	353.005
857.516	500.286
862.05	462.43
866.581	587.953
871.11	636.625
875.636	660.944
880.159	783.572
884.68	874.683
889.199	797.395
893.714	759.317
898.228	780.227
902.738	684.264
907.246	672.097
911.752	363.034
916.255	443.775
920.755	472.036
925.253	493.879
929.748	439.144
934.241	338.959
938.731	319.527
943.218	316.963
947.703	387.806
952.186	600.877
956.665	786.956
961.142	1011.25
965.617	1306.58
970.089	1569.63
974.558	1846.99
979.025	2311.52
983.489	2824.01
987.951	3618.02
992.41	5375.55
996.866	9051.65
1001.32	16262.3
1005.77	32633.6
1010.22	56267.5
1014.67	44166.9
1019.11	19136
1023.55	9141.92
1027.99	5682.18
1032.42	4583.68
1036.86	4208.1
1041.29	4084.61
1045.72	3603.12
1050.14	3042.83
1054.56	2393.44
1058.98	2074.39
1063.4	1756.9
1067.82	1553.96
1072.23	1273.5
1076.64	1044.62
1081.05	963.317
1085.45	941.237
1089.85	790.863
1094.25	789.677
1098.65	709.13
1103.04	675.98
1107.43	579.983
1111.82	676.39
1116.21	729.891
1120.59	900.384
1124.97	1053.46
1129.35	696.12
1133.73	657.952
1138.1	514.857
1142.47	322.244
1146.84	225.52
1151.21	175.432
1155.57	16.4976
1159.93	76.4917
1164.29	20.7964
1168.64	30.4565
1172.99	22.7319
1177.34	66.1865
1181.69	63.5513
1186.04	34.2598
1190.38	4.10596
1194.72	2.19287
1199.05	30.8984
1203.39	18.3491
1207.72	9.06104
1212.05	66.1562
1216.37	0.988281
1220.7	76.0405
1225.02	37.8433
1229.34	39.3633
1233.65	61.5923
1237.97	121.592
1242.28	58.3672
1246.59	156.868
1250.89	59.0996
1255.19	116.457
1259.49	104.147
1263.79	136.567
1268.09	114.42
1272.38	70.8227
1276.67	198.554
1280.95	187.94
1285.24	105.048
1289.52	158.093
1293.8	105.174
1298.08	92.2729
1302.35	58.2622
1306.62	126.97
1310.89	139.699
1315.15	126.605
1319.42	106.95
1323.68	137.971
1327.94	187.914
1332.19	151.102
1336.44	211.743
1340.69	128.872
1344.94	200.778
1349.19	165.408
1353.43	188.584
1357.67	82.2266
1361.9	221.768
1366.14	142.148
1370.37	152.048
1374.6	69.1265
1378.83	155.934
1383.05	120.471
1387.27	142.283
1391.49	79.8857
1395.7	150.402
1399.92	112.214
1404.13	122.58
1408.34	175.853
1412.54	154.162
1416.74	119.056
1420.94	128.154
1425.14	49.3848
1429.34	63.7759
1433.53	76.8892
1437.72	52.606
1441.9	88.3574
1446.09	99.4248
1450.27	78.9561
1454.45	62.6616
1458.63	117.615
1462.8	59.1103
1466.97	51.4883
1471.14	37.915
1475.31	35.397
1479.47	3.11475
1483.63	71.7163
1487.79	103.018
1491.94	68.7896
1496.09	71.71
1500.24	39.3359
1504.39	42.8057
1508.54	142.697
1512.68	88.2085
1516.82	52.9941
1520.95	48.6963
1525.09	190.547
1529.22	13.9399
1533.35	72.1792
1537.47	200.48
1541.6	227.387
1545.72	116.133
1549.83	187.359
1553.95	205.505
1558.06	214.732
1562.17	86.4863
1566.28	34.8374
1570.38	37.6929
