Measurement: Raman, 514 nm, ccw, Raman Data Processed
Mineral: Diopside
Rruff sample: R070123
Ideal chemistry: CaMgSi_2_O_6_
Locality: Yates mine, Otter Lake, Huddersfield Township, Pontiac County, Québec, Canada
Source: Michael Scott
Description: Black prismatic crystals associated with orange calcite
Measured chemistry: (Ca_0.95_Na_0.04_Mn_0.01_)_Σ=1_(Mg_0.63_Fe_0.33_Al_0.04_)_Σ=1_Si_2.00_O_6_
Pin_id: M01164
Orientation: Laser parallel to c* (0 0 1). Fiducial mark perpendicular to laser is parallel to a [1 0 0]
Raman shift (cm-1)	intensity
119.772	0
124.722	73.7074
129.67	58.3121
134.615	193.256
139.556	244.163
144.495	29.9534
149.431	55.2372
154.364	177.529
159.294	326.846
164.221	482.74
169.145	487.228
174.066	453.375
178.984	532.154
183.9	596.795
188.812	622.691
193.722	502.069
198.628	365.879
203.532	243.364
208.433	16.5596
213.331	65.866
218.226	191.813
223.118	420.46
228.007	532.838
232.893	719.946
237.777	595.779
242.657	654.321
247.535	677.56
252.41	734.478
257.281	757.056
262.15	645.274
267.017	455.747
271.88	447.943
276.74	482.836
281.598	535.236
286.453	773.259
291.304	1198.78
296.153	1661.46
301	2351.82
305.843	3272.56
310.683	4679.15
315.521	6210.57
320.356	7521.7
325.188	6609.45
330.017	4656.73
334.843	3624.5
339.666	3478.74
344.487	4097.44
349.305	5407.59
354.12	5820.16
358.932	4240.08
363.741	2875.45
368.548	2454.19
373.352	2980.3
378.153	4881.76
382.951	7342.55
387.746	9026.67
392.539	6509.12
397.328	2937.86
402.115	1279.9
406.899	642.226
411.681	373.827
416.459	245.824
421.235	72.2369
426.008	22.9758
430.779	105.982
435.546	59.1421
440.311	3.36353
445.073	47.6022
449.832	314.108
454.588	461.174
459.342	498.689
464.093	353.336
468.841	268.797
473.587	141.663
478.329	98.7944
483.069	100.082
487.806	59.488
492.541	133.99
497.272	218.573
502.001	331.225
506.728	482.93
511.451	613.674
516.172	684.443
520.89	911.253
525.605	1075.15
530.318	1194.29
535.028	1055.56
539.735	927.858
544.44	1086.11
549.141	1742.3
553.841	2951.4
558.537	3351.41
563.231	1832.31
567.922	895.065
572.61	514.162
577.296	275.643
581.979	169.883
586.659	51.7156
591.336	11.7415
596.011	24.8292
600.683	5.11572
605.353	92.7213
610.02	243.927
614.684	307.697
619.345	467.257
624.004	679.674
628.661	860.251
633.314	1165.45
637.965	1710.69
642.613	2284.81
647.259	3770.95
651.902	6665.73
656.542	13554.1
661.18	24521.8
665.815	29102.6
670.447	17908
675.077	8212.34
679.704	4031.92
684.328	2228.97
688.95	1438.6
693.569	966.827
698.186	685.683
702.8	459.353
707.411	335.364
712.02	235.087
716.626	112.664
721.23	104.979
725.83	25.8494
730.429	21.5989
735.024	24.3026
739.618	59.4203
744.208	49.3037
748.796	19.1003
753.381	21.3441
757.964	38.3074
762.544	40.9453
767.122	90.3084
771.697	107.419
776.269	104.297
780.839	88.959
785.406	65.4235
789.971	58.7081
794.533	2.17065
799.093	9.29285
803.65	95.132
808.204	22.9273
812.756	14.3935
817.305	15.9533
821.852	93.2297
826.396	28.4683
830.938	19.6874
835.477	20.0951
840.013	100.124
844.547	302.378
849.079	1109.68
853.608	1997.79
858.134	1783.58
862.658	1135.22
867.179	895.56
871.698	798.909
876.214	828.439
880.728	853.54
885.239	1033.38
889.748	1034.03
894.254	1107.93
898.758	1114.58
903.259	1032.07
907.758	953.141
912.254	851.811
916.748	799.104
921.239	712.974
925.728	648.354
930.214	569.145
934.698	429.844
939.179	359.043
943.657	447.468
948.134	485.305
952.607	751.971
957.079	1015.11
961.548	1267.83
966.014	1490.1
970.478	1710.6
974.939	2000.92
979.398	2296.76
983.854	2639.11
988.308	3152.96
992.76	4299.33
997.209	6820.28
1001.65	12776.9
1006.1	26372.2
1010.54	47238.4
1014.98	44189.5
1019.42	19966.4
1023.85	9696.94
1028.28	6606.31
1032.71	5988.02
1037.14	6651.52
1041.56	7491.8
1045.99	6406.78
1050.41	4015.38
1054.82	2598.81
1059.24	1730.17
1063.65	1286.92
1068.06	937.626
1072.47	780.506
1076.87	695.062
1081.28	635.933
1085.68	567.81
1090.08	570.46
1094.47	486.282
1098.86	552.99
1103.25	488.452
1107.64	548.099
1112.03	472.792
1116.41	531.289
1120.79	567.66
1125.17	583.118
1129.55	544.634
1133.92	487.113
1138.29	411.624
1142.66	280.124
1147.03	225.617
1151.39	95.05
1155.76	4.41858
1160.12	35.3002
1164.47	35.2806
1168.83	71.587
1173.18	54.522
1177.53	59.1031
1181.88	37.3057
1186.22	9.04211
1190.57	10.8592
1194.91	8.3584
1199.25	14.2283
1203.58	22.6627
1207.92	3.27991
1212.25	37.672
1216.58	10.7571
1220.9	12.2916
1225.23	49.9124
1229.55	27.1835
1233.87	67.0936
1238.19	75.6885
1242.5	114.983
1246.81	105.974
1251.12	111.66
1255.43	109.043
1259.74	141.119
1264.04	123.884
1268.34	143.338
1272.64	143.478
1276.94	171.305
1281.23	168.814
1285.52	144.281
1289.81	159.457
1294.1	158.669
1298.39	146.947
1302.67	136.827
1306.95	146.809
1311.23	144.913
1315.5	136.709
1319.78	153.05
1324.05	170.012
1328.32	154.074
1332.58	144.035
1336.85	197.299
1341.11	144.68
1345.37	165.155
1349.63	122.694
1353.88	113.839
1358.13	120.151
1362.38	116.293
1366.63	100.433
1370.88	90.6417
1375.12	93.8262
1379.36	114.129
1383.6	59.2542
1387.84	103.271
1392.08	101.19
1396.31	78.0115
1400.54	66.9224
1404.77	52.5609
1408.99	59.1016
1413.21	75.5273
1417.44	45.9196
1421.66	37.3529
1425.87	56.0725
1430.09	24.7033
1434.3	46.4956
1438.51	32.8322
1442.72	54.2941
1446.92	8.1532
1451.13	34.0429
1455.33	52.1518
1459.53	23.5811
1463.72	13.196
1467.92	17.8596
1472.11	38.5111
1476.3	12.1694
1480.49	34.8591
1484.67	31.6028
1488.86	13.4352
1493.04	12.2135
1497.22	40.1485
1501.39	18.3143
1505.57	36.6829
1509.74	49.9529
1513.91	22.8347
1518.08	57.8156
1522.25	20.476
1526.41	6.78284
1530.57	45.5915
1534.73	11.7285
1538.89	33.6246
1543.04	23.1155
1547.2	4.90509
1551.35	43.4667
1555.49	98.0374
1559.64	20.2334
1563.79	21.0663
