Measurement: Raman, 514 nm, ccw, Raman Data Processed
Mineral: Diopside
Rruff sample: R060171
Ideal chemistry: CaMgSi_2_O_6_
Locality: Jeffrey mine, Asbestos, Quebec, Canada
Source: Guy Ouellet
Description: Yellowish-brown tabular crystals associated with vesuvianite, R060170
Measured chemistry: Ca_1.00_(Mg_0.98_Mn_0.02_)_Î£=1_Si_2.00_O_6_
Pin_id: M00055
Orientation: Laser parallel to c* (0 0 1). Fiducial mark perpendicular to laser is parallel to a [1 0 0]
Raman shift (cm-1)	intensity
123.058	0
127.979	41.8926
132.898	116.191
137.814	209.297
142.728	251.799
147.639	114.079
152.549	123.031
157.455	51.4512
162.359	466.735
167.261	316.492
172.161	124.546
177.058	144.012
181.952	440.732
186.845	336.62
191.734	728.524
196.622	655.178
201.507	244.462
206.389	67.8525
211.269	11.1265
216.147	82.71
221.022	239.985
225.895	667.623
230.765	1232.68
235.633	634.487
240.498	212.016
245.361	102.959
250.222	490.158
255.08	572.612
259.936	201.31
264.789	101.246
269.64	11.1714
274.488	84.8799
279.334	1.49463
284.178	18.8091
289.019	95.2896
293.857	257.859
298.693	754.825
303.527	1375.47
308.358	1993.8
313.187	2337.6
318.013	3940.71
322.837	6640.1
327.659	3547.75
332.478	1140.64
337.294	541.019
342.108	466.393
346.92	876.242
351.729	2093.75
356.535	3209.2
361.34	1645.21
366.141	757.382
370.94	553.705
375.737	759.175
380.531	1690.78
385.323	4494.52
390.113	6817.36
394.9	4269.33
399.684	1529.41
404.466	547.591
409.245	264.879
414.022	184.833
418.797	95.2559
423.569	101.495
428.338	31.3506
433.105	3.21094
437.87	14.8027
442.632	39.1572
447.391	30.771
452.149	167.644
456.903	275.501
461.655	643.73
466.405	407.093
471.152	240.6
475.897	7.79443
480.639	51.1699
485.378	51.3203
490.116	5.12598
494.85	86.6699
499.582	60.7173
504.312	182.25
509.039	354.887
513.764	237.678
518.486	234.597
523.206	157.601
527.923	405.744
532.638	220.007
537.35	214.333
542.059	156.724
546.766	322.185
551.471	900.753
556.173	2499.37
560.873	2047.11
565.57	792.924
570.264	236.202
574.957	167.922
579.646	96.5049
584.333	74.1011
589.018	63.6045
593.7	13.4277
598.379	89.7529
603.056	150.533
607.73	148.431
612.402	146.59
617.072	75.6528
621.739	298.025
626.403	409.565
631.065	428.853
635.724	648.534
640.381	780.665
645.035	1394.31
649.687	2399.24
654.336	5149.69
658.983	11950.7
663.627	22481.4
668.268	17738.2
672.907	7803.44
677.544	3302.07
682.178	1698
686.809	1126.49
691.438	683.217
696.065	510.054
700.688	352.816
705.31	233.282
709.929	298.752
714.545	153.184
719.158	166.549
723.77	101.91
728.378	44.1362
732.984	17.1924
737.588	8.33594
742.189	100.501
746.787	4.6875
751.383	52.7158
755.976	147.317
760.567	12.8184
765.155	8.41699
769.741	66.5947
774.324	62.0039
778.904	87.6719
783.482	159.503
788.058	29.7383
792.631	70.6406
797.201	13.1328
801.769	30.1299
806.334	0.803711
810.897	61.4141
815.457	175.799
820.014	99.0596
824.569	48.1289
829.122	129.015
833.671	54.7783
838.219	93.2627
842.763	311.599
847.306	646.838
851.845	1473.98
856.382	1018.04
860.917	423.006
865.448	158.85
869.978	202.432
874.505	124.678
879.029	117.326
883.55	8.55176
888.069	24.918
892.586	98.3213
897.1	39.2803
901.611	6.15039
906.12	18.5898
910.626	49.666
915.129	54.3701
919.63	28.9531
924.129	69.4072
928.625	203.992
933.118	117.369
937.609	35.6367
942.097	14.1992
946.582	79.3672
951.065	190.579
955.546	225.525
960.023	223.843
964.499	302.975
968.971	331.902
973.441	358.853
977.909	431.027
982.374	614.219
986.836	916.491
991.295	1263.8
995.753	1937.12
1000.21	3652.47
1004.66	9826.89
1009.11	31689.4
1013.55	42886.7
1018	16385.8
1022.44	5417.6
1026.88	2803.41
1031.32	2121.06
1035.75	2034.82
1040.18	3286.29
1044.61	6931.81
1049.04	7443.7
1053.46	3199.37
1057.88	1340.15
1062.3	682.904
1066.71	516
1071.13	327.567
1075.54	297.166
1079.94	283.806
1084.35	227.66
1088.75	179.008
1093.15	94.1074
1097.55	238.374
1101.94	169.753
1106.34	172.7
1110.73	144.725
1115.11	171.723
1119.5	266.866
1123.88	119.877
1128.26	116.752
1132.63	183.051
1137.01	49.7119
1141.38	78.2939
1145.75	37.3565
1150.12	61.3447
1154.48	126.137
1158.84	132.878
1163.2	73.6699
1167.55	232.26
1171.91	31.0352
1176.26	189.994
1180.61	44.584
1184.95	86.6162
1189.29	139.266
1193.63	35.8652
1197.97	98.375
1202.31	35.7812
1206.64	2.07519
1210.97	40.3115
1215.29	41.5889
1219.62	206.27
1223.94	25.0146
1228.26	40.4941
1232.57	137.876
1236.89	96.1318
1241.2	125.672
1245.51	201.644
1249.81	114.45
1254.12	95.1914
1258.42	160.549
1262.72	155.948
1267.01	8.32129
1271.3	214.31
1275.59	40.3857
1279.88	180.114
1284.17	148.082
1288.45	64.5947
1292.73	192.939
1297.01	71.9131
1301.28	11.6621
1305.55	182.394
1309.82	69.5644
1314.09	132.316
1318.35	149.806
1322.61	229.458
1326.87	261.442
1331.13	205.783
1335.38	210.754
1339.63	291.852
1343.88	141.977
1348.12	277.581
1352.37	214.742
1356.61	177.519
1360.85	193.914
1365.08	227.482
1369.31	174.731
1373.54	130.82
1377.77	94.6436
1381.99	43.4453
1386.22	175.866
1390.43	72.1582
1394.65	170.823
1398.87	87.0527
1403.08	184.581
1407.29	91.4492
1411.49	147.159
1415.69	26.543
1419.89	149.047
1424.09	69.2119
1428.29	147.385
1432.48	1.06055
1436.67	7.18848
1440.86	131.304
1445.04	56.9023
1449.23	5.99805
1453.4	186.582
1457.58	86.0469
1461.76	132.444
1465.93	6.81934
1470.1	185.122
1474.26	204.844
1478.43	132.809
1482.59	34.5918
1486.75	205.366
1490.9	179.639
1495.06	43.0332
1499.21	126.828
1503.35	216.485
1507.5	137.005
1511.64	148.737
1515.78	170.008
1519.92	100.517
1524.05	8.23926
1528.18	56.4736
1532.31	1.78516
1536.44	115.721
1540.56	17.3887
1544.69	72.6494
1548.8	86.6758
1552.92	154.656
1557.03	240.81
1561.14	51.7568
1565.25	164.052
1569.36	239.109
