Measurement: Raman, 514 nm, ccw, Raman Data Processed
Mineral: Diopside
Rruff sample: R040097
Ideal chemistry: CaMgSi_2_O_6_
Locality: Fassathal, Tyrol
Source: University of Arizona Mineral Museum
Description: Green prismatic crystals
Measured chemistry: Ca_1.00_(Mg_0.83_Al_0.10_Fe_0.09_Ca_0.02_Ti_0.02_)(Si_0.88_Al_0.12_)_2_O_6_
Pin_id: M00314
Orientation: Laser parallel to c [0 0 1]. Fiducial mark perpendicular to laser is parallel to b* (0 1 0)
Raman shift (cm-1)	intensity
105.212	0
109.387	196.294
113.559	155.794
117.729	331.605
121.897	247.172
126.063	323.661
130.228	371.116
134.39	502.222
138.55	920.758
142.709	941.145
146.865	596.877
151.019	224.488
155.171	69.094
159.322	15.949
163.47	13.507
167.617	100.701
171.761	184.243
175.904	178.624
180.044	719.703
184.183	2100.49
188.319	878.084
192.454	414.104
196.586	408.072
200.717	174.973
204.846	114.594
208.972	294.944
213.097	320.021
217.22	648.753
221.341	1157.09
225.46	1986.09
229.577	2355.74
233.692	1595.99
237.805	726.785
241.916	638.116
246.025	646.386
250.132	932.316
254.237	1185.15
258.34	1038.47
262.442	562.256
266.541	286.521
270.639	30.646
274.734	101.819
278.828	82.471
282.919	120.865
287.009	211.861
291.097	555.51
295.183	809.981
299.266	1275.13
303.348	2040.73
307.428	3106.85
311.507	5073.43
315.583	7970.41
319.657	11647.7
323.729	15345.1
327.8	14140
331.868	9448.33
335.935	6066.92
339.999	4185.8
344.062	2824.97
348.123	2434.4
352.182	2394.09
356.239	2613.65
360.294	2023.1
364.347	2062.78
368.398	2042.73
372.448	2822.92
376.495	3613.35
380.54	5784.01
384.584	10094.9
388.626	17375.9
392.666	22567.2
396.704	16898.6
400.74	9080.29
404.774	4442.23
408.806	2164.49
412.836	1197.04
416.865	879.934
420.891	783.119
424.916	506.85
428.939	402.052
432.959	383.232
436.978	314.217
440.996	349.954
445.011	161.463
449.024	262.034
453.036	301.656
457.045	467.012
461.053	459.342
465.059	567.282
469.063	493.45
473.065	488.398
477.065	213.284
481.063	238.096
485.06	302.822
489.054	297.483
493.047	242.051
497.038	336.501
501.027	250.824
505.014	545.011
508.999	399.052
512.982	662.936
516.964	686.657
520.944	940.213
524.921	1473.59
528.897	1656.79
532.871	1529.79
536.844	1312.59
540.814	955.182
544.783	837.55
548.749	829.688
552.714	922.19
556.677	1164.55
560.638	1204.44
564.597	1024.65
568.555	522.875
572.511	610.352
576.464	403.475
580.416	482.835
584.366	90.112
588.315	25.063
592.261	50.263
596.206	31.754
600.148	92.921
604.089	225.182
608.028	40.079
611.965	14.768
615.901	188.167
619.834	60.451
623.766	162.069
627.696	353.47
631.624	494.331
635.551	684.604
639.475	804.438
643.398	1113.83
647.318	1692.78
651.237	2921.29
655.155	4289.35
659.07	6726.97
662.984	11544.1
666.895	14950.9
670.805	11327.2
674.713	6563
678.62	3818.4
682.524	2563.36
686.427	1707.88
690.328	1301.96
694.227	985.604
698.124	588.82
702.02	391.609
705.913	733.977
709.805	325.923
713.695	157.438
717.584	41.613
721.47	121.351
725.355	8.113
729.238	16.873
733.119	34.833
736.998	27.916
740.876	102.372
744.752	62.787
748.626	42.157
752.498	159.988
756.368	100.228
760.237	96.278
764.104	35.087
767.969	184.56
771.832	101.946
775.693	355.006
779.553	165.483
783.411	46.61
787.267	228.007
791.122	329.215
794.974	360.24
798.825	241.095
802.674	301.786
806.522	192.324
810.367	512.717
814.211	582.973
818.053	853.102
821.893	883.112
825.732	933.009
829.568	912.804
833.403	782.509
837.236	756.396
841.068	711.734
844.898	421.38
848.726	471.089
852.552	760.925
856.376	970.881
860.199	850.889
864.02	620.423
867.839	669.445
871.656	606.065
875.472	682.788
879.286	634.453
883.098	588.986
886.909	447.867
890.717	376.632
894.524	285.799
898.33	444.453
902.133	441.037
905.935	237.43
909.735	318.262
913.533	99.811
917.33	392.998
921.124	386.104
924.918	550.736
928.709	525.588
932.499	400.754
936.286	525.822
940.073	581.258
943.857	816.988
947.64	1062.91
951.421	1099.03
955.2	1335.33
958.978	1202.04
962.753	1548.73
966.527	1875.81
970.3	2332.89
974.071	2500.14
977.84	2747.6
981.607	2825.39
985.372	3563.66
989.136	4592.3
992.898	6631.68
996.659	9969.7
1000.42	14990.9
1004.17	23621.5
1007.93	34265.1
1011.68	38814.6
1015.43	23627.2
1019.18	11184.6
1022.93	6415.76
1026.68	4375.56
1030.42	3680.03
1034.17	3373.62
1037.91	3358.46
1041.65	3874.35
1045.39	3687.89
1049.12	3222.42
1052.86	2358.19
1056.59	1492.75
1060.33	1137.66
1064.06	1062.99
1067.78	858.08
1071.51	832.473
1075.23	836.756
1078.96	391.371
1082.68	406.498
1086.4	230.057
1090.12	424.102
1093.83	648.24
1097.55	502.621
1101.26	256.068
1104.97	319.547
1108.68	153.422
1112.39	217.705
1116.1	331.162
1119.8	493.438
1123.5	617.469
1127.2	389.951
1130.9	272.148
1134.6	54.771
1138.3	94.223
1141.99	8.789
1145.69	101.961
1149.38	295.016
1153.07	148.641
1156.76	220.035
1160.44	41
1164.13	247.758
1167.81	58.941
1171.49	64.572
1175.17	103.75
1178.85	270.18
1182.52	66.758
1186.2	205.578
1189.87	114.896
1193.54	259.529
1197.21	101.863
1200.88	307.375
1204.55	311.42
1208.21	497.982
1211.88	527.223
1215.54	445.658
1219.2	314.629
1222.86	160.652
1226.51	165.537
1230.17	429.523
1233.82	443.57
1237.47	376.375
1241.12	739.055
1244.77	399.922
1248.42	390.248
1252.06	210.51
1255.71	149.398
1259.35	337.645
1262.99	515.861
1266.63	422.641
1270.26	659.916
1273.9	545.59
1277.53	530.148
1281.16	463.896
1284.8	122.334
1288.42	146.441
1292.05	127.551
1295.68	284.865
1299.3	292.428
1302.92	355.219
1306.55	263.4
1310.16	420.047
1313.78	108.273
1317.4	28.967
1321.01	240.719
1324.62	102.145
1328.24	24.697
1331.85	202.342
1335.45	576.742
1339.06	364.074
1342.66	348.607
1346.27	242.875
1349.87	266.955
1353.47	150.5
1357.07	132.404
1360.66	133.973
1364.26	404.82
1367.85	755.008
1371.44	564.865
1375.04	755.314
1378.62	589.4
1382.21	709.482
1385.8	417.018
1389.38	432.74
1392.96	350.457
1396.54	476.885
1400.12	612.859
1403.7	543.953
1407.28	816.4
1410.85	763.051
1414.42	840.07
1417.99	619.785
1421.56	479.32
1425.13	200.168
1428.7	457.9
1432.26	327.08
1435.83	220.439
1439.39	375.975
1442.95	460.699
1446.51	556.834
1450.06	954.193
1453.62	740.027
1457.17	815.863
1460.73	353.352
1464.28	538.57
1467.83	472.18
1471.37	300.967
1474.92	558.746
1478.46	393.422
1482.01	605.67
1485.55	929.521
1489.09	950.02
1492.63	704.262
1496.16	862.965
1499.7	926.652
1503.23	691.102
1506.76	397.396
1510.29	305.168
1513.82	76.77
1517.35	39.496
1520.88	21.703
1524.4	20.861
1527.92	107.533
