Measurement: Raman, 514 nm, ccw, Raman Data Processed
Mineral: Diopside
Rruff sample: R060861
Ideal chemistry: CaMgSi_2_O_6_
Locality: Red Mountain Volcano, NW of Flagstaff, Arizona, USA
Source: Jennifer Sano
Description: Worn brown fragment
Measured chemistry: (Ca_0.72_Fe^2+^_0.23_Na_0.05_)_Σ=1_(Mg_0.80_Al_0.15_Ti_0.03_Fe^3+^_0.02_)_Σ=1_(Si_1.82_Al_0.18_)_Σ=2_O_6_
Pin_id: M01653
Orientation: Laser parallel to -c* (0 0 -1). Fiducial mark perpendicular to laser is parallel to a [1 0 0]
Raman shift (cm-1)	intensity
172.233	0
177.166	6.53516
182.096	240.277
187.022	651.314
191.946	939.002
196.866	1241.53
201.783	884.322
206.697	190.809
211.608	409.357
216.515	1193.27
221.419	1943.5
226.321	2403.95
231.219	2014.12
236.114	1493.42
241.005	1265.12
245.894	877.977
250.779	879.32
255.662	581.536
260.541	480.737
265.417	88.2978
270.29	417.842
275.16	174.322
280.027	111.038
284.891	667.182
289.751	1572.04
294.609	2507.83
299.463	4018.64
304.315	5930.86
309.163	8202.64
314.008	11073.9
318.851	14591.8
323.69	18091.8
328.526	20423
333.359	21133
338.189	19343.3
343.016	16874.1
347.84	14403.6
352.661	12983.7
357.479	12018
362.294	11453.3
367.106	11200.8
371.915	11588
376.721	13092.3
381.524	16112.5
386.324	20599.7
391.121	25643.7
395.915	27765.5
400.706	23301
405.494	15918.1
410.279	9215.63
415.061	5336.55
419.841	3136.89
424.617	1944.23
429.39	1495.54
434.161	796.106
438.928	633.511
443.693	201.837
448.454	299.239
453.213	109.15
457.969	228.774
462.722	504.103
467.472	810.907
472.219	876.496
476.963	713.196
481.704	1073.27
486.443	1060.27
491.178	1275.52
495.911	1520.93
500.641	1677.46
505.368	2245.04
510.092	3326.64
514.813	3875.77
519.532	4230.79
524.247	4679.25
528.96	5048.56
533.67	5026.66
538.377	4777.5
543.081	4589.02
547.783	4162.18
552.481	3989.96
557.177	3920.81
561.87	3567.91
566.56	3150.69
571.248	2743.89
575.932	2275.48
580.614	1776.41
585.293	1157.32
589.97	687.801
594.643	44.6221
599.314	228.023
603.982	425.767
608.647	127.644
613.31	208.102
617.969	464.839
622.626	1237.95
627.281	2101.87
631.932	3071.93
636.581	4113.71
641.227	4738.22
645.87	5682.48
650.511	7558.49
655.149	11559.3
659.784	17876.9
664.417	24721.3
669.046	25457.6
673.674	19686.8
678.298	13168.9
682.92	8737.98
687.539	5838.06
692.155	4196.19
696.769	3179.41
701.38	2569.75
705.988	1999.24
710.594	1609.96
715.197	1259.94
719.798	899.248
724.396	507.94
728.991	258.208
733.583	40.7168
738.173	217.834
742.761	339.644
747.345	461.838
751.927	323.211
756.507	220.551
761.084	117.232
765.658	69.7314
770.229	385.388
774.799	297.847
779.365	466.219
783.929	505.617
788.49	522.146
793.049	530.916
797.605	398.024
802.159	872.578
806.71	779.677
811.258	1131.42
815.804	1277.89
820.347	1221.2
824.888	1354.42
829.427	1093.65
833.962	1050.98
838.495	1094.71
843.026	1092.28
847.554	1068.41
852.08	1223.98
856.603	1487.07
861.124	1812.75
865.642	1874.93
870.157	1984.84
874.671	1975.51
879.181	1705.33
883.689	1867.01
888.195	1633.82
892.698	1550.58
897.199	1477.13
901.697	1413.78
906.193	1617.07
910.686	1681.18
915.177	1743.13
919.665	2001.58
924.151	2207.62
928.635	2340.17
933.116	2435.03
937.594	2589.23
942.071	2756.58
946.544	3280.1
951.016	3479.55
955.485	4696.92
959.951	5474.18
964.415	6520.27
968.877	8042.18
973.336	9520.87
977.793	11824.3
982.247	14371.5
986.699	18400.4
991.149	23111.9
995.596	29656.5
1000.04	36543.8
1004.48	41632.4
1008.92	41231.6
1013.36	34679.5
1017.8	25442.4
1022.23	18052.8
1026.66	14083.8
1031.09	12052.4
1035.52	10498.9
1039.94	9277.5
1044.36	8213.95
1048.78	7040.79
1053.2	5927.14
1057.61	5231.8
1062.02	4430.34
1066.43	3885.3
1070.84	3453.86
1075.24	2947.57
1079.65	2778.46
1084.05	3567.69
1088.45	2519.41
1092.84	2327.34
1097.23	2129.2
1101.63	1999.66
1106.02	1963.5
1110.4	1934.42
1114.79	2254.06
1119.17	3212.88
1123.55	2937.53
1127.93	1591.54
1132.3	734.454
1136.67	364.269
1141.05	103.189
1145.41	83.9424
1149.78	217.493
1154.14	158.554
1158.51	248.603
1162.87	286.226
1167.22	257.533
1171.58	209.141
1175.93	96.5635
1180.28	62.4385
1184.63	134.413
1188.98	52.3066
1193.32	96.1787
1197.66	0.646484
1202	151.717
1206.34	221.635
1210.68	194.369
1215.01	328.932
1219.34	336.43
1223.67	447.879
1228	385.365
1232.32	578.812
1236.64	545.282
1240.96	630.75
1245.28	582.21
1249.6	745.742
1253.91	687.289
1258.22	653.325
1262.53	778.389
1266.84	660.912
1271.14	815.417
1275.45	774.695
1279.75	781.348
1284.05	888.231
1288.34	851.181
1292.64	844.308
1296.93	747.534
1301.22	856.818
1305.51	645.865
1309.8	705.107
1314.08	648.898
1318.36	691.653
1322.64	596.852
1326.92	556.346
1331.19	731.023
1335.47	660.054
1339.74	623.769
1344.01	732.239
1348.28	630.927
1352.54	634.068
1356.8	529.673
1361.07	603.089
1365.32	483.486
1369.58	506.655
1373.84	532.016
1378.09	528.94
1382.34	429.533
1386.59	426.56
1390.84	311.241
1395.08	417.803
1399.32	358.184
1403.56	187.436
1407.8	387.818
1412.04	333.544
1416.27	311.327
1420.51	241.773
1424.74	227.196
1428.96	336.284
1433.19	390.643
1437.42	490.487
1441.64	432.382
1445.86	431.323
1450.08	421.527
1454.3	479.345
1458.51	419.336
1462.72	362.328
1466.93	242.356
1471.14	338.42
1475.35	100.434
1479.55	63.669
1483.76	178.439
1487.96	99.5918
1492.16	62.7647
1496.35	40.6592
1500.55	43.7285
1504.74	199.602
1508.93	54.3291
1513.12	113.338
1517.31	183.684
1521.49	88.8018
1525.68	152.196
1529.86	117.493
1534.04	115.871
1538.22	50.2217
1542.39	145.584
1546.57	173.423
1550.74	41.6748
1554.91	96.6367
1559.08	150.518
1563.24	0.916016
