Measurement: Raman, 514 nm, ccw, Raman Data Processed
Mineral: Dioptase
Rruff sample: R050010
Ideal chemistry: CuSiO_3_H_2_O
Locality: Tsumeb mine, Tsumeb, Otavi District, Oshikoto, Namibia
Source: Eugene Schlepp
Description: Bluish green single crystals
Measured chemistry: Cu_1.00_Si_1.00_O_3_Â·H_2_O ; trace amounts of Mg and Al; OH estimated by difference
Pin_id: L00476
Orientation: Laser parallel to c* (0 0 1). Fiducial mark perpendicular to laser is parallel to a [1 0 0]
Raman shift (cm-1)	intensity
104.6	0
108.781	398.433
112.959	2238.06
117.136	3567.07
121.31	2944.48
125.482	4253.36
129.653	14258.5
133.821	19622.1
137.987	15236.7
142.152	4009.51
146.314	131.183
150.474	246.886
154.633	1016.14
158.789	6672.49
162.943	8050.98
167.095	2305.27
171.246	1154.89
175.394	4890.72
179.54	6947.08
183.684	3777.06
187.826	1874.92
191.967	1531.51
196.105	2717.88
200.241	1724.21
204.375	1820.32
208.507	2915.49
212.638	5208.15
216.766	9992.2
220.892	20350
225.016	27077
229.139	17903.3
233.259	8360.37
237.377	3908.16
241.493	2356.46
245.608	1067.94
249.72	294.531
253.83	310.238
257.939	1651.06
262.045	7509.96
266.15	15028.9
270.252	7190.01
274.353	3568.77
278.451	3383.11
282.548	4329.15
286.642	5935.5
290.735	8252.31
294.826	6865.56
298.914	2509.24
303.001	401.577
307.086	361.892
311.168	506.197
315.249	485.353
319.328	86.993
323.405	1525.51
327.48	1964.57
331.553	736.212
335.624	210.476
339.693	36.333
343.76	391.713
347.826	1852.8
351.889	6986.65
355.95	22374.3
360.01	15271.7
364.067	5448.98
368.123	2556.02
372.176	1666.81
376.228	1586.24
380.277	2061.96
384.325	2910.74
388.371	4860.29
392.415	10489.8
396.457	21649.4
400.497	22509
404.535	11188.7
408.571	5118.34
412.605	3537.83
416.638	3846.03
420.668	4115.72
424.697	4405.41
428.723	5105.1
432.748	5185.56
436.77	5114.38
440.791	4576.54
444.81	4083.32
448.827	3726.39
452.842	3800.77
456.855	3221.92
460.867	2288.62
464.876	1583.62
468.883	1125.16
472.889	684.862
476.892	591.338
480.894	595.829
484.894	733.52
488.892	770.06
492.888	490.456
496.882	473.881
500.874	587.897
504.865	668.729
508.853	855.596
512.84	1249.34
516.824	1381.97
520.807	1445.51
524.788	1120.99
528.767	928.468
532.744	846.943
536.719	566.413
540.693	337.932
544.664	348.485
548.634	584.052
552.601	1027.66
556.567	1703.28
560.531	2795.9
564.493	3052.55
568.453	2575.2
572.412	2166.89
576.368	1386.6
580.323	615.289
584.275	217.957
588.226	129.6
592.175	42.802
596.122	109.465
600.068	167.641
604.011	152.548
607.952	62.174
611.892	165.344
615.83	143.173
619.766	10.454
623.7	253.174
627.632	471.237
631.563	556.588
635.491	660.537
639.418	1107.58
643.343	1833.76
647.266	3117.93
651.187	5745.11
655.106	12242.3
659.024	20199.7
662.939	15217.1
666.853	7994.59
670.765	4302.09
674.675	2899.85
678.583	1751.85
682.49	1352.43
686.394	1004.99
690.297	677.74
694.198	490.664
698.097	538.167
701.995	559.2
705.89	565.028
709.784	474.383
713.675	629.212
717.565	985.534
721.453	1265.18
725.34	1818.81
729.224	2844.01
733.107	4694.91
736.988	7802.58
740.867	10260.3
744.744	8757.94
748.62	5471.53
752.493	3111.87
756.365	1871.28
760.235	1371.49
764.103	950.994
767.969	684.859
771.834	418.681
775.697	291.767
779.558	358.952
783.417	347.239
787.274	336.614
791.13	266.061
794.983	220.563
798.835	272.119
802.686	286.728
806.534	224.393
810.38	137.114
814.225	47.895
818.068	86.737
821.909	89.645
825.749	6.613
829.586	43.625
833.422	42.354
837.256	127.395
841.088	24.667
844.919	0.964
848.748	3.71
852.575	0.676
856.4	30.052
860.223	33.447
864.045	31.045
867.864	5.436
871.682	45.395
875.499	15.94
879.313	24.257
883.126	22.411
886.937	80.156
890.746	211.989
894.553	219.919
898.359	223.949
902.163	396.111
905.965	665.534
909.765	1217.36
913.564	1659.64
917.361	1494.35
921.156	978.437
924.949	665.948
928.74	641.719
932.53	659.614
936.318	658.619
940.104	580.733
943.889	587.973
947.672	642.558
951.453	897.099
955.232	1306.8
959.01	1362.66
962.785	1135.7
966.559	973.836
970.332	842.934
974.102	825.318
977.871	953.812
981.638	1187.31
985.404	1455.42
989.167	1801.79
992.929	2317.55
996.689	3447.85
1000.45	6220.25
1004.2	10339.9
1007.96	9832.99
1011.71	8593.68
1015.46	8696.92
1019.21	8351.06
1022.96	7662.9
1026.71	6817.69
1030.45	5619.13
1034.19	3959.68
1037.94	2800.45
1041.68	1873.59
1045.41	1313.85
1049.15	1055.23
1052.88	905.718
1056.62	837.313
1060.35	755.015
1064.08	551.81
1067.8	438.693
1071.53	319.663
1075.25	309.763
1078.97	261.093
1082.7	210.341
1086.41	113.491
1090.13	128.441
1093.85	59.502
1097.56	9.814
1101.27	41.307
1104.98	26.023
1108.69	74.168
1112.4	65.292
1116.1	4.392
1119.81	43.583
1123.51	313.163
1127.21	42.273
1130.91	39.967
1134.61	143.047
1138.3	196.97
1141.99	158.756
1145.68	175.487
1149.38	175.363
1153.06	203.527
1156.75	153.92
1160.43	235.974
1164.12	264.392
1167.8	314.546
1171.48	333.592
1175.16	202.293
1178.83	154.693
1182.51	80.838
1186.18	131.24
1189.85	105.467
1193.52	120.623
1197.19	98.367
1200.86	148.193
1204.52	69.086
1208.19	65.59
1211.85	52.087
1215.51	74.751
1219.17	106.151
1222.82	69.518
1226.48	72.418
1230.13	49.305
1233.78	30.817
1237.43	6.586
1241.08	0.045
1244.73	47.165
1248.37	6.46
1252.01	52.927
1255.66	13.173
1259.3	40.506
1262.93	14.905
1266.57	31.824
1270.21	20.393
1273.84	55.39
1277.47	30.348
1281.1	2.794
1284.73	26.395
1288.36	15.725
1291.98	30.871
1295.6	29.231
1299.23	11.743
1302.85	11.04
1306.46	8.089
1310.08	10.328
1313.7	54.97
1317.31	69.309
1320.92	93.345
1324.53	76.158
1328.14	50.635
1331.75	95.835
1335.35	39.766
1338.96	51.422
1342.56	97.8
1346.16	91.915
1349.76	73.774
1353.36	108.377
1356.95	81.736
1360.55	97.84
1364.14	92.73
1367.73	83.375
1371.32	27.46
1374.91	33.386
1378.49	19.685
1382.08	39.142
1385.66	51.755
1389.24	54.201
1392.82	89.879
1396.4	90.945
1399.97	84.535
1403.55	66.296
1407.12	130.714
1410.69	31.282
1414.26	90.713
1417.83	55.174
1421.4	93.42
1424.96	63.35
1428.53	73.278
1432.09	138.642
1435.65	110.789
1439.21	73.617
1442.76	46.732
1446.32	89.24
1449.87	137.47
1453.43	103.719
1456.98	89.89
1460.53	92.872
1464.07	84.684
1467.62	131.58
1471.16	105.876
1474.71	82.941
1478.25	122.141
1481.79	73.409
1485.32	61.358
1488.86	57.899
1492.39	40.859
1495.93	39.714
1499.46	13.792
1502.99	43.322
1506.52	57.248
1510.05	56.752
1513.57	31.658
1517.09	46.606
