Measurement: Raman, 514 nm, ccw, Raman Data Processed
Mineral: Diopside
Rruff sample: R050406
Ideal chemistry: CaMgSi_2_O_6_
Locality: unknown
Source: University of Arizona Mineral Museum
Description: Brownish gray massive
Measured chemistry: (Ca_0.95_Na_0.05_)(Mg_0.75_Fe^2+^_0.18_Fe^3+^_0.05_Al_0.01_Ti_0.01_Mn^2+^_0.01_)(Si_0.98_Al_0.02_)_2_O_6_
Pin_id: M00407
Orientation: Laser parallel to a* (1 0 0). Fiducial mark perpendicular to laser is parallel to b [0 1 0]
Raman shift (cm-1)	intensity
116.903	0
121.827	595.224
126.749	3507.88
131.668	12733.5
136.585	26429
141.5	11675
146.412	3088.9
151.321	724.034
156.229	61.7637
161.134	114.793
166.036	147.709
170.936	229.956
175.834	560.22
180.729	602.154
185.622	399.85
190.512	526.642
195.4	769.146
200.286	949.292
205.169	508.246
210.049	441.659
214.928	724.73
219.803	945.792
224.677	1208.63
229.548	1121.04
234.416	766.453
239.282	681.656
244.146	592.643
249.007	693.421
253.866	321.988
258.722	481.525
263.576	123.825
268.427	216.031
273.276	189.828
278.123	62.9023
282.967	76.1885
287.809	564.572
292.648	1100.62
297.485	1995.13
302.319	2961.49
307.151	4879.82
311.98	8874.3
316.807	15107.4
321.631	17104.2
326.454	13230.7
331.273	8876.05
336.09	6428.72
340.905	5582.46
345.717	6225.88
350.527	7711.14
355.334	8390.01
360.139	7552.68
364.941	6827.23
369.741	6571.63
374.538	7944.88
379.333	12376
384.126	19207.9
388.916	18102.6
393.703	10024.2
398.488	4812.65
403.271	2476.91
408.051	1423.95
412.828	913.186
417.603	666.096
422.376	394.448
427.146	171.29
431.914	47.0234
436.679	0.788086
441.442	26.0615
446.202	79.5312
450.96	203.052
455.715	257.166
460.467	306.643
465.218	266.664
469.965	288.804
474.711	220.968
479.454	349.255
484.194	188.296
488.932	342.459
493.667	209.591
498.4	492.58
503.13	974.408
507.858	1171.04
512.583	1422.62
517.306	1434.14
522.026	1858.69
526.744	1999.07
531.459	2146.35
536.172	1798.39
540.882	1949.14
545.59	1590.08
550.295	1690.93
554.998	1668
559.698	1653.06
564.396	1265.85
569.091	1369.65
573.784	1074.73
578.474	789.717
583.162	385.66
587.847	165.374
592.529	10.3096
597.209	179.037
601.887	3.75781
606.562	79.4414
611.235	28.6113
615.905	277.294
620.572	541.326
625.237	877.572
629.9	1258.5
634.56	1682.61
639.217	2739.24
643.872	3989.32
648.524	7034.73
653.174	13334.2
657.821	27999.8
662.466	47735.9
667.108	41608.2
671.748	21922.2
676.385	10661.2
681.02	5895.99
685.652	3578.09
690.281	2542.75
694.908	2017.76
699.533	1583.09
704.155	1406.12
708.774	1182.18
713.391	811.945
718.005	650.566
722.617	392.574
727.226	157.268
731.833	200.106
736.437	150.745
741.039	35.041
745.638	32.9395
750.234	149.769
754.828	37.6338
759.419	15.1631
764.008	50.0137
768.595	15.5518
773.178	68.2529
777.759	29.2656
782.338	79.625
786.914	90.5957
791.488	18.8135
796.059	21.8691
800.627	18.876
805.193	114.48
809.756	8.88281
814.317	30.6621
818.875	264.168
823.431	189.596
827.984	185.774
832.534	210.755
837.082	533.561
841.627	611.217
846.17	2116.75
850.71	4837.18
855.248	6037.53
859.783	4188.83
864.316	2447.3
868.846	1876.37
873.373	1460.92
877.898	1507.39
882.42	1483.88
886.94	1394.11
891.457	1457.28
895.971	1509.17
900.483	1268.37
904.993	1264.14
909.5	1015.75
914.004	1166.51
918.505	1161.38
923.004	1048.26
927.501	914.114
931.995	669.07
936.486	512.658
940.975	614.154
945.461	627.497
949.945	560.052
954.426	869.523
958.904	1129.5
963.38	1317.9
967.853	1382.89
972.324	1464.45
976.792	1687.66
981.258	1980.44
985.72	2439.9
990.181	3028.96
994.639	4677.59
999.094	7994.98
1003.55	15609
1008	30637.7
1012.44	37709.1
1016.89	21286.1
1021.33	9762.91
1025.77	5691.42
1030.21	4175.81
1034.64	3687.99
1039.07	3437.32
1043.5	3410.52
1047.93	2839.25
1052.35	2514.59
1056.78	2195.91
1061.19	1901.17
1065.61	1741.66
1070.02	1439.5
1074.43	1247.3
1078.84	1185.23
1083.25	1014.02
1087.65	1018.23
1092.05	1118.13
1096.45	919.211
1100.85	840.039
1105.24	869.909
1109.63	730.287
1114.02	686.531
1118.4	1023.08
1122.78	1068.31
1127.16	786.098
1131.54	674.164
1135.92	339.043
1140.29	412.555
1144.66	346.413
1149.02	40.7832
1153.39	56.207
1157.75	72.3857
1162.11	58.7168
1166.46	37.5527
1170.82	69.5459
1175.17	7.70801
1179.52	84.8447
1183.86	48.2441
1188.21	125.982
1192.55	67.5918
1196.89	67.7891
1201.22	68.3203
1205.55	27.9023
1209.88	4.59473
1214.21	18.2705
1218.54	122.301
1222.86	33.4727
1227.18	102.177
1231.5	42.4365
1235.81	251.241
1240.12	162.507
1244.43	62.666
1248.74	220.535
1253.04	235.31
1257.34	168.598
1261.64	36.1309
1265.94	280.088
1270.23	138.584
1274.52	333.613
1278.81	319.19
1283.1	98.5801
1287.38	116.256
1291.66	316.639
1295.94	219.387
1300.21	206.088
1304.48	320.863
1308.75	330.346
1313.02	295.695
1317.29	177.182
1321.55	358.25
1325.81	372.49
1330.06	322.205
1334.32	378.088
1338.57	382.221
1342.82	353.867
1347.06	301.5
1351.31	412.84
1355.55	249.475
1359.79	358.086
1364.02	271.738
1368.26	289.721
1372.49	434.342
1376.71	262.065
1380.94	213.639
1385.16	388.279
1389.38	270.527
1393.6	284.014
1397.81	200.264
1402.02	190.781
1406.23	309.408
1410.44	81.5781
1414.64	229.199
1418.85	146.42
1423.04	210.469
1427.24	3.03125
1431.43	74.5
1435.62	97.3379
1439.81	24.7539
1444	63.6504
1448.18	252.66
1452.36	152.068
1456.54	204.846
1460.71	29.8477
1464.89	99.7383
1469.06	60.5801
1473.22	76.4648
1477.39	206.463
1481.55	93.6973
1485.71	103.369
1489.86	163.178
1494.02	191.715
1498.17	163.58
1502.32	129.34
1506.46	190.352
1510.61	81.8613
1514.75	152.772
1518.88	197.994
1523.02	104.039
1527.15	100.644
1531.28	120.266
1535.41	126.031
1539.53	143.162
1543.66	5.18359
1547.78	291.019
1551.89	270.965
1556.01	173.809
1560.12	199.81
1564.23	217.672
1568.33	277.68
1572.43	0
