Measurement: Raman, 514 nm, ccw, Raman Data Processed
Mineral: Diopside
Rruff sample: R050666
Ideal chemistry: CaMgSi_2_O_6_
Locality: Franklin, Sussex County, New Jersey, USA
Source: University of Arizona Mineral Museum
Description: Brown cleavage fragment with white hardystonite
Measured chemistry: Ca(Mg_0.66_Mn_0.33_Fe_0.01_)Si_2_O_6_
Pin_id: L00536
Orientation: Laser parallel to c* (0 0 1). Fiducial mark perpendicular to laser is parallel to -a [-1 0 0]
Raman shift (cm-1)	intensity
109.512	0
114.44	172.321
119.365	54.4486
124.288	85.1044
129.209	407.027
134.127	495.977
139.043	248.836
143.956	44.5471
148.867	46.4668
153.775	150.825
158.681	44.1244
163.585	157.043
168.486	430.609
173.385	1252.84
178.282	447.657
183.176	291.03
188.067	219.018
192.956	178.091
197.843	140.364
202.727	199.765
207.609	51.2837
212.489	124.028
217.366	110.061
222.24	182.63
227.112	539.831
231.982	960.291
236.849	444.946
241.714	281.789
246.577	275.813
251.437	172.009
256.294	243.138
261.149	99.9482
266.002	61.334
270.852	1.13794
275.7	10.2283
280.545	116.313
285.388	247.945
290.229	558.326
295.067	1067.85
299.902	1936.44
304.735	4033.4
309.566	8196.59
314.394	11777.4
319.22	8591.47
324.043	4959.32
328.864	3208.2
333.682	2477.31
338.498	2404.69
343.311	3020.46
348.122	3383.58
352.931	2832.5
357.737	2313.54
362.54	2343.67
367.341	3342.89
372.14	6675.19
376.936	14400.5
381.73	20610
386.521	10985.5
391.31	4250.02
396.096	1773.63
400.88	925.288
405.661	554.962
410.44	331.691
415.216	201.086
419.99	101.323
424.761	32.2876
429.53	4.32129
434.297	22.4192
439.061	9.51904
443.822	121.05
448.581	269.603
453.337	245.595
458.091	138.689
462.843	105.006
467.592	10.4695
472.338	63.2002
477.082	37.092
481.824	1.17041
486.563	26.6924
491.3	86.512
496.034	194.303
500.765	307.075
505.494	394.832
510.221	386.585
514.945	634.365
519.666	1425.19
524.385	2025.09
529.102	1144.07
533.816	549.189
538.527	416.286
543.236	557.367
547.943	1146.48
552.647	2186.59
557.348	1503.65
562.047	640.926
566.744	343.539
571.438	140.023
576.129	84.1582
580.818	60.5037
585.504	13.1577
590.188	0.424561
594.87	19.8279
599.549	6.73535
604.225	55.2251
608.899	70.0952
613.57	179.837
618.239	204.697
622.905	320.635
627.569	467.609
632.23	627.741
636.889	817.274
641.545	1347.09
646.198	2577.95
650.849	5638.75
655.498	11422.3
660.144	14837.1
664.787	9189.51
669.428	4468.65
674.067	2167.9
678.703	1230.66
683.336	751.309
687.967	602.7
692.595	443.748
697.221	345.635
701.844	263.095
706.465	195.03
711.083	137.727
715.698	92.1943
720.311	106.516
724.922	40.9639
729.53	69.7588
734.135	11.3062
738.738	42.4937
743.338	74.8809
747.936	19.5945
752.531	88.1157
757.124	109.538
761.714	48.8149
766.302	115.908
770.887	62.813
775.469	100.522
780.049	5.01489
784.626	3.71533
789.201	10.2732
793.773	25.0544
798.343	28.761
802.91	42.8701
807.475	27.4893
812.037	13.5652
816.596	18.8428
821.153	13.5701
825.707	5.31641
830.259	18.5376
834.808	7.78101
839.355	145.782
843.899	455.262
848.441	659.666
852.98	397.92
857.516	280.867
862.05	200.394
866.581	189.749
871.11	227.413
875.636	208.169
880.159	239.982
884.68	266.314
889.199	236.197
893.714	278.484
898.228	358.66
902.738	340.915
907.246	342.347
911.752	330.613
916.255	337.889
920.755	239.183
925.253	241.673
929.748	147.649
934.241	123.069
938.731	162.34
943.218	71.8962
947.703	167.223
952.186	250.803
956.665	294.868
961.142	380.662
965.617	514.18
970.089	532.233
974.558	675.168
979.025	943.259
983.489	1093.51
987.951	1540.92
992.41	2330.5
996.866	4057.24
1001.32	8597.17
1005.77	22214.3
1010.22	51909.6
1014.67	42957.1
1019.11	14938.8
1023.55	6193.76
1027.99	3965.1
1032.42	3501.28
1036.86	4145.82
1041.29	4041.25
1045.72	2338.12
1050.14	1355.34
1054.56	917.821
1058.98	762.071
1063.4	594.692
1067.82	486.282
1072.23	390.038
1076.64	447.58
1081.05	320.602
1085.45	402.914
1089.85	373.664
1094.25	301.436
1098.65	303.344
1103.04	331.464
1107.43	271.748
1111.82	341.057
1116.21	367.442
1120.59	571.644
1124.97	515.834
1129.35	350.047
1133.73	278.308
1138.1	159.55
1142.47	174.893
1146.84	123.241
1151.21	70.4814
1155.57	57.7231
1159.93	16.9273
1164.29	5.88965
1168.64	71.0991
1172.99	20.0615
1177.34	71.6633
1181.69	19.7017
1186.04	0.715088
1190.38	39.0374
1194.72	15.7776
1199.05	56.2685
1203.39	53.7688
1207.72	49.3672
1212.05	7.33569
1216.37	21.4692
1220.7	47.7625
1225.02	55.8589
1229.34	44.76
1233.65	28.0515
1237.97	56.9509
1242.28	20.7212
1246.59	70.4033
1250.89	69.9477
1255.19	81.3782
1259.49	83.6946
1263.79	133.988
1268.09	83.0737
1272.38	79.0447
1276.67	161.905
1280.95	90.6511
1285.24	90.3516
1289.52	104.548
1293.8	105.284
1298.08	166.27
1302.35	129.317
1306.62	104.507
1310.89	179.049
1315.15	112.767
1319.42	192.729
1323.68	167.676
1327.94	165.631
1332.19	123.307
1336.44	106.378
1340.69	107.919
1344.94	110.545
1349.19	138.931
1353.43	60.0002
1357.67	117.429
1361.9	66.3989
1366.14	73.4438
1370.37	65.1892
1374.6	71.728
1378.83	97.6362
1383.05	160.516
1387.27	76.4544
1391.49	80.2402
1395.7	69.1619
1399.92	92.0544
1404.13	81.5947
1408.34	109.362
1412.54	122.409
1416.74	22.2183
1420.94	32.9678
1425.14	23.3811
1429.34	71.1958
1433.53	91.0278
1437.72	48.7705
1441.9	65.0107
1446.09	55.2153
1450.27	45.6665
1454.45	84.8015
1458.63	50.488
1462.8	29.3672
1466.97	97.2712
1471.14	12.1953
1475.31	101.155
1479.47	56.2119
1483.63	67.2251
1487.79	50.4487
1491.94	47.5774
1496.09	32.4065
1500.24	102.184
1504.39	51.4873
1508.54	58.4673
1512.68	115.737
1516.82	136.155
1520.95	82.4565
1525.09	6.3335
1529.22	107.029
1533.35	60.2837
1537.47	40.103
1541.6	84.436
1545.72	42.773
1549.83	99.5606
1553.95	253.898
1558.06	77.6714
1562.17	68.2036
1566.28	104.422
1570.38	50.314
