Measurement: Raman, 514 nm, ccw, Raman Data Processed
Mineral: Diopside
Rruff sample: R050666
Ideal chemistry: CaMgSi_2_O_6_
Locality: Franklin, Sussex County, New Jersey, USA
Source: University of Arizona Mineral Museum
Description: Brown cleavage fragment with white hardystonite
Measured chemistry: Ca(Mg_0.66_Mn_0.33_Fe_0.01_)Si_2_O_6_
Pin_id: L00985
Orientation: Laser parallel to (1 0 1). Fiducial mark perpendicular to laser is parallel to -b [0 -1 0]
Raman shift (cm-1)	intensity
129.209	0
134.127	15.0469
139.043	171.545
143.956	272.467
148.867	370.92
153.775	422.914
158.681	412.162
163.585	365.918
168.486	357.254
173.385	552.742
178.282	485.826
183.176	377.84
188.067	348.99
192.956	330.129
197.843	404.859
202.727	673.215
207.609	266.086
212.489	448.047
217.366	431.031
222.24	590.523
227.112	627.926
231.982	715.469
236.849	454.988
241.714	429.445
246.577	442.769
251.437	336.988
256.294	481.113
261.149	568.16
266.002	548.188
270.852	537.137
275.7	562.371
280.545	497.441
285.388	656.223
290.229	679.879
295.067	1012.17
299.902	1478.75
304.735	2049.42
309.566	2761.52
314.394	2581.5
319.22	2464.85
324.043	2021.36
328.864	1498.86
333.682	1706.9
338.498	2024.58
343.311	2822.32
348.122	3197.23
352.931	2329.27
357.737	1460.46
362.54	1373.81
367.341	1510.29
372.14	2725.92
376.936	4236.67
381.73	4291.53
386.521	2978.48
391.31	1557.18
396.096	689.766
400.88	368.93
405.661	208.129
410.44	456.356
415.216	181.594
419.99	95.8594
424.761	40.5117
429.53	104.641
434.297	100.246
439.061	262.383
443.822	240.914
448.581	282.539
453.337	320.344
458.091	36.1055
462.843	5.51562
467.592	239.078
472.338	103.516
477.082	19.1523
481.824	120.059
486.563	379.887
491.3	184.125
496.034	87.75
500.765	110.305
505.494	105.602
510.221	102
514.945	28.5898
519.666	126.371
524.385	452.367
529.102	384.809
533.816	69.5
538.527	214.457
543.236	488.613
547.943	1255.92
552.647	1003.36
557.348	897.828
562.047	145.769
566.744	235.496
571.438	53.5195
576.129	50.8672
580.818	288.691
585.504	100.637
590.188	200.172
594.87	46.5898
599.549	125.691
604.225	69.0859
608.899	72.3594
613.57	78.2031
618.239	217.559
622.905	375.688
627.569	488.766
632.23	384.609
636.889	641.613
641.545	1062.72
646.198	1807.14
650.849	3675.25
655.498	6324.75
660.144	6023.85
664.787	4214.79
669.428	2136.05
674.067	1227.2
678.703	747.473
683.336	801.781
687.967	774.473
692.595	442.535
697.221	202.254
701.844	447.328
706.465	352.836
711.083	434.754
715.698	146.039
720.311	306.59
724.922	209.293
729.53	297.387
734.135	299.207
738.738	194.043
743.338	319.863
747.936	46.4414
752.531	190.039
757.124	132.527
761.714	457.332
766.302	20.625
770.887	173.477
775.469	307.672
780.049	107.059
784.626	57.8789
789.201	238.195
793.773	61.2734
798.343	227.856
802.91	176.648
807.475	405.07
812.037	44.3672
816.596	24.1602
821.153	333.621
825.707	203.496
830.259	211.402
834.808	168.66
839.355	669.344
843.899	733.394
848.441	1130.27
852.98	530.894
857.516	463.125
862.05	104.539
866.581	72.0781
871.11	423.606
875.636	303.078
880.159	381.465
884.68	277.633
889.199	240.035
893.714	373.926
898.228	122.527
902.738	443.434
907.246	273.75
911.752	201.191
916.255	261.656
920.755	229.758
925.253	82.1328
929.748	253.789
934.241	86.2812
938.731	180.793
943.218	143.406
947.703	197.375
952.186	252.711
956.665	326.621
961.142	292.902
965.617	61.2695
970.089	184.531
974.558	292.688
979.025	476.519
983.489	260.512
987.951	745.719
992.41	1092.61
996.866	1225.06
1001.32	3280.97
1005.77	8327.18
1010.22	14936.8
1014.67	11525.9
1019.11	4935.96
1023.55	2246.17
1027.99	1565.52
1032.42	1687
1036.86	2232.6
1041.29	2128.44
1045.72	1045.22
1050.14	883.258
1054.56	386.57
1058.98	286.203
1063.4	370.352
1067.82	210.297
1072.23	459.832
1076.64	75.7109
1081.05	323.996
1085.45	343.137
1089.85	270.227
1094.25	278.477
1098.65	213.367
1103.04	216.637
1107.43	483.527
1111.82	178.188
1116.21	285.75
1120.59	629.852
1124.97	597.406
1129.35	82.207
1133.73	255.598
1138.1	73.7227
1142.47	155.156
1146.84	81.3281
1151.21	49.6797
1155.57	27.6133
1159.93	16.8477
1164.29	192.141
1168.64	80.4414
1172.99	356.957
1177.34	344.641
1181.69	111.082
1186.04	1.54688
1190.38	216.406
1194.72	20.6836
1199.05	268.394
1203.39	42.625
1207.72	280.887
1212.05	124.352
1216.37	189.102
1220.7	140.5
1225.02	15.2148
1229.34	191.754
1233.65	31.5859
1237.97	15.9414
1242.28	112.297
1246.59	155.773
1250.89	173.988
1255.19	232.039
1259.49	63.9062
1263.79	202.367
1268.09	391.555
1272.38	205.527
1276.67	48.8945
1280.95	238.453
1285.24	126.398
1289.52	3.125
1293.8	118.922
1298.08	312.652
1302.35	42.2305
1306.62	75.1758
1310.89	67.8867
1315.15	211.293
1319.42	290.644
1323.68	287.926
1327.94	189.451
1332.19	289.924
1336.44	287.24
1340.69	182.955
1344.94	138.06
1349.19	74.9883
1353.43	245.43
1357.67	253.203
1361.9	329.789
1366.14	281.242
1370.37	136.486
1374.6	304.492
1378.83	276.373
1383.05	145.959
1387.27	112.488
1391.49	334.744
1395.7	43.168
1399.92	201.914
1404.13	48.6699
1408.34	76.418
1412.54	125.951
1416.74	122.068
1420.94	378.647
1425.14	96.5977
1429.34	93.75
1433.53	98.5723
1437.72	418.846
1441.9	156.455
1446.09	289.615
1450.27	218.207
1454.45	412.42
1458.63	256.918
1462.8	360.023
1466.97	15.9492
1471.14	317.176
1475.31	132.752
1479.47	257.641
1483.63	156.75
1487.79	255.672
1491.94	329.725
1496.09	111.67
1500.24	16.2383
1504.39	212.428
1508.54	328.389
1512.68	283.305
1516.82	157.092
1520.95	152.051
1525.09	273.82
1529.22	86.6602
1533.35	124.606
1537.47	119.029
1541.6	157.815
1545.72	11.9473
1549.83	68.1992
1553.95	109.781
1558.06	212.758
1562.17	54.3867
1566.28	65.9805
1570.38	195.951
