Measurement: Raman, 514 nm, ccw, Raman Data Processed
Mineral: Diopside
Rruff sample: R050666
Ideal chemistry: CaMgSi_2_O_6_
Locality: Franklin, Sussex County, New Jersey, USA
Source: University of Arizona Mineral Museum
Description: Brown cleavage fragment with white hardystonite
Measured chemistry: Ca(Mg_0.66_Mn_0.33_Fe_0.01_)Si_2_O_6_
Pin_id: L01400
Orientation: Laser parallel to -a* (-1 0 0). Fiducial mark perpendicular to laser is parallel to -b [0 -1 0]
Raman shift (cm-1)	intensity
129.209	0
134.127	504.377
139.043	229.816
143.956	450.277
148.867	152.002
153.775	335.818
158.681	173.965
163.585	82.2109
168.486	273.631
173.385	527.91
178.282	325.383
183.176	220.332
188.067	145.488
192.956	418.582
197.843	322.41
202.727	487.785
207.609	373.059
212.489	236.887
217.366	394.648
222.24	413.484
227.112	508.93
231.982	658.574
236.849	314.09
241.714	644.652
246.577	245.293
251.437	316.023
256.294	461.863
261.149	433.805
266.002	343.863
270.852	75.0195
275.7	333.32
280.545	652.414
285.388	317.086
290.229	449.438
295.067	644.453
299.902	1065.33
304.735	1654.51
309.566	2784.72
314.394	4389.25
319.22	3826.68
324.043	2838.93
328.864	1649
333.682	1695.82
338.498	1622.7
343.311	1804.17
348.122	2795.75
352.931	2016.88
357.737	1423.54
362.54	1557.73
367.341	1481.48
372.14	2577.78
376.936	4682.63
381.73	7845.99
386.521	5335.88
391.31	2474.26
396.096	1235.14
400.88	641.496
405.661	587.324
410.44	622.625
415.216	156.922
419.99	262.606
424.761	376.535
429.53	41.8242
434.297	173.512
439.061	55.707
443.822	321.836
448.581	196.078
453.337	351.484
458.091	246.016
462.843	252.418
467.592	140.488
472.338	217.414
477.082	98.1016
481.824	228.016
486.563	110.465
491.3	352.535
496.034	555.211
500.765	596.562
505.494	725.727
510.221	451.281
514.945	375.141
519.666	669.309
524.385	789.125
529.102	792.344
533.816	156.672
538.527	216.281
543.236	385.473
547.943	578.519
552.647	1129.16
557.348	1057.34
562.047	525.07
566.744	326.269
571.438	398.644
576.129	161.731
580.818	172.578
585.504	32.4492
590.188	3.27734
594.87	301.555
599.549	158.262
604.225	179.629
608.899	103.555
613.57	230.312
618.239	111.098
622.905	196.832
627.569	458.231
632.23	368.477
636.889	738.832
641.545	784.941
646.198	1139.83
650.849	2432.06
655.498	5343.59
660.144	7325.61
664.787	5450.25
669.428	2704.19
674.067	1159.38
678.703	1058.6
683.336	652.535
687.967	443.434
692.595	537.742
697.221	377.484
701.844	481.894
706.465	209.5
711.083	491.027
715.698	399.438
720.311	251.953
724.922	265.246
729.53	124.926
734.135	413.055
738.738	135.059
743.338	184.715
747.936	235.062
752.531	82.5859
757.124	157.035
761.714	247.738
766.302	360.91
770.887	166.715
775.469	114.234
780.049	135.219
784.626	41.4922
789.201	242.238
793.773	119.297
798.343	248.555
802.91	174.914
807.475	142.07
812.037	30.6133
816.596	196.195
821.153	95.7422
825.707	277.352
830.259	292.457
834.808	385.156
839.355	204.426
843.899	491.359
848.441	927.957
852.98	391.215
857.516	325.133
862.05	389.715
866.581	33.0781
871.11	305.648
875.636	423.984
880.159	154.711
884.68	254.961
889.199	245.648
893.714	244.051
898.228	179.719
902.738	286.715
907.246	385.789
911.752	317.828
916.255	170.281
920.755	200.859
925.253	311.301
929.748	334.734
934.241	283.172
938.731	127.547
943.218	76.6328
947.703	62.9883
952.186	156.691
956.665	171.531
961.142	431.336
965.617	146.703
970.089	78.0391
974.558	197.344
979.025	681.902
983.489	648.348
987.951	574.551
992.41	963.496
996.866	1444.13
1001.32	2839.67
1005.77	6900.69
1010.22	16695.3
1014.67	19637.1
1019.11	8464.68
1023.55	2948.01
1027.99	2235.45
1032.42	1552.85
1036.86	2246.25
1041.29	2058.01
1045.72	1372.65
1050.14	844.887
1054.56	451.016
1058.98	525.422
1063.4	488.457
1067.82	411.961
1072.23	148.34
1076.64	452.129
1081.05	326.758
1085.45	336.797
1089.85	200.699
1094.25	308.43
1098.65	301.531
1103.04	352.125
1107.43	44.6445
1111.82	200.84
1116.21	462.07
1120.59	1100.72
1124.97	723.484
1129.35	327.719
1133.73	90.8164
1138.1	75.3398
1142.47	536.961
1146.84	231.086
1151.21	164.57
1155.57	45.8789
1159.93	99.1094
1164.29	64.9141
1168.64	158.691
1172.99	80.2969
1177.34	47.4648
1181.69	50.5938
1186.04	93.9258
1190.38	406.051
1194.72	294.336
1199.05	5.08594
1203.39	212.242
1207.72	216.848
1212.05	173.672
1216.37	183.82
1220.7	251.066
1225.02	270.324
1229.34	355.938
1233.65	118.59
1237.97	286.156
1242.28	396.883
1246.59	302.184
1250.89	279.957
1255.19	266.019
1259.49	147.414
1263.79	111.514
1268.09	384.293
1272.38	78.2207
1276.67	100.357
1280.95	266.773
1285.24	24.875
1289.52	305.99
1293.8	369.475
1298.08	306.881
1302.35	215.93
1306.62	257.252
1310.89	427.822
1315.15	133.254
1319.42	394.434
1323.68	174.357
1327.94	216.398
1332.19	371.453
1336.44	324.176
1340.69	147.978
1344.94	375.947
1349.19	321.758
1353.43	423.502
1357.67	238.002
1361.9	217.273
1366.14	352.699
1370.37	326.457
1374.6	76.9219
1378.83	254.254
1383.05	479.555
1387.27	50.2344
1391.49	64.0918
1395.7	379.566
1399.92	224.51
1404.13	81.0996
1408.34	3.60156
1412.54	140.711
1416.74	239.158
1420.94	225.43
1425.14	194.379
1429.34	268.769
1433.53	4.79297
1437.72	380.266
1441.9	299.648
1446.09	115
1450.27	182.086
1454.45	256.154
1458.63	194.838
1462.8	132.959
1466.97	207.389
1471.14	154.957
1475.31	109.434
1479.47	186.846
1483.63	279.766
1487.79	104.228
1491.94	336.014
1496.09	8.08008
1500.24	113.004
1504.39	167.906
1508.54	364.295
1512.68	352.481
1516.82	124.193
1520.95	225.666
1525.09	289.914
1529.22	423.578
1533.35	386.519
1537.47	32.8301
1541.6	139.773
1545.72	295.639
1549.83	428.959
1553.95	56.334
1558.06	249.344
1562.17	39.5625
1566.28	1.73047
1570.38	1.58398
