Measurement: Raman, 514 nm, ccw, Raman Data Processed
Mineral: Diopside
Rruff sample: R060861
Ideal chemistry: CaMgSi_2_O_6_
Locality: Red Mountain Volcano, NW of Flagstaff, Arizona, USA
Source: Jennifer Sano
Description: Worn brown fragment
Measured chemistry: (Ca_0.72_Fe^2+^_0.23_Na_0.05_)_Σ=1_(Mg_0.80_Al_0.15_Ti_0.03_Fe^3+^_0.02_)_Σ=1_(Si_1.82_Al_0.18_)_Σ=2_O_6_
Pin_id: M01674
Orientation: Laser parallel to b* (0 1 0). Fiducial mark perpendicular to laser is parallel to c [0 0 1]
Raman shift (cm-1)	intensity
174.7	0
179.631	205.439
184.56	266.161
189.484	448.408
194.406	871.858
199.325	779.837
204.24	556.356
209.153	35.9199
214.062	19.1309
218.968	37.7627
223.87	198.862
228.77	1016.49
233.666	1273.42
238.56	56.0879
243.45	136.315
248.337	404.019
253.221	585.172
258.102	616.002
262.979	68.293
267.854	47.5322
272.726	141.227
277.594	19.1123
282.459	259.893
287.321	650.812
292.18	1444.65
297.036	2218.2
301.889	3140.04
306.739	4400.72
311.586	6152.22
316.43	8341.51
321.271	11293.3
326.108	13819.8
330.943	15913.9
335.774	15963.5
340.603	15182
345.428	14255.5
350.251	13943.5
355.07	13869.8
359.887	13628.2
364.7	13666.4
369.511	13395.7
374.318	13310.5
379.123	13829.6
383.924	15461.9
388.723	18169.2
393.518	19886.6
398.311	18590.9
403.1	13587.1
407.887	8248.11
412.671	4819.57
417.451	2882.06
422.229	1828.44
427.004	1307.51
431.776	874.21
436.545	644.474
441.311	512.246
446.074	447.491
450.834	461.547
455.591	651.283
460.346	1034.86
465.097	1214.21
469.846	1482.18
474.591	1652.55
479.334	1689.06
484.074	1774.64
488.811	1689.34
493.545	1860.99
498.276	1787.6
503.005	1985.26
507.73	2155.72
512.453	2608.86
517.173	3314.59
521.89	4416.85
526.604	5196.56
531.315	6272.65
536.024	6766.05
540.729	6603.69
545.432	6203.51
550.132	5820.43
554.83	5140.4
559.524	4627.47
564.216	4168.64
568.904	3728.68
573.59	3237.52
578.274	2895.07
582.954	1967.29
587.632	1123.28
592.307	400.709
596.979	13.5576
601.648	410.94
606.315	324.943
610.979	28.5635
615.64	292.713
620.298	680.283
624.954	1263.74
629.607	2105.71
634.257	3207.12
638.904	5019.94
643.549	7741.13
648.191	12014.7
652.83	19067.5
657.467	30083.7
662.101	44086.1
666.732	52401.8
671.36	44939.8
675.986	30510
680.609	18876.4
685.23	11980
689.847	8066.9
694.462	5237
699.075	3920.34
703.685	2868.91
708.292	2065.72
712.896	1604.77
717.498	1104.1
722.097	533.701
726.694	120.512
731.287	121.593
735.879	219.409
740.467	430.176
745.053	454.535
749.637	373.44
754.217	237.906
758.795	112.741
763.371	155.296
767.944	356.242
772.514	510.237
777.082	707.759
781.647	864.702
786.21	997.336
790.77	1083.35
795.327	1190.82
799.882	1172.84
804.434	1427.49
808.984	1562.84
813.531	1418.97
818.076	1631.97
822.618	1615.92
827.158	1654.88
831.695	1422.94
836.229	1388.17
840.761	1399.65
845.291	1453.45
849.817	1763.64
854.342	2603.37
858.864	3874.53
863.383	5062.05
867.9	5339.01
872.414	5452.91
876.926	5046.19
881.436	4308
885.942	3871.01
890.447	3369.79
894.949	3077.38
899.448	2917.72
903.945	2736.02
908.44	2536.09
912.932	2630.04
917.421	2538.76
921.909	2586.27
926.393	2582.49
930.876	2595.42
935.355	2542.1
939.833	2630.38
944.308	2780.16
948.78	3009.38
953.25	3458.08
957.718	3685.15
962.183	4013.54
966.646	4794.25
971.107	5214.28
975.565	5940.62
980.02	6952.25
984.474	8226.17
988.925	10289.4
993.373	12832.8
997.819	16648.7
1002.26	20207.6
1006.7	21795.4
1011.14	19891.7
1015.58	15586.3
1020.01	10779.9
1024.45	7664.26
1028.88	5994.55
1033.3	4795.52
1037.73	4091.97
1042.15	3545.52
1046.57	3164.33
1050.99	2661.88
1055.4	2423.25
1059.82	2084.46
1064.23	1885.89
1068.64	1709.38
1073.04	1720.41
1077.45	1558.92
1081.85	1560.1
1086.25	1552.62
1090.64	1544.26
1095.04	1584.82
1099.43	1519.77
1103.82	1593.34
1108.21	1459.66
1112.6	1468.61
1116.98	1793.72
1121.36	2275.22
1125.74	1628.25
1130.12	837.465
1134.49	324.722
1138.86	252.498
1143.23	15.2935
1147.6	76.9868
1151.96	165.742
1156.33	230.782
1160.69	195.678
1165.05	135.466
1169.4	158.942
1173.76	167.168
1178.11	117.17
1182.46	83.8247
1186.81	26.1255
1191.15	18.7993
1195.49	19.9575
1199.84	75.4158
1204.17	151.668
1208.51	155.988
1212.84	191.392
1217.18	256.92
1221.51	276.756
1225.83	426.956
1230.16	382.521
1234.48	451.414
1238.8	491.661
1243.12	488.067
1247.44	527.178
1251.76	477.613
1256.07	547.938
1260.38	548.739
1264.69	582.85
1268.99	663.245
1273.3	589.654
1277.6	687.128
1281.9	606.925
1286.2	675.988
1290.49	631.287
1294.79	645.211
1299.08	684.553
1303.37	597.043
1307.65	569.068
1311.94	556.459
1316.22	517.641
1320.5	474.935
1324.78	484.348
1329.06	399.063
1333.33	454.769
1337.6	503.165
1341.87	489.792
1346.14	527.011
1350.41	358.202
1354.67	428.174
1358.93	447.038
1363.19	419.31
1367.45	323.854
1371.71	295.886
1375.96	316.843
1380.21	294.034
1384.46	252.696
1388.71	312.103
1392.96	234.14
1397.2	272.804
1401.44	197.126
1405.68	245.739
1409.92	102.038
1414.16	176.68
1418.39	146.031
1422.62	165.039
1426.85	200.758
1431.08	227.453
1435.3	205.501
1439.53	199.712
1443.75	204.645
1447.97	182.928
1452.19	97.0171
1456.4	150.628
1460.62	94.2078
1464.83	33.6321
1469.04	116.96
1473.24	110.299
1477.45	15.1631
1481.65	13.3591
1485.86	75.8662
1490.06	92.7898
1494.26	78.8528
1498.45	10.5642
1502.64	22.7459
1506.84	34.1148
1511.03	13.085
1515.22	12.7825
1519.4	8.74365
1523.59	111.831
1527.77	120.957
1531.95	158.686
1536.13	51.0342
1540.31	154.841
1544.48	27.7568
1548.65	71.0122
1552.82	81.2075
1556.99	64.5884
1561.16	131.17
1565.33	0
