Measurement: Raman, 514 nm, ccw, Raman Data Processed
Mineral: Diopside
Rruff sample: R060861
Ideal chemistry: CaMgSi_2_O_6_
Locality: Red Mountain Volcano, NW of Flagstaff, Arizona, USA
Source: Jennifer Sano
Description: Worn brown fragment
Measured chemistry: (Ca_0.72_Fe^2+^_0.23_Na_0.05_)_Σ=1_(Mg_0.80_Al_0.15_Ti_0.03_Fe^3+^_0.02_)_Σ=1_(Si_1.82_Al_0.18_)_Σ=2_O_6_
Pin_id: M00947
Orientation: Laser parallel to a* (1 0 0). Fiducial mark perpendicular to laser is parallel to b [0 1 0]
Raman shift (cm-1)	intensity
212.835	0
217.741	1.04688
222.645	232.372
227.545	483.83
232.443	681.678
237.337	830.347
242.228	1137.23
247.116	1525.26
252	1323.73
256.882	1254.42
261.76	1033.1
266.636	156.072
271.508	119.903
276.377	52.6055
281.243	328.517
286.106	418.151
290.966	1191.74
295.823	2045.07
300.676	2894.67
305.527	4193
310.375	6124.88
315.219	8604.97
320.061	11267.1
324.899	14488.6
329.734	16611.2
334.567	16512.8
339.396	15227.6
344.222	13421.4
349.046	11279.2
353.866	9676.75
358.683	7863.86
363.497	6659.1
368.308	5935.75
373.117	5197.38
377.922	5173.32
382.724	5365.02
387.523	5754.1
392.32	6049.07
397.113	5728.92
401.903	4382.26
406.691	2641.04
411.475	1503.22
416.256	835.453
421.035	462.491
425.81	178.873
430.583	243.294
435.353	140.429
440.119	67.5918
444.883	111.403
449.644	105.745
454.402	148.362
459.157	41.29
463.909	88.2246
468.659	122.702
473.405	262.486
478.149	227.865
482.889	454.988
487.627	499.445
492.362	913.067
497.094	1757.83
501.823	2834.78
506.549	5062.59
511.273	5965.17
515.993	4884.52
520.711	4306.68
525.426	4020.65
530.138	4281.46
534.847	4564.16
539.553	4818.36
544.257	4873.29
548.958	4685.7
553.655	4447.63
558.351	4345.49
563.043	4274.4
567.732	4148.87
572.419	3913.37
577.103	3719.9
581.784	3081.89
586.463	2307.35
591.138	1598.84
595.811	990.979
600.481	414.802
605.148	26.9688
609.813	27.2656
614.475	177.168
619.134	516.437
623.79	865.481
628.444	1272.94
633.095	2287.48
637.743	3462.04
642.388	5324.59
647.031	8321.88
651.671	13623
656.308	22367.8
660.942	34737.5
665.574	47374
670.203	46804.4
674.83	33729.7
679.454	21411.9
684.075	13155.1
688.693	8614.56
693.309	5671.43
697.922	4147.67
702.532	2957
707.14	2156.49
711.745	1465.23
716.348	1043.27
720.947	604.687
725.545	219.773
730.139	15.377
734.731	96.1426
739.32	166.051
743.907	269.108
748.491	278.596
753.072	194
757.651	145.456
762.227	165.513
766.801	66.6953
771.372	27.459
775.94	109.237
780.506	216.93
785.069	316.69
789.63	421.59
794.188	675.697
798.744	854.076
803.297	1290.79
807.847	1488.91
812.395	1645.48
816.94	2007.58
821.483	2087.26
826.023	2177.58
830.561	2114.59
835.096	1936.36
839.628	1858.94
844.158	1806.37
848.686	1669.72
853.211	2030.02
857.734	2444.71
862.254	2599.7
866.771	2757.36
871.286	2638.94
875.798	2495.67
880.308	2185.36
884.816	2062.44
889.321	1782.84
893.824	1677.33
898.324	1621.84
902.821	1847.37
907.316	1718.8
911.809	1645.23
916.299	1841.18
920.787	2067.67
925.272	2354.79
929.755	2262.27
934.236	2350.89
938.714	2429.75
943.189	2442.79
947.662	2406.01
952.133	2855.39
956.601	2989.9
961.067	3613.46
965.531	3950
969.992	4617.49
974.45	5319.91
978.907	6104.28
983.361	7222.58
987.812	8802.77
992.261	10482.8
996.708	12824.7
1001.15	15521.5
1005.59	16896.5
1010.03	16418.3
1014.47	13677.4
1018.91	10328.2
1023.34	8257
1027.77	7004.81
1032.2	6572.23
1036.62	6175.72
1041.05	5706.06
1045.46	5361.84
1049.88	4673.45
1054.3	4138.55
1058.71	3521.73
1063.12	3115.71
1067.53	2630.85
1071.94	2491.49
1076.35	2161.69
1080.75	2081.93
1085.15	1769.7
1089.55	1791.61
1093.94	1660.22
1098.33	1422.01
1102.72	1480.97
1107.11	1223.66
1111.5	1072.67
1115.88	1123.28
1120.26	1124.55
1124.64	1152.77
1129.02	620.618
1133.4	346.265
1137.77	191.165
1142.14	24.1523
1146.51	135.298
1150.87	109.094
1155.24	171.806
1159.6	146.648
1163.96	157.967
1168.31	115.675
1172.67	189.373
1177.02	79.6812
1181.37	152.606
1185.72	128.94
1190.07	104.749
1194.41	12.2261
1198.75	109.963
1203.09	102.96
1207.43	73.269
1211.76	172.851
1216.09	128.611
1220.42	224.059
1224.75	253.845
1229.08	382.209
1233.4	300.19
1237.72	291.759
1242.04	395.827
1246.36	416.442
1250.68	428.615
1254.99	417.355
1259.3	455.655
1263.61	334.492
1267.92	387.843
1272.22	513.357
1276.52	420.339
1280.82	476.828
1285.12	451.897
1289.42	520.917
1293.71	497.767
1298	389.527
1302.29	352.335
1306.58	420.343
1310.87	391.086
1315.15	265.41
1319.43	328.548
1323.71	492.763
1327.99	456.378
1332.26	419.12
1336.54	424.876
1340.81	462.918
1345.08	401.873
1349.34	431.544
1353.61	384.523
1357.87	382.375
1362.13	428.079
1366.39	433.647
1370.64	412.828
1374.9	304.214
1379.15	340.489
1383.4	425.189
1387.65	324.665
1391.9	346.508
1396.14	329.924
1400.38	408.884
1404.62	289.279
1408.86	197.367
1413.1	241.659
1417.33	173.078
1421.56	175.111
1425.79	269.328
1430.02	196.311
1434.25	106.849
1438.47	198.632
1442.69	207.344
1446.91	242.464
1451.13	95.269
1455.35	115.554
1459.56	194.267
1463.78	222.021
1467.98	109.79
1472.19	148.762
1476.4	118.93
1480.6	200.461
1484.81	190.178
1489.01	31.9229
1493.2	95.6709
1497.4	78.9014
1501.6	88.6763
1505.79	20.4204
1509.98	168.02
1514.17	70.626
1518.36	65.9233
1522.54	193.061
1526.72	16.8335
1530.9	32.8955
1535.08	90.9561
1539.26	162.977
1543.44	174.397
1547.61	193.274
1551.78	97.2817
1555.95	195.052
1560.12	224.275
1564.29	0.753906
