Measurement: Raman, 514 nm, ccw, Raman Data Processed
Mineral: Diopside
Rruff sample: R060276
Ideal chemistry: CaMgSi_2_O_6_
Locality: Inagli, Yakutia, Siberia, Russia
Source: Herb Obodda
Description: Transparent green cleavage fragment
Measured chemistry: (Ca_0.97_Na_0.03_)_Σ=1_(Mg_0.96_Fe_0.03_Cr_0.01_)_Σ=1_(Si_1.98_Al_0.02_)_Σ=2_O_6_
Pin_id: L01321
Orientation: Laser parallel to (1 0 1). Fiducial mark perpendicular to laser is parallel to -b [0 -1 0]
Raman shift (cm-1)	intensity
111.976	0
116.903	89.1748
121.827	181.621
126.749	829.092
131.668	2450.17
136.585	4465.02
141.5	6216.37
146.412	3149.35
151.321	782.333
156.229	273.452
161.134	288.163
166.036	132.255
170.936	128.474
175.834	23.0207
180.729	52.7576
185.622	11.8586
190.512	54.0059
195.4	55.2505
200.286	3.97705
205.169	24.29
210.049	33.001
214.928	13.658
219.803	164.363
224.677	230.083
229.548	239.101
234.416	261.237
239.282	44.3296
244.146	168.794
249.007	279.64
253.866	418.871
258.722	351.523
263.576	33.5815
268.427	19.1377
273.276	63.9441
278.123	33.1133
282.967	13.5112
287.809	145.96
292.648	417.925
297.485	553.582
302.319	1019.52
307.151	1902.1
311.98	3194.12
316.807	5210.45
321.631	7250.02
326.454	7781.25
331.273	4357.69
336.09	2191.09
340.905	1655.51
345.717	1937.82
350.527	3589.46
355.334	5413.97
360.139	7013.81
364.941	6075.32
369.741	4086.11
374.538	3516.18
379.333	5521.53
384.126	10266.2
388.916	15281.1
393.703	14670.4
398.488	6119.87
403.271	2155.69
408.051	874.781
412.828	530.858
417.603	349.552
422.376	273.695
427.146	116.442
431.914	75.7739
436.679	15.3687
441.442	37.7637
446.202	72.6685
450.96	99.6377
455.715	201.351
460.467	222.698
465.218	272.207
469.965	295.265
474.711	138.867
479.454	123.013
484.194	78.4795
488.932	5.71045
493.667	9.69629
498.4	85.7412
503.13	185.48
507.858	296.465
512.583	170.822
517.306	176.603
522.026	246.685
526.744	418.154
531.459	580.966
536.172	624.035
540.882	596.499
545.59	519.216
550.295	545.124
554.998	736.172
559.698	803.405
564.396	714.863
569.091	509.532
573.784	350.303
578.474	206.155
583.162	210.081
587.847	135.431
592.529	56.498
597.209	53.8272
601.887	5.51562
606.562	130.938
611.235	120.389
615.905	347.801
620.572	589.026
625.237	727.734
629.9	1172.87
634.56	1415.63
639.217	2081.1
643.872	3359.3
648.524	5612.39
653.174	10784.8
657.821	24330.6
662.466	44922
667.108	55928.8
671.748	36595.7
676.385	15117.4
681.02	7120.43
685.652	3877.54
690.281	2368.56
694.908	1621.29
699.533	1208.73
704.155	907.859
708.774	653.683
713.391	443.193
718.005	254.387
722.617	160.265
727.226	126.851
731.833	9.11914
736.437	82.5972
741.039	51.1768
745.638	40.6094
750.234	36.8096
754.828	41.752
759.419	52.5156
764.008	5.62354
768.595	106.766
773.178	143.882
777.759	49.6958
782.338	97.1885
786.914	24.8667
791.488	25.1899
796.059	29.624
800.627	13.0288
805.193	39.3184
809.756	123.851
814.317	66.3955
818.875	6.33789
823.431	135.382
827.984	160.844
832.534	222.125
837.082	406.239
841.627	959.195
846.17	2671.01
850.71	6078.68
855.248	8418.24
859.783	5994.68
864.316	3058
868.846	1670.14
873.373	1219.77
877.898	842.096
882.42	695.455
886.94	584.922
891.457	570.699
895.971	499.962
900.483	447.159
904.993	401.022
909.5	359.972
914.004	332.538
918.505	369.607
923.004	212.943
927.501	227.964
931.995	166.274
936.486	254.277
940.975	137.831
945.461	101.076
949.945	211.233
954.426	319.536
958.904	351.241
963.38	464.661
967.853	665.388
972.324	731.398
976.792	949.69
981.258	1150.26
985.72	1672.12
990.181	2310.27
994.639	3723.69
999.094	6886.39
1003.55	15309.4
1008	35481.7
1012.44	53627.4
1016.89	37746.7
1021.33	13995.4
1025.77	6979.56
1030.21	5079.2
1034.64	5071.78
1039.07	6791.77
1043.5	10418.7
1047.93	12065.5
1052.35	7772.36
1056.78	3803.86
1061.19	2141.49
1065.61	1547.95
1070.02	1069.36
1074.43	794.4
1078.84	788.639
1083.25	653.763
1087.65	720.934
1092.05	509.917
1096.45	606.416
1100.85	550.799
1105.24	582.878
1109.63	538.163
1114.02	524.203
1118.4	622.574
1122.78	679.464
1127.16	656.536
1131.54	541.789
1135.92	510.601
1140.29	357.599
1144.66	289.089
1149.02	298.049
1153.39	268.213
1157.75	197.449
1162.11	41.0772
1166.46	37.3892
1170.82	35.9585
1175.17	26.7378
1179.52	67.0386
1183.86	59.1533
1188.21	69.1318
1192.55	53.3794
1196.89	58.0845
1201.22	1.50439
1205.55	81.7529
1209.88	43.7969
1214.21	67.4102
1218.54	11.1309
1222.86	40.7158
1227.18	134.183
1231.5	97.8027
1235.81	71.8428
1240.12	98.6377
1244.43	43.5508
1248.74	199.057
1253.04	71.7051
1257.34	194.791
1261.64	156.983
1265.94	180.67
1270.23	137.211
1274.52	271.812
1278.81	131.87
1283.1	326.892
1287.38	151.349
1291.66	161.25
1295.94	246.328
1300.21	295.513
1304.48	266.201
1308.75	207.353
1313.02	82.1875
1317.29	182.416
1321.55	204.299
1325.81	334.455
1330.06	306.492
1334.32	289.245
1338.57	286.754
1342.82	277.849
1347.06	317.647
1351.31	356.791
1355.55	285.205
1359.79	238.879
1364.02	196.097
1368.26	140.634
1372.49	1.96973
1376.71	90.708
1380.94	105.414
1385.16	87.3232
1389.38	109.372
1393.6	97.2412
1397.81	190.246
1402.02	94.5732
1406.23	121.513
1410.44	65.3838
1414.64	126.436
1418.85	27.1777
1423.04	37.2637
1427.24	94.2314
1431.43	206.067
1435.62	29.2158
1439.81	2.40918
1444	163.183
1448.18	161.215
1452.36	10.4932
1456.54	100
1460.71	239.583
1464.89	30.7764
1469.06	100.924
1473.22	53.6836
1477.39	85.7891
1481.55	32.5273
1485.71	56.7139
1489.86	184.745
1494.02	180.733
1498.17	23.9902
1502.32	228.177
1506.46	84.0869
1510.61	253.198
1514.75	119.74
1518.88	174.862
1523.02	66.4356
1527.15	231.6
1531.28	107.064
1535.41	125.511
1539.53	129.228
1543.66	83.0469
1547.78	96.0947
1551.89	168.024
1556.01	86.1006
1560.12	187.858
1564.23	114.587
1568.33	94.667
1572.43	0
