Measurement: Raman, 514 nm, ccw, Raman Data Processed
Mineral: Diopside
Rruff sample: R060861
Ideal chemistry: CaMgSi_2_O_6_
Locality: Red Mountain Volcano, NW of Flagstaff, Arizona, USA
Source: Jennifer Sano
Description: Worn brown fragment
Measured chemistry: (Ca_0.72_Fe^2+^_0.23_Na_0.05_)_Σ=1_(Mg_0.80_Al_0.15_Ti_0.03_Fe^3+^_0.02_)_Σ=1_(Si_1.82_Al_0.18_)_Σ=2_O_6_
Pin_id: M01599
Orientation: Laser parallel to (1 0 1). Fiducial mark perpendicular to laser is parallel to b [0 1 0]
Raman shift (cm-1)	intensity
174.7	0
179.631	55.3682
184.56	498.243
189.484	967.578
194.406	1298.68
199.325	928.626
204.24	625.635
209.153	75.6992
214.062	401.175
218.968	778.447
223.87	1338.3
228.77	1540.15
233.666	1157.99
238.56	892.043
243.45	846.743
248.337	1125.29
253.221	1224.06
258.102	1459.82
262.979	986.389
267.854	502.956
272.726	411.798
277.594	635.076
282.459	1258.74
287.321	1911.7
292.18	2915.81
297.036	4190.94
301.889	5325.96
306.739	6928.21
311.586	8993.82
316.43	11508
321.271	14587.6
326.108	17161.5
330.943	19024.5
335.774	19313.5
340.603	18650.7
345.428	17647
350.251	16912
355.07	16585.8
359.887	15938.7
364.7	15159.7
369.511	13823.2
374.318	12652.9
379.123	12415.8
383.924	12749.6
388.723	13769.3
393.518	14650.6
398.311	13485.4
403.1	10311.7
407.887	6317.44
412.671	3608.51
417.451	1961.85
422.229	1012.36
427.004	445.967
431.776	213.579
436.545	111.894
441.311	241.683
446.074	204.888
450.834	137.64
455.591	276.197
460.346	715.756
465.097	1038.58
469.846	1234.32
474.591	1283.01
479.334	1193.26
484.074	1322.82
488.811	1435.48
493.545	1635.12
498.276	1648.66
503.005	1700.04
507.73	2054.08
512.453	2551.68
517.173	3198.76
521.89	3713.47
526.604	4577.96
531.315	5466.91
536.024	5779
540.729	5803.15
545.432	5557.27
550.132	5298.3
554.83	5134.16
559.524	4922.79
564.216	4212.13
568.904	3510.1
573.59	2771.64
578.274	2109.44
582.954	1555.8
587.632	698.133
592.307	195.177
596.979	160.194
601.648	165.167
606.315	11.2495
610.979	409.892
615.64	780.199
620.298	1430.19
624.954	1999.12
629.607	3031.35
634.257	4395.85
638.904	6484.6
643.549	10028.6
648.191	14741.9
652.83	22976.4
657.467	35714.2
662.101	50177.3
666.732	56709.7
671.36	49884.4
675.986	34280.4
680.609	21305.8
685.23	13467.6
689.847	8508.84
694.462	5784.55
699.075	4146.78
703.685	2908.58
708.292	2067.99
712.896	1559.06
717.498	805.768
722.097	335.656
726.694	40.0449
731.287	368.826
735.879	498.19
740.467	578.744
745.053	575.718
749.637	404.244
754.217	193.997
758.795	118.299
763.371	487.94
767.944	957.686
772.514	1136.68
777.082	1339.05
781.647	1543.94
786.21	1519.5
790.77	1632.15
795.327	1643.12
799.882	1716.93
804.434	1640.97
808.984	1950.81
813.531	2107.08
818.076	2220.93
822.618	2110.45
827.158	1912.79
831.695	1948.05
836.229	1630.36
840.761	1494.83
845.291	1199.56
849.817	1547.69
854.342	2230.31
858.864	2914.06
863.383	3746.65
867.9	4302.29
872.414	4115.75
876.926	3940.61
881.436	3743.07
885.942	3368.71
890.447	3188.09
894.949	3006.88
899.448	3124.73
903.945	3104.18
908.44	3118.4
912.932	3264.26
917.421	3423.71
921.909	3425.85
926.393	3718.37
930.876	3897.23
935.355	4059.39
939.833	4288.61
944.308	4662.91
948.78	5373.3
953.25	5924.62
957.718	6836.81
962.183	7722.87
966.646	8677.74
971.107	10055.4
975.565	12614.7
980.02	14048.8
984.474	17055.5
988.925	21925.9
993.373	28104.9
997.819	35830
1002.26	43416.3
1006.7	46372.6
1011.14	42249.2
1015.58	32866.4
1020.01	23468
1024.45	16968.9
1028.88	13003.4
1033.3	10673.4
1037.73	8976.77
1042.15	7750.97
1046.57	6560.81
1050.99	5285.01
1055.4	4506.76
1059.82	3726.74
1064.23	3168.28
1068.64	2802.75
1073.04	2399.98
1077.45	2281
1081.85	2310.98
1086.25	2159.67
1090.64	2189.62
1095.04	2096.69
1099.43	2266.34
1103.82	2049.82
1108.21	2090.95
1112.6	2096.14
1116.98	1886.38
1121.36	1819.04
1125.74	1407.94
1130.12	951.587
1134.49	619.883
1138.86	182.271
1143.23	17.0669
1147.6	121.19
1151.96	414.695
1156.33	365.261
1160.69	305.969
1165.05	279.051
1169.4	221.815
1173.76	103.402
1178.11	185.45
1182.46	218.555
1186.81	82.1631
1191.15	12.456
1195.49	151.182
1199.84	191.657
1204.17	181.17
1208.51	225.731
1212.84	334.097
1217.18	435.813
1221.51	392.845
1225.83	477.16
1230.16	577.812
1234.48	677.862
1238.8	706.31
1243.12	756.141
1247.44	807.335
1251.76	860.859
1256.07	890.938
1260.38	930.236
1264.69	929.942
1268.99	949.932
1273.3	1089.49
1277.6	1065.66
1281.9	1106.81
1286.2	974.674
1290.49	978.756
1294.79	924.403
1299.08	772.289
1303.37	796.447
1307.65	716.352
1311.94	702.843
1316.22	666.524
1320.5	621.712
1324.78	704.112
1329.06	616.473
1333.33	669.4
1337.6	678.038
1341.87	640.173
1346.14	626.541
1350.41	542.062
1354.67	579.168
1358.93	464.048
1363.19	508.119
1367.45	470.306
1371.71	443.715
1375.96	430.236
1380.21	381.373
1384.46	334.81
1388.71	409.289
1392.96	316.656
1397.2	249.714
1401.44	266.21
1405.68	338.038
1409.92	318.211
1414.16	283.298
1418.39	245.468
1422.62	188.492
1426.85	185.33
1431.08	184.201
1435.3	136.066
1439.53	175.852
1443.75	161.615
1447.97	121.477
1452.19	148.556
1456.4	197.914
1460.62	54.8755
1464.83	135.78
1469.04	139.516
1473.24	171.364
1477.45	64.7139
1481.65	83.4394
1485.86	86.3384
1490.06	99.2974
1494.26	80.1851
1498.45	132.72
1502.64	77.9951
1506.84	131.893
1511.03	57.0898
1515.22	30.5464
1519.4	88.4238
1523.59	163.545
1527.77	23.0742
1531.95	38.1645
1536.13	90.6455
1540.31	45.727
1544.48	146.445
1548.65	45.3403
1552.82	73.2988
1556.99	61.876
1561.16	130.988
1565.33	0
