Measurement: Raman, 514 nm, ccw, Raman Data Processed
Mineral: Diopside
Rruff sample: R060171
Ideal chemistry: CaMgSi_2_O_6_
Locality: Jeffrey mine, Asbestos, Quebec, Canada
Source: Guy Ouellet
Description: Yellowish-brown tabular crystals associated with vesuvianite, R060170
Measured chemistry: Ca_1.00_(Mg_0.98_Mn_0.02_)_Î£=1_Si_2.00_O_6_
Pin_id: L01396
Orientation: Laser parallel to -a* (-1 0 0). Fiducial mark perpendicular to laser is parallel to b [0 1 0]
Raman shift (cm-1)	intensity
129.209	0
134.127	4.00977
139.043	523.744
143.956	395.213
148.867	72.416
153.775	180.367
158.681	125.795
163.585	79.2812
168.486	92.2754
173.385	416.435
178.282	493.938
183.176	272.297
188.067	222.18
192.956	337.301
197.843	331.435
202.727	250.455
207.609	272.059
212.489	44.2793
217.366	183.539
222.24	342.887
227.112	552.356
231.982	637.773
236.849	354.256
241.714	286.699
246.577	325.065
251.437	257.231
256.294	404.223
261.149	206.91
266.002	181.275
270.852	337.135
275.7	212.119
280.545	174.955
285.388	200.185
290.229	243.34
295.067	377.225
299.902	409.897
304.735	388.18
309.566	789.646
314.394	1329.66
319.22	2657.68
324.043	2847.12
328.864	1336.17
333.682	439.986
338.498	298.094
343.311	253.203
348.122	467.209
352.931	585.768
357.737	411.049
362.54	368.252
367.341	415.824
372.14	268.848
376.936	576.092
381.73	1477.64
386.521	3042.49
391.31	2468.61
396.096	888.998
400.88	177.043
405.661	360.885
410.44	211.772
415.216	91.3828
419.99	142.859
424.761	163.287
429.53	58.4141
434.297	388.459
439.061	175.166
443.822	95.6504
448.581	90.1992
453.337	28.3125
458.091	31.3164
462.843	20.9395
467.592	84.4238
472.338	255.154
477.082	110.295
481.824	47.8184
486.563	216.094
491.3	36.9062
496.034	0.085938
500.765	215.082
505.494	195.141
510.221	350.24
514.945	113.312
519.666	147.391
524.385	342.523
529.102	344.779
533.816	65.2188
538.527	215.635
543.236	34.0137
547.943	37.8906
552.647	10.3418
557.348	51.4414
562.047	223.301
566.744	131.727
571.438	333.141
576.129	106.568
580.818	57.6094
585.504	58.0332
590.188	107.598
594.87	59.4922
599.549	25.1797
604.225	35.8613
608.899	66.9668
613.57	425.805
618.239	138.797
622.905	231.152
627.569	172.99
632.23	474.031
636.889	199.039
641.545	241.834
646.198	368.934
650.849	615.217
655.498	832.127
660.144	1912.31
664.787	2700.41
669.428	1890.71
674.067	884.635
678.703	398.406
683.336	369.766
687.967	231.91
692.595	77.7793
697.221	250.275
701.844	264.387
706.465	200.4
711.083	140.268
715.698	422.986
720.311	157.9
724.922	194.498
729.53	31.8418
734.135	204.037
738.738	152.695
743.338	136.637
747.936	139.256
752.531	20.6367
757.124	130.51
761.714	39.1836
766.302	28.6504
770.887	292.268
775.469	118.906
780.049	373.522
784.626	98.166
789.201	342.342
793.773	131.897
798.343	128.883
802.91	43.5254
807.475	163.26
812.037	271.289
816.596	278.769
821.153	74.4961
825.707	194.502
830.259	302.891
834.808	79.6914
839.355	279.127
843.899	296.227
848.441	446.685
852.98	385.076
857.516	609.113
862.05	303.254
866.581	259.059
871.11	307.316
875.636	411.731
880.159	275.144
884.68	297.527
889.199	247.949
893.714	261.492
898.228	393.746
902.738	124.371
907.246	296.188
911.752	363.852
916.255	257.172
920.755	270.121
925.253	48.2109
929.748	156.227
934.241	270.812
938.731	221.922
943.218	197.434
947.703	258.231
952.186	200.344
956.665	157.621
961.142	334.887
965.617	281.117
970.089	125.219
974.558	208.418
979.025	292.496
983.489	88.0781
987.951	180.703
992.41	378.473
996.866	667.684
1001.32	817.375
1005.77	2553.03
1010.22	6494.31
1014.67	5315.65
1019.11	1732.46
1023.55	897.809
1027.99	748.762
1032.42	437.809
1036.86	516.527
1041.29	448.414
1045.72	409.742
1050.14	441.727
1054.56	274.356
1058.98	197.438
1063.4	444.402
1067.82	171.16
1072.23	178.062
1076.64	106.098
1081.05	43.4219
1085.45	206.367
1089.85	203.66
1094.25	195.988
1098.65	30.7617
1103.04	141.164
1107.43	115.559
1111.82	47.8281
1116.21	128.066
1120.59	15.6953
1124.97	69.9102
1129.35	0.238281
1133.73	181.289
1138.1	237.367
1142.47	17.2617
1146.84	309.078
1151.21	312.621
1155.57	19.8984
1159.93	12.2461
1164.29	178.586
1168.64	109.117
1172.99	78.7852
1177.34	154.266
1181.69	181.309
1186.04	42.8672
1190.38	296.023
1194.72	204.746
1199.05	338.981
1203.39	230.168
1207.72	42.7578
1212.05	190.039
1216.37	24.8867
1220.7	227.731
1225.02	246.445
1229.34	77.4453
1233.65	392.785
1237.97	319.398
1242.28	165.977
1246.59	305.356
1250.89	440.676
1255.19	263.992
1259.49	276.027
1263.79	187.34
1268.09	542.242
1272.38	270.746
1276.67	309.418
1280.95	269.258
1285.24	402.402
1289.52	236.574
1293.8	175.648
1298.08	353.711
1302.35	86.6367
1306.62	182.344
1310.89	249.731
1315.15	473.117
1319.42	658.316
1323.68	446.039
1327.94	506.93
1332.19	831.809
1336.44	696.047
1340.69	897.68
1344.94	564.547
1349.19	448.668
1353.43	972.469
1357.67	795.688
1361.9	548.445
1366.14	785.918
1370.37	506.406
1374.6	667.644
1378.83	600.352
1383.05	244.578
1387.27	392.449
1391.49	324.891
1395.7	473.836
1399.92	54.4844
1404.13	102.781
1408.34	269.938
1412.54	197.844
1416.74	78.4922
1420.94	407.598
1425.14	292.879
1429.34	110
1433.53	367.531
1437.72	508.914
1441.9	182.473
1446.09	573.508
1450.27	361.793
1454.45	445.16
1458.63	430.586
1462.8	73.8633
1466.97	158.984
1471.14	260.988
1475.31	180.926
1479.47	385.754
1483.63	228.481
1487.79	594.121
1491.94	452.473
1496.09	148.863
1500.24	499.746
1504.39	424.5
1508.54	365.68
1512.68	347.129
1516.82	366.652
1520.95	404.965
1525.09	400.871
1529.22	220.434
1533.35	54.7812
1537.47	2.65234
1541.6	129.445
1545.72	91.9336
1549.83	212.867
1553.95	251.832
1558.06	165.984
1562.17	201.66
1566.28	147.695
1570.38	139.352
