Measurement: Raman, 514 nm, ccw, Raman Data Processed
Mineral: Diopside
Rruff sample: R060276
Ideal chemistry: CaMgSi_2_O_6_
Locality: Inagli, Yakutia, Siberia, Russia
Source: Herb Obodda
Description: Transparent green cleavage fragment
Measured chemistry: (Ca_0.97_Na_0.03_)_Σ=1_(Mg_0.96_Fe_0.03_Cr_0.01_)_Σ=1_(Si_1.98_Al_0.02_)_Σ=2_O_6_
Pin_id: L01049
Orientation: Laser parallel to a* (1 0 0). Fiducial mark perpendicular to laser is parallel to -b [0 -1 0]
Raman shift (cm-1)	intensity
109.512	0
114.44	165.333
119.365	396.836
124.288	1435.32
129.209	6101.88
134.127	10706.6
139.043	15207.7
143.956	11959.7
148.867	3297.2
153.775	933.407
158.681	252.243
163.585	265.677
168.486	351.396
173.385	729.94
178.282	954.356
183.176	1085.89
188.067	556.032
192.956	506.26
197.843	334.562
202.727	216.224
207.609	139.468
212.489	29.9551
217.366	155.339
222.24	580.973
227.112	983.902
231.982	953.682
236.849	680.871
241.714	590.879
246.577	1325.91
251.437	1705.97
256.294	1766.24
261.149	655.359
266.002	60.0859
270.852	148.818
275.7	96.6792
280.545	101.949
285.388	26.353
290.229	241.56
295.067	495.106
299.902	916.306
304.735	1619.3
309.566	3488.02
314.394	8600.4
319.22	14234.7
324.043	16908.8
328.864	11693.9
333.682	5389.91
338.498	2883.85
343.311	2061.08
348.122	2134.52
352.931	2377.44
357.737	2866.71
362.54	3050
367.341	2957.78
372.14	2587.52
376.936	3144.22
381.73	6077.9
386.521	9274.57
391.31	10178.2
396.096	6075.91
400.88	2323.56
405.661	1000.2
410.44	451.606
415.216	125.016
419.99	205.047
424.761	15.958
429.53	118.514
434.297	42.4639
439.061	32.9477
443.822	79.3096
448.581	28.585
453.337	131.784
458.091	116.877
462.843	193.738
467.592	193.788
472.338	52.6738
477.082	6.56299
481.824	69.3765
486.563	12.8555
491.3	3.01074
496.034	305.119
500.765	1027.76
505.494	1851.72
510.221	2105.89
514.945	1125.2
519.666	840.583
524.385	751.131
529.102	842.998
533.816	697.004
538.527	562.02
543.236	503.022
547.943	506.993
552.647	468.966
557.348	427.123
562.047	340.808
566.744	322.828
571.438	366.584
576.129	159.09
580.818	166.798
585.504	132.48
590.188	2.48731
594.87	85.4814
599.549	32.5923
604.225	3.66309
608.899	87.0508
613.57	28.4053
618.239	307.083
622.905	415.315
627.569	739.736
632.23	1099.95
636.889	1710.79
641.545	2323.29
646.198	3922.41
650.849	7562.35
655.498	16608.3
660.144	34303.5
664.787	47890.7
669.428	39580.5
674.067	18934.1
678.703	8380.1
683.336	4520.05
687.967	2762.85
692.595	1802.7
697.221	1340.87
701.844	1230.72
706.465	1033.28
711.083	790.558
715.698	592.602
720.311	462.421
724.922	257.022
729.53	189.088
734.135	107.067
738.738	147.912
743.338	50.084
747.936	65.4009
752.531	5.8667
757.124	62.1758
761.714	52.083
766.302	94.3184
770.887	59.5727
775.469	49.0972
780.049	43.8013
784.626	92.2876
789.201	63.4624
793.773	21.229
798.343	65.4077
802.91	87.2778
807.475	42.9648
812.037	14.2393
816.596	1.73828
821.153	15.5229
825.707	96.5581
830.259	124.349
834.808	203.963
839.355	396.416
843.899	887.719
848.441	2106.88
852.98	3285.91
857.516	3145.81
862.05	1820.6
866.581	998.287
871.11	706.79
875.636	698.389
880.159	551.981
884.68	543.66
889.199	545.874
893.714	386.451
898.228	515.11
902.738	494.063
907.246	462.962
911.752	440.594
916.255	557.634
920.755	320.056
925.253	393.589
929.748	302.729
934.241	254.36
938.731	124.385
943.218	191.316
947.703	87.9258
952.186	113.387
956.665	48.2959
961.142	290.309
965.617	341.978
970.089	467.287
974.558	587.847
979.025	780.601
983.489	978.549
987.951	1257.69
992.41	2077.06
996.866	3562.65
1001.32	7183.44
1005.77	17071.4
1010.22	30278.7
1014.67	27494.1
1019.11	11876.8
1023.55	4917.87
1027.99	3002.12
1032.42	2348
1036.86	2320.05
1041.29	2881.89
1045.72	3065.98
1050.14	2618.33
1054.56	1691.67
1058.98	1247.49
1063.4	1001.98
1067.82	809.442
1072.23	690.883
1076.64	674.058
1081.05	611.516
1085.45	457.595
1089.85	550.142
1094.25	371.312
1098.65	365.916
1103.04	477.553
1107.43	327.927
1111.82	292.706
1116.21	608.378
1120.59	740.598
1124.97	702.681
1129.35	486.318
1133.73	359.042
1138.1	226.548
1142.47	244.284
1146.84	141.005
1151.21	154.768
1155.57	191.364
1159.93	67.4512
1164.29	78.3623
1168.64	11.1416
1172.99	57.0664
1177.34	14.9746
1181.69	41.7471
1186.04	9.6748
1190.38	40.3633
1194.72	141.37
1199.05	87.5459
1203.39	38.4238
1207.72	70.0449
1212.05	62.2256
1216.37	39.125
1220.7	179.886
1225.02	67.2285
1229.34	177.634
1233.65	63.4404
1237.97	113.959
1242.28	106.782
1246.59	188.121
1250.89	144.594
1255.19	53.8906
1259.49	136.462
1263.79	243.868
1268.09	142.345
1272.38	134.794
1276.67	146.895
1280.95	194.811
1285.24	139.602
1289.52	190.946
1293.8	127.711
1298.08	196.882
1302.35	148.34
1306.62	105.038
1310.89	152.834
1315.15	124.48
1319.42	204.522
1323.68	171.702
1327.94	309.707
1332.19	329.051
1336.44	260.984
1340.69	300.296
1344.94	320.582
1349.19	198.269
1353.43	245.456
1357.67	188.686
1361.9	217.715
1366.14	202.426
1370.37	195.003
1374.6	255.26
1378.83	223.141
1383.05	136.127
1387.27	165.922
1391.49	46.5391
1395.7	216.843
1399.92	166.463
1404.13	137.661
1408.34	135.891
1412.54	105.445
1416.74	90.0225
1420.94	54.4912
1425.14	28.9785
1429.34	40.8477
1433.53	59.5908
1437.72	33.5205
1441.9	97.332
1446.09	115.591
1450.27	6.23242
1454.45	80.749
1458.63	107.455
1462.8	233.193
1466.97	152.701
1471.14	134.6
1475.31	255.905
1479.47	93.8721
1483.63	146.698
1487.79	185.431
1491.94	134.735
1496.09	164.385
1500.24	167.259
1504.39	217.274
1508.54	107.014
1512.68	182.666
1516.82	102.142
1520.95	250.635
1525.09	83.1826
1529.22	1.64648
1533.35	122.686
1537.47	100.894
1541.6	264.124
1545.72	208.168
1549.83	277.862
1553.95	268.126
1558.06	77.9092
1562.17	77.9385
1566.28	3.10352
1570.38	656.598
