Measurement: Raman, 514 nm, ccw, Raman Data Processed
Mineral: Diopside
Rruff sample: R060171
Ideal chemistry: CaMgSi_2_O_6_
Locality: Jeffrey mine, Asbestos, Quebec, Canada
Source: Guy Ouellet
Description: Yellowish-brown tabular crystals associated with vesuvianite, R060170
Measured chemistry: Ca_1.00_(Mg_0.98_Mn_0.02_)_Î£=1_Si_2.00_O_6_
Pin_id: L00876
Orientation: Laser parallel to -b* (0 -1 0). Fiducial mark perpendicular to laser is parallel to -c [0 0 -1]
Raman shift (cm-1)	intensity
95.948	0
100.883	19.3157
105.815	348.519
110.744	166.047
115.671	301.652
120.596	305.218
125.519	659.943
130.439	3482.46
135.356	6109.85
140.271	7528.29
145.184	5978.18
150.094	800.677
155.002	206.776
159.908	44.8904
164.811	41.741
169.711	68.2583
174.61	319.789
179.505	494.502
184.399	1107.83
189.29	175.195
194.178	138.459
199.064	56.6497
203.948	5.37183
208.829	4.14771
213.708	70.9844
218.585	204.093
223.459	459.418
228.33	849.841
233.199	1408.39
238.066	1362.12
242.93	563.884
247.792	999.623
252.651	1635.94
257.508	2602.67
262.363	486.34
267.215	84.7012
272.064	47.4219
276.912	25.0889
281.756	38.4214
286.598	18.0561
291.438	46.7898
296.276	153.471
301.111	547.489
305.943	1271.21
310.773	2529.39
315.601	5466
320.426	8049.8
325.248	11759.5
330.068	5010.25
334.886	1448.9
339.701	720.394
344.514	599.671
349.324	826.178
354.132	1436.17
358.938	2159.91
363.741	1710.38
368.541	779.117
373.339	604.651
378.135	1228.65
382.928	2643.44
387.718	4066.24
392.506	4348.16
397.292	1190.17
402.075	359.247
406.856	142.624
411.634	78.1262
416.41	23.3323
421.183	16.5564
425.954	9.64868
430.722	4.73169
435.488	20.2056
440.251	4.30029
445.012	23.9592
449.77	13.7097
454.526	28.5781
459.28	50.6619
464.03	84.5029
468.779	85.3838
473.525	101.221
478.268	139.014
483.009	103.765
487.747	120.481
492.483	314.155
497.217	790.818
501.948	2118.47
506.676	3832.08
511.402	3271.66
516.125	814.2
520.846	516.722
525.565	454.227
530.281	495.719
534.994	282.2
539.705	135.744
544.413	112.319
549.119	144.03
553.822	88.814
558.523	153.506
563.222	39.9006
567.917	61.4678
572.611	39.8838
577.302	27.2607
581.99	6.34277
586.676	18.5352
591.359	39.4988
596.04	4.7229
600.718	7.99194
605.394	61.5395
610.067	157.212
614.737	126.838
619.406	340.42
624.071	475.993
628.734	538.682
633.395	965.138
638.053	1245.62
642.708	1996.05
647.361	3232.36
652.012	6155.67
656.66	13955.6
661.305	27619.6
665.948	39011
670.588	27203
675.226	10765.1
679.861	5080.21
684.494	2780.49
689.124	1797.42
693.752	1354.93
698.377	866.374
702.999	661.748
707.619	557.554
712.237	470.306
716.852	414.929
721.464	379.144
726.074	355.351
730.681	208.902
735.286	228.706
739.888	223.816
744.488	186.186
749.085	207.413
753.68	214.126
758.272	163.33
762.861	58.1929
767.448	128.269
772.033	119.83
776.614	52.2661
781.194	162.577
785.77	137.77
790.345	1.84326
794.916	25.7476
799.485	31.4585
804.052	102.982
808.616	18.6836
813.177	28.604
817.736	22.1025
822.292	51.4951
826.846	63.6631
831.397	10.2002
835.945	109.056
840.491	208.23
845.035	613.321
849.576	1706.33
854.114	2553.28
858.65	1410.22
863.183	521.202
867.713	216.115
872.241	130.975
876.767	33.7944
881.29	47.5601
885.81	28.7417
890.328	47.8315
894.843	3.67871
899.356	24.356
903.866	106.884
908.373	76.2544
912.878	155.465
917.38	99.9058
921.88	30.3945
926.377	152.023
930.872	125.264
935.364	178.788
939.853	158.932
944.34	170.341
948.824	247.824
953.306	164.161
957.785	298.206
962.261	320.865
966.735	350.623
971.207	431.141
975.675	596.828
980.141	734.606
984.605	941.438
989.066	1252.32
993.524	1800.26
997.98	3494.26
1002.43	7870.31
1006.88	24509.5
1011.33	48764.6
1015.78	43995.7
1020.22	13390.5
1024.66	5033.28
1029.1	3145.69
1033.53	2473.11
1037.97	2780.66
1042.4	4885.64
1046.82	7283.59
1051.25	5538.73
1055.67	2161.51
1060.09	975.762
1064.51	563.3
1068.92	383.895
1073.33	289.674
1077.74	262.316
1082.15	186.037
1086.55	85.6782
1090.95	221.945
1095.35	84.2212
1099.75	80.8579
1104.14	30.4263
1108.53	53.8818
1112.92	56.4966
1117.31	96.9546
1121.69	226.407
1126.07	137.038
1130.45	36.499
1134.82	1.07617
1139.19	60.6079
1143.57	66.04
1147.93	64.4795
1152.3	69.8066
1156.66	66.0747
1161.02	46.6572
1165.38	2.49707
1169.73	28.7905
1174.08	52.9477
1178.43	16.5942
1182.78	16.2515
1187.12	110.644
1191.46	62.8648
1195.8	93.644
1200.14	67.1084
1204.47	161.785
1208.8	102.044
1213.13	91.3242
1217.46	110.476
1221.78	97.5112
1226.1	162.988
1230.42	173.814
1234.73	124.584
1239.04	147.211
1243.35	163.567
1247.66	122.764
1251.97	125.814
1256.27	163.121
1260.57	187.023
1264.86	170.517
1269.16	94.9541
1273.45	110.269
1277.74	113.551
1282.03	81.3789
1286.31	128.664
1290.59	175.252
1294.87	103.039
1299.14	9.44336
1303.42	99.6089
1307.69	22.646
1311.95	60.377
1316.22	51.2192
1320.48	95.8291
1324.74	63.1543
1329	48.2476
1333.26	0.189941
1337.51	259.162
1341.76	207.039
1346	133.761
1350.25	95.3852
1354.49	105.876
1358.73	91.9961
1362.96	76.0513
1367.2	98.2139
1371.43	129.038
1375.66	96.896
1379.88	75.6401
1384.11	57.0903
1388.33	120.672
1392.54	335.129
1396.76	173.988
1400.97	148.296
1405.18	112.451
1409.39	132.506
1413.59	219.819
1417.8	132.728
1421.99	183.108
1426.19	167.019
1430.38	140.81
1434.58	223.632
1438.77	108.722
1442.95	97.4263
1447.13	184.926
1451.32	176.576
1455.49	233.643
1459.67	188.864
1463.84	83.4351
1468.01	206.02
1472.18	110.609
1476.35	141.3
1480.51	97.1299
1484.67	223.566
1488.83	156.501
1492.98	69.4302
1497.13	121.487
1501.28	149.511
1505.43	221.044
1509.57	169.027
1513.71	155.514
1517.85	87.1528
1521.99	155.887
1526.12	76.772
1530.25	162.912
1534.38	234.416
1538.5	93.4277
1542.62	141.73
1546.74	116.766
1550.86	98.9062
1554.98	72.4082
1559.09	76.4551
1563.2	10.6602
1567.31	135.308
1571.41	17.3984
