Measurement: Raman, 514 nm, ccw, Raman Data Processed
Mineral: Diopside
Rruff sample: R060276
Ideal chemistry: CaMgSi_2_O_6_
Locality: Inagli, Yakutia, Siberia, Russia
Source: Herb Obodda
Description: Transparent green cleavage fragment
Measured chemistry: (Ca_0.97_Na_0.03_)_Σ=1_(Mg_0.96_Fe_0.03_Cr_0.01_)_Σ=1_(Si_1.98_Al_0.02_)_Σ=2_O_6_
Pin_id: L01339
Orientation: Laser parallel to -b* (0 -1 0). Fiducial mark perpendicular to laser is parallel to c [0 0 1]
Raman shift (cm-1)	intensity
109.512	0
114.44	30.0869
119.365	165.6
124.288	839.243
129.209	2802.69
134.127	5786.32
139.043	9101.8
143.956	7180.78
148.867	2753.15
153.775	965.312
158.681	565.376
163.585	547.279
168.486	379.787
173.385	382.419
178.282	241.945
183.176	387.129
188.067	421.809
192.956	553.563
197.843	449.549
202.727	134.095
207.609	50.7041
212.489	37.21
217.366	293.977
222.24	630.026
227.112	1190.63
231.982	1232.47
236.849	519.769
241.714	250.654
246.577	250.125
251.437	710.144
256.294	779.34
261.149	240.166
266.002	101.884
270.852	92.1152
275.7	115.426
280.545	38.7236
285.388	189.544
290.229	204.875
295.067	517.84
299.902	939.119
304.735	1257.48
309.566	1702.64
314.394	3196.35
319.22	5868.68
324.043	7303.56
328.864	4810.9
333.682	2175.56
338.498	1446.43
343.311	1454.91
348.122	2018.28
352.931	3958.88
357.737	5003.8
362.54	4060.67
367.341	3120.4
372.14	2277.31
376.936	2845.4
381.73	5602.64
386.521	9883.02
391.31	10461.5
396.096	5786.15
400.88	2211.89
405.661	861.982
410.44	484.424
415.216	166.342
419.99	47.9746
424.761	60.6543
429.53	65.3848
434.297	102.463
439.061	14.9863
443.822	50.1895
448.581	106.863
453.337	161.912
458.091	84.8086
462.843	218.967
467.592	339.457
472.338	318.223
477.082	128.582
481.824	326.67
486.563	102.197
491.3	189.699
496.034	269.51
500.765	621.32
505.494	1067.11
510.221	1270.78
514.945	740.41
519.666	412.996
524.385	571.475
529.102	367.83
533.816	452.209
538.527	631.629
543.236	464.982
547.943	560.158
552.647	1046.13
557.348	1632
562.047	1087.75
566.744	530.047
571.438	418.59
576.129	203.74
580.818	217.953
585.504	13.5781
590.188	46.2637
594.87	12.7246
599.549	60.4434
604.225	36.2637
608.899	84.084
613.57	160.268
618.239	258.762
622.905	591.721
627.569	777.66
632.23	1027.04
636.889	1289.53
641.545	1754.59
646.198	2476.39
650.849	4438.01
655.498	9185.85
660.144	19444.7
664.787	28397.5
669.428	22046.9
674.067	10312.2
678.703	4768.47
683.336	2444.55
687.967	1618.45
692.595	1195.02
697.221	867.441
701.844	652.434
706.465	671.4
711.083	407.029
715.698	389.873
720.311	268.717
724.922	143.783
729.53	254.828
734.135	74.4941
738.738	126.994
743.338	98.2207
747.936	226.475
752.531	46.4629
757.124	7.93164
761.714	136.951
766.302	30.9531
770.887	57.2285
775.469	40.9004
780.049	47.1797
784.626	175.477
789.201	99.0606
793.773	5.73242
798.343	9.99219
802.91	238.225
807.475	195.266
812.037	166.705
816.596	136.023
821.153	57.9121
825.707	147.289
830.259	161.213
834.808	310.705
839.355	706.793
843.899	661.527
848.441	2130.89
852.98	3663.89
857.516	3369.44
862.05	1758.87
866.581	1144.18
871.11	852.541
875.636	709.494
880.159	452.965
884.68	626.207
889.199	392.81
893.714	587.4
898.228	434.803
902.738	400.309
907.246	415.121
911.752	362.481
916.255	196.553
920.755	62.918
925.253	189.957
929.748	176.902
934.241	106.867
938.731	97.0039
943.218	127.363
947.703	24.9746
952.186	174.277
956.665	215.816
961.142	486.731
965.617	134.154
970.089	432.898
974.558	277.932
979.025	775.441
983.489	1033.82
987.951	1330.26
992.41	1796.68
996.866	3017.1
1001.32	6477.57
1005.77	15584.1
1010.22	30153.7
1014.67	26967.1
1019.11	11752.3
1023.55	4917.4
1027.99	3077.57
1032.42	2432.21
1036.86	2741.63
1041.29	3689.25
1045.72	4863.75
1050.14	3628.34
1054.56	1990.31
1058.98	1118.16
1063.4	926.848
1067.82	728.481
1072.23	389.453
1076.64	184.945
1081.05	33.7422
1085.45	513.715
1089.85	574.441
1094.25	357.82
1098.65	62.0742
1103.04	267.129
1107.43	343.496
1111.82	149.246
1116.21	173.801
1120.59	407.312
1124.97	590.941
1129.35	305.766
1133.73	289.344
1138.1	325.004
1142.47	188.644
1146.84	88.3945
1151.21	119.973
1155.57	273.215
1159.93	10.707
1164.29	37.457
1168.64	23.6992
1172.99	198.203
1177.34	175.441
1181.69	159.008
1186.04	38.6367
1190.38	57.0039
1194.72	93.1641
1199.05	155.18
1203.39	143.617
1207.72	311.062
1212.05	68.9609
1216.37	473.578
1220.7	296.664
1225.02	139.211
1229.34	80.1406
1233.65	276
1237.97	342.484
1242.28	241.519
1246.59	205.023
1250.89	188.586
1255.19	276.246
1259.49	266.223
1263.79	185.602
1268.09	164.832
1272.38	325.828
1276.67	518.438
1280.95	245.383
1285.24	273.273
1289.52	104.711
1293.8	13.2031
1298.08	3.23828
1302.35	81.5
1306.62	6.02734
1310.89	135.59
1315.15	131.445
1319.42	360.578
1323.68	391.34
1327.94	418.012
1332.19	589.93
1336.44	521.609
1340.69	416.504
1344.94	526.356
1349.19	493.727
1353.43	158.449
1357.67	443.977
1361.9	377.356
1366.14	551.113
1370.37	347.844
1374.6	300.297
1378.83	263.34
1383.05	38.25
1387.27	397.109
1391.49	428.492
1395.7	108.617
1399.92	214.875
1404.13	347.125
1408.34	267.106
1412.54	374.988
1416.74	355.582
1420.94	305.453
1425.14	457.629
1429.34	352.504
1433.53	298.68
1437.72	314.219
1441.9	362.062
1446.09	276.086
1450.27	578.188
1454.45	395.973
1458.63	225.484
1462.8	306.832
1466.97	312.906
1471.14	483.328
1475.31	384.738
1479.47	158.914
1483.63	241.269
1487.79	452.023
1491.94	393.727
1496.09	223.144
1500.24	352.519
1504.39	529.547
1508.54	369.305
1512.68	458.371
1516.82	221.805
1520.95	283.492
1525.09	516.535
1529.22	357.082
1533.35	743.996
1537.47	303.93
1541.6	339.281
1545.72	1086.93
1549.83	87.4141
1553.95	76.7773
1558.06	349.445
1562.17	193.449
1566.28	225.422
1570.38	72.8281
