Measurement: Raman, 514 nm, ccw, Raman Data Processed
Mineral: Dioptase
Rruff sample: R050010
Ideal chemistry: CuSiO_3_H_2_O
Locality: Tsumeb mine, Tsumeb, Otavi District, Oshikoto, Namibia
Source: Eugene Schlepp
Description: Bluish green single crystals
Measured chemistry: Cu_1.00_Si_1.00_O_3_Â·H_2_O ; trace amounts of Mg and Al; OH estimated by difference
Pin_id: M00232
Orientation: Laser parallel to a* (1 0 0). Fiducial mark perpendicular to laser is parallel to c [0 0 1]
Raman shift (cm-1)	intensity
88.463	0
92.661	115.186
96.856	2684.72
101.049	2408.88
105.24	1039.76
109.429	4317.19
113.616	3784.18
117.8	3830.61
121.983	4153.08
126.163	8793.19
130.342	14148.7
134.518	10436.9
138.692	5148.77
142.864	1207.96
147.034	181.081
151.201	443.537
155.367	2079.47
159.53	3758.8
163.692	1889.19
167.851	696.074
172.008	1561
176.163	3575.11
180.316	2842.48
184.467	1264.04
188.616	601.256
192.762	1017.37
196.907	859.464
201.049	854.846
205.189	1280.18
209.328	2168.94
213.464	4617.21
217.598	10130.8
221.73	15155.6
225.86	13771.4
229.988	8548.11
234.113	4615.39
238.237	3406.19
242.359	2217.5
246.478	282.279
250.595	253.488
254.711	159.777
258.824	3355.03
262.935	8468.44
267.044	6747.4
271.151	2854.41
275.256	1644.63
279.359	2100.44
283.46	3691.46
287.559	7349.29
291.656	9513.57
295.75	5428.97
299.843	1576.95
303.933	123.546
308.022	605.089
312.108	707.935
316.193	350.63
320.275	800.681
324.355	2171.87
328.434	1360
332.51	484.074
336.584	203.181
340.656	512.959
344.726	1750.79
348.794	6298.68
352.86	20109.6
356.924	26960.6
360.986	12441.5
365.046	4609.61
369.104	2272.32
373.159	1530.03
377.213	1438.9
381.265	1903.91
385.315	3214.05
389.362	6319.3
393.408	13284.6
397.451	19320.1
401.493	14235.6
405.533	7521.1
409.57	5126.7
413.606	5658.46
417.639	6762.32
421.671	7308.31
425.7	7514.6
429.728	7559.69
433.753	7436.54
437.777	6784.28
441.798	5753.79
445.818	4892.72
449.835	4697.41
453.851	4496.05
457.864	3345.84
461.876	2005.48
465.885	1381.36
469.893	1060
473.898	813.076
477.902	815.573
481.903	1119.17
485.903	1738.33
489.9	1693.26
493.896	1295.95
497.889	1199.41
501.881	1370.64
505.87	1976.64
509.858	2798.4
513.844	3410.92
517.827	3951.2
521.809	4334.22
525.789	4306.02
529.766	3841.66
533.742	3356.18
537.716	2602.54
541.688	1987.8
545.657	1529.48
549.625	1361.85
553.591	1458.84
557.555	1848.6
561.517	2277.19
565.477	2095.59
569.435	1777.79
573.391	1293.94
577.345	764.306
581.297	379.459
585.248	120.368
589.196	55.125
593.142	77.514
597.086	138.028
601.029	145.984
604.969	136.146
608.908	143.792
612.844	70.678
616.779	254.602
620.712	118.471
624.642	127.96
628.571	361.938
632.498	524.277
636.423	826.953
640.346	1297.85
644.267	2042.51
648.186	3694.94
652.103	7533.15
656.019	14465.1
659.932	16206.9
663.843	10128.4
667.753	5284.73
671.66	2944.83
675.566	1731.71
679.47	1122.39
683.372	710.018
687.271	465.302
691.169	328.068
695.065	256.962
698.96	272.15
702.852	208.337
706.742	227.23
710.631	307.763
714.517	375.03
718.402	524.092
722.284	631.44
726.165	965.576
730.044	1616.51
733.921	2779.23
737.796	4126.76
741.669	4609.54
745.54	3825.17
749.41	2512.09
753.277	1588.53
757.143	1090.28
761.006	722.491
764.868	473.576
768.728	397.496
772.586	361.038
776.442	403.247
780.297	385.262
784.149	381.526
787.999	377.811
791.848	431.049
795.695	434.234
799.54	363.37
803.382	445.472
807.224	354.579
811.063	255.688
814.9	189.786
818.736	243.875
822.569	142.945
826.401	101.997
830.231	21.038
834.059	10.07
837.885	39.902
841.709	22.974
845.532	36.108
849.352	66.317
853.171	60.714
856.988	40.056
860.803	8.105
864.616	12.368
868.427	3.452
872.236	53.303
876.044	41.824
879.849	46.74
883.653	118.249
887.455	213.556
891.255	350.933
895.054	474.393
898.85	725.08
902.645	1074.24
906.438	1864.93
910.229	2832.29
914.018	3127.33
917.805	2195.01
921.59	1452.23
925.374	1058.73
929.156	1006.44
932.936	990.318
936.714	1028.32
940.49	1189.44
944.264	1374.68
948.037	1897.11
951.808	2884.6
955.577	4041.02
959.344	3796.52
963.109	2377.74
966.872	1564.3
970.634	1294.7
974.394	1163.03
978.152	1196.51
981.908	1422.13
985.663	1616.92
989.415	2142.11
993.166	3209.93
996.915	5455.89
1000.66	10362.8
1004.41	13617.1
1008.15	10163.2
1011.89	7615.94
1015.63	6774.53
1019.37	6082.22
1023.11	5163.34
1026.84	4115.99
1030.57	3012.79
1034.31	2103.73
1038.03	1516.81
1041.76	1148.03
1045.49	925.389
1049.21	753.88
1052.93	666.502
1056.65	569.244
1060.37	487.097
1064.09	417.051
1067.8	355.098
1071.52	207.227
1075.23	207.443
1078.94	213.51
1082.64	146.142
1086.35	109.804
1090.05	35.32
1093.76	35.018
1097.46	56.512
1101.16	20.687
1104.85	14.97
1108.55	3.554
1112.24	17.488
1115.93	9.015
1119.62	59.231
1123.31	141.78
1127	115.364
1130.68	31.073
1134.37	65.753
1138.05	91.116
1141.72	125.984
1145.4	164.068
1149.08	176.007
1152.75	174.965
1156.42	206.632
1160.1	250.837
1163.76	255.784
1167.43	293.68
1171.1	220.099
1174.76	214.007
1178.42	196.974
1182.08	171.049
1185.74	181.29
1189.4	163.478
1193.05	155.694
1196.7	128.974
1200.36	132.98
1204.01	121.415
1207.65	160.823
1211.3	168.746
1214.94	183.395
1218.59	146.501
1222.23	91.867
1225.87	88.384
1229.5	5.271
1233.14	0.297
1236.77	21.247
1240.41	3.89
1244.04	12.087
1247.66	2.213
1251.29	2.423
1254.92	6.973
1258.54	10.622
1262.16	20.678
1265.78	12.071
1269.4	2.489
1273.02	2.267
1276.63	3.037
1280.25	3.422
1283.86	11.575
1287.47	26.359
1291.08	6.763
1294.68	12.932
1298.29	3.142
1301.89	7.277
1305.49	14.295
1309.09	40.466
1312.69	30.383
1316.29	50.959
1319.88	48.066
1323.47	84.362
1327.06	136.175
1330.65	85.751
1334.24	92.089
1337.83	80.199
1341.41	121.08
1344.99	77.717
1348.57	89.117
1352.15	103.292
1355.73	113.246
1359.31	84.985
1362.88	31.511
1366.45	26.503
1370.02	23.659
1373.59	38.368
1377.16	9.371
1380.73	42.027
1384.29	35.156
1387.85	27.777
1391.41	56.841
1394.97	31.167
1398.53	49.029
1402.09	27.311
1405.64	6.107
1409.19	35.001
1412.74	14.556
1416.29	58.023
1419.84	47.973
1423.38	34.817
1426.93	56.454
1430.47	102.63
1434.01	88.301
1437.55	79.086
1441.09	66.191
1444.62	48.99
1448.16	97.91
1451.69	48.58
1455.22	68.209
1458.75	65.657
1462.28	82.405
1465.8	93.703
1469.33	90.067
1472.85	65.141
1476.37	99.594
1479.89	120.378
1483.4	62.687
1486.92	67.359
1490.43	81.741
1493.95	63.321
1497.46	75.31
1500.97	59.5
1504.47	62.09
1507.98	56.419
1511.48	28.614
1514.99	71.225
1518.49	31.811
