Measurement: Raman, 514 nm, ccw, Raman Data Processed
Mineral: Diopside
Rruff sample: R060276
Ideal chemistry: CaMgSi_2_O_6_
Locality: Inagli, Yakutia, Siberia, Russia
Source: Herb Obodda
Description: Transparent green cleavage fragment
Measured chemistry: (Ca_0.97_Na_0.03_)_Σ=1_(Mg_0.96_Fe_0.03_Cr_0.01_)_Σ=1_(Si_1.98_Al_0.02_)_Σ=2_O_6_
Pin_id: L01812
Orientation: Laser parallel to -c* (0 0 -1). Fiducial mark perpendicular to laser is parallel to -a [-1 0 0]
Raman shift (cm-1)	intensity
109.512	0
114.44	117.791
119.365	59.354
124.288	33.6321
129.209	160.044
134.127	416.743
139.043	487.396
143.956	181.282
148.867	35.2842
153.775	66.4814
158.681	110.971
163.585	337.939
168.486	391.703
173.385	661.99
178.282	1601.85
183.176	1173.33
188.067	738.12
192.956	969.283
197.843	561.253
202.727	159.725
207.609	17.3132
212.489	68.219
217.366	212.31
222.24	844.996
227.112	1577.26
231.982	1712.04
236.849	813.283
241.714	454.069
246.577	768.392
251.437	1332.24
256.294	985.639
261.149	386.604
266.002	18.1238
270.852	47.3247
275.7	64.2026
280.545	59.9744
285.388	128.596
290.229	451.647
295.067	993.144
299.902	1751.02
304.735	3007.4
309.566	5387.94
314.394	11100.1
319.22	20604.8
324.043	22529.2
328.864	13118.1
333.682	6130.28
338.498	3423.56
343.311	2608.01
348.122	2921.8
352.931	3672.69
357.737	3588.96
362.54	2856.78
367.341	2575.04
372.14	3210.36
376.936	5536.12
381.73	12774.2
386.521	24330.5
391.31	23854.1
396.096	12281
400.88	4551.2
405.661	1928.65
410.44	955.96
415.216	625.6
419.99	449.644
424.761	266.367
429.53	140.384
434.297	10.6838
439.061	37.2568
443.822	42.884
448.581	44.3076
453.337	201.489
458.091	469.91
462.843	580.748
467.592	533.27
472.338	219.025
477.082	108.556
481.824	127.578
486.563	52.7012
491.3	82.9446
496.034	113.316
500.765	92.8149
505.494	292.4
510.221	495.061
514.945	751.791
519.666	1209.58
524.385	2101.5
529.102	2413.6
533.816	1624.93
538.527	924.433
543.236	717.039
547.943	937.674
552.647	1650.39
557.348	2281.83
562.047	1602.24
566.744	597.234
571.438	324.155
576.129	223.988
580.818	135.686
585.504	42.136
590.188	45.5818
594.87	12.2725
599.549	41.6155
604.225	89.1533
608.899	47.5073
613.57	73.9971
618.239	139.292
622.905	159.436
627.569	311.312
632.23	474.014
636.889	645.453
641.545	1029.55
646.198	1665.38
650.849	3115.17
655.498	6609.71
660.144	14729.1
664.787	21399
669.428	15368.2
674.067	7033.66
678.703	3214.54
683.336	1756.27
687.967	1030.38
692.595	745.277
697.221	509.961
701.844	420.978
706.465	442.603
711.083	198.851
715.698	223.722
720.311	119.217
724.922	90.3389
729.53	70.0837
734.135	85.8709
738.738	6.39624
743.338	51.5349
747.936	9.98682
752.531	63.8538
757.124	32.6956
761.714	112.845
766.302	91.887
770.887	76.0112
775.469	158.681
780.049	114.753
784.626	92.5708
789.201	93.1436
793.773	34.4727
798.343	0.459473
802.91	30.8225
807.475	31.7112
812.037	23.2007
816.596	38.7849
821.153	0.036621
825.707	40.1257
830.259	8.10791
834.808	36.4177
839.355	25.0503
843.899	73.3943
848.441	339.632
852.98	688.776
857.516	744.628
862.05	598.804
866.581	534.289
871.11	523.055
875.636	561.526
880.159	486.414
884.68	539.311
889.199	563.621
893.714	476.315
898.228	501.787
902.738	425.025
907.246	472.285
911.752	358.918
916.255	349.782
920.755	309.952
925.253	271.086
929.748	285.222
934.241	240.025
938.731	165.127
943.218	147.726
947.703	159.48
952.186	376.711
956.665	420.174
961.142	526.315
965.617	786.359
970.089	843.472
974.558	1183.82
979.025	1364.9
983.489	1798.3
987.951	2590.91
992.41	3849.75
996.866	6596.84
1001.32	13182.2
1005.77	30496.8
1010.22	58430.8
1014.67	48259.1
1019.11	19923.6
1023.55	8039.48
1027.99	4370.22
1032.42	3159.3
1036.86	2789.22
1041.29	3089.02
1045.72	3602.72
1050.14	3173.03
1054.56	1980.36
1058.98	1362.21
1063.4	1096.42
1067.82	970.966
1072.23	767.439
1076.64	580.301
1081.05	580.959
1085.45	486.495
1089.85	413.762
1094.25	340.295
1098.65	390.057
1103.04	370.287
1107.43	346.884
1111.82	298.566
1116.21	393.762
1120.59	477.693
1124.97	447.415
1129.35	404.478
1133.73	246.583
1138.1	312.793
1142.47	272.627
1146.84	199.94
1151.21	132.103
1155.57	41.4145
1159.93	79.9614
1164.29	37.5806
1168.64	45.6079
1172.99	47.6255
1177.34	28.7217
1181.69	19.438
1186.04	30.8345
1190.38	27.9409
1194.72	27.9189
1199.05	53.2978
1203.39	4.5332
1207.72	77.0527
1212.05	53.1245
1216.37	121.408
1220.7	13.6773
1225.02	14.853
1229.34	82.2842
1233.65	67.186
1237.97	119.656
1242.28	53.0532
1246.59	107.699
1250.89	23.6655
1255.19	172.852
1259.49	95.6484
1263.79	148.293
1268.09	120.254
1272.38	58.1421
1276.67	185.924
1280.95	123.42
1285.24	181.116
1289.52	134.765
1293.8	112.46
1298.08	59.3179
1302.35	247.779
1306.62	131.057
1310.89	112.339
1315.15	144.817
1319.42	168.991
1323.68	142.794
1327.94	162.133
1332.19	202.584
1336.44	70.4106
1340.69	124.828
1344.94	172.644
1349.19	212.438
1353.43	177.625
1357.67	179.947
1361.9	174.739
1366.14	93.6113
1370.37	42.1333
1374.6	67.3882
1378.83	192.343
1383.05	91.5869
1387.27	70.7886
1391.49	68.4248
1395.7	34.1289
1399.92	3.99853
1404.13	76.29
1408.34	38.979
1412.54	63.8027
1416.74	183.127
1420.94	12.5054
1425.14	22.1645
1429.34	0.605469
1433.53	92.2812
1437.72	1.28955
1441.9	16.1909
1446.09	23.0977
1450.27	110.268
1454.45	3.23438
1458.63	72.4697
1462.8	14.354
1466.97	59.2847
1471.14	59.8945
1475.31	64.1401
1479.47	53.2295
1483.63	126.23
1487.79	14.6685
1491.94	122.695
1496.09	84.0762
1500.24	107.82
1504.39	141.777
1508.54	79.813
1512.68	153.546
1516.82	228.368
1520.95	116.865
1525.09	21.3159
1529.22	111.804
1533.35	188.496
1537.47	154.97
1541.6	170.56
1545.72	135.759
1549.83	21.1416
1553.95	106.043
1558.06	45.626
1562.17	58.6426
1566.28	36.668
1570.38	88.4619
