Measurement: Raman, 514 nm, ccw, Raman Data Processed
Mineral: Diopside
Rruff sample: R050666
Ideal chemistry: CaMgSi_2_O_6_
Locality: Franklin, Sussex County, New Jersey, USA
Source: University of Arizona Mineral Museum
Description: Brown cleavage fragment with white hardystonite
Measured chemistry: Ca(Mg_0.66_Mn_0.33_Fe_0.01_)Si_2_O_6_
Pin_id: L00985
Orientation: Laser parallel to (1 0 1). Fiducial mark perpendicular to laser is parallel to -b [0 -1 0]
Raman shift (cm-1)	intensity
129.209	0
134.127	127.996
139.043	32.918
143.956	209.418
148.867	48.1055
153.775	211.199
158.681	281.644
163.585	215.383
168.486	544.898
173.385	418.356
178.282	444.981
183.176	466.852
188.067	424.484
192.956	668.481
197.843	511.57
202.727	725.469
207.609	712.809
212.489	688.859
217.366	420.504
222.24	607.16
227.112	676.285
231.982	708.07
236.849	482.547
241.714	638.766
246.577	684.496
251.437	492.731
256.294	835.477
261.149	789.793
266.002	739.852
270.852	786.422
275.7	452.711
280.545	554.519
285.388	763.613
290.229	869.371
295.067	1196.83
299.902	1104.34
304.735	1654.52
309.566	1567.16
314.394	1906.19
319.22	1575
324.043	1003
328.864	1013.66
333.682	844.18
338.498	1535.75
343.311	1883.82
348.122	1889.69
352.931	1487.13
357.737	1335.21
362.54	1179.32
367.341	1498.92
372.14	1873.57
376.936	2667.1
381.73	2805.22
386.521	1888.89
391.31	1074.81
396.096	233.547
400.88	467.789
405.661	458.078
410.44	632.727
415.216	365.394
419.99	279.547
424.761	455.66
429.53	53.418
434.297	415.562
439.061	210.996
443.822	220.246
448.581	212.41
453.337	343.578
458.091	483.445
462.843	203.129
467.592	171.492
472.338	85.3086
477.082	403.621
481.824	157.57
486.563	132.906
491.3	46.1484
496.034	272.293
500.765	22.8008
505.494	137.859
510.221	381.445
514.945	58.0117
519.666	439.371
524.385	137.461
529.102	195.273
533.816	163.703
538.527	111.691
543.236	351.422
547.943	145.832
552.647	244.398
557.348	541.125
562.047	19.4883
566.744	12.4805
571.438	168.195
576.129	137.641
580.818	211.707
585.504	181.293
590.188	152.887
594.87	116.043
599.549	238.074
604.225	157.551
608.899	273.738
613.57	384.91
618.239	58.7344
622.905	248.438
627.569	195.746
632.23	433.008
636.889	633.496
641.545	1260.1
646.198	1976.35
650.849	4194.98
655.498	6376.97
660.144	6496.51
664.787	4420.35
669.428	2056.59
674.067	1362.45
678.703	833.859
683.336	410.641
687.967	311.91
692.595	374.312
697.221	394.578
701.844	206.051
706.465	79.9414
711.083	270.309
715.698	57.6641
720.311	60.1367
724.922	275.539
729.53	215.09
734.135	217.898
738.738	10.5781
743.338	336.016
747.936	64.2305
752.531	30.3906
757.124	124.637
761.714	76.8672
766.302	259.215
770.887	279.445
775.469	70.5469
780.049	130.027
784.626	255.312
789.201	217.312
793.773	5.79297
798.343	301.402
802.91	248.559
807.475	122.031
812.037	294.832
816.596	266.906
821.153	307.457
825.707	303.277
830.259	214.391
834.808	557.117
839.355	466.356
843.899	1096.32
848.441	1231.68
852.98	684.84
857.516	667.957
862.05	236.102
866.581	216.492
871.11	390.082
875.636	126.168
880.159	303.711
884.68	211.121
889.199	192.871
893.714	349.562
898.228	49.7773
902.738	192.715
907.246	34.6953
911.752	240.133
916.255	76.5117
920.755	330.203
925.253	221.785
929.748	284.969
934.241	175.281
938.731	246.164
943.218	353.352
947.703	331.285
952.186	322.027
956.665	321.512
961.142	293.531
965.617	194.422
970.089	313.754
974.558	313.582
979.025	283.996
983.489	359.535
987.951	618.043
992.41	630.598
996.866	1057.54
1001.32	2218.93
1005.77	6392.88
1010.22	10824.7
1014.67	8364.62
1019.11	3759.02
1023.55	1591.26
1027.99	1238.25
1032.42	1054.57
1036.86	1610.25
1041.29	1494.94
1045.72	988.723
1050.14	561.281
1054.56	331.273
1058.98	281.836
1063.4	136.481
1067.82	312.227
1072.23	159.297
1076.64	261.566
1081.05	309.148
1085.45	413.859
1089.85	91.2773
1094.25	193.41
1098.65	79.4297
1103.04	106.121
1107.43	57.293
1111.82	27.9844
1116.21	80.3008
1120.59	387.41
1124.97	156.527
1129.35	399.625
1133.73	30.4531
1138.1	227.234
1142.47	5.88672
1146.84	250.18
1151.21	45.8281
1155.57	53.7812
1159.93	262.574
1164.29	94.7461
1168.64	105.711
1172.99	232.215
1177.34	119.535
1181.69	153.215
1186.04	127.309
1190.38	263.856
1194.72	43.0312
1199.05	202.148
1203.39	393.938
1207.72	161.117
1212.05	339.969
1216.37	118.582
1220.7	165.758
1225.02	267.144
1229.34	12.3164
1233.65	380.644
1237.97	102.598
1242.28	157.078
1246.59	201.547
1250.89	333.133
1255.19	39.6484
1259.49	31.4336
1263.79	59.293
1268.09	270.918
1272.38	198.715
1276.67	0.5
1280.95	227.32
1285.24	107.984
1289.52	67.7891
1293.8	154.492
1298.08	252.332
1302.35	139.035
1306.62	238.371
1310.89	367.242
1315.15	153.113
1319.42	437.691
1323.68	167.711
1327.94	310.117
1332.19	86.5117
1336.44	157.328
1340.69	59.0039
1344.94	399.504
1349.19	91.9883
1353.43	244.047
1357.67	110.934
1361.9	436.277
1366.14	347.516
1370.37	373.473
1374.6	252.285
1378.83	288.234
1383.05	197.012
1387.27	321.266
1391.49	351.133
1395.7	231.57
1399.92	397.902
1404.13	374.074
1408.34	343.789
1412.54	74.3711
1416.74	328.508
1420.94	287.051
1425.14	484.312
1429.34	52.4492
1433.53	250.262
1437.72	272.094
1441.9	174.41
1446.09	32.3633
1450.27	186.391
1454.45	173.981
1458.63	238.617
1462.8	249.32
1466.97	344.492
1471.14	25.4336
1475.31	105.746
1479.47	101.023
1483.63	301.578
1487.79	123.34
1491.94	188.978
1496.09	13.9863
1500.24	371.025
1504.39	128.377
1508.54	389.371
1512.68	485.885
1516.82	88.6758
1520.95	219.697
1525.09	314.44
1529.22	222.084
1533.35	264.557
1537.47	251.652
1541.6	345.938
1545.72	132.41
1549.83	132.074
1553.95	312.799
1558.06	176.75
1562.17	371.086
1566.28	12.75
1570.38	48.9434
