Measurement: Raman, 514 nm, ccw, Raman Data Processed
Mineral: Diopside
Rruff sample: R040097
Ideal chemistry: CaMgSi_2_O_6_
Locality: Fassathal, Tyrol
Source: University of Arizona Mineral Museum
Description: Green prismatic crystals
Measured chemistry: Ca_1.00_(Mg_0.83_Al_0.10_Fe_0.09_Ca_0.02_Ti_0.02_)(Si_0.88_Al_0.12_)_2_O_6_
Pin_id: M00314
Orientation: Laser parallel to c [0 0 1]. Fiducial mark perpendicular to laser is parallel to b* (0 1 0)
Raman shift (cm-1)	intensity
105.212	0
109.387	139.898
113.559	209.732
117.729	255.537
121.897	96.136
126.063	33.137
130.228	189.785
134.39	221.182
138.55	372.691
142.709	391.617
146.865	338.026
151.019	285.625
155.171	372.714
159.322	285.295
163.47	380.236
167.617	383.711
171.761	363.702
175.904	288.886
180.044	296.811
184.183	232.771
188.319	36.417
192.454	94.98
196.586	317.846
200.717	44.708
204.846	70.055
208.972	20.577
213.097	101.025
217.22	129.634
221.341	159.191
225.46	299.643
229.577	363.857
233.692	160.772
237.805	100.632
241.916	40.271
246.025	170.977
250.132	460.62
254.237	1015.15
258.34	1335.97
262.442	580.989
266.541	228.754
270.639	50.938
274.734	46.235
278.828	44.232
282.919	83.262
287.009	280.249
291.097	437.867
295.183	610.201
299.266	1009.07
303.348	1451.42
307.428	2093.27
311.507	2844.5
315.583	3465.13
319.657	4555.12
323.729	6414.16
327.8	7122.9
331.868	6001.51
335.935	4999.9
339.999	4057.38
344.062	3344.11
348.123	2879.64
352.182	2742.46
356.239	2626.78
360.294	2263.44
364.347	1798.14
368.398	1629.21
372.448	1556.5
376.495	1551.94
380.54	1467.17
384.584	2042.42
388.626	2739.18
392.666	3196.26
396.704	2432.99
400.74	1196.87
404.774	492.067
408.806	172.496
412.836	49.328
416.865	3.369
420.891	144.152
424.916	2.158
428.939	20.773
432.959	0.369
436.978	43.004
440.996	84.506
445.011	48.293
449.024	73.049
453.036	103.745
457.045	223.062
461.053	231.267
465.059	379.349
469.063	337.306
473.065	375.139
477.065	182.875
481.063	200.496
485.06	268.008
489.054	305.413
493.047	332.714
497.038	329.904
501.027	326.991
505.014	793.981
508.999	780.887
512.982	957.722
516.964	890.406
520.944	851.169
524.921	1137.74
528.897	1334.33
532.871	1330.95
536.844	1477.52
540.814	1023.97
544.783	980.318
548.749	726.536
552.714	712.613
556.677	828.545
560.638	956.762
564.597	716.912
568.555	395.554
572.511	411.461
576.464	461.425
580.416	348.703
584.366	164.123
588.315	87.061
592.261	100.513
596.206	108.053
600.148	59.159
604.089	53.808
608.028	65.562
611.965	129.827
615.901	392.41
619.834	564.983
623.766	617.201
627.696	888.794
631.624	1271.74
635.551	1722.79
639.475	1993.57
643.398	2774.08
647.318	4184.32
651.237	6004.28
655.155	9163.98
659.07	14483.4
662.984	24352.6
666.895	31171.4
670.805	22800.1
674.713	12878.4
678.62	7296.47
682.524	4484.27
686.427	3011.81
690.328	2199.08
694.227	1446.08
698.124	962.819
702.02	689.294
705.913	665.51
709.805	461.474
713.695	327.187
717.584	62.607
721.47	27.682
725.355	62.42
729.238	16.788
733.119	110.592
736.998	106.382
740.876	234.593
744.752	14.377
748.626	4.841
752.498	35.882
756.368	61.303
760.237	73.188
764.104	91.03
767.969	245.02
771.832	182.432
775.693	290.015
779.553	237.44
783.411	134.726
787.267	231.859
791.122	298.834
794.974	395.691
798.825	332.436
802.674	279.076
806.522	305.617
810.367	442.066
814.211	498.433
818.053	844.719
821.893	780.933
825.732	867.081
829.568	863.172
833.403	839.211
837.236	775.207
841.068	631.173
844.898	397.115
848.726	573.179
852.552	1309.37
856.376	1865.72
860.199	2002.2
864.02	1208.77
867.839	965.601
871.656	749.529
875.472	931.953
879.286	817.322
883.098	483.411
886.909	356.929
890.717	259.289
894.524	108.053
898.33	351.664
902.133	392.016
905.935	148.144
909.735	188.033
913.533	77.289
917.33	329.655
921.124	473.428
924.918	743.039
928.709	702.726
932.499	532.69
936.286	623.207
940.073	792.297
943.857	883.224
947.64	1214.36
951.421	1325.7
955.2	1297.24
958.978	1228.99
962.753	1610.96
966.527	1763.14
970.3	2195.53
974.071	2148.11
977.84	2490.91
981.607	2453.92
985.372	3067.2
989.136	4200.73
992.898	6065.4
996.659	9120.35
1000.42	14265.1
1004.17	22049
1007.93	31835.7
1011.68	36094.7
1015.43	22620.7
1019.18	11635
1022.93	7503.34
1026.68	6095.71
1030.42	4388.88
1034.17	3966.86
1037.91	3940.31
1041.65	4892.96
1045.39	5715.44
1049.12	5096.77
1052.86	3402.54
1056.59	2113.62
1060.33	1695.65
1064.06	1576.09
1067.78	1387.44
1071.51	1128.29
1075.23	1079.05
1078.96	909.166
1082.68	779.863
1086.4	480.75
1090.12	831.922
1093.83	1042.4
1097.55	803.318
1101.26	702.918
1104.97	692.971
1108.68	523.135
1112.39	694.656
1116.1	505.789
1119.8	734.766
1123.5	895.65
1127.2	615.199
1130.9	274.15
1134.6	112.082
1138.3	10.164
1141.99	138.686
1145.69	186.311
1149.38	346.502
1153.07	306.893
1156.76	216.027
1160.44	82.729
1164.13	281.184
1167.81	144.002
1171.49	62.969
1175.17	404.936
1178.85	346.195
1182.52	237.734
1186.2	302.766
1189.87	8.621
1193.54	34.113
1197.21	36.939
1200.88	250.623
1204.55	194.119
1208.21	460.912
1211.88	512.277
1215.54	308.699
1219.2	306.123
1222.86	230.225
1226.51	204.74
1230.17	257.145
1233.82	479.744
1237.47	542.133
1241.12	616.836
1244.77	546.602
1248.42	415.832
1252.06	274.537
1255.71	93.074
1259.35	170.707
1262.99	347.805
1266.63	444.26
1270.26	650.404
1273.9	625.357
1277.53	559.471
1281.16	423.977
1284.8	215.072
1288.42	355.547
1292.05	94.826
1295.68	393.285
1299.3	333.117
1302.92	468.439
1306.55	351.52
1310.16	438.77
1313.78	33.156
1317.4	49.205
1321.01	228.453
1324.62	102.955
1328.24	16.857
1331.85	261.291
1335.45	591.801
1339.06	328.832
1342.66	420.223
1346.27	247.287
1349.87	212.357
1353.47	32.682
1357.07	72.627
1360.66	16.166
1364.26	310.377
1367.85	534.121
1371.44	478.572
1375.04	662.861
1378.62	608.451
1382.21	546.596
1385.8	337.504
1389.38	367.109
1392.96	272.25
1396.54	228.443
1400.12	454.086
1403.7	360.838
1407.28	684.207
1410.85	639.104
1414.42	686.146
1417.99	442.539
1421.56	327.898
1425.13	95.004
1428.7	218.709
1432.26	39.977
1435.83	197.055
1439.39	143.482
1442.95	441.711
1446.51	383.76
1450.06	597.031
1453.62	1429.85
1457.17	742.793
1460.73	342.986
1464.28	491.668
1467.83	367.691
1471.37	34.412
1474.92	218.533
1478.46	240.293
1482.01	569.779
1485.55	778.984
1489.09	742.992
1492.63	667.244
1496.16	873.975
1499.7	854.236
1503.23	667.936
1506.76	357.658
1510.29	395.477
1513.82	76.266
1517.35	9.154
1520.88	0
