Measurement: Raman, 514 nm, ccw, Raman Data Processed
Mineral: Diopside
Rruff sample: R050406
Ideal chemistry: CaMgSi_2_O_6_
Locality: unknown
Source: University of Arizona Mineral Museum
Description: Brownish gray massive
Measured chemistry: (Ca_0.95_Na_0.05_)(Mg_0.75_Fe^2+^_0.18_Fe^3+^_0.05_Al_0.01_Ti_0.01_Mn^2+^_0.01_)(Si_0.98_Al_0.02_)_2_O_6_
Pin_id: M00086
Orientation: Laser parallel to c* (0 0 1). Fiducial mark perpendicular to laser is parallel to a [1 0 0]
Raman shift (cm-1)	intensity
116.903	0
121.827	320.57
126.749	149.491
131.668	305.687
136.585	663.398
141.5	935.942
146.412	811.163
151.321	729.435
156.229	471.333
161.134	615.523
166.036	1066.74
170.936	930.378
175.834	622.722
180.729	976.263
185.622	975.611
190.512	989.402
195.4	1395.47
200.286	1193.16
205.169	569.799
210.049	416.565
214.928	511.335
219.803	494.728
224.677	837.785
229.548	1004.53
234.416	982.954
239.282	753.003
244.146	722.239
249.007	807.814
253.866	840.479
258.722	1714.58
263.576	606.548
268.427	305.021
273.276	436.858
278.123	1228.03
282.967	806.087
287.809	1114.63
292.648	643.487
297.485	1182.87
302.319	1753.83
307.151	2304.02
311.98	3166.93
316.807	4742.43
321.631	6984.37
326.454	7898.97
331.273	5648.83
336.09	3633.74
340.905	3024.62
345.717	2937.48
350.527	3601.28
355.334	5079.99
360.139	4499.54
364.941	3201.91
369.741	2593.06
374.538	2533.96
379.333	3603.58
384.126	5993.9
388.916	10083.9
393.703	9303.53
398.488	4771.77
403.271	2100.61
408.051	844.019
412.828	531.264
417.603	315.44
422.376	169.471
427.146	45.2549
431.914	140.367
436.679	43.7139
441.442	54.8535
446.202	175.724
450.96	9.58496
455.715	100.732
460.467	416.108
465.218	612.724
469.965	347.196
474.711	229.095
479.454	141.137
484.194	111.559
488.932	264.426
493.667	295.66
498.4	165.14
503.13	390.843
507.858	311.669
512.583	518.608
517.306	792.139
522.026	767.859
526.744	1098.3
531.459	1459.79
536.172	1224.38
540.882	1029.93
545.59	974.407
550.295	1378.78
554.998	2107.02
559.698	2998.15
564.396	1898.12
569.091	1053.88
573.784	572.712
578.474	417.259
583.162	637.117
587.847	240.894
592.529	83.9609
597.209	11.0986
601.887	13.7334
606.562	34.9033
611.235	88.9785
615.905	135.385
620.572	192.346
625.237	287.957
629.9	545.715
634.56	801.394
639.217	929.908
643.872	1549.33
648.524	2271
653.174	3639.47
657.821	7146.34
662.466	14063.5
667.108	21785.3
671.748	15571
676.385	7414.06
681.02	3884.48
685.652	2221.66
690.281	1343.39
694.908	879.131
699.533	760.082
704.155	599.434
708.774	501.898
713.391	307.812
718.005	217.162
722.617	38.9551
727.226	134.908
731.833	51.9746
736.437	14.8242
741.039	210.897
745.638	39.8535
750.234	29.3477
754.828	36.873
759.419	100.961
764.008	36.0859
768.595	124.244
773.178	20.3828
777.759	114.256
782.338	109.301
786.914	281.856
791.488	77.875
796.059	53.3691
800.627	23.873
805.193	4.14648
809.756	6.42383
814.317	0.541016
818.875	67.9746
823.431	411.156
827.984	212.031
832.534	3.38672
837.082	6.16797
841.627	61.7656
846.17	91.4668
850.71	481.883
855.248	1579.91
859.783	1409.57
864.316	1137.53
868.846	926.621
873.373	897.551
877.898	902.461
882.42	749.715
886.94	1013.4
891.457	957.588
895.971	1091.65
900.483	1085.8
904.993	1009.43
909.5	924.545
914.004	756.389
918.505	734.953
923.004	600.164
927.501	412.185
931.995	177.529
936.486	325.93
940.975	335.283
945.461	400.973
949.945	456.31
954.426	626.996
958.904	1023.42
963.38	1303.02
967.853	1353.5
972.324	1593.56
976.792	1914.05
981.258	2209.1
985.72	2606.56
990.181	2942.53
994.639	3799.11
999.094	5730.3
1003.55	10139.1
1008	19941.9
1012.44	34586.4
1016.89	30839.6
1021.33	14140.5
1025.77	7091.32
1030.21	4800.67
1034.64	3863.9
1039.07	4370.2
1043.5	5198.95
1047.93	5034.55
1052.35	3242.75
1056.78	2476.86
1061.19	1769.21
1065.61	1094.8
1070.02	1149.79
1074.43	831.266
1078.84	638.959
1083.25	721.17
1087.65	601.514
1092.05	541.84
1096.45	514.213
1100.85	480.424
1105.24	623.414
1109.63	378.178
1114.02	424.539
1118.4	394.731
1122.78	504.359
1127.16	547.627
1131.54	545.738
1135.92	676.965
1140.29	287.891
1144.66	422.785
1149.02	155.711
1153.39	38.8945
1157.75	143.861
1162.11	115.59
1166.46	34.332
1170.82	180.26
1175.17	53.2598
1179.52	251.106
1183.86	19.9648
1188.21	172.344
1192.55	181.707
1196.89	27.8613
1201.22	67.7715
1205.55	129.068
1209.88	91.5019
1214.21	249.293
1218.54	56.8887
1222.86	115.629
1227.18	193.273
1231.5	521.678
1235.81	207.478
1240.12	141.094
1244.43	223.863
1248.74	206.783
1253.04	53.1328
1257.34	372.373
1261.64	151.34
1265.94	276.049
1270.23	227.879
1274.52	384.91
1278.81	168.147
1283.1	320.543
1287.38	450.973
1291.66	207.525
1295.94	99.1309
1300.21	173.193
1304.48	282.559
1308.75	621.074
1313.02	5.92969
1317.29	239.994
1321.55	141.539
1325.81	470.113
1330.06	401.428
1334.32	124.574
1338.57	362.041
1342.82	338.185
1347.06	243.562
1351.31	7.21484
1355.55	49.4375
1359.79	420.637
1364.02	481.91
1368.26	151.475
1372.49	248.438
1376.71	277.098
1380.94	285.455
1385.16	270.164
1389.38	225.727
1393.6	230.281
1397.81	191.809
1402.02	307.803
1406.23	163.129
1410.44	278.541
1414.64	212.578
1418.85	16.3379
1423.04	336.17
1427.24	32.1133
1431.43	157.805
1435.62	126.883
1439.81	28.2227
1444	347.576
1448.18	20.4863
1452.36	268.367
1456.54	313.193
1460.71	32.8359
1464.89	232.17
1469.06	314.801
1473.22	44.9531
1477.39	96.8164
1481.55	404.59
1485.71	160.297
1489.86	228.709
1494.02	209.955
1498.17	284.639
1502.32	128.598
1506.46	110.121
1510.61	215.019
1514.75	14.6641
1518.88	199.469
1523.02	449.316
1527.15	167.926
1531.28	289.914
1535.41	86.4258
1539.53	173.988
1543.66	178.133
1547.78	102.699
1551.89	241.176
1556.01	196.473
1560.12	213.426
1564.23	9.35156
1568.33	113.488
1572.43	0
