Measurement: Raman, 514 nm, ccw, Raman Data Processed
Mineral: Diopside
Rruff sample: R040009
Ideal chemistry: CaMgSi_2_O_6_
Locality: Otter Lake, Quebec, Canada
Source: University of Arizona Mineral Museum
Description: Green square prismatic crystal associated with pale orange calcite
Measured chemistry: (Ca_0.97_Fe_0.02_Na_0.01_)_Σ=1_(Mg_0.97_Fe_0.02_Al_0.01_)_Σ=1_Si_2.00_O_6_; trace amounts of Mn and Ti
Pin_id: M00219
Orientation: Laser parallel to [-1 0 -1]. Fiducial mark perpendicular to laser is parallel to b* (0 1 0)
Raman shift (cm-1)	intensity
105.908	0
110.082	103.607
114.254	68.95
118.424	21.7
122.592	133.838
126.758	88.565
130.922	296.777
135.083	445.389
139.243	291.7
143.401	238.204
147.557	166.525
151.711	48.329
155.863	84.372
160.013	153.574
164.161	165.815
168.308	230.945
172.452	362.845
176.594	400.407
180.734	868.553
184.872	441.221
189.008	373.765
193.143	306.971
197.275	150.29
201.405	16.674
205.534	179.65
209.66	150.977
213.784	171.969
217.907	233.102
222.027	344.389
226.146	610.858
230.263	1025.49
234.377	887.229
238.49	525.07
242.601	293.267
246.709	335.043
250.816	629.22
254.921	645.498
259.024	275.859
263.125	185.356
267.224	168.223
271.321	164.943
275.416	265.901
279.51	200
283.601	61.133
287.69	153.76
291.778	314.17
295.863	476.199
299.947	832.219
304.029	918.152
308.108	1575.06
312.186	2280.21
316.262	4413.21
320.336	9010.82
324.408	10020.8
328.478	5061.96
332.546	2260.47
336.612	1311.52
340.677	885.675
344.739	810.869
348.799	790.133
352.858	939.421
356.915	1165.75
360.969	1043.12
365.022	1037.53
369.073	1130.95
373.122	1103.39
377.169	1699.82
381.215	3386.53
385.258	7598.27
389.299	12082.4
393.339	6841.25
397.376	2537.12
401.412	1103.92
405.446	581.614
409.478	612.555
413.508	523.849
417.536	187.457
421.562	56.531
425.586	256.402
429.609	10.59
433.629	53.441
437.648	59.035
441.665	47.055
445.68	137.58
449.693	58.369
453.704	50.564
457.713	17.52
461.721	156.332
465.726	166.799
469.73	173.383
473.731	125.768
477.731	168.662
481.729	126.619
485.725	47.285
489.72	39.871
493.712	68.379
497.703	248.83
501.691	188.154
505.678	170.338
509.663	275.49
513.646	362.504
517.627	431.391
521.607	575.152
525.584	835.775
529.56	1383.25
533.534	818.576
537.506	374.758
541.476	408.771
545.444	172.598
549.41	56.807
553.375	46.219
557.337	347.02
561.298	412.955
565.257	202.115
569.214	247.674
573.17	217.67
577.123	103.934
581.075	0.002
585.024	95.857
588.972	244.646
592.918	166.84
596.863	265.584
600.805	57.602
604.746	191.635
608.685	291.383
612.621	10.518
616.557	258.182
620.49	84.799
624.421	410.109
628.351	173.588
632.279	141.203
636.205	468.246
640.129	579.229
644.051	548.68
647.972	747.744
651.89	1191.45
655.807	1747.43
659.722	3936.23
663.636	7095.48
667.547	6535.91
671.457	3517.73
675.365	1898.5
679.271	1006.63
683.175	911.801
687.077	432.779
690.978	390.555
694.877	316.814
698.774	499.279
702.669	125.387
706.562	360.83
710.454	127.184
714.344	278.795
718.232	342.492
722.118	376.221
726.002	526.439
729.885	370.832
733.766	62.828
737.645	214.164
741.522	98.459
745.397	158.258
749.271	20.48
753.143	226.348
757.013	390.023
760.881	44.93
764.748	122.77
768.613	200.264
772.476	211.178
776.337	144.99
780.196	217.738
784.054	277.721
787.91	227.471
791.764	225.107
795.616	176.545
799.467	164.984
803.316	284.711
807.163	262.715
811.008	220.572
814.851	221.219
818.693	201.824
822.533	454.932
826.371	47.838
830.208	85.531
834.042	151.354
837.875	474.951
841.706	22.553
845.536	15.844
849.363	276.027
853.189	300.135
857.013	501.578
860.836	775.508
864.656	347.68
868.475	491.316
872.292	286.822
876.108	273.734
879.922	429.947
883.733	328.512
887.544	640.434
891.352	308.787
895.159	332.59
898.964	455.689
902.767	193.146
906.568	595.809
910.368	310.551
914.166	742.416
917.962	547.645
921.757	575.545
925.55	543.309
929.341	437.121
933.13	331.711
936.918	649.148
940.703	591.588
944.488	438.146
948.27	348.439
952.051	287.33
955.83	317.59
959.607	617.355
963.383	565.697
967.156	309.455
970.928	354.096
974.699	800.463
978.468	792.633
982.234	735.184
986	1098.62
989.763	1179.74
993.525	1619.17
997.285	2554.77
1001.04	3498.91
1004.8	6711.57
1008.55	15076.8
1012.31	25926.8
1016.06	15460.2
1019.81	6308.74
1023.56	3463.55
1027.31	2302.83
1031.05	1446.04
1034.79	1290.68
1038.53	1314.05
1042.27	1440.84
1046.01	1294.09
1049.75	862.504
1053.48	1008.64
1057.22	780.531
1060.95	1017.79
1064.68	740.418
1068.4	420.303
1072.13	620.264
1075.86	591.238
1079.58	404.791
1083.3	620.568
1087.02	496.09
1090.74	357.246
1094.45	223.559
1098.17	423.07
1101.88	327.172
1105.59	36.414
1109.3	280.387
1113.01	282.379
1116.71	565.059
1120.42	121.77
1124.12	405.828
1127.82	146.824
1131.52	286.98
1135.22	679.012
1138.91	58.547
1142.61	146.492
1146.3	281.422
1149.99	75.395
1153.68	117.719
1157.37	216.883
1161.06	2.535
1164.74	284.492
1168.42	274.469
1172.1	277.207
1175.78	186.203
1179.46	21.57
1183.14	198.129
1186.81	295.785
1190.48	368.715
1194.15	400.562
1197.83	151.883
1201.49	808.383
1205.16	489.531
1208.82	317.184
1212.49	582.758
1216.15	476.477
1219.81	596.52
1223.46	556.375
1227.12	652.395
1230.78	430.094
1234.43	729.176
1238.08	342.301
1241.73	404.914
1245.38	769.195
1249.03	680.645
1252.67	711
1256.31	474.148
1259.95	234.625
1263.6	411.609
1267.23	424.723
1270.87	502.176
1274.51	201.93
1278.14	547.824
1281.77	267.18
1285.4	472.75
1289.03	34.711
1292.66	270.133
1296.28	371.988
1299.91	444.359
1303.53	413.941
1307.15	664.449
1310.77	256.957
1314.38	676.422
1318	341.102
1321.61	113.641
1325.23	612.402
1328.84	203.23
1332.45	127.676
1336.06	1.324
