Measurement: Raman, 514 nm, ccw, Raman Data Processed
Mineral: Diopside
Rruff sample: R040009
Ideal chemistry: CaMgSi_2_O_6_
Locality: Otter Lake, Quebec, Canada
Source: University of Arizona Mineral Museum
Description: Green square prismatic crystal associated with pale orange calcite
Measured chemistry: (Ca_0.97_Fe_0.02_Na_0.01_)_Σ=1_(Mg_0.97_Fe_0.02_Al_0.01_)_Σ=1_Si_2.00_O_6_; trace amounts of Mn and Ti
Pin_id: M00056
Orientation: Laser parallel to -c [0 0 -1]. Fiducial mark perpendicular to laser is parallel to b* (0 1 0)
Raman shift (cm-1)	intensity
85.009	0
89.193	64.385
93.375	91.375
97.554	62.371
101.732	49.14
105.908	135.934
110.082	236.217
114.254	348.648
118.424	64.554
122.592	105.431
126.758	83.251
130.922	144.633
135.083	227.164
139.243	209.667
143.401	71.902
147.557	11.028
151.711	32.657
155.863	77.935
160.013	192.817
164.161	358.236
168.308	135.111
172.452	52.013
176.594	93.575
180.734	210.467
184.872	180.907
189.008	452.396
193.143	937.16
197.275	538.194
201.405	30.489
205.534	79.044
209.66	112.152
213.784	37.286
217.907	167.744
222.027	392.328
226.146	891.036
230.263	1040.86
234.377	727.798
238.49	371.843
242.601	174.987
246.709	288.224
250.816	610.297
254.921	674.426
259.024	234.855
263.125	81.375
267.224	18.729
271.321	82.619
275.416	30.372
279.51	40.975
283.601	91.475
287.69	99.406
291.778	186.354
295.863	564.451
299.947	991.401
304.029	1298.14
308.108	1819.7
312.186	2538.32
316.262	3253.13
320.336	5537.06
324.408	5781.76
328.478	3154.73
332.546	1466.89
336.612	884.41
340.677	649.535
344.739	761.85
348.799	1307.19
352.858	2647.59
356.915	3085.06
360.969	1877.58
365.022	1104.15
369.073	798.701
373.122	695.355
377.169	976
381.215	1846.69
385.258	3949.4
389.299	6120.12
393.339	4782.84
397.376	2480.56
401.412	1043.28
405.446	459.036
409.478	263.789
413.508	212.568
417.536	119.441
421.562	13.618
425.586	68.942
429.609	66.73
433.629	61.205
437.648	72.971
441.665	38.584
445.68	18.423
449.693	17.044
453.704	47.542
457.713	196.756
461.721	526.934
465.726	557.083
469.73	320.202
473.731	50.305
477.731	295.448
481.729	365.597
485.725	1.771
489.72	63.077
493.712	57.208
497.703	35.19
501.691	93.305
505.678	211.334
509.663	263.311
513.646	370.23
517.627	357.108
521.607	178.91
525.584	238.63
529.56	382.249
533.534	285.75
537.506	195.125
541.476	223.362
545.444	198.455
549.41	664.4
553.375	1532.34
557.337	2826.23
561.298	1777.01
565.257	703.252
569.214	438.14
573.17	343.548
577.123	164.439
581.075	11.8
585.024	132.924
588.972	148.948
592.918	84.326
596.863	22.153
600.805	111.708
604.746	181.479
608.685	167.812
612.621	157.901
616.557	355.6
620.49	411.485
624.421	537.71
628.351	532.431
632.279	649.828
636.205	871.265
640.129	1204.88
644.051	1549.02
647.972	2267.67
651.89	3817.08
655.807	6338.7
659.722	13612.3
663.636	25495.1
667.547	25258.3
671.457	13477.7
675.365	6476.54
679.271	3409.37
683.175	2193.24
687.077	1266.14
690.978	1003.55
694.877	605.669
698.774	529.407
702.669	387.841
706.562	386.97
710.454	235.789
714.344	190.297
718.232	115.474
722.118	124.709
726.002	200.438
729.885	101.394
733.766	91.963
737.645	84.445
741.522	4.735
745.397	127.792
749.271	91.398
753.143	55.805
757.013	7.767
760.881	7.357
764.748	53.544
768.613	66.29
772.476	140.871
776.337	50.608
780.196	75.853
784.054	6.107
787.91	79.406
791.764	16.339
795.616	93.33
799.467	34.43
803.316	96.621
807.163	50.479
811.008	95.228
814.851	6.699
818.693	67.835
822.533	80.813
826.371	18.567
830.208	66.657
834.042	101.538
837.875	115.102
841.706	168.368
845.536	244.371
849.363	733.111
853.189	1339.62
857.013	1313.93
860.836	746.029
864.656	503.719
868.475	409.899
872.292	240.69
876.108	204.973
879.922	171.472
883.733	174.322
887.544	262.621
891.352	346.83
895.159	225.164
898.964	290.53
902.767	308.787
906.568	323.1
910.368	310.798
914.166	324.661
917.962	357.199
921.757	271.599
925.55	194.973
929.341	329.897
933.13	222.679
936.918	378.291
940.703	276.364
944.488	132.404
948.27	217.832
952.051	257.706
955.83	298.905
959.607	458.997
963.383	445.09
967.156	601.087
970.928	587.859
974.699	822.263
978.468	1026.75
982.234	1372.76
986	1369.75
989.763	1722.34
993.525	2391.14
997.285	3789.61
1001.04	6092.01
1004.8	11707.9
1008.55	27327
1012.31	48616.4
1016.06	30300.7
1019.81	12421.5
1023.56	6265.75
1027.31	3959.69
1031.05	3178.25
1034.79	3108.86
1038.53	3739.48
1042.27	5237.6
1046.01	7891.2
1049.75	6838.67
1053.48	3719.53
1057.22	2109.94
1060.95	1391.65
1064.68	997.248
1068.4	717.862
1072.13	628.519
1075.86	500.629
1079.58	605.637
1083.3	536.996
1087.02	463.783
1090.74	393.812
1094.45	408.674
1098.17	241.895
1101.88	130.578
1105.59	141.601
1109.3	182.959
1113.01	191.94
1116.71	60.621
1120.42	46.883
1124.12	318.835
1127.82	166.604
1131.52	231.318
1135.22	430.151
1138.91	94.626
1142.61	113.109
1146.3	270.797
1149.99	10.675
1153.68	69.374
1157.37	168.534
1161.06	171.312
1164.74	125.791
1168.42	138.125
1172.1	128.229
1175.78	273.872
1179.46	27.025
1183.14	108.072
1186.81	127.068
1190.48	29.545
1194.15	48.566
1197.83	63.822
1201.49	237.615
1205.16	231.891
1208.82	164.82
1212.49	276.734
1216.15	79.76
1219.81	319.633
1223.46	186.613
1227.12	33.145
1230.78	290.461
1234.43	224.783
1238.08	87.213
1241.73	137.062
1245.38	71.201
1249.03	291.807
1252.67	177.553
1256.31	8.76
1259.95	13.854
1263.6	32.713
1267.23	18.215
1270.87	126.443
1274.51	4.08
1278.14	111.844
1281.77	44.285
1285.4	1.957
1289.03	106.564
1292.66	132.352
1296.28	261.439
1299.91	240.443
1303.53	161.436
1307.15	272.414
1310.77	25.156
1314.38	303.803
1318	121.377
1321.61	126.32
1325.23	511.828
1328.84	192.742
1332.45	189.279
1336.06	235.688
1339.66	459.252
1343.27	362.096
1346.87	504.141
1350.47	406.26
1354.07	433.629
1357.67	509.436
1361.26	112.93
1364.86	454.578
1368.45	355.908
1372.04	248.645
1375.63	225.43
1379.22	198.562
1382.81	352.934
1386.39	34.016
1389.98	159.252
1393.56	284.383
1397.14	192.033
1400.72	70.602
1404.3	84.602
1407.87	158.912
1411.45	190.961
1415.02	131.684
