Measurement: Raman, 514 nm, ccw, Raman Data Processed
Mineral: Diopside
Rruff sample: R060276
Ideal chemistry: CaMgSi_2_O_6_
Locality: Inagli, Yakutia, Siberia, Russia
Source: Herb Obodda
Description: Transparent green cleavage fragment
Measured chemistry: (Ca_0.97_Na_0.03_)_Σ=1_(Mg_0.96_Fe_0.03_Cr_0.01_)_Σ=1_(Si_1.98_Al_0.02_)_Σ=2_O_6_
Pin_id: L01321
Orientation: Laser parallel to (1 0 1). Fiducial mark perpendicular to laser is parallel to -b [0 -1 0]
Raman shift (cm-1)	intensity
109.512	0
114.44	162.448
119.365	87.9067
124.288	164.144
129.209	541.56
134.127	1293.28
139.043	1979.99
143.956	2217.2
148.867	534.403
153.775	210.475
158.681	500.388
163.585	931.333
168.486	805.541
173.385	374.874
178.282	473.453
183.176	821.62
188.067	530.284
192.956	385.139
197.843	440.285
202.727	107.334
207.609	62.8682
212.489	210.649
217.366	735.651
222.24	2218.16
227.112	3872.16
231.982	3921.54
236.849	1720.1
241.714	663.134
246.577	538.643
251.437	688.616
256.294	688.369
261.149	289.921
266.002	41.3721
270.852	63.5054
275.7	42.4727
280.545	21.916
285.388	294.635
290.229	855.665
295.067	1792.01
299.902	3110.8
304.735	3996.42
309.566	4335.22
314.394	7497.36
319.22	11850
324.043	15723.2
328.864	12522.7
333.682	5902.48
338.498	3549.3
343.311	3598.19
348.122	5799.91
352.931	9109.86
357.737	10247
362.54	7963.11
367.341	5486.5
372.14	4208.17
376.936	4916.1
381.73	9688.3
386.521	16612.8
391.31	20958.5
396.096	13818.5
400.88	5135.69
405.661	1964.16
410.44	957.927
415.216	545.124
419.99	397.086
424.761	202.934
429.53	132.811
434.297	10.9326
439.061	25.3023
443.822	46.5332
448.581	2.42676
453.337	201.833
458.091	471.08
462.843	636.075
467.592	618.099
472.338	280.051
477.082	159.703
481.824	100.345
486.563	38.1655
491.3	53.1016
496.034	65.1943
500.765	53.4424
505.494	214.785
510.221	322.226
514.945	367.745
519.666	709.457
524.385	1125.4
529.102	1588.54
533.816	1514.93
538.527	981.572
543.236	913.316
547.943	1351.39
552.647	2993.34
557.348	4176.3
562.047	3471.35
566.744	1337.38
571.438	543.291
576.129	372.073
580.818	189.835
585.504	183.435
590.188	27.772
594.87	46.021
599.549	41.6367
604.225	3.60156
608.899	64.7871
613.57	39.7905
618.239	153.773
622.905	304.629
627.569	569.585
632.23	760.356
636.889	973.231
641.545	1346.12
646.198	2247.81
650.849	4137.28
655.498	9035.68
660.144	18811
664.787	28412
669.428	26547.5
674.067	12516.9
678.703	5461.04
683.336	2779.56
687.967	1715.06
692.595	1202.98
697.221	839.565
701.844	724.646
706.465	619.189
711.083	392.198
715.698	295.675
720.311	277.615
724.922	147.041
729.53	107.81
734.135	39.0508
738.738	39.4668
743.338	43.187
747.936	50.1323
752.531	19.189
757.124	55.9668
761.714	89.4844
766.302	111.443
770.887	98.9204
775.469	129.947
780.049	32.5312
784.626	68.6304
789.201	22.2412
793.773	30.6475
798.343	27.3125
802.91	22.7583
807.475	30.0322
812.037	81.0112
816.596	32.0054
821.153	31.6953
825.707	81.0122
830.259	79.3755
834.808	71.437
839.355	323.209
843.899	696.734
848.441	1865.03
852.98	3317.1
857.516	3626.85
862.05	2243.86
866.581	1379.92
871.11	1107.25
875.636	1037.09
880.159	1059.52
884.68	1057.55
889.199	970.905
893.714	959.222
898.228	921.342
902.738	958.093
907.246	812.388
911.752	778.009
916.255	759.044
920.755	620.668
925.253	665.928
929.748	518.955
934.241	354.857
938.731	299.106
943.218	135.856
947.703	162.923
952.186	410.935
956.665	538.923
961.142	639.815
965.617	921.458
970.089	1001.12
974.558	1258
979.025	1524.11
983.489	2004.06
987.951	2312.05
992.41	3305.86
996.866	5382.91
1001.32	10768.2
1005.77	25041.8
1010.22	48354.8
1014.67	51570.1
1019.11	23641.8
1023.55	9532.92
1027.99	4974.66
1032.42	3989.36
1036.86	3964.4
1041.29	5463.24
1045.72	6822.22
1050.14	6164.15
1054.56	3547.72
1058.98	1999.82
1063.4	1352.02
1067.82	1101.81
1072.23	925.622
1076.64	712.168
1081.05	672.808
1085.45	613.5
1089.85	466.768
1094.25	483.168
1098.65	537.067
1103.04	339.392
1107.43	329.854
1111.82	285.169
1116.21	402.557
1120.59	528.801
1124.97	727.143
1129.35	349.7
1133.73	436.682
1138.1	352.609
1142.47	343.025
1146.84	302.463
1151.21	208.926
1155.57	79.5889
1159.93	70.1977
1164.29	14.5659
1168.64	78.062
1172.99	6.50879
1177.34	12.292
1181.69	22.0137
1186.04	11.3667
1190.38	12.0283
1194.72	44.1694
1199.05	18.6133
1203.39	22.273
1207.72	94.8628
1212.05	24.4316
1216.37	56.4546
1220.7	94.4707
1225.02	64.1743
1229.34	214.325
1233.65	140.524
1237.97	197.517
1242.28	168.901
1246.59	194.008
1250.89	184.653
1255.19	113.115
1259.49	118.315
1263.79	267.875
1268.09	209.779
1272.38	183.617
1276.67	239.631
1280.95	307.614
1285.24	307.576
1289.52	263.057
1293.8	226.343
1298.08	284.885
1302.35	312.802
1306.62	185.939
1310.89	267.322
1315.15	270.523
1319.42	347.226
1323.68	241.878
1327.94	228.797
1332.19	217.901
1336.44	156.63
1340.69	222.204
1344.94	285.382
1349.19	329.022
1353.43	157.891
1357.67	126.829
1361.9	199.477
1366.14	166.554
1370.37	123.131
1374.6	93.7715
1378.83	72.8311
1383.05	219.047
1387.27	198.8
1391.49	7.43652
1395.7	68.6973
1399.92	81.0938
1404.13	63.6982
1408.34	188.702
1412.54	92.3926
1416.74	15.3545
1420.94	9.46875
1425.14	96.8701
1429.34	69.1856
1433.53	12.9287
1437.72	21.915
1441.9	15.0713
1446.09	126.644
1450.27	115.715
1454.45	193.688
1458.63	3.63379
1462.8	119.989
1466.97	101.827
1471.14	171.378
1475.31	187.798
1479.47	240.361
1483.63	56.3018
1487.79	272.525
1491.94	181.114
1496.09	23.2988
1500.24	138.111
1504.39	273.353
1508.54	243.299
1512.68	161.555
1516.82	177.221
1520.95	116.018
1525.09	202.838
1529.22	203.602
1533.35	251.871
1537.47	175.722
1541.6	132.15
1545.72	180.339
1549.83	238.929
1553.95	206.9
1558.06	253.832
1562.17	53.1865
1566.28	192.389
1570.38	31.1172
