Measurement: Raman, 514 nm, ccw, Raman Data Processed
Mineral: Diopside
Rruff sample: R070123
Ideal chemistry: CaMgSi_2_O_6_
Locality: Yates mine, Otter Lake, Huddersfield Township, Pontiac County, Québec, Canada
Source: Michael Scott
Description: Black prismatic crystals associated with orange calcite
Measured chemistry: (Ca_0.95_Na_0.04_Mn_0.01_)_Σ=1_(Mg_0.63_Fe_0.33_Al_0.04_)_Σ=1_Si_2.00_O_6_
Pin_id: M01382
Orientation: Laser parallel to (1 0 -1). Fiducial mark perpendicular to laser is parallel to b [0 1 0]
Raman shift (cm-1)	intensity
122.995	0
127.941	77.0452
132.885	404.301
137.826	554.971
142.764	235.822
147.699	63.2654
152.631	7.24707
157.56	2.12353
162.487	58.4502
167.411	211.045
172.332	468.248
177.25	859.872
182.165	525.875
187.078	314.227
191.987	251.895
196.894	378.302
201.798	426.335
206.699	135.638
211.598	254.439
216.493	383.6
221.386	568.336
226.276	822.873
231.163	1075.27
236.048	911.521
240.929	462.615
245.808	295.53
250.684	344.249
255.557	238.752
260.428	158.86
265.295	22.227
270.16	12.9268
275.022	20.322
279.882	131.712
284.738	317.968
289.592	510.922
294.443	969.607
299.291	1562.42
304.136	2690.71
308.978	4979.46
313.818	8707.05
318.655	13517.7
323.489	13512.4
328.321	8889
333.15	5381.22
337.976	3449.01
342.799	2644.29
347.619	2332.04
352.437	2192.25
357.252	2293.92
362.064	2435.05
366.873	3176.62
371.68	4816.62
376.483	8255.05
381.284	14851.9
386.083	20888.1
390.878	16618.7
395.671	7560.63
400.461	3309.94
405.249	1608.58
410.033	983.543
414.815	585.589
419.594	432.084
424.37	242.096
429.144	96.4797
433.915	22.238
438.683	23.6426
443.448	12.199
448.211	5.86304
452.971	67.4978
457.728	159.016
462.483	275.873
467.235	244.404
471.984	242.559
476.73	186.249
481.474	207.662
486.214	226.361
490.953	248.17
495.688	244.076
500.421	315.067
505.151	468.129
509.878	682.252
514.603	1063.42
519.325	1516.63
524.044	2250.87
528.76	2464.21
533.474	1599.64
538.185	1039.27
542.894	836.984
547.599	774.694
552.302	823.406
557.003	969.162
561.7	851.944
566.395	701.686
571.087	619.377
575.777	426.95
580.464	250.435
585.148	137.592
589.829	24.2146
594.508	87.0913
599.184	57.7664
603.858	20.7573
608.528	42.3721
613.197	80.6411
617.862	42.9202
622.525	157.605
627.185	199.53
631.842	390.212
636.497	566.644
641.149	840.82
645.798	1366.74
650.445	2478.63
655.089	4938.01
659.73	10207.8
664.369	15374.2
669.005	12302.1
673.639	6093.02
678.269	3142.06
682.898	1783.16
687.523	1130.08
692.146	850.721
696.766	611.329
701.384	528.02
705.998	429.067
710.611	325.809
715.22	275.214
719.827	240.306
724.431	213.097
729.033	171.376
733.632	145.439
738.229	57.9319
742.822	97.5317
747.413	36.7803
752.002	74.0999
756.588	0.769043
761.171	87.2112
765.752	118.518
770.33	84.6562
774.905	126.635
779.478	72.4641
784.048	54.1538
788.615	85.7051
793.18	41.1348
797.742	7.44116
802.302	27.4136
806.859	16.4531
811.414	51.0032
815.965	12.9482
820.515	11.1255
825.061	5.59497
829.605	25.0996
834.147	66.5791
838.686	44.5095
843.222	4.51953
847.755	76.8577
852.286	210.438
856.815	367.454
861.341	335.524
865.864	351.717
870.384	330.13
874.902	328.55
879.418	449.656
883.931	459.376
888.441	475.033
892.949	516.001
897.454	467.988
901.956	491.918
906.456	436.069
910.954	356.502
915.448	410.241
919.941	443.273
924.43	335.391
928.917	306.998
933.402	262.991
937.884	284.51
942.363	184.786
946.84	263.467
951.314	352.957
955.786	487.087
960.255	631.759
964.722	773.13
969.186	969.185
973.647	1063.84
978.106	1370.78
982.562	1751.04
987.016	2263.61
991.467	3253.49
995.916	5334.68
1000.36	9370.17
1004.8	19105
1009.25	38766.1
1013.68	48222.5
1018.12	25493.2
1022.55	10668.2
1026.98	5777.3
1031.41	4230.27
1035.84	3663.01
1040.26	3616.57
1044.68	3125.85
1049.1	2356.54
1053.52	1814.69
1057.93	1457.79
1062.34	1188.18
1066.75	1028.65
1071.15	757.258
1075.56	653.177
1079.96	703.254
1084.36	590.828
1088.75	500.607
1093.14	476.826
1097.53	482.2
1101.92	429.883
1106.31	448.691
1110.69	394.633
1115.07	397.743
1119.45	359.895
1123.82	449.044
1128.2	438.044
1132.57	447.09
1136.93	325.272
1141.3	290.571
1145.66	201.761
1150.02	94.9331
1154.38	48.771
1158.74	20.3023
1163.09	7.2981
1167.44	16.5652
1171.79	57.1946
1176.13	28.3648
1180.48	37.2053
1184.82	7.34351
1189.15	10.772
1193.49	5.36328
1197.82	28.9053
1202.15	20.0232
1206.48	40.0928
1210.81	7.52417
1215.13	39.8818
1219.45	2.09448
1223.77	44.0222
1228.08	43.7932
1232.4	29.3621
1236.71	61.7112
1241.02	59.8926
1245.32	32.8706
1249.62	121.686
1253.92	78.3438
1258.22	123.467
1262.52	89.1848
1266.81	128.37
1271.1	92.386
1275.39	85.2334
1279.68	94.9866
1283.96	41.4883
1288.24	85.0212
1292.52	58.7986
1296.8	66.279
1301.07	151.242
1305.34	81.3616
1309.61	67.0273
1313.88	104.754
1318.14	84.5085
1322.4	154.658
1326.66	80.2095
1330.92	157.035
1335.17	145.615
1339.42	143.091
1343.67	91.9497
1347.92	120.369
1352.16	51.2732
1356.41	93.2324
1360.64	140.126
1364.88	60.9119
1369.12	86.5632
1373.35	69.5627
1377.58	74.2351
1381.81	87.7488
1386.03	116.499
1390.25	51.471
1394.47	128.803
1398.69	69.8975
1402.91	12.1726
1407.12	85.354
1411.33	143.394
1415.54	105.332
1419.74	56.2585
1423.95	32.0681
1428.15	52.002
1432.35	77.0562
1436.54	32.4365
1440.74	29.2405
1444.93	52.5969
1449.12	58.9343
1453.3	65.0779
1457.49	11.116
1461.67	28.8516
1465.85	7.69214
1470.02	12.3992
1474.2	32.5164
1478.37	73.426
1482.54	8.34961
1486.71	21.2024
1490.87	40.2966
1495.03	65.5186
1499.19	51.8782
1503.35	52.0791
1507.51	18.8794
1511.66	61.4705
1515.81	87.6279
1519.96	40.1445
1524.1	0.854492
1528.25	6.31348
1532.39	70.2588
1536.53	11.1755
1540.66	68.166
1544.8	66.2793
1548.93	21.4329
1553.06	30.125
1557.18	63.8428
1561.31	14.3821
