Measurement: Raman, 514 nm, ccw, Raman Data Processed
Mineral: Diopside
Rruff sample: R070123
Ideal chemistry: CaMgSi_2_O_6_
Locality: Yates mine, Otter Lake, Huddersfield Township, Pontiac County, Québec, Canada
Source: Michael Scott
Description: Black prismatic crystals associated with orange calcite
Measured chemistry: (Ca_0.95_Na_0.04_Mn_0.01_)_Σ=1_(Mg_0.63_Fe_0.33_Al_0.04_)_Σ=1_Si_2.00_O_6_
Pin_id: M01382
Orientation: Laser parallel to (1 0 -1). Fiducial mark perpendicular to laser is parallel to b [0 1 0]
Raman shift (cm-1)	intensity
106.9	0
111.855	7.18127
116.808	76.9862
121.758	6.3396
126.705	84.2582
131.649	367.778
136.591	557.501
141.529	281.602
146.465	45.1853
151.398	43.6384
156.328	5.72595
161.256	64.3098
166.18	200.142
171.102	235.047
176.021	287.899
180.937	151.589
185.85	140.541
190.76	131.707
195.668	132.499
200.572	263.635
205.474	59.5883
210.374	41.8914
215.27	71.5005
220.163	184.429
225.054	434.681
229.942	890.262
234.827	1050.17
239.709	653.401
244.589	552.951
249.465	679.815
254.339	772.389
259.21	781.545
264.079	683.29
268.944	648.149
273.807	618.803
278.667	698.616
283.524	687.36
288.378	824.057
293.23	1057.23
298.079	1552.54
302.925	2360.15
307.768	3716.42
312.609	5252.69
317.446	6881.41
322.281	6958.82
327.113	4783.47
331.943	2753.38
336.769	1790.54
341.593	1207.95
346.414	1103.6
351.233	957.461
356.048	789.535
360.861	652.814
365.671	500.295
370.478	515.972
375.283	516.842
380.084	705.898
384.883	846.138
389.68	767.557
394.473	497.465
399.264	214.927
404.052	30.9587
408.837	35.2461
413.62	41.7707
418.4	25.5181
423.177	2.43091
427.951	45.6931
432.722	27.9414
437.491	31.6438
442.257	23.7092
447.021	39.0425
451.781	88.1138
456.539	119.513
461.294	102.31
466.047	59.4858
470.797	52.0147
475.544	50.8794
480.288	53.1382
485.03	118.594
489.768	239.168
494.504	447.852
499.238	941.638
503.969	1716.52
508.697	1142.49
513.422	567.54
518.144	395.663
522.864	318.863
527.582	377.211
532.296	448.671
537.008	520.304
541.717	453.926
546.423	459.641
551.127	542.376
555.828	676.124
560.526	660.892
565.222	419.031
569.915	345.471
574.605	304.6
579.292	204.321
583.977	101.363
588.659	72.5337
593.339	68.7988
598.016	146.704
602.69	150.401
607.361	261.039
612.03	343.469
616.696	510.211
621.359	733.398
626.02	1121.76
630.678	1411.01
635.333	1964.84
639.986	2693.7
644.636	3884.22
649.284	6494.66
653.928	12072.8
658.57	24332.8
663.21	40242.9
667.846	37526.1
672.481	18793.1
677.112	8573.21
681.741	4237.09
686.367	2444.95
690.99	1482.68
695.611	1017.29
700.229	694.564
704.845	504.51
709.458	355.618
714.068	179.604
718.676	197.547
723.281	55.3366
727.883	13.1398
732.483	15.1476
737.08	36.7322
741.674	41.971
746.266	18.1063
750.855	18.3728
755.442	47.4946
760.025	37.751
764.607	69.7496
769.185	43.585
773.761	32.2683
778.335	42.8104
782.906	7.22241
787.474	47.5144
792.039	14.704
796.602	24.8031
801.162	30.2339
805.72	16.5193
810.275	15.0203
814.828	5.63208
819.378	54.5938
823.925	101.793
828.47	47.9844
833.012	7.1731
837.551	54.6538
842.088	6.5332
846.622	114.608
851.154	273.795
855.683	544.033
860.209	431.949
864.733	321.119
869.254	266.046
873.773	158.193
878.289	191.672
882.803	213.201
887.314	160.401
891.822	263.649
896.328	224.544
900.831	280.14
905.332	358.982
909.83	262.425
914.325	336.075
918.818	285.272
923.308	373.961
927.796	312.101
932.281	381.691
936.764	382.018
941.244	329.89
945.721	394.738
950.196	457.114
954.668	670.144
959.138	752.313
963.605	883.837
968.07	1084.67
972.532	1376.53
976.991	1582.79
981.448	2004.89
985.903	2717.37
990.355	3809.24
994.804	5826.48
999.251	10299.2
1003.7	20424.4
1008.14	42261.2
1012.58	62092.7
1017.01	39694.7
1021.45	16609.3
1025.88	8766.46
1030.31	6090.66
1034.73	5422.67
1039.16	5798.41
1043.58	5723.17
1048	4368.96
1052.41	2829.23
1056.83	1914.69
1061.24	1482.61
1065.65	1149.79
1070.05	977.27
1074.46	786.27
1078.86	738.02
1083.26	763.033
1087.65	697.056
1092.05	670.472
1096.44	641.241
1100.83	574.185
1105.21	604.6
1109.6	592.956
1113.98	594.845
1118.36	582.586
1122.73	615.155
1127.1	617.793
1131.47	522.489
1135.84	440.228
1140.21	302.035
1144.57	283.818
1148.93	241.598
1153.29	111.361
1157.65	18.0914
1162	2.24158
1166.35	46.6829
1170.7	28.6018
1175.05	22.3706
1179.39	40.7006
1183.73	13.5112
1188.07	27.5875
1192.41	15.0896
1196.74	69.9665
1201.07	14.2697
1205.4	1.89185
1209.72	14.8533
1214.05	38.8447
1218.37	5.26648
1222.69	54.3053
1227.01	22.0719
1231.32	49.6083
1235.63	73.9441
1239.94	49.0781
1244.24	71.9959
1248.55	99.6804
1252.85	92.1334
1257.15	134.376
1261.44	125.406
1265.74	173.227
1270.03	169.827
1274.32	129.203
1278.61	114.659
1282.89	160.277
1287.17	178.519
1291.45	114.908
1295.73	100.029
1300	106.126
1304.27	120.748
1308.54	135.314
1312.81	129.422
1317.08	175.922
1321.34	170.356
1325.6	177.778
1329.85	158.261
1334.11	198.207
1338.36	176.302
1342.61	113.025
1346.86	160.592
1351.1	115.035
1355.35	108.637
1359.59	107.322
1363.82	71.8409
1368.06	125.205
1372.29	71.3763
1376.52	81.5538
1380.75	124.887
1384.97	131.179
1389.2	105.992
1393.42	68.948
1397.64	113.933
1401.85	39.65
1406.07	88.3419
1410.28	36.9708
1414.49	64.6962
1418.69	44.2526
1422.9	28.6916
1427.1	66.2827
1431.3	25.9138
1435.49	61.3334
1439.69	16.6405
1443.88	11.7068
1448.07	101.266
1452.26	43.5018
1456.44	53.952
1460.62	0.689941
1464.8	43.4578
1468.98	72.2262
1473.15	21.0615
1477.33	61.9202
1481.5	21.8064
1485.66	24.7778
1489.83	57.8674
1493.99	28.9725
1498.15	31.1503
1502.31	30.5781
1506.47	15.1571
1510.62	32.7195
1514.77	41.1265
1518.92	21.0275
1523.07	27.5135
1527.21	37.4563
1531.35	56.1653
1535.49	35.5468
1539.63	22.8103
1543.76	58.1506
1547.9	62.6386
1552.03	31.5249
1556.15	85.0979
1560.28	94.1083
