Measurement: Raman, 514 nm, ccw, Raman Data Processed
Mineral: Diopside
Rruff sample: R040097
Ideal chemistry: CaMgSi_2_O_6_
Locality: Fassathal, Tyrol
Source: University of Arizona Mineral Museum
Description: Green prismatic crystals
Measured chemistry: Ca_1.00_(Mg_0.83_Al_0.10_Fe_0.09_Ca_0.02_Ti_0.02_)(Si_0.88_Al_0.12_)_2_O_6_
Pin_id: L00421
Orientation: Laser parallel to [1 0 1]. Fiducial mark perpendicular to laser is parallel to -b* (0 -1 0)
Raman shift (cm-1)	intensity
116.218	0
120.371	55.991
124.522	2.039
128.671	240.602
132.818	311.153
136.963	442.074
141.107	1309.41
145.248	1202.21
149.388	474.956
153.526	89.604
157.662	159.243
161.796	5.862
165.929	5.34
170.059	172.065
174.188	180.107
178.315	41.853
182.44	477.596
186.563	584.935
190.684	213.153
194.803	119.355
198.921	267.944
203.037	77.11
207.15	111.304
211.262	69.861
215.373	76.668
219.481	333.629
223.588	609.29
227.692	1020.88
231.795	1578.53
235.896	930.3
239.995	294.173
244.093	203.1
248.188	334.923
252.282	505.818
256.374	418.814
260.464	317.909
264.552	157.125
268.638	82.408
272.723	82.137
276.806	65.985
280.887	61.616
284.966	98.399
289.043	77.035
293.118	347.22
297.192	626.401
301.264	904.174
305.334	1160.78
309.402	1572.62
313.469	2357.75
317.533	3789.9
321.596	5922.49
325.657	7956.69
329.716	6343.63
333.774	3839.49
337.829	2148.9
341.883	1649.88
345.935	1512.96
349.985	1466.28
354.034	1819.64
358.08	2141.97
362.125	1984.98
366.168	1877.08
370.209	1748.22
374.249	1696.45
378.286	1958.26
382.322	3051.23
386.356	5214.32
390.388	9197.45
394.419	9480.61
398.447	5403.81
402.474	2317.05
406.499	1150.39
410.523	683.798
414.544	385.433
418.564	213.662
422.582	258.205
426.598	263.919
430.613	217.05
434.625	62.895
438.636	132.998
442.646	150.561
446.653	266.521
450.658	53.947
454.662	111.803
458.664	268.053
462.665	340.322
466.663	325.649
470.66	12.788
474.655	175.535
478.648	169.573
482.64	143.317
486.629	187.066
490.617	190.844
494.603	284.562
498.588	348.192
502.571	251.75
506.552	265.217
510.531	448.579
514.508	661.833
518.484	714.985
522.458	548.029
526.43	890.963
530.4	1143.81
534.369	996.588
538.336	659.261
542.301	252.012
546.265	394.43
550.226	496.905
554.186	489.062
558.145	432.201
562.101	329.879
566.056	420.799
570.009	348.428
573.96	279.371
577.91	133.242
581.858	136.649
585.804	261.785
589.748	209.07
593.691	29.881
597.632	118.448
601.571	32.421
605.508	224.82
609.444	134.129
613.378	32.647
617.311	78.592
621.241	120.395
625.17	93.108
629.097	161.426
633.023	208.794
636.946	335.264
640.868	481.52
644.789	607.435
648.707	848.389
652.624	1320.41
656.539	2215.91
660.453	4080.64
664.364	7125.28
668.274	7559.67
672.183	4893.81
676.089	2717.68
679.994	1731.31
683.898	1194.68
687.799	777.788
691.699	360.646
695.597	423.247
699.493	355.593
703.388	367.686
707.281	449.524
711.172	71.113
715.062	12.435
718.95	73.411
722.836	153.983
726.721	45.93
730.604	136.356
734.485	178.066
738.364	219.626
742.242	196.232
746.118	122.558
749.993	31.688
753.866	92.33
757.737	116.221
761.606	291.409
765.474	323.403
769.34	70.655
773.204	2.393
777.067	21.732
780.928	220.785
784.787	304.645
788.645	188.547
792.501	182.95
796.355	217.203
800.208	161.296
804.059	305.201
807.908	318.962
811.756	312.582
815.602	216.076
819.446	299.492
823.289	562.784
827.13	665.963
830.969	359.034
834.807	182.007
838.643	124.888
842.477	247.676
846.31	520.418
850.141	623.1
853.971	525.627
857.798	618.419
861.624	530.97
865.449	672.962
869.272	633.163
873.093	611.591
876.912	285.47
880.73	336.776
884.546	334.292
888.361	211.777
892.174	365.944
895.985	344.286
899.795	240.06
903.603	88.675
907.409	63.267
911.214	165.062
915.017	445.538
918.818	547.926
922.618	210.791
926.416	192.894
930.213	34.258
934.008	394.521
937.801	376.64
941.593	389.96
945.383	514.387
949.171	298.838
952.958	120.842
956.743	334.834
960.526	709.211
964.308	823.851
968.089	841.867
971.867	716.363
975.644	671.057
979.42	836.283
983.193	1161.51
986.966	1477.35
990.736	1753.47
994.505	2072.17
998.272	3127.59
1002.04	5230.18
1005.8	9071.24
1009.57	15648.9
1013.33	17949
1017.09	11655.5
1020.84	5193.52
1024.6	2443.14
1028.35	1780.31
1032.11	1388.21
1035.86	1626.19
1039.61	1517.71
1043.36	1716.66
1047.1	1655.68
1050.85	1095.13
1054.59	675.16
1058.33	682.83
1062.07	910.51
1065.81	788.75
1069.55	597.918
1073.28	375.832
1077.02	314.617
1080.75	122.277
1084.48	216.014
1088.21	906.83
1091.93	625.238
1095.66	573.162
1099.38	181.127
1103.11	118.916
1106.83	126.354
1110.55	124.398
1114.26	462.814
1117.98	570.193
1121.69	326.537
1125.41	93.594
1129.12	50.385
1132.83	13.492
1136.54	5.121
1140.24	152.586
1143.95	470.797
1147.65	408.275
1151.36	506.01
1155.06	280.021
1158.76	58.238
1162.45	183.762
1166.15	5.287
1169.84	158.578
1173.53	342.021
1177.22	407.471
1180.91	315.637
1184.6	96.449
1188.29	47.791
1191.97	56.271
1195.66	87.57
1199.34	286.73
1203.02	766.359
1206.7	432.77
1210.37	449.217
1214.05	361.672
1217.72	158.111
1221.4	82.672
1225.07	216.936
1228.74	409.836
1232.4	798.023
1236.07	899.932
1239.73	683.637
1243.4	584.484
1247.06	365.572
1250.72	225.809
1254.38	155.791
1258.03	174.795
1261.69	684.168
1265.34	800.439
1268.99	827.5
1272.65	824.205
1276.3	500.299
1279.94	174.775
1283.59	105.242
1287.23	89.109
1290.88	149.217
1294.52	892.32
1298.16	546.838
1301.8	842.52
1305.43	439.297
1309.07	525.93
1312.7	280.779
1316.33	66.15
1319.96	150.824
1323.59	183.469
1327.22	376.432
1330.85	587.959
1334.47	766.064
1338.1	736.238
1341.72	785.666
1345.34	534.184
1348.96	459.088
1352.57	227.635
1356.19	34.492
1359.8	171.906
1363.41	506.104
1367.03	661.371
1370.63	986.424
1374.24	861.766
1377.85	560.576
1381.45	442.156
1385.06	224.701
1388.66	127.602
1392.26	250.42
1395.86	202.725
1399.46	524.812
1403.05	536.115
1406.65	954.289
1410.24	984.857
1413.83	909.959
1417.42	941.002
1421.01	855.158
1424.6	46.91
1428.18	132.697
1431.77	100.777
1435.35	151.594
1438.93	467.68
1442.51	735.074
1446.09	964.471
1449.66	1185.15
1453.24	1267.92
1456.81	869.686
1460.38	869.156
1463.95	422.33
1467.52	475.85
1471.09	439.504
1474.65	239.195
1478.22	258.023
1481.78	642.678
1485.34	1085.53
1488.9	1286.05
1492.46	1369.5
1496.02	1356.08
1499.58	1213.55
1503.13	910.693
1506.68	651.125
1510.23	388.318
1513.78	321.346
1517.33	87.775
1520.88	226.627
1524.42	412.895
1527.97	434.57
