Measurement: Raman, 514 nm, ccw, Raman Data Processed
Mineral: Diopside
Rruff sample: R040009
Ideal chemistry: CaMgSi_2_O_6_
Locality: Otter Lake, Quebec, Canada
Source: University of Arizona Mineral Museum
Description: Green square prismatic crystal associated with pale orange calcite
Measured chemistry: (Ca_0.97_Fe_0.02_Na_0.01_)_Σ=1_(Mg_0.97_Fe_0.02_Al_0.01_)_Σ=1_Si_2.00_O_6_; trace amounts of Mn and Ti
Pin_id: L00101
Orientation: Laser parallel to -a [-1 0 0]. Fiducial mark perpendicular to laser is parallel to -b* (0 -1 0)
Raman shift (cm-1)	intensity
91.981	0
96.161	0.999
100.34	35.562
104.516	57.848
108.691	165.43
112.864	86.89
117.034	455.247
121.203	408.125
125.369	154.915
129.534	185.024
133.696	335.878
137.857	639.393
142.016	292.465
146.172	118.704
150.327	24.601
154.48	110.303
158.63	25.505
162.779	42.294
166.926	98.626
171.07	51.174
175.213	608.003
179.354	1330.91
183.493	1215.69
187.63	173.743
191.765	96.067
195.898	158.66
200.029	14.595
204.158	10.314
208.285	21.375
212.41	25.292
216.533	8.272
220.654	40.131
224.773	303.099
228.891	762.173
233.006	1456.34
237.119	824.594
241.231	300.927
245.34	240.354
249.448	507.87
253.553	1253.47
257.657	661.572
261.758	191.684
265.858	28.261
269.956	22.646
274.052	2.241
278.146	34.495
282.237	75.488
286.327	104.158
290.416	217.405
294.502	329.893
298.586	574.513
302.668	945.255
306.749	1580.11
310.827	2965.05
314.903	4762.65
318.978	10234.4
323.051	21769.6
327.121	16499.9
331.19	6804.19
335.257	3385.06
339.322	1955.08
343.385	1363.63
347.446	1073.21
351.505	982.833
355.563	1171.52
359.618	1121.25
363.672	1135.8
367.723	1382.63
371.773	1541.51
375.821	2042.64
379.866	3311.45
383.91	7539.17
387.952	19681.2
391.992	22645.2
396.031	8740.27
400.067	3357.35
404.101	1683.45
408.134	902.57
412.165	557.715
416.193	369.413
420.22	295.236
424.245	218.833
428.268	156.004
432.289	111.473
436.309	150.107
440.326	3.743
444.342	43.459
448.355	59.918
452.367	31.321
456.377	48.294
460.385	43.252
464.391	95.776
468.395	59.187
472.398	6.385
476.398	22.034
480.397	35.445
484.394	25.149
488.389	18.173
492.382	49.5
496.373	23.175
500.362	43.941
504.349	54.221
508.335	200.384
512.319	347.525
516.3	417.623
520.28	541.676
524.259	1230.69
528.235	2284.69
532.209	2128.65
536.182	1047.59
540.152	513.496
544.121	266.321
548.088	172.058
552.053	201.703
556.017	206.253
559.978	193.732
563.938	142.442
567.895	104.506
571.851	64.599
575.805	60.056
579.758	56.176
583.708	16.973
587.657	87.305
591.603	23.718
595.548	0.424
599.491	42.822
603.432	15.095
607.372	25.71
611.309	55.16
615.245	60.384
619.179	83.343
623.111	183.176
627.041	179.377
630.97	182.036
634.896	341.187
638.821	399.093
642.744	555.333
646.665	821.769
650.584	1236.37
654.502	2074.63
658.418	4022.32
662.331	8844.14
666.244	14560.5
670.154	10219.9
674.062	4668.04
677.969	2388.21
681.874	1303.78
685.777	818.451
689.678	675.241
693.577	352.117
697.475	349.302
701.371	335.453
705.265	329.39
709.157	292.112
713.047	212.642
716.936	152.139
720.823	96.658
724.708	78.105
728.591	33.981
732.472	85.583
736.352	36.803
740.23	41.284
744.106	38.124
747.98	73.979
751.853	55.899
755.723	44.638
759.592	1.23
763.459	30.358
767.325	34.584
771.188	2.891
775.05	18.967
778.91	57.578
782.768	35.114
786.625	46.96
790.479	52.985
794.332	11.676
798.183	44.052
802.033	47.946
805.88	3.137
809.726	10.335
813.57	43.455
817.413	42.127
821.253	6.442
825.092	26.512
828.929	7.342
832.764	22.053
836.598	78.282
840.429	17.629
844.259	28.825
848.088	47.695
851.914	285.017
855.739	412.214
859.562	248.261
863.383	197.353
867.203	203.913
871.02	134.466
874.836	131.339
878.65	161.746
882.463	140.757
886.274	134.592
890.083	142.053
893.89	118.794
897.695	142.675
901.499	136.804
905.301	155.045
909.102	118.941
912.9	289.647
916.697	241.333
920.492	167.594
924.285	233.714
928.077	116.964
931.867	217.43
935.655	257.23
939.442	78.891
943.226	177.353
947.009	167.468
950.791	163.212
954.57	135.471
958.348	266.474
962.124	262.179
965.899	399.509
969.671	467.885
973.442	569.695
977.211	735.361
980.979	901.685
984.745	1012.5
988.509	1355.76
992.271	1918.92
996.032	2818.3
999.791	4192.9
1003.55	7456.85
1007.3	15300.9
1011.06	36434.4
1014.81	46707.1
1018.56	19850.1
1022.31	7829.98
1026.06	4027.75
1029.8	2685.08
1033.55	1927.81
1037.29	1670.2
1041.03	1624.84
1044.77	1605.77
1048.5	1543.28
1052.24	1140.65
1055.97	767.403
1059.7	689.415
1063.43	598.273
1067.16	435.911
1070.89	406.19
1074.61	364.019
1078.34	317.705
1082.06	333.563
1085.78	167.391
1089.5	173.241
1093.21	174.898
1096.93	87.242
1100.64	167.671
1104.35	57.217
1108.06	75.081
1111.77	46.895
1115.48	172.276
1119.18	82.935
1122.89	300.406
1126.59	162.839
1130.29	179.784
1133.99	70.037
1137.68	119.119
1141.38	134.86
1145.07	106.238
1148.76	103.402
1152.45	40.876
1156.14	36.391
1159.83	6.447
1163.51	5.032
1167.19	54.642
1170.88	90.485
1174.56	39.819
1178.23	42.91
1181.91	6.741
1185.59	50.504
1189.26	14.099
1192.93	57.902
1196.6	109.107
1200.27	112.763
1203.94	65.02
1207.6	223.352
1211.27	125.111
1214.93	135.666
1218.59	190.518
1222.25	178.096
1225.9	231.069
1229.56	181.518
1233.21	97.083
1236.86	75.082
1240.51	161.16
1244.16	106.966
1247.81	199.228
1251.45	167.202
1255.1	111.841
1258.74	24.448
1262.38	177.333
1266.02	137.169
1269.66	76.732
1273.29	130.567
1276.93	61.388
1280.56	126.066
1284.19	111.427
1287.82	18.624
1291.45	152.778
1295.07	35.433
1298.7	60.615
1302.32	163.227
1305.94	64.982
1309.56	16.146
1313.18	40.827
1316.8	41.424
1320.41	128.794
1324.02	33.188
1327.63	114.652
1331.24	93.635
1334.85	18.908
1338.46	133.806
1342.06	66.686
1345.67	1.323
1349.27	55.97
1352.87	222.671
1356.47	72.071
1360.07	126.641
1363.66	44.251
1367.25	43.726
1370.85	81.268
1374.44	63.327
1378.03	46.785
1381.61	81.893
1385.2	132.725
1388.78	64.621
1392.37	81.741
1395.95	137.589
1399.53	245.392
1403.1	217.422
1406.68	248.523
1410.26	347.903
1413.83	243.373
1417.4	243.755
1420.97	235.62
1424.54	381.456
1428.1	200.008
1431.67	80.557
1435.23	259.579
1438.8	392.412
1442.36	389.803
1445.91	282.275
1449.47	276.236
1453.03	259.447
1456.58	251.322
1460.13	337.039
1463.68	177.729
1467.23	351.303
1470.78	129.877
1474.33	280.082
1477.87	33.883
1481.42	369.26
1484.96	241.873
1488.5	603.273
1492.04	85.133
1495.57	335.852
1499.11	166.41
1502.64	170.334
1506.17	96.531
1509.71	168.777
1513.23	132.475
