Measurement: Raman, 514 nm, ccw, Raman Data Processed
Mineral: Diopside
Rruff sample: R050666
Ideal chemistry: CaMgSi_2_O_6_
Locality: Franklin, Sussex County, New Jersey, USA
Source: University of Arizona Mineral Museum
Description: Brown cleavage fragment with white hardystonite
Measured chemistry: Ca(Mg_0.66_Mn_0.33_Fe_0.01_)Si_2_O_6_
Pin_id: L00985
Orientation: Laser parallel to (1 0 1). Fiducial mark perpendicular to laser is parallel to -b [0 -1 0]
Raman shift (cm-1)	intensity
124.288	0
129.209	139.422
134.127	355.44
139.043	197.856
143.956	33.0195
148.867	308.246
153.775	377.537
158.681	305.885
163.585	476.398
168.486	899.094
173.385	781.602
178.282	814.242
183.176	537.68
188.067	432.644
192.956	378.871
197.843	304.1
202.727	692.998
207.609	501.133
212.489	358.996
217.366	598.1
222.24	904.426
227.112	907.076
231.982	843.412
236.849	695.566
241.714	661.269
246.577	425.254
251.437	471.512
256.294	452.045
261.149	374.842
266.002	510.9
270.852	365.625
275.7	498.268
280.545	414.17
285.388	687.123
290.229	935.539
295.067	1306.23
299.902	2159.05
304.735	4599.78
309.566	6799.81
314.394	7137.93
319.22	6280.08
324.043	3949.15
328.864	2371.98
333.682	1922.93
338.498	2185.42
343.311	2051.6
348.122	2180.54
352.931	1903.82
357.737	1901.93
362.54	2370.7
367.341	3669.12
372.14	7548.18
376.936	12034.9
381.73	11969.1
386.521	7905.96
391.31	3270.36
396.096	1613.32
400.88	1023.8
405.661	334.815
410.44	632.336
415.216	242.389
419.99	267.305
424.761	179.123
429.53	46.1973
434.297	257.522
439.061	11.6602
443.822	341.783
448.581	62.7051
453.337	267.781
458.091	307.115
462.843	63.8418
467.592	64.6797
472.338	122.152
477.082	8.08984
481.824	57.5156
486.563	31.3672
491.3	209.307
496.034	56.5703
500.765	262.664
505.494	447.539
510.221	241.051
514.945	827.207
519.666	1295.01
524.385	1485.44
529.102	902.492
533.816	558.156
538.527	478.496
543.236	270.422
547.943	890.035
552.647	919.297
557.348	790.144
562.047	248.871
566.744	332.828
571.438	33.5898
576.129	72.7383
580.818	68.1172
585.504	102.707
590.188	181.184
594.87	32.3438
599.549	55.6562
604.225	121.07
608.899	4.58594
613.57	171.031
618.239	236.426
622.905	336.027
627.569	492.258
632.23	707.93
636.889	654.914
641.545	1055.85
646.198	2243.28
650.849	4976.81
655.498	8257.73
660.144	8426.12
664.787	5668.97
669.428	2789.62
674.067	1803.85
678.703	868.492
683.336	655.41
687.967	600.094
692.595	308.578
697.221	429.344
701.844	143.172
706.465	351.012
711.083	313.805
715.698	343.492
720.311	440.477
724.922	284.051
729.53	197.453
734.135	146.301
738.738	121.148
743.338	287.137
747.936	237.766
752.531	241.613
757.124	221.531
761.714	41.6523
766.302	293.879
770.887	9.65625
775.469	158.426
780.049	190.18
784.626	315.488
789.201	14.9141
793.773	13.0352
798.343	126.969
802.91	72.3047
807.475	48.6055
812.037	86.6055
816.596	153.141
821.153	95.2656
825.707	330.742
830.259	200.473
834.808	365.894
839.355	291.754
843.899	88.7422
848.441	604.594
852.98	348.32
857.516	445.777
862.05	306.894
866.581	172.812
871.11	473.559
875.636	372.863
880.159	301.836
884.68	385.629
889.199	24.1992
893.714	402
898.228	68.9297
902.738	183.316
907.246	304.168
911.752	131.051
916.255	151.004
920.755	56.3672
925.253	161.195
929.748	225.988
934.241	17.5273
938.731	197.777
943.218	127.195
947.703	60.2617
952.186	293.754
956.665	354.188
961.142	798.961
965.617	277.844
970.089	101.394
974.558	708.836
979.025	563.195
983.489	914.449
987.951	1296.59
992.41	1972.77
996.866	3357.06
1001.32	7432.3
1005.77	19829.4
1010.22	32880.4
1014.67	25410.5
1019.11	10998.2
1023.55	4464.04
1027.99	2752.11
1032.42	2434.32
1036.86	2639.1
1041.29	2168.61
1045.72	1285.55
1050.14	988.412
1054.56	893.426
1058.98	474.447
1063.4	298.281
1067.82	339.965
1072.23	278.293
1076.64	380.467
1081.05	246.596
1085.45	256.178
1089.85	228.57
1094.25	410.303
1098.65	215.068
1103.04	505.768
1107.43	68.7773
1111.82	266.547
1116.21	417.889
1120.59	411.785
1124.97	485.672
1129.35	307.982
1133.73	470.019
1138.1	250.398
1142.47	142.373
1146.84	234.56
1151.21	13.8594
1155.57	169.924
1159.93	97.5664
1164.29	92.2617
1168.64	17.2578
1172.99	50.748
1177.34	340.789
1181.69	293.223
1186.04	64.2637
1190.38	397.92
1194.72	51.6699
1199.05	186.453
1203.39	60.1602
1207.72	134.705
1212.05	373.016
1216.37	331.527
1220.7	3.78125
1225.02	164.088
1229.34	51.332
1233.65	292.906
1237.97	303.625
1242.28	263.332
1246.59	327.816
1250.89	152.119
1255.19	79.5293
1259.49	242.877
1263.79	230.377
1268.09	422.125
1272.38	514.65
1276.67	62.0059
1280.95	246.299
1285.24	221.644
1289.52	165.996
1293.8	138.242
1298.08	181.16
1302.35	20.7246
1306.62	172.482
1310.89	326.453
1315.15	224.115
1319.42	91.168
1323.68	115.307
1327.94	45.3672
1332.19	201.236
1336.44	203.914
1340.69	260.441
1344.94	266.848
1349.19	389.631
1353.43	220.795
1357.67	150.225
1361.9	277.654
1366.14	148.014
1370.37	138.191
1374.6	99.2207
1378.83	76.2773
1383.05	225.381
1387.27	264.732
1391.49	189.131
1395.7	219.361
1399.92	291.43
1404.13	145.848
1408.34	166.531
1412.54	92.2988
1416.74	121.152
1420.94	1.91797
1425.14	355.756
1429.34	281.84
1433.53	18.9395
1437.72	196.234
1441.9	150.4
1446.09	21.168
1450.27	63.832
1454.45	240.375
1458.63	84.0195
1462.8	178.58
1466.97	138.213
1471.14	213.977
1475.31	25.2949
1479.47	48.8262
1483.63	224.861
1487.79	273.096
1491.94	59.6055
1496.09	188.691
1500.24	189.664
1504.39	157.08
1508.54	96.7734
1512.68	0.265625
1516.82	12.7773
1520.95	50.0078
1525.09	208.426
1529.22	146.633
1533.35	173.283
1537.47	32.1309
1541.6	83.4609
1545.72	143.381
1549.83	85.875
1553.95	186.838
1558.06	327.885
1562.17	81.5019
1566.28	63.834
1570.38	283.84
