Measurement: Raman, 514 nm, ccw, Raman Data Processed
Mineral: Diopside
Rruff sample: R040097
Ideal chemistry: CaMgSi_2_O_6_
Locality: Fassathal, Tyrol
Source: University of Arizona Mineral Museum
Description: Green prismatic crystals
Measured chemistry: Ca_1.00_(Mg_0.83_Al_0.10_Fe_0.09_Ca_0.02_Ti_0.02_)(Si_0.88_Al_0.12_)_2_O_6_
Pin_id: M00314
Orientation: Laser parallel to c [0 0 1]. Fiducial mark perpendicular to laser is parallel to b* (0 1 0)
Raman shift (cm-1)	intensity
99.644	0
103.82	72.409
107.995	184.271
112.168	255.303
116.339	687.298
120.508	425.057
124.675	271.284
128.84	77.046
133.003	197.432
137.164	417.671
141.323	351.457
145.48	348.193
149.635	297.064
153.788	183.862
157.939	225.687
162.088	310.664
166.235	566.276
170.38	571.644
174.523	486.841
178.664	303.937
182.803	416.979
186.94	525.351
191.076	706.036
195.209	1411.75
199.34	743.226
203.47	215.196
207.597	14.624
211.722	90.464
215.846	133.668
219.967	370.881
224.087	741.068
228.204	1165.2
232.32	1029.55
236.434	304.036
240.545	28.646
244.655	23.408
248.763	208.353
252.869	643.473
256.973	598.772
261.075	444.263
265.175	109.185
269.273	46.746
273.369	191.353
277.463	155.303
281.556	8.702
285.646	98.475
289.734	116.352
293.821	434.335
297.905	1062.52
301.988	1530.86
306.069	1869.34
310.147	2347.91
314.224	3006.5
318.299	3925.04
322.372	5313.57
326.443	6362.1
330.512	5460.7
334.579	3899.38
338.645	3028.11
342.708	2606.92
346.769	2305.79
350.829	2734.47
354.887	3522.44
358.942	3320.28
362.996	2418.23
367.048	1696.28
371.098	1501.66
375.146	1689.88
379.192	2206.41
383.236	3234.77
387.279	5323.19
391.319	7971.66
395.358	7440.19
399.394	3988.77
403.429	1847.53
407.462	1056.47
411.493	525.599
415.522	224.988
419.549	64.652
423.575	205.514
427.598	237.986
431.619	133.333
435.639	48.216
439.657	117.229
443.673	272.831
447.687	294.267
451.699	297.562
455.709	431.964
459.717	655.008
463.724	815.75
467.728	646.215
471.731	486.564
475.732	566.805
479.731	436.927
483.728	286.922
487.723	336.786
491.716	316.513
495.708	266.095
499.697	255.529
503.685	174.807
507.671	663.923
511.655	882.875
515.637	811.664
519.617	830.289
523.596	778.745
527.572	1007.03
531.547	1135.16
535.52	1023.12
539.491	950.895
543.46	758.481
547.427	905.864
551.393	1083.36
555.356	1581.27
559.318	1958.52
563.278	1454.56
567.236	888.759
571.192	501.64
575.147	318.592
579.099	124.037
583.05	180.441
586.999	190.611
590.946	45.25
594.891	178.598
598.834	15.86
602.776	210.248
606.715	146.206
610.653	63.899
614.589	135.021
618.523	295.307
622.456	465.622
626.386	605.103
630.315	604.509
634.242	743.844
638.167	1292.25
642.09	1640.24
646.012	2087.86
649.931	2875.1
653.849	4571.97
657.765	7438.46
661.679	12394.6
665.592	17810.3
669.502	15515.7
673.411	9230.71
677.318	5395.34
681.223	3369.6
685.126	2113.5
689.028	1337.03
692.927	1070.19
696.825	792.991
700.721	675.439
704.616	237.536
708.508	169.275
712.399	110.653
716.288	211.583
720.175	201.913
724.06	18.37
727.944	59.377
731.825	91.22
735.705	4.424
739.584	61.333
743.46	45.234
747.334	108.649
751.207	53.242
755.078	15.74
758.947	129.675
762.815	119.391
766.68	48.292
770.544	138.45
774.406	49.092
778.267	271.211
782.125	343.143
785.982	64.885
789.837	96.438
793.69	287.822
797.542	489.047
801.391	420.117
805.239	391.047
809.085	201.84
812.93	252.504
816.772	633.045
820.613	1133.48
824.452	953.801
828.29	994.025
832.125	744.164
835.959	364.229
839.791	614.234
843.621	724.199
847.45	554.264
851.277	594.453
855.102	574.729
858.925	1034.74
862.746	1154.71
866.566	924.322
870.384	685.264
874.2	476.914
878.015	286.488
881.828	528.6
885.639	497.053
889.448	474.305
893.256	206.795
897.061	179.205
900.865	217.424
904.668	151.828
908.468	497.352
912.267	469.527
916.064	249.188
919.86	296.256
923.653	260.428
927.445	454.457
931.236	778.967
935.024	713.754
938.811	588.211
942.596	492.912
946.379	588.225
950.161	773.721
953.94	1159.39
957.719	1625.23
961.495	1481.25
965.27	1337.46
969.043	1583.86
972.814	1830.43
976.583	2197.16
980.351	2374.28
984.117	2852.24
987.882	3220.64
991.644	3918.94
995.405	5871.36
999.165	9532.75
1002.92	14977
1006.68	22484.2
1010.43	28122.2
1014.18	21175.3
1017.93	10192.9
1021.68	6175.41
1025.43	4756.47
1029.18	3962.22
1032.92	3135.13
1036.66	3091.48
1040.4	2935.86
1044.14	3602.96
1047.88	3876.46
1051.62	3220.35
1055.35	2634.25
1059.08	1899.42
1062.81	1144.16
1066.54	688.928
1070.27	623.672
1073.99	617.32
1077.72	831.158
1081.44	806.916
1085.16	870.928
1088.88	543.428
1092.59	277.059
1096.31	461.875
1100.02	424.857
1103.73	676.631
1107.44	629.984
1111.15	633.527
1114.86	366.455
1118.57	399.336
1122.27	520.436
1125.97	403.84
1129.67	377.006
1133.37	588.375
1137.07	429.381
1140.76	271.367
1144.45	208.252
1148.15	207.287
1151.84	35.83
1155.53	343.451
1159.21	124.186
1162.9	434.271
1166.58	58.779
1170.26	127.781
1173.94	34.475
1177.62	58.67
1181.3	30.318
1184.97	334.904
1188.65	536.08
1192.32	648.553
1195.99	533.309
1199.66	295.455
1203.33	146.598
1206.99	176.119
1210.65	333.689
1214.32	509.824
1217.98	752.527
1221.64	738.84
1225.29	772.48
1228.95	536.283
1232.6	590.072
1236.26	292.07
1239.91	302.734
1243.56	682.004
1247.2	620.504
1250.85	1028.97
1254.49	777.316
1258.13	574.77
1261.78	360.887
1265.41	676.053
1269.05	300.453
1272.69	484.766
1276.32	667.258
1279.95	617.605
1283.59	906.312
1287.21	822.822
1290.84	671.689
1294.47	173.033
1298.09	271.84
1301.72	190.785
1305.34	173.305
1308.96	353.729
1312.58	394.342
1316.19	181.703
1319.81	253.594
1323.42	228.176
1327.03	380.402
1330.64	215.947
1334.25	254.746
1337.86	22.621
1341.46	113.1
1345.07	511.398
1348.67	379.32
1352.27	826.211
1355.87	1283.23
1359.46	649.939
1363.06	95.287
1366.65	260.934
1370.25	75.971
1373.84	209.547
1377.43	584.264
1381.02	761.848
1384.6	888.4
1388.18	894.461
1391.77	805.299
1395.35	507.525
1398.93	196.193
1402.51	345.283
1406.08	431.244
1409.66	437.961
1413.23	337.082
1416.8	637.412
1420.37	901.439
1423.94	932.359
1427.51	783.631
1431.08	748.395
1434.64	575.562
1438.2	265.309
1441.76	10.676
1445.32	125.715
1448.88	55.783
1452.43	189.574
1455.99	487.035
1459.54	944.516
1463.09	985.209
1466.64	1012.26
1470.19	1037.46
1473.74	656.549
1477.28	843.289
1480.83	245.445
1484.37	140.871
1487.91	127.076
1491.45	372.646
1494.98	363.34
1498.52	374.604
1502.05	610.105
1505.59	1042.19
1509.12	1014.95
1512.65	796.168
1516.17	658.617
