Measurement: Raman, 514 nm, ccw, Raman Data Processed
Mineral: Diopside
Rruff sample: R060861
Ideal chemistry: CaMgSi_2_O_6_
Locality: Red Mountain Volcano, NW of Flagstaff, Arizona, USA
Source: Jennifer Sano
Description: Worn brown fragment
Measured chemistry: (Ca_0.72_Fe^2+^_0.23_Na_0.05_)_Σ=1_(Mg_0.80_Al_0.15_Ti_0.03_Fe^3+^_0.02_)_Σ=1_(Si_1.82_Al_0.18_)_Σ=2_O_6_
Pin_id: M01599
Orientation: Laser parallel to (1 0 1). Fiducial mark perpendicular to laser is parallel to b [0 1 0]
Raman shift (cm-1)	intensity
174.7	0
179.631	41.4375
184.56	286.719
189.484	617.979
194.406	1013.67
199.325	972.944
204.24	650.439
209.153	105.456
214.062	658.317
218.968	1517.72
223.87	2105.81
228.77	2283.53
233.666	1722.86
238.56	1329.36
243.45	898.339
248.337	721.592
253.221	657.372
258.102	731.846
262.979	286.635
267.854	25.6553
272.726	205.022
277.594	66.4111
282.459	534.769
287.321	1270.9
292.18	2368.63
297.036	3651.51
301.889	5236.77
306.739	7264.17
311.586	9448.11
316.43	12693.5
321.271	15831
326.108	18918.5
330.943	20594.2
335.774	20676
340.603	19114.8
345.428	16876.3
350.251	15209.2
355.07	14141.5
359.887	13179.5
364.7	12649.2
369.511	11938.1
374.318	12339.1
379.123	13650.4
383.924	16438.5
388.723	20566.8
393.518	23959.2
398.311	23862.5
403.1	19063.8
407.887	12236.7
412.671	7147.69
417.451	4127.99
422.229	2428.21
427.004	1473.41
431.776	872.931
436.545	520.689
441.311	229.628
446.074	177.223
450.834	46.8838
455.591	178.586
460.346	345.797
465.097	670.219
469.846	954.129
474.591	1091.68
479.334	1044.84
484.074	1123.82
488.811	1297.6
493.545	1389.66
498.276	1465.46
503.005	1619.06
507.73	1929.35
512.453	2517.25
517.173	2995.7
521.89	3473.61
526.604	4331.92
531.315	4885.54
536.024	5059.41
540.729	4850.45
545.432	4625.61
550.132	4622.81
554.83	4562.01
559.524	4548.35
564.216	4132.83
568.904	3365.16
573.59	2759.25
578.274	2260.31
582.954	1650.13
587.632	904.865
592.307	588.934
596.979	5.94922
601.648	83.4834
606.315	200.079
610.979	41.4966
615.64	179.034
620.298	319.523
624.954	670.218
629.607	1029
634.257	1674.54
638.904	2458.02
643.549	3839.46
648.191	6148.88
652.83	9769.32
657.467	15754.8
662.101	23477.3
666.732	28606
671.36	25817.8
675.986	18302.8
680.609	11625
685.23	7396.52
689.847	4855.39
694.462	3318.65
699.075	2270.38
703.685	1614.63
708.292	1176.47
712.896	814.959
717.498	522.176
722.097	129.113
726.694	58.4917
731.287	215.595
735.879	324.209
740.467	396.352
745.053	534.612
749.637	407.026
754.217	200.579
758.795	16.9722
763.371	326.071
767.944	583.773
772.514	624.213
777.082	732.559
781.647	779.763
786.21	776.96
790.77	854.285
795.327	961.869
799.882	1004.84
804.434	1219.33
808.984	1220.46
813.531	1552.36
818.076	1662.14
822.618	1705.93
827.158	1688.83
831.695	1654.97
836.229	1407.46
840.761	1305.42
845.291	1264.94
849.817	1350.14
854.342	1818.88
858.864	1958.51
863.383	2315.71
867.9	2471.07
872.414	2558.64
876.926	2392.68
881.436	2394.12
885.942	2387.84
890.447	2205.31
894.949	2250.9
899.448	2210.71
903.945	2227.02
908.44	2244.7
912.932	2292.81
917.421	2328.26
921.909	2752.06
926.393	2815.07
930.876	2967.07
935.355	3241.15
939.833	3434.17
944.308	3698.07
948.78	4291.74
953.25	5020.11
957.718	5946.12
962.183	6864.76
966.646	8117
971.107	9845.78
975.565	11860.1
980.02	14230.8
984.474	17258
988.925	21822.5
993.373	27891.5
997.819	35123.1
1002.26	42307.1
1006.7	45182.8
1011.14	41281.2
1015.58	32283.4
1020.01	23347.1
1024.45	17102.8
1028.88	13783.1
1033.3	11728.6
1037.73	10427.1
1042.15	9067.49
1046.57	7841.58
1050.99	6661.26
1055.4	5568.37
1059.82	4677.82
1064.23	3963.14
1068.64	3148.38
1073.04	2915.86
1077.45	2494.16
1081.85	2352.92
1086.25	2152.99
1090.64	2100.65
1095.04	2014.37
1099.43	1815.42
1103.82	1857.58
1108.21	1851.02
1112.6	1878.23
1116.98	1727.47
1121.36	2145.25
1125.74	1465.31
1130.12	860.023
1134.49	466.293
1138.86	225.167
1143.23	34.8828
1147.6	174.184
1151.96	314.059
1156.33	288.821
1160.69	222.513
1165.05	196.677
1169.4	183.002
1173.76	190.503
1178.11	138.303
1182.46	131.138
1186.81	59.6304
1191.15	27.9224
1195.49	160.373
1199.84	127.832
1204.17	156.487
1208.51	257.468
1212.84	300.953
1217.18	387.575
1221.51	384.704
1225.83	542.976
1230.16	513.882
1234.48	505.466
1238.8	594.747
1243.12	644.674
1247.44	650.266
1251.76	707.498
1256.07	748.679
1260.38	737.41
1264.69	836.525
1268.99	826.293
1273.3	839.066
1277.6	935.056
1281.9	755.74
1286.2	814.434
1290.49	753.204
1294.79	843.908
1299.08	767.651
1303.37	685.79
1307.65	606.319
1311.94	605.663
1316.22	503.307
1320.5	648.334
1324.78	584.852
1329.06	525.612
1333.33	562.197
1337.6	569.709
1341.87	569.733
1346.14	564.636
1350.41	607.251
1354.67	472.177
1358.93	528.394
1363.19	420.334
1367.45	469.765
1371.71	387.683
1375.96	487.053
1380.21	384.094
1384.46	348.686
1388.71	419.217
1392.96	297.287
1397.2	343.906
1401.44	313.035
1405.68	335.138
1409.92	274.625
1414.16	196.46
1418.39	246.853
1422.62	140.444
1426.85	148.815
1431.08	162.255
1435.3	117.99
1439.53	174.936
1443.75	43.5239
1447.97	17.1001
1452.19	91.3887
1456.4	11.8345
1460.62	99.2002
1464.83	75.459
1469.04	48.52
1473.24	138.579
1477.45	37.0254
1481.65	30.4439
1485.86	108.071
1490.06	17.4087
1494.26	181.801
1498.45	15.2798
1502.64	134.239
1506.84	25.5239
1511.03	4.07617
1515.22	33.291
1519.4	24.4795
1523.59	38.2227
1527.77	126.29
1531.95	132.151
1536.13	91.7075
1540.31	47.5523
1544.48	11.7544
1548.65	6.45117
1552.82	113.237
1556.99	124.772
1561.16	143.633
1565.33	0
