Measurement: Raman, 514 nm, ccw, Raman Data Processed
Mineral: Dioptase
Rruff sample: R040028
Ideal chemistry: CuSiO_3_H_2_O
Locality: Tantara mine, Democratic Republic of the Congo
Source: University of Arizona Mineral Museum
Description: Bluish green coarsely crystallized fragment
Measured chemistry: Cu_1.00_Si_1.00_O_3_Â·H_2_O; H_2_O estimated by difference
Pin_id: M00034
Orientation: Laser parallel to -c* (0 0 -1). Fiducial mark perpendicular to laser is parallel to -a [-1 0 0]
Raman shift (cm-1)	intensity
87.106	0
91.298	231.648
95.488	2720.02
99.676	8293.49
103.863	1116.89
108.047	1131.65
112.229	2595.85
116.409	4559.71
120.587	5020.5
124.764	4536.56
128.938	9585.29
133.11	23963.5
137.28	27034.6
141.448	8506.3
145.614	561.213
149.778	314.349
153.94	424.037
158.1	4492.75
162.258	10261.9
166.414	3799.94
170.568	1018.79
174.72	2308.7
178.87	7837.89
183.018	5937.6
187.164	2526.95
191.308	1334.77
195.45	2223.2
199.59	2304.2
203.728	1865.15
207.864	2439.28
211.998	4138.65
216.13	7741.02
220.261	16797.1
224.389	30293.2
228.515	26808.2
232.639	12801.9
236.761	5494.23
240.881	3045.39
244.999	1565.34
249.116	104.091
253.23	160.229
257.342	802.683
261.452	4794.56
265.561	15071.6
269.667	10783.6
273.772	5057.41
277.874	3588.41
281.974	3995.57
286.073	5909.57
290.17	9108.41
294.264	9746.15
298.357	4422.01
302.447	1066.5
306.536	36.082
310.623	478.801
314.708	516.072
318.79	28.371
322.871	1398.05
326.95	2808.03
331.027	2205.58
335.102	473.893
339.175	149.991
343.247	244.093
347.316	1350.63
351.383	4783.9
355.448	18692.7
359.512	23670.6
363.573	9141.97
367.633	4121.27
371.69	2481.21
375.746	2013.95
379.8	2325.08
383.852	3135.04
387.901	4814.77
391.949	8534.1
395.995	18512
400.039	28489.3
404.082	18346
408.122	8188.55
412.16	4941.03
416.197	4674.6
420.231	5150.17
424.264	5288.1
428.294	5731.2
432.323	6386.03
436.35	6464.9
440.375	5856.82
444.398	5178.3
448.419	4775.94
452.438	4935.54
456.455	4542.18
460.471	3152.13
464.484	2098.39
468.496	1726.84
472.505	1145.29
476.513	833.245
480.519	945.569
484.523	1096.71
488.525	1230.83
492.525	1000.24
496.524	812.739
500.52	935.337
504.514	1174.42
508.507	1360.48
512.498	1796.29
516.487	2276.83
520.474	2545.92
524.459	2239.49
528.442	1711.66
532.423	1546.44
536.403	1218.79
540.38	977.699
544.356	740.201
548.33	597.294
552.302	948.965
556.272	1757.28
560.24	2923.28
564.206	3480.98
568.171	3058.48
572.133	2756.01
576.094	2231.12
580.053	1183.7
584.01	435.146
587.965	256.243
591.918	112.915
595.869	98.924
599.819	157.623
603.767	202.353
607.713	154.157
611.657	87.12
615.599	134.112
619.539	154.962
623.477	163.635
627.414	291.239
631.349	510.171
635.281	578.745
639.212	989.591
643.142	1647.69
647.069	2943.36
650.994	5217.39
654.918	10439.8
658.84	20092.4
662.76	20376.8
666.678	11982.1
670.594	6547.82
674.509	3625.18
678.421	2151.72
682.332	1655.71
686.241	1180.58
690.148	842.744
694.054	663.67
697.957	405.638
701.859	522.004
705.759	536.729
709.657	537.133
713.553	632.491
717.447	810.908
721.34	1123.65
725.231	1791.02
729.12	2635.3
733.007	4402.3
736.892	6989.93
740.775	10284.3
744.657	10715.1
748.537	7582.9
752.415	4501.3
756.291	2670.65
760.166	1678.65
764.038	1186.21
767.909	751.857
771.778	586.556
775.645	414.798
779.511	575.993
783.374	380.094
787.236	461.066
791.096	400.875
794.955	237.805
798.811	202.839
802.666	279.961
806.518	272.164
810.37	214.49
814.219	221.936
818.066	137.493
821.912	27.124
825.756	38.184
829.598	27.514
833.438	78.227
837.277	37.914
841.114	176.624
844.949	10.414
848.782	38.278
852.613	59.236
856.443	11.266
860.271	54.618
864.097	59.39
867.922	34.185
871.744	86.988
875.565	14.058
879.384	41.928
883.201	106.313
887.017	40.663
890.831	66.044
894.643	192.861
898.453	272.83
902.261	275.017
906.068	529.509
909.873	962.505
913.676	1567.04
917.477	1729.15
921.277	1245.89
925.075	818.176
928.871	661.911
932.666	892.937
936.458	701.163
940.249	710.566
944.038	809.134
947.826	840.864
951.611	1552.76
955.395	1206.82
959.178	2199.89
962.958	1499.26
966.737	1227.65
970.514	1133.44
974.289	975.682
978.062	967.053
981.834	1224.43
985.604	1447.52
989.373	1972.27
993.139	2555.25
996.904	3663.89
1000.67	5917.32
1004.43	10400.7
1008.19	12313.4
1011.95	10567.6
1015.7	10677.8
1019.46	10257.8
1023.21	9116.08
1026.96	8001.48
1030.71	6596.87
1034.46	4918.76
1038.2	3442.05
1041.95	2454.94
1045.69	1642.1
1049.43	1300.38
1053.17	1000.86
1056.91	988.539
1060.64	842.412
1064.38	735.469
1068.11	580.708
1071.84	440.103
1075.57	276.646
1079.29	224.34
1083.02	261.188
1086.74	303.178
1090.46	213.328
1094.19	111.624
1097.9	48.078
1101.62	70.628
1105.34	37.112
1109.05	79.95
1112.76	41.144
1116.47	124.51
1120.18	109.739
1123.89	102.077
1127.59	119.286
1131.29	54.041
1135	124.819
1138.7	139.853
1142.39	145.748
1146.09	240.003
1149.79	288.885
1153.48	224.871
1157.17	223.388
1160.86	249.551
1164.55	221.54
1168.23	479.595
1171.92	306.339
1175.6	336.963
1179.28	274.535
1182.96	195.957
1186.64	70.792
1190.32	158.786
1193.99	133.045
1197.67	89.067
1201.34	94.859
1205.01	137.796
1208.67	142.825
1212.34	161.26
1216.01	79.066
1219.67	82.812
1223.33	104.683
1226.99	120.595
1230.65	109.083
1234.31	121.149
1237.96	110.05
1241.61	87.049
1245.26	46.517
1248.91	18.277
1252.56	27.146
1256.21	31.675
1259.85	4.754
1263.5	23.711
1267.14	107.479
1270.78	75.244
1274.42	10.568
1278.05	53.603
1281.69	18.216
1285.32	1.974
1288.95	86.473
1292.58	82.729
1296.21	50.758
1299.84	13.666
1303.46	32.36
1307.09	70.27
1310.71	69.744
1314.33	49.562
1317.95	14.85
1321.56	72.505
1325.18	139.634
1328.79	132.697
1332.41	132.361
1336.02	91.902
1339.62	59.247
1343.23	25.386
1346.84	91.323
1350.44	38.152
1354.04	50.843
1357.64	74.339
1361.24	106.55
1364.84	139.68
1368.44	198.887
1372.03	199.847
1375.62	44.423
1379.21	23.362
1382.8	11.572
1386.39	99.418
1389.98	81.17
1393.56	147.606
1397.15	108.907
1400.73	118.785
1404.31	97.736
1407.88	83.278
1411.46	97.61
1415.04	104.76
1418.61	82.631
1422.18	63.685
1425.75	152.359
1429.32	85.715
1432.89	143.102
1436.45	146.357
1440.02	140.035
1443.58	183.46
1447.14	187.71
1450.7	164.087
1454.26	100.193
1457.81	134.647
1461.37	99.681
1464.92	147.926
1468.47	77.81
1472.02	168.12
1475.57	234.117
1479.11	160.374
1482.66	181.938
1486.2	92.26
1489.74	113.293
1493.28	103.958
1496.82	73.187
1500.36	36.142
1503.89	14.138
1507.42	55.269
1510.96	20.654
1514.49	39.752
1518.02	3.136
