Measurement: Raman, 514 nm, ccw, Raman Data Processed
Mineral: Diopside
Rruff sample: R060171
Ideal chemistry: CaMgSi_2_O_6_
Locality: Jeffrey mine, Asbestos, Quebec, Canada
Source: Guy Ouellet
Description: Yellowish-brown tabular crystals associated with vesuvianite, R060170
Measured chemistry: Ca_1.00_(Mg_0.98_Mn_0.02_)_Î£=1_Si_2.00_O_6_
Pin_id: M00055
Orientation: Laser parallel to c* (0 0 1). Fiducial mark perpendicular to laser is parallel to a [1 0 0]
Raman shift (cm-1)	intensity
123.058	0
127.979	37.3931
132.898	7.62329
137.814	187.193
142.728	128.083
147.639	7.36621
152.549	6.16211
157.455	122.459
162.359	530.582
167.261	456.485
172.161	179.167
177.058	257.586
181.952	727.731
186.845	341.65
191.734	823.285
196.622	1104.24
201.507	289.908
206.389	77.7705
211.269	8.02783
216.147	81.7183
221.022	343.846
225.895	794.354
230.765	1539.27
235.633	654.774
240.498	233.018
245.361	184.919
250.222	502.056
255.08	786.425
259.936	321.022
264.789	4.15918
269.64	4.48535
274.488	1.25977
279.334	12.146
284.178	2.38281
289.019	134.498
293.857	314.881
298.693	885.868
303.527	1427.11
308.358	1496.67
313.187	2521.63
318.013	4917.83
322.837	10252.2
327.659	4952.9
332.478	1467.75
337.294	783.005
342.108	745.83
346.92	1073.52
351.729	2720.76
356.535	4317.21
361.34	1680.48
366.141	737.371
370.94	663.421
375.737	1158.27
380.531	2556.97
385.323	6127.45
390.113	10792.1
394.9	6186.78
399.684	1982.62
404.466	848.563
409.245	350.556
414.022	221.881
418.797	201.225
423.569	117.209
428.338	37.8901
433.105	14.2798
437.87	51.6592
442.632	19.7402
447.391	7.62793
452.149	136.744
456.903	404.141
461.655	933.664
466.405	792.296
471.152	169.84
475.897	18.9058
480.639	25.1016
485.378	15.0894
490.116	21.9819
494.85	7.89502
499.582	56.9517
504.312	88.8906
509.039	277.83
513.764	390.879
518.486	307.052
523.206	274.321
527.923	625.663
532.638	447.107
537.35	205.623
542.059	189.215
546.766	437.88
551.471	1194.6
556.173	3365.42
560.873	2817.32
565.57	927.276
570.264	331.276
574.957	169.508
579.646	91.5586
584.333	41.8828
589.018	145.052
593.7	51.8716
598.379	62.148
603.056	73.3301
607.73	102.32
612.402	155.348
617.072	151.069
621.739	219.073
626.403	271.976
631.065	470.996
635.724	594.979
640.381	850.418
645.035	1267.55
649.687	2001.02
654.336	4260.37
658.983	9539.56
663.627	19404.6
668.268	16668.4
672.907	6732.06
677.544	2795.94
682.178	1560.3
686.809	967.268
691.438	602.922
696.065	426.019
700.688	273.926
705.31	264.145
709.929	136.509
714.545	75.8013
719.158	100.024
723.77	73.1304
728.378	0.473633
732.984	83.5781
737.588	6.57617
742.189	175.285
746.787	74.9673
751.383	8.92334
755.976	50.3623
760.567	82.6401
765.155	9.37158
769.741	67.9424
774.324	0.09668
778.904	69.7022
783.482	16.2505
788.058	116.693
792.631	57.0903
797.201	33.1606
801.769	18.646
806.334	28.5869
810.897	41.9824
815.457	56.9375
820.014	68.249
824.569	100.446
829.122	78.5469
833.671	48.5478
838.219	50.4531
842.763	190.273
847.306	416.01
851.845	1157.67
856.382	698.249
860.917	248.501
865.448	154.254
869.978	106.654
874.505	39.6631
879.029	54.8091
883.55	55.0571
888.069	51.8203
892.586	123.486
897.1	54.6235
901.611	97.2227
906.12	73.5825
910.626	52.394
915.129	43.022
919.63	134.297
924.129	174.861
928.625	1.15772
933.118	122.519
937.609	97.8789
942.097	109.208
946.582	91.7402
951.065	37.8916
955.546	128.346
960.023	142.852
964.499	254.515
968.971	307.747
973.441	250.411
977.909	418.15
982.374	626.966
986.836	721.856
991.295	1010.77
995.753	1782.7
1000.21	3672.65
1004.66	9348.62
1009.11	29597.6
1013.55	45916.7
1018	16236.5
1022.44	5266.92
1026.88	2757.49
1031.32	1833.94
1035.75	1689.59
1040.18	2281.04
1044.61	4449.01
1049.04	5314.2
1053.46	2220.89
1057.88	931.729
1062.3	647.09
1066.71	373.767
1071.13	338.278
1075.54	220.15
1079.94	136.079
1084.35	82.0254
1088.75	58.207
1093.15	107.505
1097.55	168.159
1101.94	134.184
1106.34	157.281
1110.73	105.938
1115.11	48.9541
1119.5	158.818
1123.88	184.818
1128.26	97.3936
1132.63	46.1475
1137.01	106.639
1141.38	58.0869
1145.75	138.487
1150.12	151.787
1154.48	116.345
1158.84	17.333
1163.2	21.5283
1167.55	36.4355
1171.91	80.6152
1176.26	36.624
1180.61	12.8945
1184.95	33.5879
1189.29	177.31
1193.63	31.2061
1197.97	27.0322
1202.31	105.177
1206.64	67.2353
1210.97	0.200195
1215.29	107.056
1219.62	14.7812
1223.94	109.986
1228.26	24.6562
1232.57	12.4502
1236.89	115.526
1241.2	23.3711
1245.51	24.4336
1249.81	6.13965
1254.12	118.324
1258.42	203.855
1262.72	273.143
1267.01	171.414
1271.3	136.527
1275.59	114.295
1279.88	113.861
1284.17	152.851
1288.45	3.8418
1292.73	95.0674
1297.01	140.448
1301.28	147.697
1305.55	133.288
1309.82	105.74
1314.09	54.7393
1318.35	294.834
1322.61	203.567
1326.87	166.889
1331.13	89.7031
1335.38	200.93
1339.63	130.664
1343.88	21.9893
1348.12	220.463
1352.37	197.72
1356.61	244.864
1360.85	247.802
1365.08	44.8047
1369.31	38.6631
1373.54	97.2353
1377.77	81.707
1381.99	42.2647
1386.22	192.889
1390.43	157.302
1394.65	70.7744
1398.87	159.356
1403.08	13.9873
1407.29	196.335
1411.49	113.39
1415.69	61.7666
1419.89	172.924
1424.09	126.987
1428.29	43.8584
1432.48	56.3682
1436.67	184.697
1440.86	120.686
1445.04	211.561
1449.23	130.334
1453.4	196.211
1457.58	127.046
1461.76	114.423
1465.93	85.0361
1470.1	72.9639
1474.26	200.623
1478.43	141.285
1482.59	145.316
1486.75	118.215
1490.9	217.055
1495.06	210.667
1499.21	96.1406
1503.35	119.688
1507.5	69.9639
1511.64	70.7822
1515.78	148.431
1519.92	56.0176
1524.05	57.1914
1528.18	162.581
1532.31	254.376
1536.44	66.0039
1540.56	85.3906
1544.69	105.419
1548.8	176.219
1552.92	132.856
1557.03	109.742
1561.14	102.006
1565.25	93.3574
1569.36	59.6719
