Measurement: Raman, 514 nm, ccw, Raman Data Processed
Mineral: Diopside
Rruff sample: R060861
Ideal chemistry: CaMgSi_2_O_6_
Locality: Red Mountain Volcano, NW of Flagstaff, Arizona, USA
Source: Jennifer Sano
Description: Worn brown fragment
Measured chemistry: (Ca_0.72_Fe^2+^_0.23_Na_0.05_)_Σ=1_(Mg_0.80_Al_0.15_Ti_0.03_Fe^3+^_0.02_)_Σ=1_(Si_1.82_Al_0.18_)_Σ=2_O_6_
Pin_id: M01674
Orientation: Laser parallel to b* (0 1 0). Fiducial mark perpendicular to laser is parallel to c [0 0 1]
Raman shift (cm-1)	intensity
169.765	0
174.7	101.884
179.631	325.022
184.56	880.82
189.484	1231.07
194.406	1631.55
199.325	1358.46
204.24	924.694
209.153	22.2783
214.062	102.32
218.968	10.3174
223.87	114.689
228.77	138.616
233.666	180.575
238.56	181.321
243.45	169.416
248.337	397.948
253.221	699.61
258.102	883.852
262.979	258.232
267.854	1.39356
272.726	102.343
277.594	125.822
282.459	553.127
287.321	1070.58
292.18	1809.13
297.036	2689.76
301.889	3896.19
306.739	5453.63
311.586	7322.09
316.43	9460.21
321.271	12172.5
326.108	14774.9
330.943	16359.1
335.774	16434.6
340.603	15431.5
345.428	14631.1
350.251	13462.2
355.07	13123.6
359.887	12442.1
364.7	11783.8
369.511	10881.4
374.318	10448
379.123	10694.3
383.924	11680.4
388.723	13052.6
393.518	14486.8
398.311	13652.4
403.1	9930.6
407.887	6328.23
412.671	3380.86
417.451	2003.65
422.229	1235.22
427.004	616.36
431.776	454.78
436.545	146.787
441.311	78.2978
446.074	124.663
450.834	93.709
455.591	127.428
460.346	519.152
465.097	622.489
469.846	946.751
474.591	987.785
479.334	1075.92
484.074	1092.49
488.811	1230.81
493.545	1580.61
498.276	1912.9
503.005	2747.84
507.73	3776.31
512.453	4030.14
517.173	4036.23
521.89	4257.52
526.604	4688.96
531.315	5646.5
536.024	5969.75
540.729	6022.65
545.432	5780.15
550.132	5409.56
554.83	4994.83
559.524	4620.21
564.216	4344.6
568.904	4019.73
573.59	3529.55
578.274	2987.03
582.954	2213.12
587.632	1372.94
592.307	852.359
596.979	20.1396
601.648	203.326
606.315	197.998
610.979	180.172
615.64	419.421
620.298	824.971
624.954	1344.04
629.607	2110.81
634.257	3309.38
638.904	4843.75
643.549	7348.94
648.191	11388.9
652.83	18097.8
657.467	28684.4
662.101	42547.9
666.732	50890.3
671.36	44948.6
675.986	30638.8
680.609	19201.9
685.23	12096.1
689.847	7715.21
694.462	5330.41
699.075	3619.71
703.685	2779.12
708.292	1939.71
712.896	1326.51
717.498	1025.57
722.097	633.95
726.694	72.834
731.287	166.206
735.879	332.44
740.467	541.673
745.053	447.485
749.637	435.36
754.217	192.794
758.795	28.3506
763.371	282.744
767.944	349.535
772.514	531.769
777.082	703.405
781.647	845.773
786.21	918.981
790.77	1013.14
795.327	1172.37
799.882	1319.76
804.434	1438.43
808.984	1557.47
813.531	1759.99
818.076	1865.09
822.618	1928.85
827.158	1845.39
831.695	1820.79
836.229	1555.15
840.761	1442.55
845.291	1518.1
849.817	1744.87
854.342	2309.95
858.864	3289.44
863.383	3982.62
867.9	4606.29
872.414	4456.9
876.926	4237.78
881.436	3367.21
885.942	3204.06
890.447	3002.51
894.949	2938.34
899.448	2645.93
903.945	2758.27
908.44	2736.57
912.932	2610.78
917.421	2679.82
921.909	3036.7
926.393	3183.28
930.876	3208.52
935.355	3322.22
939.833	3488.39
944.308	3470.95
948.78	3929.79
953.25	4446.81
957.718	4920.02
962.183	5554.37
966.646	6253.86
971.107	7251.42
975.565	8702.01
980.02	10214.6
984.474	12448.2
988.925	15760.7
993.373	20454.1
997.819	25827.4
1002.26	31219.3
1006.7	33350.6
1011.14	30058.8
1015.58	23399.2
1020.01	16719.8
1024.45	12270.6
1028.88	9546.11
1033.3	7925.63
1037.73	6889.9
1042.15	6146.44
1046.57	5406.95
1050.99	4437.1
1055.4	3675.56
1059.82	3246.52
1064.23	2905.85
1068.64	2535.75
1073.04	2390.62
1077.45	2249.89
1081.85	2009.68
1086.25	2013.79
1090.64	2095.13
1095.04	2035.65
1099.43	1918.31
1103.82	1773.11
1108.21	1826.33
1112.6	1764.08
1116.98	1756.21
1121.36	1565.49
1125.74	1225.66
1130.12	889.547
1134.49	431.44
1138.86	168.671
1143.23	6.48486
1147.6	109.788
1151.96	283.219
1156.33	234.392
1160.69	218.877
1165.05	146.871
1169.4	283.179
1173.76	169.381
1178.11	82.2056
1182.46	115.455
1186.81	49.0747
1191.15	18.8994
1195.49	131.222
1199.84	15.3169
1204.17	132.361
1208.51	317.45
1212.84	300.218
1217.18	354.681
1221.51	437.852
1225.83	436.753
1230.16	403.414
1234.48	525.869
1238.8	510.128
1243.12	685.188
1247.44	736.064
1251.76	676.906
1256.07	719.302
1260.38	795.663
1264.69	774.846
1268.99	826.582
1273.3	872.507
1277.6	756.441
1281.9	865.255
1286.2	769.382
1290.49	858.573
1294.79	927.782
1299.08	695.473
1303.37	696.738
1307.65	654.497
1311.94	559.102
1316.22	631.606
1320.5	636.232
1324.78	538.994
1329.06	649.047
1333.33	567.784
1337.6	578.991
1341.87	689.668
1346.14	611.551
1350.41	622.825
1354.67	582.419
1358.93	592.56
1363.19	547.155
1367.45	456.878
1371.71	485.185
1375.96	465.507
1380.21	388.692
1384.46	483.89
1388.71	390.017
1392.96	307.59
1397.2	316.575
1401.44	314.929
1405.68	378.058
1409.92	340.36
1414.16	323.136
1418.39	256.649
1422.62	226.814
1426.85	229.103
1431.08	235.202
1435.3	297.483
1439.53	349.332
1443.75	227.246
1447.97	188.345
1452.19	249.351
1456.4	214.667
1460.62	134.145
1464.83	124.701
1469.04	131.35
1473.24	223.497
1477.45	16.8286
1481.65	31.6436
1485.86	73.2539
1490.06	57.669
1494.26	154.734
1498.45	60.2656
1502.64	110.396
1506.84	90.2065
1511.03	48.6431
1515.22	156.68
1519.4	178.198
1523.59	60.6313
1527.77	31.5684
1531.95	24.3706
1536.13	102.934
1540.31	141.649
1544.48	0.719238
1548.65	160.989
1552.82	56.4722
1556.99	74.8628
1561.16	24.7417
1565.33	0
