Measurement: Raman, 514 nm, ccw, Raman Data Processed
Mineral: Diopside
Rruff sample: R050666
Ideal chemistry: CaMgSi_2_O_6_
Locality: Franklin, Sussex County, New Jersey, USA
Source: University of Arizona Mineral Museum
Description: Brown cleavage fragment with white hardystonite
Measured chemistry: Ca(Mg_0.66_Mn_0.33_Fe_0.01_)Si_2_O_6_
Pin_id: L01400
Orientation: Laser parallel to -a* (-1 0 0). Fiducial mark perpendicular to laser is parallel to -b [0 -1 0]
Raman shift (cm-1)	intensity
155.002	0
159.908	30.8594
164.811	206.225
169.711	159.93
174.61	600.791
179.505	361.252
184.399	52.9258
189.29	38.8066
194.178	310.951
199.064	446.018
203.948	547.348
208.829	139.891
213.708	235.799
218.585	204.111
223.459	167.731
228.33	388.885
233.199	866.289
238.066	367.221
242.93	93.7656
247.792	108.422
252.651	283.246
257.508	715.197
262.363	309.461
267.215	231.072
272.064	195.029
276.912	59.1309
281.756	237.537
286.598	290.381
291.438	713.207
296.276	933.693
301.111	1619.38
305.943	2815.48
310.773	5026.45
315.601	6079.06
320.426	4184.67
325.248	2816.78
330.068	1719.24
334.886	1748.75
339.701	2286.69
344.514	3048.9
349.324	3430.74
354.132	2722.67
358.938	2241.65
363.741	1571.77
368.541	2189.99
373.339	3511.27
378.135	6333.6
382.928	7734
387.718	4558.38
392.506	1727.18
397.292	836.719
402.075	381.385
406.856	410.115
411.634	218.897
416.41	92.7363
421.183	175.728
425.954	61.4531
430.722	27.4551
435.488	223.367
440.251	18.5391
445.012	167.81
449.77	172.107
454.526	359.482
459.28	149.088
464.03	133.867
468.779	104.328
473.525	10.3008
478.268	115.65
483.009	278.086
487.747	56.6953
492.483	423.438
497.217	671.459
501.948	1233.67
506.676	857.051
511.402	397.717
516.125	719.76
520.846	579.033
525.565	898.479
530.281	511.176
534.994	321.076
539.705	62.127
544.413	783.408
549.119	843.906
553.822	1392.47
558.523	890.082
563.222	606.793
567.917	431.059
572.611	305.035
577.302	13.7617
581.99	185.389
586.676	143.166
591.359	60.3145
596.04	37.2109
600.718	33.5078
605.394	211.891
610.067	24.5156
614.737	270.119
619.406	391.121
624.071	418.121
628.734	766.414
633.395	925.764
638.053	1267.64
642.708	1863.85
647.361	3357.06
652.012	7056.52
656.66	13672.3
661.305	16448.4
665.948	10215.8
670.588	4640.2
675.226	2724.16
679.861	1507.55
684.494	907.207
689.124	560.361
693.752	563.805
698.377	308.691
702.999	683.328
707.619	272.547
712.237	319.398
716.852	198.815
721.464	19.5332
726.074	101.504
730.681	131.111
735.286	9.5625
739.888	169.33
744.488	3.4082
749.085	209.764
753.68	153.078
758.272	69.6465
762.861	148.688
767.448	116.131
772.033	168.978
776.614	124.012
781.194	5.57227
785.77	137.809
790.345	40.9141
794.916	84.3027
799.485	57.125
804.052	104.602
808.616	68.0566
813.177	133.754
817.736	41.5664
822.292	87.2207
826.846	250.711
831.397	311.652
835.945	511.965
840.491	925.648
845.035	1648.81
849.576	1777.44
854.114	1121.56
858.65	493.998
863.183	492.135
867.713	290.779
872.241	288.076
876.767	228.412
881.29	684.057
885.81	224.512
890.328	267.93
894.843	281.826
899.356	119.436
903.866	74.3965
908.373	246.092
912.878	356.797
917.38	320.258
921.88	219.272
926.377	186.57
930.872	119.822
935.364	272.578
939.853	27.334
944.34	4.87109
948.824	60.3457
953.306	104.633
957.785	339.957
962.261	345.045
966.735	380.066
971.207	522.857
975.675	517.107
980.141	468.965
984.605	757.436
989.066	930.549
993.524	1329.36
997.98	2402.07
1002.43	5113.48
1006.88	12687.5
1011.33	26368.2
1015.78	20810.7
1020.22	7597.78
1024.66	3622.45
1029.1	2710.69
1033.53	2819.41
1037.97	3406.26
1042.4	3225.49
1046.82	1892.69
1051.25	1369.82
1055.67	1090.67
1060.09	921.254
1064.51	723.189
1068.92	866.615
1073.33	558.727
1077.74	747.828
1082.15	675.758
1086.55	530.328
1090.95	308.18
1095.35	598.121
1099.75	457.012
1104.14	439.758
1108.53	332.883
1112.92	433.637
1117.31	974.494
1121.69	1563.34
1126.07	934.857
1130.45	575.186
1134.82	309.836
1139.19	123.022
1143.57	352.85
1147.93	102.668
1152.3	83.5762
1156.66	51.248
1161.02	88.834
1165.38	91.9668
1169.73	6.41602
1174.08	15.5215
1178.43	278.211
1182.78	63.752
1187.12	162.338
1191.46	7.22266
1195.8	42.1387
1200.14	121.275
1204.47	43.7051
1208.8	68.2695
1213.13	129.672
1217.46	10.0312
1221.78	223.106
1226.1	28.1777
1230.42	324.981
1234.73	202.559
1239.04	381.49
1243.35	196.144
1247.66	12.2207
1251.97	70.1973
1256.27	4.77539
1260.57	64.668
1264.86	306.916
1269.16	13.7461
1273.45	42.207
1277.74	205.793
1282.03	155.539
1286.31	261.408
1290.59	185.023
1294.87	81.8301
1299.14	398.641
1303.42	316.262
1307.69	277.859
1311.95	308.949
1316.22	187.801
1320.48	224.812
1324.74	338.818
1329	253.043
1333.26	269.934
1337.51	253.844
1341.76	367.35
1346	291.547
1350.25	206.254
1354.49	298.938
1358.73	195.072
1362.96	123.623
1367.2	97.0762
1371.43	268.91
1375.66	191.668
1379.88	342.147
1384.11	242.531
1388.33	283.16
1392.54	220.359
1396.76	55.9863
1400.97	164.162
1405.18	32.7461
1409.39	95.6211
1413.59	73.1016
1417.8	171.35
1421.99	95.2422
1426.19	294.416
1430.38	315.533
1434.58	312.397
1438.77	124.332
1442.95	371.772
1447.13	344.816
1451.32	303.094
1455.49	173.381
1459.67	124.613
1463.84	234.772
1468.01	19.1895
1472.18	220.789
1476.35	162.117
1480.51	133.853
1484.67	240.885
1488.83	277.678
1492.98	137.119
1497.13	261.535
1501.28	250.492
1505.43	50.7988
1509.57	167.5
1513.71	128.949
1517.85	161.055
1521.99	100.506
1526.12	183.426
1530.25	231.791
1534.38	358.744
1538.5	165.848
1542.62	244.385
1546.74	238.76
1550.86	239.143
1554.98	386.883
1559.09	27.4473
1563.2	172.31
1567.31	170.758
1571.41	79.3359
