Measurement: Raman, 514 nm, ccw, Raman Data Processed
Mineral: Diopside
Rruff sample: R040009
Ideal chemistry: CaMgSi_2_O_6_
Locality: Otter Lake, Quebec, Canada
Source: University of Arizona Mineral Museum
Description: Green square prismatic crystal associated with pale orange calcite
Measured chemistry: (Ca_0.97_Fe_0.02_Na_0.01_)_Σ=1_(Mg_0.97_Fe_0.02_Al_0.01_)_Σ=1_Si_2.00_O_6_; trace amounts of Mn and Ti
Pin_id: M00219
Orientation: Laser parallel to [-1 0 -1]. Fiducial mark perpendicular to laser is parallel to b* (0 1 0)
Raman shift (cm-1)	intensity
94.768	0
98.947	33.613
103.124	98.482
107.3	111.758
111.473	130.532
115.644	221.909
119.813	254.064
123.981	294.713
128.146	248.318
132.309	722.847
136.47	1488.56
140.63	1399.98
144.787	595.751
148.942	251.319
153.096	162.449
157.247	238.979
161.396	254.736
165.544	359.579
169.689	131.385
173.833	398.062
177.974	422.51
182.114	534.857
186.251	337.492
190.387	482.041
194.52	212.988
198.652	270.884
202.782	119.264
206.909	136.732
211.035	53.955
215.159	170.918
219.281	244.177
223.4	506.782
227.518	884.64
231.634	952.734
235.748	435.048
239.86	305.563
243.97	165.431
248.079	277.508
252.185	446.752
256.289	310.327
260.391	206.045
264.492	177.675
268.59	30.181
272.687	1.889
276.781	42.422
280.874	66.091
284.964	37.37
289.053	262.928
293.14	367.952
297.225	441.764
301.308	670.812
305.389	742.497
309.468	964.395
313.545	1568.41
317.62	3143.89
321.693	5919.19
325.765	5435.53
329.834	2389.47
333.902	1306.38
337.967	688.535
342.031	479.652
346.093	451.729
350.153	748.938
354.21	1278.19
358.267	1351.48
362.321	1106.81
366.373	1370.17
370.423	1087.55
374.471	981.934
378.518	1109.32
382.563	2189.69
386.605	5288.27
390.646	6580.93
394.685	2930.23
398.722	1130.49
402.757	643.917
406.79	349.656
410.821	287.76
414.851	270.164
418.878	153.688
422.904	76.465
426.927	250.236
430.949	179.918
434.969	140.846
438.987	108.49
443.003	287.342
447.018	70.279
451.03	86.117
455.041	5.332
459.049	16.387
463.056	184.98
467.061	68.314
471.064	104.227
475.065	39.209
479.064	119.688
483.062	15.172
487.057	61.568
491.051	175.127
495.043	113.496
499.032	113.674
503.02	4.762
507.007	245.645
510.991	461.332
514.973	305.807
518.954	317.07
522.933	421.105
526.91	764.922
530.885	522.498
534.858	393.84
538.829	332.932
542.799	31.223
546.766	74.215
550.732	309.355
554.696	289.236
558.658	394.018
562.618	203.332
566.576	33.082
570.533	50.426
574.488	106.832
578.44	114.713
582.391	305.174
586.341	284.908
590.288	200.312
594.233	147.479
598.177	134.861
602.119	222.711
606.059	227.82
609.997	225.484
613.933	188.252
617.868	285.867
621.801	423.416
625.731	8.32
629.66	42.162
633.588	311.371
637.513	257.213
641.437	586.607
645.358	555.199
649.278	784.021
653.196	1146.35
657.113	2064.88
661.027	3993.01
664.94	6339.5
668.851	5179.45
672.76	2646.23
676.667	1511.59
680.572	601.385
684.476	492.545
688.378	533.027
692.278	490.336
696.176	417.102
700.072	422.283
703.967	367.688
707.86	185.6
711.751	380.943
715.64	14.988
719.527	267.861
723.413	151.057
727.297	369.852
731.179	288.574
735.059	76.131
738.937	245.137
742.814	112.992
746.689	21.143
750.562	223.697
754.433	147.582
758.303	70.551
762.17	211.725
766.036	259.271
769.901	62.781
773.763	153.811
777.624	224.578
781.482	147.924
785.339	113.398
789.195	157.852
793.048	15.211
796.9	369.797
800.75	118.182
804.598	269.371
808.445	111.998
812.289	170.342
816.132	111.086
819.973	236.025
823.813	75.178
827.65	23.555
831.486	185.17
835.32	215.715
839.152	201.783
842.983	318.76
846.812	253.668
850.639	464.742
854.464	785.033
858.288	393.682
862.11	52.693
865.93	377.551
869.748	169.285
873.564	296.229
877.379	292.922
881.192	197.816
885.004	207.807
888.813	371.092
892.621	384.051
896.427	133.775
900.232	283.641
904.034	161.576
907.835	398.668
911.634	602.967
915.432	481.838
919.227	372.531
923.021	669.135
926.813	299.973
930.604	659.75
934.393	940.594
938.18	311.553
941.965	511.654
945.749	601.434
949.53	252.799
953.311	43.611
957.089	348.543
960.866	329
964.641	143.826
968.414	135.283
972.185	391.75
975.955	462.689
979.723	605.436
983.49	295.439
987.254	507.828
991.017	866.303
994.779	1463.06
998.538	1401.51
1002.3	2783.14
1006.05	5205.1
1009.81	11449.7
1013.56	14830.6
1017.31	7094.87
1021.06	3337.03
1024.81	1725.45
1028.55	1739.22
1032.3	1084.49
1036.04	1107.35
1039.78	1197.39
1043.52	833.189
1047.26	1044.94
1050.99	1453.32
1054.73	813.637
1058.46	813.758
1062.19	676.727
1065.92	543.301
1069.65	410.516
1073.37	622.652
1077.1	444.438
1080.82	639.297
1084.54	285.582
1088.26	416.637
1091.97	265.203
1095.69	33.383
1099.4	481.93
1103.12	179.332
1106.83	390.996
1110.54	44.762
1114.24	228.223
1117.95	283.906
1121.65	354.328
1125.35	14.559
1129.06	223.695
1132.75	16.57
1136.45	107.898
1140.15	45.18
1143.84	70.094
1147.53	202.297
1151.22	209.445
1154.91	87.449
1158.6	142.414
1162.28	224.02
1165.97	289.773
1169.65	17.535
1173.33	106.523
1177.01	243.141
1180.69	31.707
1184.36	126.52
1188.04	126.395
1191.71	668.477
1195.38	238.812
1199.05	493.312
1202.71	226.883
1206.38	625.195
1210.04	332.902
1213.71	421.789
1217.37	629.844
1221.03	516.504
1224.68	546.562
1228.34	536.883
1231.99	227.695
1235.65	397.27
1239.3	567.891
1242.95	176.562
1246.59	645.211
1250.24	563.289
1253.88	584.281
1257.53	580.977
1261.17	192.773
1264.81	162.516
1268.45	335.641
1272.08	161.008
1275.72	236.109
1279.35	414.039
1282.98	89.961
1286.61	150.297
1290.24	421.699
1293.87	368.91
1297.49	205.613
1301.11	314.695
1304.73	204.449
1308.36	197.188
1311.97	415.492
1315.59	252.145
1319.2	413.148
1322.82	430.418
1326.43	286.98
