Measurement: Raman, 514 nm, ccw, Raman Data Processed
Mineral: Diopside
Rruff sample: R050406
Ideal chemistry: CaMgSi_2_O_6_
Locality: unknown
Source: University of Arizona Mineral Museum
Description: Brownish gray massive
Measured chemistry: (Ca_0.95_Na_0.05_)(Mg_0.75_Fe^2+^_0.18_Fe^3+^_0.05_Al_0.01_Ti_0.01_Mn^2+^_0.01_)(Si_0.98_Al_0.02_)_2_O_6_
Pin_id: M00191
Orientation: Laser parallel to -b* (0 -1 0). Fiducial mark perpendicular to laser is parallel to c [0 0 1]
Raman shift (cm-1)	intensity
116.903	0
121.827	24.144
126.749	339.797
131.668	917.219
136.585	814.052
141.5	592.447
146.412	235.358
151.321	287.102
156.229	18.8061
161.134	132.059
166.036	565.651
170.936	1301.99
175.834	1217.73
180.729	1237.62
185.622	1096.44
190.512	913.036
195.4	891.216
200.286	852.553
205.169	265.527
210.049	189.895
214.928	268.964
219.803	872.016
224.677	1750.24
229.548	1814.9
234.416	1820.63
239.282	1613.45
244.146	1827.34
249.007	1903.31
253.866	1827.33
258.722	1838.74
263.576	812.871
268.427	521.394
273.276	346.596
278.123	647.481
282.967	684.385
287.809	907.785
292.648	1317.88
297.485	2120.97
302.319	3528.84
307.151	6221.36
311.98	10417.5
316.807	14012.5
321.631	13965
326.454	11641.5
331.273	8114.48
336.09	5570.48
340.905	4395.21
345.717	4059.92
350.527	3942.65
355.334	3406.41
360.139	2888.18
364.941	2264.98
369.741	1973.79
374.538	2009.61
379.333	2282.43
384.126	2371.24
388.916	2025.06
393.703	1400.87
398.488	780.657
403.271	263.43
408.051	76.1763
412.828	12.917
417.603	154.443
422.376	14.4839
427.146	18.1621
431.914	68.5913
436.679	26.1582
441.442	53.3877
446.202	27.7549
450.96	102.106
455.715	194.53
460.467	137.446
465.218	73.0459
469.965	55.3677
474.711	9.9585
479.454	112.075
484.194	240.217
488.932	648.447
493.667	2039.75
498.4	4641.03
503.13	4942.3
507.858	4379.48
512.583	2614.54
517.306	1524.54
522.026	1282.54
526.744	1256.51
531.459	1045.34
536.172	1039.97
540.882	936.384
545.59	1068.57
550.295	1321.52
554.998	1302.65
559.698	1053.45
564.396	907.894
569.091	763.099
573.784	699.38
578.474	440.228
583.162	261.475
587.847	241.285
592.529	178.706
597.209	239.957
601.887	114.689
606.562	235.284
611.235	339.837
615.905	621.825
620.572	983.137
625.237	1315.22
629.9	2020.28
634.56	2575.51
639.217	3786.27
643.872	5814.79
648.524	10017.4
653.174	20427.9
657.821	39503
662.466	48018.9
667.108	40442.6
671.748	24865.5
676.385	12138.6
681.02	6292.04
685.652	3835.06
690.281	2521.62
694.908	1611.75
699.533	1158.56
704.155	938.991
708.774	717.605
713.391	512.031
718.005	371.09
722.617	102.817
727.226	62.2373
731.833	57.0386
736.437	2.29053
741.039	18.373
745.638	37.0449
750.234	63.6392
754.828	82.124
759.419	57.5474
764.008	99.4468
768.595	65.207
773.178	67.6113
777.759	33.457
782.338	21.9023
786.914	5.61914
791.488	23.333
796.059	84.0923
800.627	63.0752
805.193	9.45508
809.756	66.9902
814.317	127.353
818.875	257.67
823.431	331.97
827.984	288.275
832.534	247.607
837.082	37.9893
841.627	120.423
846.17	211.924
850.71	408.525
855.248	530.245
859.783	666.945
864.316	809.791
868.846	923.136
873.373	1020.7
877.898	1099.98
882.42	1147.8
886.94	1340.37
891.457	1221.55
895.971	1133.29
900.483	1038.6
904.993	1008.27
909.5	887.624
914.004	738.439
918.505	734.472
923.004	653.324
927.501	698.949
931.995	665.832
936.486	548.998
940.975	511.45
945.461	456.986
949.945	783.595
954.426	995.115
958.904	1231.45
963.38	1375.5
967.853	1484.29
972.324	1883.89
976.792	2150.47
981.258	2804.48
985.72	3718.18
990.181	5412.56
994.639	8750.65
999.094	15802.5
1003.55	31702
1008	53711.4
1012.44	51514.6
1016.89	32170.9
1021.33	15418.3
1025.77	8808.6
1030.21	6224.93
1034.64	5255.4
1039.07	4732.49
1043.5	4268.41
1047.93	3554.18
1052.35	2758.21
1056.78	2317.81
1061.19	1896.29
1065.61	1715.88
1070.02	1374.77
1074.43	1280.95
1078.84	1151.65
1083.25	1100.61
1087.65	1025.48
1092.05	938.966
1096.45	919.619
1100.85	754.102
1105.24	778.648
1109.63	848.696
1114.02	780.25
1118.4	952.206
1122.78	947.25
1127.16	803.361
1131.54	467.627
1135.92	359.981
1140.29	240.401
1144.66	320.865
1149.02	108.878
1153.39	131.893
1157.75	91.3506
1162.11	100.18
1166.46	39.2114
1170.82	48.6543
1175.17	69.0327
1179.52	117.908
1183.86	161.56
1188.21	45.1665
1192.55	3.48877
1196.89	39.2974
1201.22	22.2402
1205.55	48.0415
1209.88	25.0815
1214.21	79.2529
1218.54	3.94824
1222.86	107.224
1227.18	82.022
1231.5	18.2607
1235.81	157.966
1240.12	56.3003
1244.43	199.214
1248.74	178.768
1253.04	41.0151
1257.34	202.842
1261.64	193.286
1265.94	188.347
1270.23	363.021
1274.52	151.308
1278.81	220.219
1283.1	258.742
1287.38	305.868
1291.66	255.078
1295.94	245.264
1300.21	218.375
1304.48	140.046
1308.75	312.392
1313.02	352.28
1317.29	341.772
1321.55	296.997
1325.81	164.551
1330.06	286.011
1334.32	315.704
1338.57	368.646
1342.82	226.951
1347.06	271.28
1351.31	339.303
1355.55	272.589
1359.79	254.1
1364.02	166.488
1368.26	174.743
1372.49	205.715
1376.71	137.948
1380.94	192.345
1385.16	197.255
1389.38	162.237
1393.6	172.025
1397.81	149.871
1402.02	126.374
1406.23	198.406
1410.44	83.083
1414.64	30.4414
1418.85	98.3633
1423.04	64.5923
1427.24	95.6509
1431.43	276.521
1435.62	138.655
1439.81	156.299
1444	132.992
1448.18	130.506
1452.36	162.573
1456.54	208.593
1460.71	166.172
1464.89	168.143
1469.06	81.4502
1473.22	110.914
1477.39	80.3667
1481.55	149.841
1485.71	40.5801
1489.86	54.8921
1494.02	11.9307
1498.17	121.709
1502.32	91.085
1506.46	33.3286
1510.61	87.3174
1514.75	72.71
1518.88	119.53
1523.02	44.9595
1527.15	31.1387
1531.28	5.52637
1535.41	100.313
1539.53	140.648
1543.66	83.9927
1547.78	121.301
1551.89	281.552
1556.01	198.285
1560.12	21.5386
1564.23	9.7915
1568.33	227.292
1572.43	0
