Measurement: Raman, 514 nm, ccw, Raman Data Processed
Mineral: Diopside
Rruff sample: R060171
Ideal chemistry: CaMgSi_2_O_6_
Locality: Jeffrey mine, Asbestos, Quebec, Canada
Source: Guy Ouellet
Description: Yellowish-brown tabular crystals associated with vesuvianite, R060170
Measured chemistry: Ca_1.00_(Mg_0.98_Mn_0.02_)_Î£=1_Si_2.00_O_6_
Pin_id: L01396
Orientation: Laser parallel to -a* (-1 0 0). Fiducial mark perpendicular to laser is parallel to b [0 1 0]
Raman shift (cm-1)	intensity
129.209	0
134.127	222.924
139.043	396.514
143.956	303.953
148.867	81.3418
153.775	351.559
158.681	227.457
163.585	352.975
168.486	371.685
173.385	359.447
178.282	603.361
183.176	949.854
188.067	242.289
192.956	461.242
197.843	200.523
202.727	290.115
207.609	410.438
212.489	246.482
217.366	416.838
222.24	293.367
227.112	533.354
231.982	657.709
236.849	578.449
241.714	459.01
246.577	565.908
251.437	557.818
256.294	576.691
261.149	212.473
266.002	125.123
270.852	206.607
275.7	358.492
280.545	187.113
285.388	195.504
290.229	184.111
295.067	186.676
299.902	510.688
304.735	728.586
309.566	1207.43
314.394	2520.41
319.22	5122.84
324.043	6887.01
328.864	2775.81
333.682	1151.6
338.498	422.885
343.311	253.815
348.122	386.379
352.931	411.244
357.737	678.271
362.54	625.469
367.341	611.188
372.14	668.129
376.936	1151.83
381.73	2951.98
386.521	6212.56
391.31	5984.54
396.096	1758.9
400.88	786.625
405.661	422.701
410.44	116.111
415.216	238.744
419.99	218.799
424.761	71.2031
429.53	139.941
434.297	136.449
439.061	31.666
443.822	13.5195
448.581	111.039
453.337	178.328
458.091	80.1055
462.843	266.562
467.592	25.0742
472.338	157.006
477.082	89.7812
481.824	149.385
486.563	40.9023
491.3	234.256
496.034	97.5352
500.765	130.875
505.494	184.361
510.221	51.2441
514.945	173.275
519.666	350.428
524.385	687.223
529.102	945.176
533.816	552.908
538.527	108.424
543.236	151.178
547.943	245.41
552.647	205.793
557.348	97.8516
562.047	151.602
566.744	138.262
571.438	247.279
576.129	193.777
580.818	154.51
585.504	20.6543
590.188	36.3262
594.87	19.2617
599.549	94.4043
604.225	279.652
608.899	222.789
613.57	139.088
618.239	348.193
622.905	330.752
627.569	283.055
632.23	337.143
636.889	181.6
641.545	391.881
646.198	573.742
650.849	674.262
655.498	1488.36
660.144	2901.16
664.787	4232.47
669.428	2935.72
674.067	1317.6
678.703	627.867
683.336	402.865
687.967	236.494
692.595	212.357
697.221	169.893
701.844	279.24
706.465	315.603
711.083	226.728
715.698	292.707
720.311	242.418
724.922	410.959
729.53	163.092
734.135	46.2441
738.738	206.088
743.338	218.107
747.936	153.154
752.531	31.957
757.124	337.002
761.714	316.844
766.302	111.566
770.887	412.719
775.469	126.045
780.049	110.098
784.626	41.1621
789.201	180.283
793.773	328.176
798.343	11.4316
802.91	28.7402
807.475	145.758
812.037	156.809
816.596	70.168
821.153	172.777
825.707	379.691
830.259	98.8281
834.808	143.139
839.355	272.982
843.899	253.287
848.441	404.758
852.98	199.166
857.516	431.603
862.05	501.519
866.581	186.252
871.11	338.025
875.636	242.723
880.159	301.932
884.68	200.062
889.199	257.285
893.714	74.582
898.228	275.281
902.738	217.809
907.246	104.41
911.752	90.4648
916.255	372.781
920.755	50.5547
925.253	79.7148
929.748	104.348
934.241	67.0352
938.731	3.28516
943.218	17.6211
947.703	6.62109
952.186	102.602
956.665	292.894
961.142	400.949
965.617	12.6133
970.089	151.512
974.558	81.832
979.025	462.219
983.489	377.035
987.951	547.34
992.41	619.324
996.866	735.004
1001.32	2019.15
1005.77	5271.91
1010.22	13684.5
1014.67	12433.9
1019.11	3913.61
1023.55	1549.47
1027.99	892.641
1032.42	548.516
1036.86	867.359
1041.29	404.496
1045.72	513.68
1050.14	523.969
1054.56	374.426
1058.98	326.562
1063.4	132.262
1067.82	103.449
1072.23	441.641
1076.64	177.301
1081.05	260.801
1085.45	165.133
1089.85	330.504
1094.25	18.9141
1098.65	142.312
1103.04	70.457
1107.43	15.0781
1111.82	84.4219
1116.21	233.699
1120.59	59.0664
1124.97	49.6016
1129.35	199.555
1133.73	203.406
1138.1	97.0078
1142.47	158.453
1146.84	248.07
1151.21	39.9258
1155.57	314.992
1159.93	84.6602
1164.29	0.324219
1168.64	187.961
1172.99	329.129
1177.34	55.9727
1181.69	370.543
1186.04	33.2227
1190.38	148.523
1194.72	136.473
1199.05	353.91
1203.39	214.879
1207.72	166.453
1212.05	334.273
1216.37	149.852
1220.7	415.637
1225.02	144.156
1229.34	282.453
1233.65	371.25
1237.97	140.551
1242.28	181.922
1246.59	208.668
1250.89	144.707
1255.19	244.504
1259.49	437.297
1263.79	364.141
1268.09	318.938
1272.38	212.945
1276.67	330.629
1280.95	588.414
1285.24	442.996
1289.52	255.289
1293.8	296.102
1298.08	547.398
1302.35	477.297
1306.62	435.711
1310.89	211.434
1315.15	835.481
1319.42	539.539
1323.68	690.629
1327.94	708.715
1332.19	546.176
1336.44	616.019
1340.69	342.715
1344.94	657.43
1349.19	626.254
1353.43	672.609
1357.67	716.82
1361.9	359.648
1366.14	499.66
1370.37	627.512
1374.6	626.66
1378.83	783.238
1383.05	318.242
1387.27	360.746
1391.49	297.445
1395.7	272.324
1399.92	349.555
1404.13	275.16
1408.34	275.137
1412.54	54.5352
1416.74	273.356
1420.94	54.2148
1425.14	363.828
1429.34	505.441
1433.53	379.434
1437.72	511.961
1441.9	15.0391
1446.09	547.211
1450.27	79.5312
1454.45	156.273
1458.63	84.5039
1462.8	285.301
1466.97	45.7695
1471.14	258.984
1475.31	545.801
1479.47	429.234
1483.63	67.2695
1487.79	476.113
1491.94	172.215
1496.09	157.191
1500.24	300.258
1504.39	341.215
1508.54	227.262
1512.68	419.32
1516.82	230.441
1520.95	231.481
1525.09	391.516
1529.22	342.375
1533.35	324.023
1537.47	560.523
1541.6	241.898
1545.72	382.481
1549.83	9.75781
1553.95	58.457
1558.06	356.742
1562.17	345.949
1566.28	6.79297
1570.38	13.6133
