Measurement: Raman, 514 nm, ccw, Raman Data Processed
Mineral: Diopside
Rruff sample: R060276
Ideal chemistry: CaMgSi_2_O_6_
Locality: Inagli, Yakutia, Siberia, Russia
Source: Herb Obodda
Description: Transparent green cleavage fragment
Measured chemistry: (Ca_0.97_Na_0.03_)_Σ=1_(Mg_0.96_Fe_0.03_Cr_0.01_)_Σ=1_(Si_1.98_Al_0.02_)_Σ=2_O_6_
Pin_id: L01812
Orientation: Laser parallel to -c* (0 0 -1). Fiducial mark perpendicular to laser is parallel to -a [-1 0 0]
Raman shift (cm-1)	intensity
109.512	0
114.44	84.7883
119.365	115.924
124.288	507.481
129.209	1739.94
134.127	3558.07
139.043	5196.25
143.956	5626.99
148.867	1562.6
153.775	531.193
158.681	289.082
163.585	177.191
168.486	144.773
173.385	32.6597
178.282	41.8538
183.176	12.5874
188.067	55.7012
192.956	68.5227
197.843	55.2073
202.727	69.0523
207.609	67.6611
212.489	58.2886
217.366	59.3716
222.24	233.554
227.112	256.062
231.982	264.887
236.849	78.6829
241.714	77.8489
246.577	175.401
251.437	368.344
256.294	460.231
261.149	160.905
266.002	22.5254
270.852	19.3728
275.7	20.1321
280.545	46.9019
285.388	125.269
290.229	268.262
295.067	414.19
299.902	752.429
304.735	1550.36
309.566	2479.97
314.394	4391.87
319.22	6223.42
324.043	7948.45
328.864	6286.32
333.682	2989.92
338.498	1797.12
343.311	1769.29
348.122	2606.13
352.931	4456.86
357.737	6367.04
362.54	6837.34
367.341	4957.92
372.14	3544.8
376.936	4194.96
381.73	7747.43
386.521	13183.2
391.31	16326.2
396.096	10260.6
400.88	3536.25
405.661	1424.2
410.44	681.236
415.216	418.8
419.99	301.251
424.761	187.693
429.53	65.5811
434.297	74.2139
439.061	2.13574
443.822	22.6802
448.581	31.7056
453.337	103.258
458.091	236.148
462.843	179.6
467.592	266.567
472.338	223.1
477.082	122.141
481.824	124.634
486.563	79.4365
491.3	43.4727
496.034	20.147
500.765	98.5503
505.494	205.508
510.221	252.745
514.945	163.415
519.666	168.458
524.385	265.821
529.102	420.564
533.816	640.604
538.527	604.953
543.236	542.673
547.943	573.59
552.647	592.668
557.348	779.891
562.047	795.331
566.744	508.987
571.438	414.795
576.129	290.155
580.818	189.648
585.504	164.959
590.188	87.5742
594.87	4.28174
599.549	53.2685
604.225	20.4678
608.899	87.8149
613.57	190.167
618.239	442.322
622.905	618.711
627.569	879.303
632.23	1284.46
636.889	1742.58
641.545	2515.44
646.198	4213.1
650.849	7549.99
655.498	16331.8
660.144	34754.5
664.787	53262
669.428	49840.4
674.067	23593
678.703	10111.1
683.336	5115.68
687.967	2940.24
692.595	1886.12
697.221	1407.7
701.844	1036.98
706.465	788.949
711.083	537.607
715.698	401.947
720.311	179.254
724.922	134.595
729.53	168.122
734.135	77.2827
738.738	7.61084
743.338	28.0532
747.936	16.8765
752.531	46.5312
757.124	61.1509
761.714	24.1977
766.302	151.79
770.887	129.025
775.469	79.9771
780.049	57.6245
784.626	34.9453
789.201	5.22461
793.773	5.11279
798.343	27.5283
802.91	52.4668
807.475	29.1152
812.037	93.126
816.596	9.76709
821.153	20.0869
825.707	168.652
830.259	186.01
834.808	299.276
839.355	629.216
843.899	1617.09
848.441	4301.82
852.98	7622.42
857.516	7816.9
862.05	4339.28
866.581	2220.55
871.11	1502.1
875.636	1022.07
880.159	841.318
884.68	643.819
889.199	507.464
893.714	542.539
898.228	566.455
902.738	460.642
907.246	434.401
911.752	313.604
916.255	353.752
920.755	328.188
925.253	200.266
929.748	195.1
934.241	162.869
938.731	183.768
943.218	163.956
947.703	178.766
952.186	254.402
956.665	329.836
961.142	468.76
965.617	418.344
970.089	670.21
974.558	797.358
979.025	987.793
983.489	1355.5
987.951	1897.51
992.41	2724.79
996.866	4946.35
1001.32	10009.2
1005.77	23731.3
1010.22	47196.8
1014.67	51364.8
1019.11	23235.3
1023.55	9552.24
1027.99	5622.7
1032.42	5067.36
1036.86	5694.38
1041.29	8568.79
1045.72	11900.6
1050.14	10208.7
1054.56	5409.98
1058.98	2791.5
1063.4	1806.49
1067.82	1212.79
1072.23	930.725
1076.64	747.1
1081.05	697.119
1085.45	663.708
1089.85	671.708
1094.25	519.237
1098.65	522.092
1103.04	546.62
1107.43	352.113
1111.82	533.925
1116.21	569.315
1120.59	694.77
1124.97	673.119
1129.35	648.867
1133.73	412.539
1138.1	481.246
1142.47	314.927
1146.84	335.086
1151.21	224.324
1155.57	210.26
1159.93	74.4624
1164.29	3.89502
1168.64	24.8496
1172.99	47.4956
1177.34	20.7949
1181.69	84.5747
1186.04	56.6392
1190.38	35.4678
1194.72	100.552
1199.05	1.61816
1203.39	15.5469
1207.72	6.69482
1212.05	103.269
1216.37	15.2588
1220.7	28.2847
1225.02	170.916
1229.34	24.04
1233.65	68.501
1237.97	86.3677
1242.28	183.424
1246.59	29.8887
1250.89	149.178
1255.19	209.503
1259.49	103.328
1263.79	222.499
1268.09	181.757
1272.38	200.419
1276.67	214.198
1280.95	275.392
1285.24	214.434
1289.52	120.057
1293.8	203.64
1298.08	205.051
1302.35	241.812
1306.62	243.926
1310.89	320.475
1315.15	136.733
1319.42	213.155
1323.68	367.119
1327.94	284.728
1332.19	268
1336.44	247.62
1340.69	304.141
1344.94	260.339
1349.19	167.54
1353.43	208.584
1357.67	185.966
1361.9	208.258
1366.14	176.365
1370.37	146.99
1374.6	182.985
1378.83	27.4346
1383.05	71.8897
1387.27	195.452
1391.49	106.133
1395.7	163.639
1399.92	178.092
1404.13	47.8047
1408.34	38.4512
1412.54	41.6719
1416.74	107.274
1420.94	53.7315
1425.14	122.926
1429.34	204.252
1433.53	147.634
1437.72	58.6416
1441.9	60.7676
1446.09	98.4014
1450.27	154.904
1454.45	114.306
1458.63	115.769
1462.8	87.3477
1466.97	185.49
1471.14	86.3799
1475.31	146.44
1479.47	147.53
1483.63	4.30469
1487.79	107.554
1491.94	211.216
1496.09	116.758
1500.24	13.4453
1504.39	195.943
1508.54	167.551
1512.68	157.179
1516.82	216.011
1520.95	100.172
1525.09	230.046
1529.22	284.135
1533.35	98.8779
1537.47	137.211
1541.6	123.717
1545.72	76.8731
1549.83	96.7637
1553.95	144.619
1558.06	129.924
1562.17	131.594
1566.28	109.056
1570.38	130.167
