Measurement: Raman, 514 nm, ccw, Raman Data Processed
Mineral: Diopside
Rruff sample: R040097
Ideal chemistry: CaMgSi_2_O_6_
Locality: Fassathal, Tyrol
Source: University of Arizona Mineral Museum
Description: Green prismatic crystals
Measured chemistry: Ca_1.00_(Mg_0.83_Al_0.10_Fe_0.09_Ca_0.02_Ti_0.02_)(Si_0.88_Al_0.12_)_2_O_6_
Pin_id: L00421
Orientation: Laser parallel to [1 0 1]. Fiducial mark perpendicular to laser is parallel to -b* (0 -1 0)
Raman shift (cm-1)	intensity
120.371	0
124.522	113.163
128.671	654.541
132.818	1455.06
136.963	3533.01
141.107	6734.98
145.248	7910.63
149.388	4483.99
153.526	1965.04
157.662	683.59
161.796	260.467
165.929	85.574
170.059	37.656
174.188	120.783
178.315	514.443
182.44	337.396
186.563	689.86
190.684	211.973
194.803	186.098
198.921	296.788
203.037	61.827
207.15	76.646
211.262	2.296
215.373	38.79
219.481	126.029
223.588	503.934
227.692	1022.38
231.795	1341.13
235.896	1010.34
239.995	540.013
244.093	320.083
248.188	314.636
252.282	480.759
256.374	661.408
260.464	462.341
264.552	163.558
268.638	75.055
272.723	133.164
276.806	231.092
280.887	239
284.966	203.433
289.043	204.679
293.118	278.956
297.192	544.196
301.264	1090.01
305.334	1376.23
309.402	1502.52
313.469	2248.52
317.533	3574.64
321.596	5280.92
325.657	6527.3
329.716	6543.55
333.774	4995.61
337.829	3409.16
341.883	2375.3
345.935	2300.97
349.985	2487.31
354.034	2793.75
358.08	3100.29
362.125	3246.39
366.168	3501.65
370.209	3166.46
374.249	2707.99
378.286	2849.35
382.322	3794.89
386.356	4870.57
390.388	7046.4
394.419	8382.36
398.447	6288.45
402.474	3514.67
406.499	1321.1
410.523	657.715
414.544	564.551
418.564	561.645
422.582	249.027
426.598	196.711
430.613	313.963
434.625	383.518
438.636	332.537
442.646	130.242
446.653	317.471
450.658	336.945
454.662	187.988
458.664	232.672
462.665	483.83
466.663	610.859
470.66	330.715
474.655	269.557
478.648	98.49
482.64	287.479
486.629	626.572
490.617	395.602
494.603	264.602
498.588	513.598
502.571	792.512
506.552	1011.35
510.531	1390.1
514.508	1328.74
518.484	1517.27
522.458	1205.69
526.43	1034.01
530.4	1092.23
534.369	1480.38
538.336	1618.48
542.301	1026.46
546.265	980.848
550.226	832.035
554.186	939.607
558.145	877.709
562.101	886.504
566.056	755.764
570.009	629.99
573.96	805.236
577.91	463.002
581.858	185.625
585.804	326.166
589.748	173.184
593.691	143.365
597.632	103.107
601.571	279.539
605.508	17.697
609.444	96.59
613.378	310.613
617.311	134.85
621.241	71.43
625.17	142.453
629.097	706.303
633.023	668.355
636.946	721.102
640.868	1111.62
644.789	1572.14
648.707	2692.19
652.624	3722.94
656.539	5472.35
660.453	9151.42
664.364	15719.7
668.274	19907.7
672.183	14845.2
676.089	8712.45
679.994	5159.32
683.898	3255.82
687.799	2391.97
691.699	1617.76
695.597	893.195
699.493	748.264
703.388	702.973
707.281	857.326
711.172	751.32
715.062	114.953
718.95	81.809
722.836	230.785
726.721	332.908
730.604	55.57
734.485	164.742
738.364	165.172
742.242	64.795
746.118	53.178
749.993	440.432
753.866	75.102
757.737	158.883
761.606	44.988
765.474	271.779
769.34	316.109
773.204	213.463
777.067	19.826
780.928	15.695
784.787	278.32
788.645	542.221
792.501	416.297
796.355	389.127
800.208	231.539
804.059	63.773
807.908	305.855
811.756	507.717
815.602	299.355
819.446	410.799
823.289	382.096
827.13	783.217
830.969	624.16
834.807	664.961
838.643	435.688
842.477	598.031
846.31	586.861
850.141	1157.25
853.971	1937.53
857.798	2717.83
861.624	2328.09
865.449	1868.26
869.272	1296.63
873.093	1336.48
876.912	903.443
880.73	1017.03
884.546	600.803
888.361	102.932
892.174	210.793
895.985	526.129
899.795	465.236
903.603	262.861
907.409	174.385
911.214	194.75
915.017	400.791
918.818	592.316
922.618	733.354
926.416	853.303
930.213	272.445
934.008	572.648
937.801	234.893
941.593	286.006
945.383	1296.11
949.171	1038.18
952.958	460.471
956.743	472.354
960.526	704.84
964.308	987.104
968.089	1449.79
971.867	1466.37
975.644	1580.13
979.42	1323.64
983.193	1207.17
986.966	1397.64
990.736	1947.09
994.505	2324.26
998.272	3329.7
1002.04	4965.96
1005.8	7649.96
1009.57	11432.3
1013.33	13598.2
1017.09	9005.24
1020.84	5106.78
1024.6	2706.42
1028.35	2555.39
1032.11	1436.88
1035.86	1844.18
1039.61	1937.96
1043.36	2223.94
1047.1	2548.15
1050.85	1575.98
1054.59	905.182
1058.33	603.811
1062.07	714.428
1065.81	1005.22
1069.55	1231.58
1073.28	1158.27
1077.02	943.275
1080.75	288.947
1084.48	34.721
1088.21	370.25
1091.93	724.664
1095.66	781.082
1099.38	647.27
1103.11	772.785
1106.83	627.465
1110.55	232.602
1114.26	249.332
1117.98	74.105
1121.69	329.102
1125.41	784.574
1129.12	617.602
1132.83	401.645
1136.54	228.066
1140.24	52.637
1143.95	190.977
1147.65	294.57
1151.36	1130.7
1155.06	1327.61
1158.76	968.129
1162.45	228.43
1166.15	48.457
1169.84	187.664
1173.53	22.949
1177.22	322.859
1180.91	448.477
1184.6	1013.38
1188.29	939.055
1191.97	733.258
1195.66	75.062
1199.34	106.289
1203.02	146.777
1206.7	97.168
1210.37	875.637
1214.05	882.855
1217.72	1170.73
1221.4	816.859
1225.07	394.129
1228.74	419.809
1232.4	875.836
1236.07	1212.18
1239.73	931.117
1243.4	1407.88
1247.06	1528.31
1250.72	1158.52
1254.38	967.523
1258.03	175.305
1261.69	564.977
1265.34	481.164
1268.99	733.238
1272.65	1228.51
1276.3	1462.13
1279.94	1304.29
1283.59	658.914
1287.23	690.238
1290.88	329.121
1294.52	443.605
1298.16	452.461
1301.8	939.172
1305.43	704.281
1309.07	1366.43
1312.7	1542.01
1316.33	1128.81
1319.96	545.801
1323.59	751.594
1327.22	433.445
1330.85	188.469
1334.47	405.637
1338.1	839.441
1341.72	1372.45
1345.34	1232.83
1348.96	1660.86
1352.57	1308.07
1356.19	880.5
1359.8	286.848
1363.41	445.406
1367.03	132.34
1370.63	669.734
1374.24	965.578
1377.85	904.441
1381.45	975.32
1385.06	510.742
1388.66	1577.85
1392.26	1276.49
1395.86	671.262
1399.46	586.41
1403.05	228
1406.65	731.805
1410.24	747.074
1413.83	1151.32
1417.42	1639.16
1421.01	2030.64
1424.6	1341.58
1428.18	1314.05
1431.77	913.477
1435.35	576.875
1438.93	514.715
1442.51	617.82
1446.09	52.137
1449.66	916.977
1453.24	1418.82
1456.81	1554.26
1460.38	1893.69
1463.95	1860.44
1467.52	1862.82
1471.09	1608.91
1474.65	1125.52
1478.22	566.277
1481.78	758.086
1485.34	636.695
1488.9	795.785
1492.46	895.102
1496.02	1393.37
1499.58	2130.45
1503.13	2260.86
1506.68	2205.03
1510.23	2091.19
1513.78	2005.84
1517.33	1012.07
1520.88	987.117
1524.42	1.543
