Measurement: Raman, 514 nm, ccw, Raman Data Processed
Mineral: Diopside
Rruff sample: R060861
Ideal chemistry: CaMgSi_2_O_6_
Locality: Red Mountain Volcano, NW of Flagstaff, Arizona, USA
Source: Jennifer Sano
Description: Worn brown fragment
Measured chemistry: (Ca_0.72_Fe^2+^_0.23_Na_0.05_)_Σ=1_(Mg_0.80_Al_0.15_Ti_0.03_Fe^3+^_0.02_)_Σ=1_(Si_1.82_Al_0.18_)_Σ=2_O_6_
Pin_id: M01653
Orientation: Laser parallel to -c* (0 0 -1). Fiducial mark perpendicular to laser is parallel to a [1 0 0]
Raman shift (cm-1)	intensity
174.7	0
179.631	82.6387
184.56	426.428
189.484	875.129
194.406	1094.69
199.325	736.782
204.24	494.096
209.153	50.1787
214.062	24.7969
218.968	308.446
223.87	414.121
228.77	423.415
233.666	309.877
238.56	388.156
243.45	420.977
248.337	530.458
253.221	743.37
258.102	831.286
262.979	637.39
267.854	349.43
272.726	7.82812
277.594	257.857
282.459	560.496
287.321	865.696
292.18	1559.39
297.036	2349.51
301.889	3375.97
306.739	4240.3
311.586	5949.24
316.43	7732.76
321.271	10219.4
326.108	12327.4
330.943	13828.2
335.774	13922
340.603	13564.5
345.428	12695.7
350.251	12032.5
355.07	12158.4
359.887	11785.8
364.7	11123.3
369.511	10176.7
374.318	9508.92
379.123	9322.89
383.924	9733.48
388.723	11143.6
393.518	11959.2
398.311	11063.2
403.1	7880.5
407.887	4718.11
412.671	2582.97
417.451	1214.04
422.229	611.25
427.004	413.549
431.776	225.876
436.545	58.1719
441.311	8.37988
446.074	60.5693
450.834	28.251
455.591	266.014
460.346	645.894
465.097	1336.08
469.846	1147.06
474.591	1119.73
479.334	1094.74
484.074	1298.98
488.811	1389.63
493.545	1371.61
498.276	1368.93
503.005	1610.54
507.73	1854.21
512.453	2160.07
517.173	2810.84
521.89	3300.53
526.604	3908.08
531.315	4559.43
536.024	4886.52
540.729	4771.3
545.432	4776.72
550.132	4244.72
554.83	3996.25
559.524	3760.27
564.216	3304.72
568.904	2648.55
573.59	2223.73
578.274	1809.21
582.954	1278.78
587.632	703.323
592.307	195.607
596.979	91.8486
601.648	301.137
606.315	164.142
610.979	262.076
615.64	538.318
620.298	1002.33
624.954	1629.21
629.607	2362.45
634.257	3774.18
638.904	5449.24
643.549	7477.67
648.191	11633.5
652.83	18142.6
657.467	28178.1
662.101	41420
666.732	49578.3
671.36	42913.9
675.986	29305.9
680.609	18349.3
685.23	11700.2
689.847	7821.51
694.462	5274.28
699.075	3962.53
703.685	3023.31
708.292	2422.63
712.896	1875.52
717.498	1204.35
722.097	733.166
726.694	326.007
731.287	131.361
735.879	293.246
740.467	380.594
745.053	506.752
749.637	432.972
754.217	155.739
758.795	314.141
763.371	34.9482
767.944	444.176
772.514	491.212
777.082	755.855
781.647	764.293
786.21	813.618
790.77	866.92
795.327	878.287
799.882	795.807
804.434	974.566
808.984	1101.65
813.531	1109.14
818.076	1319.11
822.618	1123.64
827.158	1027.81
831.695	800.703
836.229	743.386
840.761	559.932
845.291	625.42
849.817	818.92
854.342	1397.5
858.864	2343.24
863.383	3126.84
867.9	3519.21
872.414	3501.91
876.926	3411.57
881.436	2771.2
885.942	2587.38
890.447	2314.91
894.949	2084.44
899.448	2268.59
903.945	2226.92
908.44	2176.61
912.932	2169.6
917.421	2245.78
921.909	2434.89
926.393	2640.28
930.876	2683.49
935.355	2775.31
939.833	2906.98
944.308	3228.38
948.78	3525.51
953.25	3992.27
957.718	4335.67
962.183	4975.64
966.646	5597.13
971.107	6575.14
975.565	7700.65
980.02	9232.63
984.474	11375.1
988.925	14240.9
993.373	18793.2
997.819	24541.8
1002.26	30189.1
1006.7	33572.7
1011.14	30969.5
1015.58	24112.6
1020.01	16922.4
1024.45	12104.9
1028.88	8960.2
1033.3	7409.27
1037.73	6302.33
1042.15	5482.66
1046.57	4598.01
1050.99	3688.1
1055.4	3210.08
1059.82	2807.36
1064.23	2260.05
1068.64	2102.17
1073.04	1936.27
1077.45	1924.87
1081.85	1915.41
1086.25	1837.7
1090.64	1835.85
1095.04	1788.06
1099.43	1770.66
1103.82	1882.74
1108.21	1834.85
1112.6	1672.49
1116.98	1898.75
1121.36	2195.7
1125.74	1670.24
1130.12	920.497
1134.49	535.102
1138.86	375.367
1143.23	83.4727
1147.6	57.4023
1151.96	264.538
1156.33	266.709
1160.69	185.406
1165.05	188.124
1169.4	196.375
1173.76	89.9927
1178.11	44.729
1182.46	26.4839
1186.81	58.3384
1191.15	5.91992
1195.49	24.5483
1199.84	130.409
1204.17	250.506
1208.51	173.785
1212.84	259.962
1217.18	266.099
1221.51	417.361
1225.83	370.672
1230.16	564.1
1234.48	504.647
1238.8	520.292
1243.12	464.041
1247.44	598.857
1251.76	540.75
1256.07	620.754
1260.38	548.886
1264.69	770.057
1268.99	719.356
1273.3	765.104
1277.6	780.414
1281.9	753.812
1286.2	784.844
1290.49	745.704
1294.79	736.082
1299.08	607.451
1303.37	655.558
1307.65	564.355
1311.94	509.583
1316.22	610.977
1320.5	559.324
1324.78	510.844
1329.06	542.329
1333.33	531.605
1337.6	474.867
1341.87	519.247
1346.14	514.554
1350.41	447.951
1354.67	448.062
1358.93	403.466
1363.19	346.815
1367.45	376.428
1371.71	331.957
1375.96	264.023
1380.21	361.9
1384.46	275.769
1388.71	303.19
1392.96	287.93
1397.2	154.615
1401.44	254.143
1405.68	265.609
1409.92	225.982
1414.16	200.235
1418.39	162.49
1422.62	207.409
1426.85	193.999
1431.08	171.052
1435.3	233.222
1439.53	283.919
1443.75	316.048
1447.97	331.939
1452.19	205.656
1456.4	217.653
1460.62	61.7393
1464.83	151.773
1469.04	100.84
1473.24	205.103
1477.45	45.5215
1481.65	94.3862
1485.86	16.7749
1490.06	92.1987
1494.26	3.80371
1498.45	46.5615
1502.64	77.1753
1506.84	12.3071
1511.03	6.00049
1515.22	107.028
1519.4	21.8101
1523.59	0.665039
1527.77	76.1255
1531.95	98.9829
1536.13	140.954
1540.31	87.4731
1544.48	48.8252
1548.65	109.836
1552.82	172.264
1556.99	33.4951
1561.16	88.0386
1565.33	0
