Measurement: Raman, 514 nm, ccw, Raman Data Processed
Mineral: Dioptase
Rruff sample: R040028
Ideal chemistry: CuSiO_3_H_2_O
Locality: Tantara mine, Democratic Republic of the Congo
Source: University of Arizona Mineral Museum
Description: Bluish green coarsely crystallized fragment
Measured chemistry: Cu_1.00_Si_1.00_O_3_Â·H_2_O; H_2_O estimated by difference
Pin_id: M00034
Orientation: Laser parallel to -c* (0 0 -1). Fiducial mark perpendicular to laser is parallel to -a [-1 0 0]
Raman shift (cm-1)	intensity
80.114	0
84.31	50.582
88.503	405.458
92.695	1519.75
96.884	5120.72
101.072	7163.29
105.258	1497.52
109.441	1978.2
113.623	3829.43
117.802	5538.27
121.98	3956.27
126.155	5495.53
130.329	18965.9
134.5	28704.5
138.669	23027.4
142.837	3989.62
147.002	38.185
151.166	508.897
155.327	946.104
159.486	7614.27
163.644	7980.44
167.799	2023.68
171.952	1193.49
176.104	4875.71
180.253	8697.11
184.4	4557.28
188.546	2245.98
192.689	1516.5
196.83	3184.37
200.97	2208.36
205.107	2484.47
209.243	3340.9
213.376	5678.24
217.507	11686.4
221.637	25160.1
225.764	34033
229.89	22814.9
234.013	10816
238.135	4566.01
242.254	2495.16
246.372	1048.01
250.487	137.524
254.601	139.397
258.712	1600.39
262.822	9669.99
266.93	19057.2
271.036	8292
275.139	4144.93
279.241	4016.28
283.341	5089.96
287.439	6872.07
291.535	10333.7
295.629	8804.75
299.72	3025.21
303.811	466.854
307.899	368.048
311.985	403.081
316.069	473.413
320.151	66.719
324.231	1875.77
328.31	2412.27
332.386	819.797
336.46	50.604
340.533	128.652
344.603	786.151
348.672	2183.42
352.738	8291.37
356.803	27918.3
360.866	19702.2
364.927	6990.62
368.986	3387.38
373.043	2493.35
377.098	2317.93
381.151	2851.72
385.202	3614.98
389.251	6197.77
393.298	13160
397.344	26691.7
401.387	27882.9
405.429	14413.7
409.468	7291.91
413.506	5046.97
417.542	4949.06
421.575	5597.25
425.607	6313.74
429.637	6691.25
433.666	6610.96
437.692	6608.91
441.716	6254.66
445.738	5480.37
449.759	4813.93
453.777	4861.66
457.794	4296.69
461.809	2960.93
465.822	2047.06
469.832	1408.11
473.842	1023.12
477.849	1030.16
481.854	843.312
485.857	923.637
489.859	1047.16
493.858	894.237
497.856	726.233
501.852	741.887
505.846	723.796
509.838	1172.98
513.828	1663.01
517.816	1843.62
521.802	1697.81
525.787	1609.61
529.769	1502.1
533.75	1315.25
537.729	906.049
541.706	698.552
545.681	645.726
549.654	859.625
553.625	1313.22
557.595	2200.56
561.562	3697.65
565.528	4004.49
569.492	3021.07
573.454	2487.56
577.414	1618.22
581.372	915.86
585.328	492.223
589.283	123.282
593.235	52.041
597.186	193.935
601.135	55.829
605.082	117.794
609.027	138.811
612.971	117.768
616.912	124.614
620.852	123.785
624.79	330.879
628.726	454.36
632.66	416.688
636.592	893.539
640.522	1435.87
644.451	2319.84
648.378	3733.73
652.303	6777.53
656.226	15719.7
660.147	23747.3
664.066	19596.3
667.984	10000.7
671.899	5332.44
675.813	3430.3
679.725	2380.71
683.635	1547.71
687.544	1228.86
691.45	881.579
695.355	749.132
699.258	776.919
703.159	594.155
707.058	516.822
710.956	659.857
714.851	871.772
718.745	1046.5
722.637	1441.33
726.527	1946.71
730.415	3088.42
734.302	5272.31
738.187	9035.83
742.07	11369
745.951	9348.74
749.83	5773.8
753.707	3473.8
757.583	2402.67
761.457	1618.19
765.329	1077.68
769.199	669.886
773.067	462.286
776.934	414.54
780.799	349.59
784.662	302.098
788.523	93.322
792.383	230.655
796.24	326.087
800.096	357.614
803.95	263.22
807.802	186.91
811.653	39.702
815.502	151.601
819.348	114.6
823.194	86.701
827.037	10.229
830.878	94.226
834.718	46.7
838.556	66.326
842.392	52.579
846.227	18.531
850.059	93.428
853.89	17.567
857.719	53.348
861.547	54.277
865.372	91.824
869.196	42.091
873.018	40.041
876.838	29.987
880.657	18.864
884.473	98.367
888.288	207.73
892.101	129.247
895.913	213.932
899.722	264.82
903.53	566.97
907.336	981.526
911.141	1500.65
914.943	1967.44
918.744	1702.77
922.543	957.667
926.341	809.101
930.136	799.931
933.93	881.012
937.722	823.297
941.512	709.777
945.301	735.468
949.088	950.363
952.873	1347.46
956.656	1817.75
960.438	1861.25
964.218	1446.96
967.996	1099.04
971.772	1192.23
975.547	1214.73
979.32	1361.03
983.091	1583.26
986.861	1727.1
990.628	2093.05
994.394	2892.1
998.158	4515.24
1001.92	8192.88
1005.68	13437.3
1009.44	12515.7
1013.2	10747.8
1016.95	10540.8
1020.71	10308
1024.46	9698.17
1028.21	8740.79
1031.96	6736.11
1035.71	4451.88
1039.45	2968.56
1043.19	2041.82
1046.94	1707.32
1050.68	1357.09
1054.41	1101.08
1058.15	854.286
1061.89	803.724
1065.62	577.394
1069.35	496.272
1073.08	460.35
1076.81	499.617
1080.54	311.077
1084.26	256.771
1087.98	268.694
1091.71	72.813
1095.42	103.929
1099.14	26.397
1102.86	68.049
1106.57	100.996
1110.29	72.585
1114	60.712
1117.71	3.006
1121.41	11.413
1125.12	16.194
1128.83	63.783
1132.53	190.344
1136.23	123.437
1139.93	250.056
1143.63	136.387
1147.32	149.175
1151.02	162.35
1154.71	184.667
1158.4	314.566
1162.09	336.353
1165.78	392.979
1169.46	416.083
1173.15	270.506
1176.83	203.404
1180.51	199.942
1184.19	168.699
1187.87	235.489
1191.54	194.302
1195.22	134.588
1198.89	88.908
1202.56	119.741
1206.23	65.183
1209.9	73.882
1213.56	160.288
1217.23	250.507
1220.89	146.531
1224.55	169.619
1228.21	121.212
1231.87	95.347
1235.52	140.453
1239.18	27.95
1242.83	23.985
1246.48	45.715
1250.13	32.009
1253.78	19.403
1257.42	77.979
1261.07	46.581
1264.71	16.201
1268.35	20.804
1271.99	42.964
1275.63	35.49
1279.27	20.769
1282.9	35.283
1286.53	48.177
1290.16	27.925
1293.79	29.557
1297.42	82.936
1301.05	32.861
1304.67	96.931
1308.29	63.532
1311.92	49.311
1315.54	33.507
1319.15	48.052
1322.77	79.376
1326.38	78.502
1330	124.428
1333.61	87.165
1337.22	30.065
1340.83	68.395
1344.43	123.5
1348.04	108.44
1351.64	201.229
1355.24	193.807
1358.85	85.183
1362.44	68.484
1366.04	65.585
1369.63	25.518
1373.23	40.612
1376.82	38.006
1380.41	93.927
1384	175.464
1387.59	139.605
1391.17	207.068
1394.76	152.385
1398.34	132.971
1401.92	100.715
1405.5	62.483
1409.08	103.283
1412.65	98.615
1416.23	135.455
1419.8	169.686
1423.37	150.049
1426.94	195.358
1430.51	162.846
1434.08	121.981
1437.64	89.071
1441.2	145.688
1444.77	124.399
1448.33	113.333
1451.88	123.533
1455.44	167.679
1459	228.264
1462.55	179.368
1466.1	183.982
1469.65	207.918
1473.2	224.416
1476.75	149.914
1480.29	51.61
1483.84	42.159
1487.38	86.861
1490.92	17.083
1494.46	145.855
1498	94.116
1501.54	98.25
1505.07	77.503
1508.6	127.954
1512.13	102.174
1515.66	85.32
