Measurement: Raman, 514 nm, ccw, Raman Data Processed
Mineral: Diopside
Rruff sample: R040097
Ideal chemistry: CaMgSi_2_O_6_
Locality: Fassathal, Tyrol
Source: University of Arizona Mineral Museum
Description: Green prismatic crystals
Measured chemistry: Ca_1.00_(Mg_0.83_Al_0.10_Fe_0.09_Ca_0.02_Ti_0.02_)(Si_0.88_Al_0.12_)_2_O_6_
Pin_id: M00269
Orientation: Laser parallel to b* (0 1 0). Fiducial mark perpendicular to laser is parallel to -c [0 0 -1]
Raman shift (cm-1)	intensity
124.675	0
127.452	68.06
130.228	300.662
133.003	746.818
135.777	1145.33
138.55	1749.04
141.323	2050.58
144.094	1738.38
146.865	1303.32
149.635	940.053
152.403	587.807
155.171	225.482
157.939	169.396
160.705	26.151
163.47	63.518
166.235	41.763
168.998	182.363
171.761	163.979
174.523	26.473
177.284	59.746
180.044	13.705
182.803	248.283
185.562	393.418
188.319	249.047
191.076	34.876
193.831	21.614
196.586	51.515
199.34	99.172
202.093	7.967
204.846	10.59
207.597	19.647
210.347	128.846
213.097	118.207
215.846	167.674
218.594	77.28
221.341	187.032
224.087	274.669
226.832	316.996
229.577	387.522
232.32	317.497
235.063	57.914
237.805	168.467
240.545	99.146
243.286	9.924
246.025	280.781
248.763	241.609
251.501	252.527
254.237	353.562
256.973	234.709
259.708	205.965
262.442	147.322
265.175	98.783
267.907	200.346
270.639	2.025
273.369	1.898
276.099	40.912
278.828	168.525
281.556	192.221
284.283	162.475
287.009	249.992
289.734	259.152
292.459	249.93
295.183	315.215
297.905	444.496
300.627	515.338
303.348	640.965
306.069	778.176
308.788	960.023
311.507	982.059
314.224	1484.2
316.941	1766.45
319.657	1918.86
322.372	1951.37
325.086	2334
327.8	2406.64
330.512	2189.14
333.224	2041.73
335.935	1884.43
338.645	1715.39
341.354	1638.28
344.062	1421.25
346.769	1564.29
349.476	1607.41
352.182	1490.58
354.887	1484.15
357.591	1526.08
360.294	1677.83
362.996	1431.19
365.698	1272.91
368.398	1052.04
371.098	1102.83
373.797	1046.26
376.495	1079.72
379.192	1233.2
381.889	1356.69
384.584	1560.21
387.279	1913.75
389.973	2297.3
392.666	2560.88
395.358	2104.49
398.049	1868.16
400.74	1052.05
403.429	625.873
406.118	659.826
408.806	243.795
411.493	268.611
414.179	23.361
416.865	7.568
419.549	67.973
422.233	7.576
424.916	62.723
427.598	54.885
430.279	25.637
432.959	165.896
435.639	38.178
438.318	136.064
440.996	43.938
443.673	124.141
446.349	74.393
449.024	41.551
451.699	41.83
454.372	75.719
457.045	242.26
459.717	105.279
462.388	99.592
465.059	134.639
467.728	189.365
470.397	193.664
473.065	137.219
475.732	120.719
478.398	144.17
481.063	187.566
483.728	50.904
486.391	234.182
489.054	267.4
491.716	210.557
494.377	253.645
497.038	366.66
499.697	552.119
502.356	709.162
505.014	905.271
507.671	1067.97
510.327	760.586
512.982	703.104
515.637	606.672
518.291	567.867
520.944	640.111
523.596	432.258
526.247	714.32
528.897	786.318
531.547	778.23
534.196	690.039
536.844	631.734
539.491	643.318
542.137	645.229
544.783	487.531
547.427	443.838
550.071	411.961
552.714	305
555.356	429.021
557.998	670.982
560.638	422.449
563.278	230.881
565.917	370.557
568.555	412.596
571.192	591.961
573.829	480.801
576.464	291.203
579.099	99.43
581.733	313.186
584.366	297.725
586.999	139.834
589.63	45.127
592.261	145.963
594.891	47.213
597.52	18.555
600.148	127.014
602.776	24.695
605.402	99.166
608.028	107.354
610.653	107.941
613.277	306.244
615.901	11.41
618.523	276.332
621.145	234.564
623.766	242.846
626.386	210.668
629.006	476.758
631.624	536.594
634.242	539.441
636.859	665.459
639.475	940.844
642.09	1026.53
644.705	1102.42
647.318	1457.56
649.931	1472.56
652.543	2106.54
655.155	2950.23
657.765	3814
660.375	4627.45
662.984	6210.25
665.592	7202.85
668.199	6855.23
670.805	5337.42
673.411	4109.39
676.016	2961.15
678.62	2202.71
681.223	1734.4
683.825	1175.85
686.427	976.816
689.028	1027.8
691.628	868.299
694.227	528.832
696.825	439.295
699.423	529.145
702.02	488.768
704.616	308.164
707.211	117.328
709.805	56.225
712.399	75.145
714.992	313.086
717.584	430.838
720.175	168.76
722.765	325.912
725.355	207.234
727.944	88.311
730.532	293.701
733.119	189.176
735.705	302.891
738.291	101.527
740.876	345.07
743.46	285.488
746.043	106.873
748.626	117.314
751.207	299.932
753.788	380.09
756.368	370
758.947	282.01
761.526	281.844
764.104	27.742
766.68	316.93
769.257	586.355
771.832	120.719
774.406	107.789
776.98	78.377
779.553	248.203
782.125	487.949
784.697	298.744
787.267	309.346
789.837	319.744
792.406	519.936
794.974	119.93
797.542	219.727
800.108	309.332
802.674	260.756
805.239	297.998
807.804	307.062
810.367	235.953
812.93	704.662
815.492	713.199
818.053	901.561
820.613	519.746
823.173	677.764
825.732	785.619
828.29	733.309
830.847	410.83
833.403	318.203
835.959	355.418
838.514	322.441
841.068	409.27
843.621	425.75
846.174	262.047
848.726	258.184
851.277	694.188
853.827	839.527
856.376	774.23
858.925	1139.18
861.473	731.301
864.02	1123.5
866.566	828.711
869.112	551.535
871.656	156.07
874.2	321.672
876.744	427.809
879.286	693.262
881.828	294.059
884.369	511.02
886.909	484.02
889.448	213.215
891.987	304.629
894.524	145.742
897.061	234.965
899.598	285.91
902.133	53.227
904.668	40.789
907.202	342.5
909.735	356.113
912.267	269.441
914.799	261.992
917.33	110.285
919.86	73.594
922.389	58.836
924.918	93.32
927.445	126.805
929.972	199.434
932.499	372.984
935.024	96.121
937.549	109.203
940.073	270.723
942.596	252.863
945.118	463.973
947.64	306.141
950.161	188.84
952.681	521.758
955.2	604.977
957.719	408.008
960.236	330.859
962.753	372.734
965.27	434.82
967.785	946.809
970.3	758.438
972.814	510.434
975.327	792.332
977.84	944.309
980.351	575.906
982.862	378.414
985.372	921.441
987.882	1209.02
990.39	1403.27
992.898	1526.81
995.405	2246.72
997.912	2997.09
1000.42	4320.05
1002.92	4964.14
1005.43	5587.02
1007.93	5970.3
1010.43	5443.67
1012.93	4157.03
1015.43	2670.46
1017.93	1994.01
1020.43	1507.61
1022.93	1271.24
1025.43	1064.94
1027.93	1058.76
1030.42	1012.74
1032.92	1046.88
1035.42	751.195
1037.91	965.746
1040.4	1291.54
1042.9	1098.64
1045.39	736.512
1047.88	1065.26
1050.37	954.699
1052.86	814.938
1055.35	656.148
1057.84	118.551
1060.33	632.43
1062.81	588.148
1065.3	455.91
1067.78	115.938
1070.27	668.746
1072.75	605.066
1075.23	335.809
1077.72	192.203
1080.2	89.551
1082.68	273.457
1085.16	0
