Measurement: Raman, 514 nm, ccw, Raman Data Processed
Mineral: Diopside
Rruff sample: R060276
Ideal chemistry: CaMgSi_2_O_6_
Locality: Inagli, Yakutia, Siberia, Russia
Source: Herb Obodda
Description: Transparent green cleavage fragment
Measured chemistry: (Ca_0.97_Na_0.03_)_Σ=1_(Mg_0.96_Fe_0.03_Cr_0.01_)_Σ=1_(Si_1.98_Al_0.02_)_Σ=2_O_6_
Pin_id: L01049
Orientation: Laser parallel to a* (1 0 0). Fiducial mark perpendicular to laser is parallel to -b [0 -1 0]
Raman shift (cm-1)	intensity
109.512	0
114.44	148.768
119.365	157
124.288	77.5254
129.209	201.856
134.127	381.633
139.043	526.552
143.956	523.476
148.867	154.128
153.775	127.963
158.681	134.105
163.585	83.2759
168.486	250.457
173.385	423.547
178.282	583.504
183.176	1528.32
188.067	695.424
192.956	63.5088
197.843	220.585
202.727	71.7319
207.609	127.345
212.489	89.4834
217.366	159.99
222.24	457.777
227.112	919.902
231.982	1526.21
236.849	1178.88
241.714	427.111
246.577	442.903
251.437	591.236
256.294	1095.35
261.149	414.94
266.002	143.192
270.852	14.4463
275.7	84.2817
280.545	16.4214
285.388	115.626
290.229	259.322
295.067	545.477
299.902	1106.43
304.735	2018.75
309.566	3617.66
314.394	7659.22
319.22	11482.6
324.043	19281.5
328.864	16952
333.682	7284.73
338.498	3538.72
343.311	2353.74
348.122	2038.09
352.931	2070.78
357.737	2411.48
362.54	2277.8
367.341	2377.42
372.14	2743.33
376.936	3952.52
381.73	8181.97
386.521	13500.7
391.31	22335.7
396.096	15625.9
400.88	5463.37
405.661	2215.16
410.44	974.29
415.216	511.95
419.99	402.148
424.761	284.974
429.53	235.142
434.297	87.6328
439.061	56.3662
443.822	56.668
448.581	26.623
453.337	26.0293
458.091	204.293
462.843	171.273
467.592	209.453
472.338	159.634
477.082	137.964
481.824	94.519
486.563	131.144
491.3	142.881
496.034	163.738
500.765	97.9805
505.494	171.843
510.221	345.993
514.945	506.195
519.666	839.444
524.385	1335.73
529.102	2026.06
533.816	1757.75
538.527	936.542
543.236	478.375
547.943	462.241
552.647	367.174
557.348	525.207
562.047	427.344
566.744	383.653
571.438	179.928
576.129	242.125
580.818	177.233
585.504	11.2729
590.188	2.13477
594.87	137.904
599.549	4.54053
604.225	22.3545
608.899	35.0591
613.57	77.6582
618.239	136.69
622.905	130.176
627.569	203.454
632.23	312
636.889	517.284
641.545	654.362
646.198	1063.23
650.849	1903.9
655.498	4051.6
660.144	7934.81
664.787	13605.8
669.428	14831.8
674.067	7405.32
678.703	3161.44
683.336	1540.31
687.967	983.343
692.595	607.392
697.221	517.862
701.844	416.212
706.465	467.135
711.083	414.415
715.698	319.397
720.311	190.083
724.922	194.751
729.53	169.245
734.135	122.07
738.738	75.917
743.338	14.2344
747.936	39.5132
752.531	8.78516
757.124	12.3945
761.714	82.043
766.302	57.3154
770.887	111.369
775.469	115.228
780.049	288.902
784.626	184.397
789.201	122.722
793.773	159.878
798.343	89.8765
802.91	18.7314
807.475	170.7
812.037	25.9619
816.596	14.4375
821.153	138.886
825.707	25.9941
830.259	57.1397
834.808	28.3711
839.355	22.3208
843.899	106.819
848.441	231.901
852.98	444.95
857.516	642.894
862.05	424.999
866.581	280.202
871.11	279.409
875.636	420.196
880.159	336.127
884.68	317.078
889.199	295.867
893.714	433.012
898.228	227.416
902.738	261.394
907.246	265.138
911.752	407.102
916.255	417.211
920.755	228.544
925.253	276.118
929.748	240.754
934.241	241.917
938.731	158.207
943.218	180.45
947.703	124.508
952.186	148.658
956.665	391.092
961.142	341.24
965.617	414.848
970.089	536.891
974.558	821.294
979.025	870.409
983.489	1143.5
987.951	1783.85
992.41	2512.47
996.866	4297.37
1001.32	8310.56
1005.77	18852.1
1010.22	36327.9
1014.67	46691
1019.11	22010.6
1023.55	8152.42
1027.99	3925.37
1032.42	2587.09
1036.86	2159.82
1041.29	2053.91
1045.72	1904.13
1050.14	1788.52
1054.56	1336.61
1058.98	1132.12
1063.4	905.91
1067.82	888.797
1072.23	704.04
1076.64	620.706
1081.05	523.63
1085.45	364.481
1089.85	347.503
1094.25	381.044
1098.65	294.265
1103.04	226.932
1107.43	310.728
1111.82	256.61
1116.21	259.688
1120.59	377.144
1124.97	497.62
1129.35	282.11
1133.73	346.625
1138.1	240.549
1142.47	180.936
1146.84	188.293
1151.21	168.655
1155.57	45.3223
1159.93	36.0068
1164.29	30.2881
1168.64	35.5244
1172.99	29.3145
1177.34	70.999
1181.69	16.4697
1186.04	10.3096
1190.38	14.6377
1194.72	20.6162
1199.05	112.32
1203.39	127.732
1207.72	8.27539
1212.05	84.2627
1216.37	53.9062
1220.7	40.5147
1225.02	31.8662
1229.34	40.6191
1233.65	143.196
1237.97	125.635
1242.28	98.7402
1246.59	201.736
1250.89	32.3916
1255.19	31.3232
1259.49	109.835
1263.79	55.209
1268.09	156.654
1272.38	168.809
1276.67	226.707
1280.95	206.023
1285.24	180.458
1289.52	219.57
1293.8	56.9062
1298.08	138.111
1302.35	153.825
1306.62	133.423
1310.89	36.6084
1315.15	211.669
1319.42	340.278
1323.68	265.467
1327.94	120.803
1332.19	270.326
1336.44	134.367
1340.69	195.371
1344.94	191.972
1349.19	247.856
1353.43	181.552
1357.67	178.12
1361.9	182.89
1366.14	221.517
1370.37	148.717
1374.6	71.708
1378.83	146.152
1383.05	169.969
1387.27	109.863
1391.49	231.18
1395.7	48.9834
1399.92	259.807
1404.13	15.3887
1408.34	158.773
1412.54	16.8818
1416.74	140.512
1420.94	186.435
1425.14	89.6035
1429.34	125.099
1433.53	19.6924
1437.72	124.028
1441.9	17.9189
1446.09	108.142
1450.27	72.4922
1454.45	180.528
1458.63	64.1397
1462.8	118.166
1466.97	158.476
1471.14	164.123
1475.31	255.474
1479.47	240.988
1483.63	112.898
1487.79	283.143
1491.94	186.835
1496.09	114.963
1500.24	151.98
1504.39	273.269
1508.54	241.706
1512.68	309.324
1516.82	28.2383
1520.95	252.673
1525.09	305.562
1529.22	194.243
1533.35	222.94
1537.47	268.807
1541.6	141.237
1545.72	185.296
1549.83	92.584
1553.95	147.833
1558.06	197.43
1562.17	168.893
1566.28	185.174
1570.38	218.958
