Measurement: Raman, 514 nm, ccw, Raman Data Processed
Mineral: Diopside
Rruff sample: R040097
Ideal chemistry: CaMgSi_2_O_6_
Locality: Fassathal, Tyrol
Source: University of Arizona Mineral Museum
Description: Green prismatic crystals
Measured chemistry: Ca_1.00_(Mg_0.83_Al_0.10_Fe_0.09_Ca_0.02_Ti_0.02_)(Si_0.88_Al_0.12_)_2_O_6_
Pin_id: L00421
Orientation: Laser parallel to [1 0 1]. Fiducial mark perpendicular to laser is parallel to -b* (0 -1 0)
Raman shift (cm-1)	intensity
123.138	0
127.288	165.281
131.436	195.366
135.582	731.352
139.726	1909.01
143.868	2545.67
148.008	1459.45
152.147	722.375
156.284	377.914
160.418	4.413
164.551	18.954
168.683	244.482
172.812	358.53
176.939	33.212
181.065	348.525
185.188	894.492
189.31	451.115
193.43	218.387
197.549	307.676
201.665	353.818
205.779	12.067
209.892	25.956
214.003	234.494
218.112	323.566
222.219	723.152
226.324	1643.18
230.428	2413.53
234.529	1834.38
238.629	655.759
242.727	437.631
246.823	429.969
250.917	382.721
255.01	665.903
259.101	709.498
263.189	373.5
267.276	22.104
271.362	42.687
275.445	27.882
279.526	3.509
283.606	19.461
287.684	336.442
291.76	459.781
295.834	684.217
299.907	1129.45
303.978	2045.17
308.046	2271.16
312.113	2677.09
316.179	4203.5
320.242	6630.32
324.304	8987.19
328.363	8559.84
332.421	6465.77
336.478	4633.87
340.532	3402.25
344.585	2560.9
348.635	2509.82
352.684	3198.99
356.731	3918.41
360.777	3658.04
364.82	3257.6
368.862	3456.43
372.902	3326.27
376.94	2876.32
380.977	3396.57
385.012	5397.03
389.044	8887.67
393.075	11548.5
397.105	9769.48
401.132	5620.65
405.158	2692.04
409.182	1363.73
413.204	545.644
417.224	397.828
421.243	620.752
425.26	273.731
429.275	76.382
433.288	112.357
437.3	355.731
441.309	142.985
445.317	77.031
449.323	36.232
453.328	347.782
457.331	368.922
461.331	294.537
465.33	295.482
469.328	492.344
473.323	447.728
477.317	122.449
481.309	147.166
485.3	261.873
489.288	466.626
493.275	321.357
497.26	106.023
501.243	380.605
505.225	705.098
509.205	929.483
513.183	923.753
517.159	967.896
521.133	1221.9
525.106	1345.77
529.077	1199.5
533.046	1003.09
537.014	816.506
540.98	919.752
544.944	822.816
548.906	615.693
552.867	578.373
556.825	691.523
560.783	816.086
564.738	637.381
568.692	369.074
572.643	393.516
576.594	496.48
580.542	470.799
584.489	306.867
588.434	16.986
592.377	9.334
596.318	35.977
600.258	187.223
604.196	103.668
608.132	115.27
612.067	184.201
616	289.955
619.931	476.445
623.861	272.617
627.788	204.998
631.714	676.551
635.639	804.475
639.561	939.939
643.482	976.168
647.401	1348.22
651.319	2059.59
655.234	3580.91
659.148	5731.95
663.061	9101.91
666.971	12881.4
670.88	11270.5
674.787	7069.11
678.693	4177.3
682.597	2375.03
686.499	1562.32
690.399	1619.24
694.298	1285.65
698.195	711.605
702.09	517.125
705.984	602.205
709.876	636.846
713.766	411.045
717.654	554.758
721.541	42.143
725.426	20.217
729.31	192.008
733.191	353.039
737.071	52.828
740.95	147.828
744.827	58.529
748.702	67.951
752.575	294.768
756.447	482.936
760.316	117.666
764.185	170.242
768.051	13.984
771.916	134.053
775.78	287.174
779.641	174.004
783.501	125.434
787.359	72.791
791.216	69.467
795.071	321.418
798.924	443.037
802.775	214.328
806.625	75.387
810.474	156.219
814.32	776.834
818.165	967.236
822.008	1027.46
825.85	697.496
829.69	757.355
833.528	767.049
837.364	936.594
841.199	736.004
845.033	745.285
848.864	454.438
852.694	903.502
856.523	1512.51
860.349	1531.45
864.174	1330.4
867.998	988.629
871.819	715.299
875.639	517.178
879.458	400.434
883.274	590.043
887.09	688.42
890.903	332.387
894.715	155
898.525	107.189
902.334	476.799
906.14	888.707
909.946	667.047
913.749	246.045
917.551	303.512
921.352	552.092
925.15	595.883
928.947	836.893
932.743	636.91
936.537	602.93
940.329	330.68
944.119	112
947.908	452.297
951.696	950.877
955.481	1004.02
959.265	867.336
963.048	790.758
966.829	864.299
970.608	1037.98
974.385	1303.73
978.161	1588.39
981.936	1843.17
985.708	1598.79
989.479	2304.66
993.249	2560.9
997.017	4296.78
1000.78	7162.48
1004.55	11223.1
1008.31	17534.7
1012.07	20928.7
1015.83	15746.8
1019.59	7801.15
1023.35	4676.15
1027.1	3494.83
1030.86	2730.15
1034.61	2091.72
1038.36	2245.03
1042.11	1949.44
1045.85	2351.14
1049.6	2390.87
1053.34	1925.65
1057.08	1975.88
1060.82	1226.54
1064.56	779.123
1068.3	605.9
1072.04	435.516
1075.77	1074.25
1079.5	1203.51
1083.23	901.805
1086.96	779.76
1090.69	308.711
1094.42	326.777
1098.14	527.119
1101.87	376.617
1105.59	1155.8
1109.31	1243.7
1113.03	503.113
1116.74	160.143
1120.46	51.637
1124.17	174.395
1127.88	262.904
1131.59	670.947
1135.3	984.75
1139.01	760.66
1142.71	387.586
1146.42	184.941
1150.12	66.137
1153.82	61.475
1157.52	325.398
1161.22	629.5
1164.92	683.232
1168.61	759.877
1172.3	414.072
1175.99	63.283
1179.68	163.229
1183.37	176.369
1187.06	546.143
1190.75	722.607
1194.43	1108.37
1198.11	572.467
1201.79	118.197
1205.47	154.557
1209.15	32.754
1212.83	21.416
1216.5	629.807
1220.17	1030.88
1223.84	1083.21
1227.51	1210.27
1231.18	597.861
1234.85	380.381
1238.51	602.031
1242.18	331.115
1245.84	766.293
1249.5	1090
1253.16	1061.88
1256.82	1564.65
1260.47	1257.33
1264.12	675.705
1267.78	693.045
1271.43	140.881
1275.08	479.336
1278.73	675
1282.37	1568.76
1286.02	1722.76
1289.66	1363.12
1293.3	1173.04
1296.94	820.25
1300.58	103.977
1304.22	333.824
1307.86	137.781
1311.49	206.895
1315.12	573.941
1318.76	1447.42
1322.38	1250.25
1326.01	1156.94
1329.64	974.148
1333.27	698.059
1336.89	419.07
1340.51	491.328
1344.13	354.5
1347.75	629.852
1351.37	870.223
1354.98	1394.23
1358.6	1801.09
1362.21	1171.24
1365.82	1382.18
1369.43	825.695
1373.04	392.789
1376.65	17.664
1380.25	100.074
1383.86	638.996
1387.46	1476.98
1391.06	1735.72
1394.66	2060.9
1398.26	1753.19
1401.85	1526.66
1405.45	781.68
1409.04	250.855
1412.63	304.426
1416.22	6.383
1419.81	438.941
1423.4	1127.79
1426.99	1580.54
1430.57	1710.75
1434.15	1894.14
1437.73	1668.39
1441.32	1292.71
1444.89	931.91
1448.47	558.078
1452.05	99.137
1455.62	202.344
1459.19	145.266
1462.76	778.594
1466.33	1238.96
1469.9	1971.73
1473.47	2215.2
1477.03	2382.57
1480.6	2146.89
1484.16	1254.7
1487.72	1227.61
1491.28	472.082
1494.83	357.207
1498.39	9.59
1501.94	28.391
1505.5	220.246
1509.05	517.156
