Measurement: Raman, 514 nm, ccw, Raman Data Processed
Mineral: Diopside
Rruff sample: R050406
Ideal chemistry: CaMgSi_2_O_6_
Locality: unknown
Source: University of Arizona Mineral Museum
Description: Brownish gray massive
Measured chemistry: (Ca_0.95_Na_0.05_)(Mg_0.75_Fe^2+^_0.18_Fe^3+^_0.05_Al_0.01_Ti_0.01_Mn^2+^_0.01_)(Si_0.98_Al_0.02_)_2_O_6_
Pin_id: M00407
Orientation: Laser parallel to a* (1 0 0). Fiducial mark perpendicular to laser is parallel to b [0 1 0]
Raman shift (cm-1)	intensity
116.903	0
121.827	6.34229
126.749	73.6792
131.668	892.996
136.585	2227.01
141.5	1360.87
146.412	423.974
151.321	52.6885
156.229	1.76856
161.134	204.302
166.036	353.005
170.936	398.615
175.834	877.805
180.729	827.332
185.622	438.003
190.512	396.626
195.4	362.858
200.286	530.455
205.169	358.96
210.049	487.11
214.928	751.067
219.803	1031.05
224.677	1396.08
229.548	1561.16
234.416	1001.28
239.282	672.394
244.146	635.472
249.007	653.473
253.866	594.358
258.722	519.808
263.576	181.753
268.427	12.9277
273.276	70.6406
278.123	26.6152
282.967	335.347
287.809	729.226
292.648	1328.99
297.485	2141.19
302.319	3187.62
307.151	5221.64
311.98	9144.76
316.807	15504.7
321.631	18206
326.454	13639.3
331.273	8715.31
336.09	5878.02
340.905	4600.27
345.717	4502.01
350.527	5022.27
355.334	5148.02
360.139	4914.3
364.941	4782.88
369.741	5237.93
374.538	7579.38
379.333	12957.2
384.126	21178.4
388.916	21320.9
393.703	11819.7
398.488	5336.81
403.271	2449.2
408.051	1259.85
412.828	973.929
417.603	746.871
422.376	437.231
427.146	167.475
431.914	43.0332
436.679	60.7959
441.442	133.346
446.202	91.7256
450.96	2.00684
455.715	105.803
460.467	296.793
465.218	255.759
469.965	244.226
474.711	167.014
479.454	155.183
484.194	393.446
488.932	325.216
493.667	275.011
498.4	454.772
503.13	577.524
507.858	814.148
512.583	1303.62
517.306	1611.98
522.026	2218.36
526.744	2512.66
531.459	1946.94
536.172	1498.08
540.882	1279.97
545.59	995.579
550.295	1111.9
554.998	1168.9
559.698	999.578
564.396	947.007
569.091	799.089
573.784	623.758
578.474	409.291
583.162	315.223
587.847	55.2266
592.529	13.1816
597.209	38.668
601.887	83.9326
606.562	15.1826
611.235	36.5088
615.905	148.868
620.572	274.149
625.237	335.755
629.9	599.762
634.56	838.553
639.217	1065.65
643.872	1777.32
648.524	2876.36
653.174	5255.47
657.821	11101.2
662.466	19369.5
667.108	18575.3
671.748	10252
676.385	5079.28
681.02	2872.49
685.652	1861.08
690.281	1260.13
694.908	1098.17
699.533	885.524
704.155	1010.11
708.774	711.722
713.391	479.669
718.005	503.023
722.617	297.817
727.226	315.522
731.833	120.419
736.437	45.0117
741.039	89.1172
745.638	173.856
750.234	105.27
754.828	93.6123
759.419	7.79297
764.008	55.2695
768.595	78.3867
773.178	39.5176
777.759	41.0312
782.338	38.0244
786.914	96.6426
791.488	151.919
796.059	55.3447
800.627	161.653
805.193	71.874
809.756	59.0996
814.317	5.27344
818.875	13.3086
823.431	2.37012
827.984	34.1211
832.534	41.2666
837.082	135.829
841.627	119.304
846.17	240.341
850.71	664.102
855.248	1227.3
859.783	1052.27
864.316	733.981
868.846	638.825
873.373	783.295
877.898	656.958
882.42	1040.07
886.94	960.237
891.457	991.05
895.971	849.843
900.483	893.136
904.993	698.021
909.5	701.403
914.004	724.787
918.505	700.473
923.004	579.803
927.501	553.638
931.995	554.097
936.486	385.849
940.975	349.387
945.461	292.918
949.945	635.415
954.426	662.811
958.904	851.171
963.38	1249.71
967.853	1321.51
972.324	1606.34
976.792	1840.11
981.258	2313.23
985.72	2826.86
990.181	4106.01
994.639	6098.72
999.094	10434
1003.55	19863.8
1008	38726.1
1012.44	49583.2
1016.89	29169.7
1021.33	12635.8
1025.77	6862.25
1030.21	4923.16
1034.64	3952.87
1039.07	3982.1
1043.5	3817.41
1047.93	3285.33
1052.35	2536.51
1056.78	2168.69
1061.19	1910.8
1065.61	1661.87
1070.02	1347.66
1074.43	1361.94
1078.84	1068.91
1083.25	912.916
1087.65	1096.97
1092.05	818.023
1096.45	820.412
1100.85	790.979
1105.24	714.85
1109.63	790.031
1114.02	761.189
1118.4	1107
1122.78	1425.24
1127.16	1102.46
1131.54	673.769
1135.92	533.078
1140.29	449.669
1144.66	291.272
1149.02	144.044
1153.39	71.6553
1157.75	175.148
1162.11	115.555
1166.46	139.444
1170.82	62.0381
1175.17	145.302
1179.52	39.1758
1183.86	19.165
1188.21	105.35
1192.55	16.8408
1196.89	26.0742
1201.22	170.043
1205.55	28.208
1209.88	194.102
1214.21	100.868
1218.54	83.7353
1222.86	99.3438
1227.18	123.988
1231.5	165.38
1235.81	94.5576
1240.12	165.5
1244.43	49.1699
1248.74	82.4814
1253.04	110.455
1257.34	193.986
1261.64	60.168
1265.94	361.184
1270.23	273.734
1274.52	117.023
1278.81	210.072
1283.1	184.853
1287.38	179.471
1291.66	151.269
1295.94	46.8125
1300.21	199.908
1304.48	155.383
1308.75	205.223
1313.02	124.627
1317.29	199.002
1321.55	228.291
1325.81	217.49
1330.06	190.518
1334.32	391.176
1338.57	223.406
1342.82	300.469
1347.06	144.023
1351.31	139.371
1355.55	299.838
1359.79	368.148
1364.02	340.961
1368.26	314.898
1372.49	281.053
1376.71	134.594
1380.94	316.478
1385.16	145.4
1389.38	314.973
1393.6	182.844
1397.81	168.877
1402.02	72.8262
1406.23	212.295
1410.44	143.348
1414.64	163.049
1418.85	178.197
1423.04	205.254
1427.24	172.637
1431.43	16.5469
1435.62	30.2715
1439.81	188.121
1444	204.258
1448.18	27.8184
1452.36	19.5059
1456.54	99.1934
1460.71	80.2754
1464.89	107.381
1469.06	32.5586
1473.22	43.5371
1477.39	213.609
1481.55	345.957
1485.71	49.1953
1489.86	151.523
1494.02	231.834
1498.17	187.785
1502.32	230.027
1506.46	181.539
1510.61	256.356
1514.75	275.818
1518.88	267.525
1523.02	55.1875
1527.15	132.06
1531.28	33.8789
1535.41	226.941
1539.53	83.5332
1543.66	47.0879
1547.78	310.807
1551.89	425.81
1556.01	277.018
1560.12	215.037
1564.23	6.17578
1568.33	133.846
1572.43	0
