Measurement: Raman, 514 nm, ccw, Raman Data Processed
Mineral: Diopside
Rruff sample: R040009
Ideal chemistry: CaMgSi_2_O_6_
Locality: Otter Lake, Quebec, Canada
Source: University of Arizona Mineral Museum
Description: Green square prismatic crystal associated with pale orange calcite
Measured chemistry: (Ca_0.97_Fe_0.02_Na_0.01_)_Σ=1_(Mg_0.97_Fe_0.02_Al_0.01_)_Σ=1_Si_2.00_O_6_; trace amounts of Mn and Ti
Pin_id: L00436
Orientation: Laser parallel to -b [0 -1 0]. Fiducial mark perpendicular to laser is parallel to -c* (0 0 -1)
Raman shift (cm-1)	intensity
96.161	0
100.34	8.34
104.516	0.451
108.691	154.83
112.864	190.165
117.034	653.1
121.203	841.576
125.369	1297.62
129.534	2789.5
133.696	7835.67
137.857	14502.2
142.016	12317.2
146.172	5042.57
150.327	1818.03
154.48	831.285
158.63	506.456
162.779	452.611
166.926	330.781
171.07	316.986
175.213	354.235
179.354	667.523
183.493	573.266
187.63	500.783
191.765	385.182
195.898	423.41
200.029	286.127
204.158	310.126
208.285	309.827
212.41	237.894
216.533	210.608
220.654	217.517
224.773	370.593
228.891	591.774
233.006	871.037
237.119	637.373
241.231	248.782
245.34	212.254
249.448	587.785
253.553	1003.37
257.657	721.042
261.758	210.092
265.858	22.832
269.956	106.515
274.052	40.247
278.146	107.81
282.237	77.073
286.327	25.737
290.416	62.444
294.502	178.726
298.586	314.152
302.668	710.166
306.749	1296.3
310.827	2205.58
314.903	3086.95
318.978	5175.26
323.051	8163.49
327.121	7182.74
331.19	3704.02
335.257	2022.31
339.322	1287.62
343.385	1098.94
347.446	1141.16
351.505	1988.84
355.563	3584.16
359.618	5046.4
363.672	4212.66
367.723	2641.95
371.773	1952.24
375.821	1955.55
379.866	2576.86
383.91	5313.16
387.952	10671.5
391.992	11852.7
396.031	6097.01
400.067	2445.26
404.101	1145.49
408.134	535.933
412.165	449.428
416.193	298.713
420.22	153.641
424.245	78.642
428.268	77.158
432.289	65.773
436.309	21.133
440.326	24.21
444.342	11.606
448.355	15.348
452.367	37.57
456.377	5.784
460.385	95.719
464.391	156.779
468.395	62.904
472.398	159.118
476.398	78.387
480.397	112.706
484.394	178.99
488.389	177.23
492.382	229.434
496.373	234.596
500.362	575.687
504.349	1268.67
508.335	2259.54
512.319	1476.27
516.3	640.853
520.28	435.284
524.259	433.551
528.235	518.646
532.209	427.564
536.182	417.298
540.152	288.842
544.121	210.188
548.088	234.333
552.053	253.617
556.017	314.989
559.978	387.49
563.938	190.763
567.895	41.798
571.851	106.861
575.805	64.87
579.758	62.899
583.708	104.711
587.657	153.605
591.603	138.75
595.548	99.376
599.491	128.365
603.432	126.512
607.372	250.471
611.309	271.017
615.245	521.594
619.179	565.356
623.111	868.039
627.041	819.712
630.97	1111.27
634.896	1399.71
638.821	1705.94
642.744	2379.48
646.665	3084.38
650.584	4288.76
654.502	6969
658.418	12987.7
662.331	26709.5
666.244	40274.2
670.154	31603.7
674.062	16140.3
677.969	8295.9
681.874	4790.1
685.777	3341.7
689.678	2485.83
693.577	1790.48
697.475	1666.64
701.371	1385.32
705.265	1159.52
709.157	956.221
713.047	867.432
716.936	594.147
720.823	527.284
724.708	498.111
728.591	381.249
732.472	270.591
736.352	244.88
740.23	254.699
744.106	221.396
747.98	37.484
751.853	71.545
755.723	47.355
759.592	93.226
763.459	79.938
767.325	27.853
771.188	4.526
775.05	119.384
778.91	36.862
782.768	28.894
786.625	98.013
790.479	20.818
794.332	14.576
798.183	53.077
802.033	54.013
805.88	60.628
809.726	121.438
813.57	176.634
817.413	301.389
821.253	412.455
825.092	473.027
828.929	478.573
832.764	447.788
836.598	582.93
840.429	775.662
844.259	1069.96
848.088	1875.85
851.914	4217.31
855.739	6671.34
859.562	4560.98
863.383	2428.2
867.203	1741.03
871.02	1129.45
874.836	1040.46
878.65	1082.06
882.463	888.609
886.274	758.448
890.083	750.931
893.89	799.082
897.695	612.21
901.499	571.613
905.301	646.281
909.102	571.411
912.9	547.729
916.697	432.952
920.492	354.891
924.285	373.182
928.077	227.873
931.867	315.909
935.655	294.077
939.442	85.514
943.226	136.416
947.009	199.526
950.791	12.612
954.57	30.705
958.348	105.006
962.124	201.81
965.899	294.112
969.671	326.29
973.442	417.169
977.211	699.593
980.979	775.973
984.745	725.586
988.509	1068.1
992.271	1716.42
996.032	2648.73
999.791	4051.47
1003.55	7334.52
1007.3	15311.3
1011.06	35700.5
1014.81	45937.8
1018.56	22784.6
1022.31	9892.85
1026.06	5270.11
1029.8	4101.74
1033.55	3384.09
1037.29	3631.71
1041.03	4832.23
1044.77	7547.31
1048.5	9457.82
1052.24	6647.08
1055.97	3370.03
1059.7	1969.62
1063.43	1383.33
1067.16	742.814
1070.89	669.485
1074.61	496.731
1078.34	288.995
1082.06	418.402
1085.78	350.889
1089.5	266.182
1093.21	64.117
1096.93	71.807
1100.64	235.256
1104.35	155.096
1108.06	201.248
1111.77	193.383
1115.48	100.166
1119.18	108.168
1122.89	227.717
1126.59	100.641
1130.29	195.973
1133.99	81.104
1137.68	91.947
1141.38	33.611
1145.07	156.012
1148.76	214.492
1152.45	165.637
1156.14	230.832
1159.83	61.186
1163.51	10.566
1167.19	67.816
1170.88	52.287
1174.56	179.037
1178.23	33.145
1181.91	34.455
1185.59	168.158
1189.26	114.717
1192.93	114.168
1196.6	183.715
1200.27	233.375
1203.94	46.062
1207.6	300.324
1211.27	293.494
1214.93	54.17
1218.59	184.033
1222.25	116.066
1225.9	233.514
1229.56	177.256
1233.21	53.807
1236.86	10.65
1240.51	138.455
1244.16	160.846
1247.81	218.152
1251.45	67.346
1255.1	191.545
1258.74	373.973
1262.38	18.043
1266.02	95.9
1269.66	105.965
1273.29	44.279
1276.93	18.135
1280.56	43.719
1284.19	22.959
1287.82	23.111
1291.45	120.568
1295.07	108.172
1298.7	55.699
1302.32	27.232
1305.94	79.809
1309.56	91.922
1313.18	61.748
1316.8	150.244
1320.41	207.26
1324.02	417.721
1327.63	192.273
1331.24	263.412
1334.85	279.559
1338.46	272.734
1342.06	170.123
1345.67	368.006
1349.27	373.039
1352.87	385.15
1356.47	202.795
1360.07	368.566
1363.66	421.23
1367.25	490.459
1370.85	329.486
1374.44	517.783
1378.03	455.77
1381.61	444.396
1385.2	457.023
1388.78	376.678
1392.37	207.344
1395.95	244.902
1399.53	193.697
1403.1	339.531
1406.68	254.889
1410.26	300.961
1413.83	44.867
1417.4	234.678
1420.97	85.402
1424.54	207.35
1428.1	199.869
1431.67	101.805
1435.23	163.406
1438.8	499.242
1442.36	490.109
1445.91	304.316
1449.47	525.141
1453.03	386.582
1456.58	135.609
1460.13	229.965
1463.68	174.395
1467.23	696.27
1470.78	473.359
1474.33	534.711
1477.87	274.477
1481.42	612.07
1484.96	329.543
1488.5	273.422
1492.04	211.422
