Measurement: Raman, 514 nm, ccw, Raman Data Processed
Mineral: Diopside
Rruff sample: R070123
Ideal chemistry: CaMgSi_2_O_6_
Locality: Yates mine, Otter Lake, Huddersfield Township, Pontiac County, Québec, Canada
Source: Michael Scott
Description: Black prismatic crystals associated with orange calcite
Measured chemistry: (Ca_0.95_Na_0.04_Mn_0.01_)_Σ=1_(Mg_0.63_Fe_0.33_Al_0.04_)_Σ=1_Si_2.00_O_6_
Pin_id: M00826
Orientation: Laser parallel to a* (1 0 0). Fiducial mark perpendicular to laser is parallel to -b [0 -1 0]
Raman shift (cm-1)	intensity
117.295	0
122.247	308.162
127.196	998.383
132.143	2120.56
137.086	2639.87
142.026	1217.26
146.963	237.102
151.898	52.2251
156.829	56.0107
161.758	225.277
166.683	76.001
171.606	107.705
176.526	225.606
181.442	73.165
186.356	209.965
191.267	204.663
196.175	279.571
201.08	362.622
205.983	246.21
210.882	288.041
215.778	345.091
220.672	439.904
225.563	579.434
230.45	812.801
235.335	637.062
240.217	459.155
245.096	318.944
249.973	348.415
254.846	306.551
259.716	380.341
264.584	185.519
269.449	180.27
274.31	60.7612
279.169	13.5083
284.026	14.5088
288.879	412.003
293.729	798.878
298.577	1205.8
303.422	2054.44
308.263	3355.74
313.103	5640.32
317.939	8301.14
322.772	9104.89
327.603	6639.36
332.43	4406.07
337.255	3339.05
342.077	3066.49
346.896	3654.05
351.713	4118.18
356.526	3975.47
361.337	3245.63
366.145	3057.48
370.95	3509.01
375.753	5354.21
380.552	8659.08
385.349	12145.6
390.143	11328.8
394.934	5722.6
399.722	2271.05
404.508	1025.15
409.29	582.883
414.07	232.332
418.848	138.454
423.622	36.021
428.394	39.2236
433.163	83.5186
437.929	26.2065
442.692	122.159
447.453	74.0752
452.21	162.61
456.966	242.855
461.718	266.041
466.467	388.266
471.214	213.288
475.958	357.954
480.699	222.431
485.438	210.386
490.174	258.756
494.907	343.519
499.637	426.692
504.365	709.314
509.09	999.392
513.812	1067.92
518.531	1182.89
523.248	1472.31
527.962	1484.15
532.673	1331.43
537.382	917.143
542.088	798.274
546.791	789.827
551.491	1057.8
556.189	1278.33
560.884	1018.49
565.576	802.378
570.266	736.296
574.953	422.92
579.637	527.127
584.319	392.913
588.998	492.599
593.674	445.683
598.348	613.397
603.018	836.838
607.687	693.491
612.352	577.26
617.015	944.27
621.675	1521.94
626.333	1927.43
630.988	1542.12
635.64	1314.82
640.289	1609.73
644.936	2405.08
649.581	3422.84
654.222	5288.01
658.861	9265.62
663.497	13882.6
668.131	12014.1
672.762	6284.07
677.391	2868.47
682.016	1443.33
686.639	743.688
691.26	420.537
695.878	260.892
700.493	245.774
705.106	179.267
709.716	92.5928
714.323	13.2095
718.928	18.7349
723.53	88.8042
728.13	45.1802
732.727	74.3081
737.321	18.4185
741.913	37.7852
746.502	3.45801
751.089	46.8481
755.673	116.989
760.254	6.01709
764.833	285.787
769.41	257.377
773.983	188.811
778.554	269.12
783.123	121.226
787.689	262.227
792.252	241.116
796.813	311.918
801.371	250.659
805.927	300.367
810.48	323.064
815.031	424.773
819.579	600.517
824.124	716.315
828.667	664.19
833.208	851.863
837.745	788.78
842.281	1014.51
846.813	1448.58
851.344	1794.9
855.871	2558.16
860.396	2610.26
864.919	2189.15
869.439	1638.76
873.957	1500.92
878.472	1291.17
882.984	1266.65
887.494	1346.8
892.002	1457.91
896.507	1636.68
901.009	1536.33
905.509	1416.29
910.006	1177.52
914.501	872.94
918.994	652.926
923.484	488.47
927.971	460.635
932.456	384.734
936.938	317.751
941.418	185.47
945.896	22.9355
950.371	162.13
954.843	295.945
959.313	337.375
963.781	516.423
968.246	461.093
972.709	476.39
977.169	573.319
981.626	757.89
986.082	1279.16
990.534	1616.31
994.985	2933.44
999.432	6228.64
1003.88	11843.7
1008.32	22549.8
1012.76	31391.9
1017.2	19362.9
1021.63	8413.38
1026.07	4564.98
1030.5	3093.89
1034.93	2326.62
1039.35	1989.68
1043.78	1790.7
1048.2	1421.22
1052.62	1041.15
1057.03	792.518
1061.44	482.091
1065.86	465.578
1070.27	430.107
1074.67	635.309
1079.08	912.174
1083.48	1063.97
1087.88	872.814
1092.27	667.938
1096.67	539.328
1101.06	370.972
1105.45	407.856
1109.84	549.237
1114.22	570.289
1118.6	537.812
1122.98	381.521
1127.36	387.396
1131.73	458.419
1136.11	154.575
1140.48	73.8467
1144.85	11.21
1149.21	98.9219
1153.58	96.9082
1157.94	26.9912
1162.3	47.5674
1166.65	45.6934
1171.01	46.9404
1175.36	95.5371
1179.7	65.0986
1184.05	124.441
1188.4	41.8975
1192.74	11.6836
1197.08	14.6787
1201.41	44.4756
1205.75	14.9609
1210.08	6.78613
1214.41	268.127
1218.74	217.976
1223.07	158.754
1227.39	293.463
1231.71	441.1
1236.03	471.663
1240.34	416.149
1244.66	510.563
1248.97	609.918
1253.28	649.308
1257.59	622.733
1261.89	949.268
1266.19	1242.84
1270.49	1350.34
1274.79	1499.79
1279.09	1333.87
1283.38	980.569
1287.67	1011.82
1291.96	1039.46
1296.24	1198.03
1300.53	1197.02
1304.81	1171.29
1309.09	1548.51
1313.37	1605.78
1317.64	1572.24
1321.91	1531.38
1326.18	1165.72
1330.45	657.766
1334.71	288.656
1338.98	354.09
1343.24	154.87
1347.5	260.795
1351.75	300.867
1356.01	228.084
1360.26	129.455
1364.51	84.9902
1368.76	211.7
1373	419.791
1377.24	402.201
1381.48	539.374
1385.72	519.138
1389.96	490.023
1394.19	383.115
1398.42	249.496
1402.65	386.192
1406.88	490.385
1411.1	340.993
1415.33	338.97
1419.55	286.525
1423.76	255.049
1427.98	377.594
1432.19	676.345
1436.4	1111.12
1440.61	2004.03
1444.82	2469.02
1449.03	2961.91
1453.23	3220.09
1457.43	3225.01
1461.62	2790.89
1465.82	2083.25
1470.02	1447.14
1474.21	1241.31
1478.39	1171.28
1482.58	939.291
1486.77	766.778
1490.95	349.728
1495.13	96.2881
1499.31	7.59961
1503.48	29.2285
1507.66	81.9961
1511.83	69.9082
1516	135.043
1520.16	217.89
1524.33	341.808
1528.49	448.082
1532.65	487.199
1536.81	338.248
1540.97	272.595
1545.12	308.694
1549.27	338.808
1553.42	262.935
1557.57	263.769
1561.71	142.189
