Measurement: Raman, 514 nm, ccw, Raman Data Processed
Mineral: Diopside
Rruff sample: R040009
Ideal chemistry: CaMgSi_2_O_6_
Locality: Otter Lake, Quebec, Canada
Source: University of Arizona Mineral Museum
Description: Green square prismatic crystal associated with pale orange calcite
Measured chemistry: (Ca_0.97_Fe_0.02_Na_0.01_)_Σ=1_(Mg_0.97_Fe_0.02_Al_0.01_)_Σ=1_Si_2.00_O_6_; trace amounts of Mn and Ti
Pin_id: M00219
Orientation: Laser parallel to [-1 0 -1]. Fiducial mark perpendicular to laser is parallel to b* (0 1 0)
Raman shift (cm-1)	intensity
100.34	0
104.516	45.779
108.691	170.693
112.864	266.264
117.034	365.959
121.203	225.283
125.369	550.638
129.534	1331.19
133.696	2618.03
137.857	6260.88
142.016	3632.83
146.172	1293.25
150.327	565.67
154.48	375.354
158.63	265.08
162.779	289.616
166.926	263.753
171.07	315.31
175.213	339.152
179.354	549.194
183.493	468.346
187.63	258.228
191.765	311.626
195.898	220.926
200.029	104.225
204.158	150.377
208.285	133.4
212.41	241.133
216.533	301.439
220.654	171.281
224.773	500.537
228.891	715.195
233.006	435.233
237.119	143.633
241.231	142.378
245.34	185.724
249.448	318.516
253.553	415.742
257.657	232.42
261.758	2.469
265.858	94.814
269.956	99.453
274.052	73.109
278.146	39.475
282.237	316.412
286.327	150.047
290.416	249.633
294.502	201.367
298.586	269.973
302.668	591.412
306.749	279.357
310.827	614.238
314.903	1264.09
318.978	2727.63
323.051	4835
327.121	2858.75
331.19	1451.81
335.257	638.035
339.322	451.473
343.385	552.102
347.446	397.902
351.505	941.846
355.563	1393.95
359.618	1367.16
363.672	1317.51
367.723	1357.98
371.773	636.57
375.821	682.256
379.866	1110.03
383.91	2187.09
387.952	4464.07
391.992	4042.05
396.031	1868.76
400.067	568.352
404.101	420.936
408.134	274.01
412.165	346.182
416.193	143.051
420.22	130.465
424.245	286.652
428.268	184.387
432.289	291.396
436.309	30.627
440.326	15.363
444.342	16.338
448.355	115.566
452.367	180.617
456.377	183.68
460.385	121.641
464.391	30.98
468.395	35.516
472.398	463.27
476.398	208.264
480.397	57.148
484.394	176.934
488.389	102.615
492.382	78.135
496.373	57.604
500.362	126.984
504.349	236.287
508.335	207.502
512.319	240.609
516.3	419.631
520.28	274.59
524.259	213.412
528.235	381.092
532.209	106.631
536.182	246.023
540.152	111.264
544.121	227.223
548.088	249.443
552.053	163.553
556.017	7.133
559.978	47.6
563.938	68.547
567.895	165.059
571.851	37.867
575.805	105.164
579.758	521.744
583.708	119.994
587.657	210.664
591.603	2.426
595.548	259.793
599.491	245.025
603.432	189.717
607.372	44.984
611.309	80.248
615.245	344.48
619.179	340.131
623.111	235.189
627.041	700.801
630.97	767.309
634.896	234.646
638.821	527.754
642.744	562.164
646.665	886.973
650.584	1209.4
654.502	2388.47
658.418	4619.99
662.331	8881.58
666.244	11643.9
670.154	6851.98
674.062	3228.39
677.969	1908.64
681.874	1445.77
685.777	828.537
689.678	752.631
693.577	521.834
697.475	474.959
701.371	626.551
705.265	1026.07
709.157	634.4
713.047	278.354
716.936	12.252
720.823	278.285
724.708	192.018
728.591	565.551
732.472	78.033
736.352	392.004
740.23	251.242
744.106	135.27
747.98	260.697
751.853	38.166
755.723	28.629
759.592	302.027
763.459	90.309
767.325	19.451
771.188	92.35
775.05	327.109
778.91	100.582
782.768	112.283
786.625	0.908
790.479	140.986
794.332	559.752
798.183	100.145
802.033	158.578
805.88	395.061
809.726	80.705
813.57	331.146
817.413	15.154
821.253	165.418
825.092	330.098
828.929	609.586
832.764	236.529
836.598	494.957
840.429	754.264
844.259	688.484
848.088	696.594
851.914	1125.62
855.739	1945.79
859.562	849.352
863.383	614.771
867.203	626.547
871.02	687.934
874.836	430.188
878.65	537.996
882.463	570.9
886.274	187.926
890.083	555.846
893.89	442.838
897.695	537.559
901.499	493.828
905.301	441.562
909.102	335.73
912.9	479.219
916.697	173.055
920.492	379.41
924.285	638.695
928.077	601.516
931.867	314.223
935.655	59.746
939.442	294.211
943.226	703.891
947.009	503.266
950.791	516.344
954.57	802.121
958.348	482.242
962.124	255.926
965.899	578.199
969.671	520.789
973.442	418.43
977.211	529.832
980.979	228.598
984.745	529.504
988.509	881.453
992.271	737.684
996.032	1270.73
999.791	1671.87
1003.55	1898.06
1007.3	4348.12
1011.06	8658.85
1014.81	6947.07
1018.56	2779.85
1022.31	1603.67
1026.06	1181.64
1029.8	1088.73
1033.55	1378.08
1037.29	1133.36
1041.03	786.031
1044.77	1198.4
1048.5	1426.35
1052.24	1116.42
1055.97	960.77
1059.7	965.109
1063.43	772.27
1067.16	957.227
1070.89	881.492
1074.61	677.402
1078.34	912.129
1082.06	294.812
1085.78	410.547
1089.5	258.594
1093.21	43.023
1096.93	370.977
1100.64	53.109
1104.35	272.074
1108.06	79.766
1111.77	54.832
1115.48	223.145
1119.18	50.785
1122.89	159.633
1126.59	311.961
1130.29	445.371
1133.99	16.434
1137.68	665.863
1141.38	94.484
1145.07	322.719
1148.76	92.836
1152.45	427.445
1156.14	186.855
1159.83	263.449
1163.51	17.164
1167.19	304.148
1170.88	124.25
1174.56	465.902
1178.23	356.727
1181.91	356.695
1185.59	191.984
1189.26	465.637
1192.93	322.598
1196.6	683.188
1200.27	444.012
1203.94	854.062
1207.6	163.879
1211.27	517.125
1214.93	671.656
1218.59	492.395
1222.25	277.145
1225.9	672.297
1229.56	654.945
1233.21	666.629
1236.86	988.004
1240.51	906.48
1244.16	533.691
1247.81	303.98
1251.45	297.09
1255.1	359.504
1258.74	599.07
1262.38	583.352
1266.02	273.484
1269.66	86.609
1273.29	302.875
1276.93	198.219
1280.56	354.891
1284.19	450.594
1287.82	312.504
1291.45	303.738
1295.07	238.266
1298.7	459.91
1302.32	68.684
1305.94	22.52
1309.56	299.555
1313.18	9.152
1316.8	194.852
1320.41	0
