Measurement: Raman, 514 nm, ccw, Raman Data Processed
Mineral: Dioptase
Rruff sample: R040028
Ideal chemistry: CuSiO_3_H_2_O
Locality: Tantara mine, Democratic Republic of the Congo
Source: University of Arizona Mineral Museum
Description: Bluish green coarsely crystallized fragment
Measured chemistry: Cu_1.00_Si_1.00_O_3_Â·H_2_O; H_2_O estimated by difference
Pin_id: M00034
Orientation: Laser parallel to -c* (0 0 -1). Fiducial mark perpendicular to laser is parallel to -a [-1 0 0]
Raman shift (cm-1)	intensity
87.106	0
91.298	597.829
95.488	2664.36
99.676	7272.09
103.863	1335.6
108.047	1540.7
112.229	2496.84
116.409	4102.02
120.587	4845.33
124.764	4511.07
128.938	10485.1
133.11	24619.8
137.28	24783.7
141.448	7756.98
145.614	520.798
149.778	400.689
153.94	215.578
158.1	3974.49
162.258	8946.21
166.414	2991.72
170.568	832.274
174.72	2480.84
178.87	8683.34
183.018	6135.59
187.164	2547.24
191.308	1417.68
195.45	2578.33
199.59	2468.77
203.728	2193.42
207.864	2961.95
211.998	4666.46
216.13	8795.42
220.261	19078.7
224.389	33804.5
228.515	28510
232.639	13384.7
236.761	5878.74
240.881	3061.92
244.999	1594.3
249.116	235.899
253.23	78.597
257.342	1129.5
261.452	5573.47
265.561	17087.1
269.667	11369.1
273.772	5008.29
277.874	3555.41
281.974	4151.07
286.073	5978.8
290.17	9553.84
294.264	9458.68
298.357	4283.01
302.447	1286.77
306.536	26.289
310.623	409.329
314.708	457.771
318.79	160.741
322.871	867.529
326.95	2199.35
331.027	1090.14
335.102	303.387
339.175	6.613
343.247	211.926
347.316	1479.34
351.383	5362.84
355.448	21035.5
359.512	24907.2
363.573	9336.58
367.633	4370.59
371.69	2562.39
375.746	2183.55
379.8	2503.16
383.852	3411.86
387.901	5170.09
391.949	9437.87
395.995	20795.2
400.039	30382
404.082	18848.4
408.122	8404.41
412.16	5228.34
416.197	5039.23
420.231	5530.26
424.264	5683.53
428.294	6186.73
432.323	6832.11
436.35	6851.85
440.375	6146.93
444.398	5308.81
448.419	4941.04
452.438	4824.84
456.455	4749.58
460.471	3086.97
464.484	2154.93
468.496	1573.66
472.505	1111.9
476.513	854.211
480.519	766.837
484.523	992.198
488.525	1134.15
492.525	954.095
496.524	667.705
500.52	736.064
504.514	766.195
508.507	978.542
512.498	1189.1
516.487	1577.2
520.474	1774.84
524.459	1522.06
528.442	1341.07
532.423	1275.7
536.403	1019.11
540.38	797.239
544.356	599.201
548.33	623.901
552.302	1010.31
556.272	1960.44
560.24	3195.3
564.206	3839.89
568.171	3244.24
572.133	2728.39
576.094	2002.62
580.053	1066.9
584.01	397.939
587.965	169.709
591.918	100.158
595.869	84.815
599.819	152.639
603.767	205.473
607.713	116.483
611.657	104.459
615.599	66.251
619.539	191.627
623.477	110.407
627.414	406.516
631.349	592.677
635.281	702.988
639.212	1141.09
643.142	1932.07
647.069	3263.73
650.994	5795.3
654.918	11596.2
658.84	22336.6
662.76	21818.1
666.678	12490.6
670.594	6716.53
674.509	3719.37
678.421	2405.19
682.332	1703.59
686.241	1275.36
690.148	893.716
694.054	708.029
697.957	588.542
701.859	620.454
705.759	573.59
709.657	583.987
713.553	761.095
717.447	853.734
721.34	1165.8
725.231	1746.24
729.12	2838.14
733.007	4170.89
736.892	6702.78
740.775	9694.44
744.657	9934.52
748.537	6862.14
752.415	3979.5
756.291	2371.66
760.166	1507.13
764.038	1130.39
767.909	800.558
771.778	428.759
775.645	274.366
779.511	200.307
783.374	218.649
787.236	372.531
791.096	220.548
794.955	171.693
798.811	181.958
802.666	230.334
806.518	268.843
810.37	234.49
814.219	103.286
818.066	136.212
821.912	10.615
825.756	1.624
829.598	93.547
833.438	24.785
837.277	115.963
841.114	107.862
844.949	34.128
848.782	7.792
852.613	13.772
856.443	37.132
860.271	5.138
864.097	45.234
867.922	28.438
871.744	56.764
875.565	51.182
879.384	72.684
883.201	15.644
887.017	29.19
890.831	189.22
894.643	219.445
898.453	392.885
902.261	411.58
906.068	606.632
909.873	1176.27
913.676	1875.55
917.477	1933.51
921.277	1482.06
925.075	910.113
928.871	780.607
932.666	736.468
936.458	696.568
940.249	853.898
944.038	860.456
947.826	937.243
951.611	1010.27
955.395	1394.54
959.178	1828.67
962.958	1701.22
966.737	1342.3
970.514	1248.61
974.289	1226.18
978.062	1144.81
981.834	1270.84
985.604	1561.33
989.373	2042.91
993.139	2727.67
996.904	3729.18
1000.67	5951.79
1004.43	10594
1008.19	12444.2
1011.95	10819.4
1015.7	11132.1
1019.46	10566.1
1023.21	9290.9
1026.96	7933.55
1030.71	6729.12
1034.46	4905.64
1038.2	3643.28
1041.95	2421.19
1045.69	1679.37
1049.43	1317.83
1053.17	990.557
1056.91	1053.54
1060.64	853.782
1064.38	818.281
1068.11	629.049
1071.84	519.052
1075.57	384.301
1079.29	441.783
1083.02	320.489
1086.74	305.441
1090.46	257.621
1094.19	142.006
1097.9	128.584
1101.62	60.493
1105.34	79.802
1109.05	32.591
1112.76	188.397
1116.47	12.84
1120.18	38.627
1123.89	56.403
1127.59	72.375
1131.29	36.651
1135	50.402
1138.7	77.492
1142.39	220.704
1146.09	264.123
1149.79	222.536
1153.48	202.654
1157.17	228.034
1160.86	293.417
1164.55	279.898
1168.23	298.89
1171.92	365.892
1175.6	319.055
1179.28	242.265
1182.96	154.771
1186.64	161.284
1190.32	127.105
1193.99	130.568
1197.67	117.813
1201.34	105.116
1205.01	197.876
1208.67	96.297
1212.34	67.719
1216.01	115.954
1219.67	116.725
1223.33	164.164
1226.99	164.381
1230.65	147.995
1234.31	218.339
1237.96	146.664
1241.61	112.68
1245.26	13.483
1248.91	3.929
1252.56	15.271
1256.21	16.989
1259.85	53.757
1263.5	12.853
1267.14	94.25
1270.78	58.45
1274.42	0.65
1278.05	95.601
1281.69	10.926
1285.32	59.672
1288.95	8.42
1292.58	154.668
1296.21	111.625
1299.84	106.385
1303.46	36.89
1307.09	2.116
1310.71	14.05
1314.33	7.794
1317.95	58.282
1321.56	66.578
1325.18	105.662
1328.79	105.561
1332.41	130.308
1336.02	115.899
1339.62	39.32
1343.23	61.561
1346.84	109.641
1350.44	46.571
1354.04	118.347
1357.64	145.969
1361.24	120.494
1364.84	177.291
1368.44	158.728
1372.03	102.951
1375.62	17.545
1379.21	54.374
1382.8	81.741
1386.39	103.014
1389.98	91.355
1393.56	172.069
1397.15	242.57
1400.73	220.029
1404.31	197.69
1407.88	139.217
1411.46	121.389
1415.04	181.404
1418.61	86.873
1422.18	132.68
1425.75	134.305
1429.32	106.58
1432.89	149.852
1436.45	219.85
1440.02	268.919
1443.58	210.647
1447.14	185.443
1450.7	137.462
1454.26	175.735
1457.81	109.656
1461.37	156.383
1464.92	138.439
1468.47	200.364
1472.02	277.639
1475.57	277.708
1479.11	270.271
1482.66	155.504
1486.2	194.186
1489.74	206.377
1493.28	150.203
1496.82	98.77
1500.36	40.793
1503.89	16.276
1507.42	69.919
1510.96	107.034
1514.49	99.586
1518.02	88.57
