Measurement: Raman, 514 nm, ccw, Raman Data Processed
Mineral: Diopside
Rruff sample: R050666
Ideal chemistry: CaMgSi_2_O_6_
Locality: Franklin, Sussex County, New Jersey, USA
Source: University of Arizona Mineral Museum
Description: Brown cleavage fragment with white hardystonite
Measured chemistry: Ca(Mg_0.66_Mn_0.33_Fe_0.01_)Si_2_O_6_
Pin_id: L00874
Orientation: Laser parallel to -b* (0 -1 0). Fiducial mark perpendicular to laser is parallel to -c [0 0 -1]
Raman shift (cm-1)	intensity
109.512	0
114.44	967.866
119.365	215.245
124.288	88.0142
129.209	457.696
134.127	588.273
139.043	309.74
143.956	5.09131
148.867	26.0835
153.775	10.6643
158.681	40.9228
163.585	149.988
168.486	521.91
173.385	1300.45
178.282	572.493
183.176	234.983
188.067	257.69
192.956	276.913
197.843	319.566
202.727	329.733
207.609	81.4016
212.489	211.585
217.366	302.955
222.24	774.748
227.112	1866.27
231.982	3336.83
236.849	1823.36
241.714	910.885
246.577	656.405
251.437	662.917
256.294	686.308
261.149	753.148
266.002	608.895
270.852	590.451
275.7	567.696
280.545	532.195
285.388	592.19
290.229	779.381
295.067	1264.43
299.902	2446.24
304.735	4918.78
309.566	8554.3
314.394	11066.8
319.22	7749.3
324.043	4303.98
328.864	2592.51
333.682	2170.82
338.498	2176.27
343.311	2400.64
348.122	2183.94
352.931	1150.03
357.737	678.473
362.54	514.071
367.341	654.673
372.14	843.245
376.936	1275.78
381.73	1382.28
386.521	1131.74
391.31	542.177
396.096	289.581
400.88	151.935
405.661	94.0955
410.44	73.0874
415.216	16.9971
419.99	3.13306
424.761	4.42505
429.53	44.9153
434.297	48.2398
439.061	19.6672
443.822	98.687
448.581	221.195
453.337	138.984
458.091	101.543
462.843	31.8877
467.592	39.876
472.338	10.2876
477.082	105.668
481.824	64.4873
486.563	150.519
491.3	546.556
496.034	1835.58
500.765	3406.57
505.494	1641.57
510.221	745.522
514.945	391.416
519.666	392.248
524.385	442.195
529.102	330.332
533.816	290.664
538.527	148.974
543.236	249.263
547.943	456.335
552.647	642.216
557.348	514.208
562.047	280.07
566.744	211.338
571.438	164.731
576.129	103.592
580.818	24.9512
585.504	25.7173
590.188	39.0181
594.87	114.43
599.549	38.3491
604.225	136.125
608.899	279.325
613.57	414.732
618.239	470.705
622.905	676.659
627.569	1181.64
632.23	1524.06
636.889	2140.71
641.545	3399.36
646.198	6287.08
650.849	13472
655.498	27600.8
660.144	35024.5
664.787	22146.1
669.428	10239.7
674.067	5029.29
678.703	2711.95
683.336	1699.89
687.967	1203.8
692.595	970.753
697.221	735.249
701.844	582.64
706.465	449.558
711.083	316.263
715.698	210.858
720.311	137.208
724.922	80.269
729.53	188.225
734.135	141.256
738.738	144.183
743.338	90.6445
747.936	110.198
752.531	82.4683
757.124	40.5034
761.714	74.3594
766.302	35.918
770.887	112.966
775.469	42.6528
780.049	3.05273
784.626	43.8057
789.201	62.3115
793.773	3.4956
798.343	109.678
802.91	31.6699
807.475	161.444
812.037	111.964
816.596	22.0278
821.153	107.695
825.707	22.0347
830.259	69.0088
834.808	26.6069
839.355	136.454
843.899	106.339
848.441	347.06
852.98	293.624
857.516	219.88
862.05	267.105
866.581	332.648
871.11	409.382
875.636	412.336
880.159	327.737
884.68	378.182
889.199	328.823
893.714	258.95
898.228	325.836
902.738	340.872
907.246	360.099
911.752	325.389
916.255	297.515
920.755	487.101
925.253	303.106
929.748	270.243
934.241	357.143
938.731	147.062
943.218	79.0518
947.703	313.016
952.186	225.418
956.665	336.01
961.142	345.968
965.617	417.622
970.089	508.82
974.558	633.715
979.025	915.808
983.489	1079.77
987.951	1581.91
992.41	2440.23
996.866	4224.76
1001.32	8851.47
1005.77	22506.4
1010.22	50874.5
1014.67	44644.9
1019.11	16274.4
1023.55	6784.43
1027.99	4259.72
1032.42	3365.93
1036.86	3152.81
1041.29	2936.6
1045.72	2001.09
1050.14	1411.99
1054.56	941.089
1058.98	930.106
1063.4	822.009
1067.82	657.055
1072.23	613.309
1076.64	583.455
1081.05	516.089
1085.45	579.517
1089.85	606.782
1094.25	517.112
1098.65	488.728
1103.04	349.3
1107.43	448.127
1111.82	378.964
1116.21	540.779
1120.59	1018.93
1124.97	843.033
1129.35	376.229
1133.73	325.5
1138.1	108.627
1142.47	249.032
1146.84	75.4932
1151.21	119.007
1155.57	65.5557
1159.93	72.1465
1164.29	59.7441
1168.64	27.333
1172.99	38.2676
1177.34	105.872
1181.69	9.90234
1186.04	99.8398
1190.38	54.5957
1194.72	117.259
1199.05	74.7324
1203.39	117.058
1207.72	80.7305
1212.05	91.4453
1216.37	205.935
1220.7	15.3037
1225.02	78.5508
1229.34	54.6553
1233.65	57.6787
1237.97	159.615
1242.28	111.44
1246.59	118.189
1250.89	261.856
1255.19	85.4238
1259.49	261.89
1263.79	144.262
1268.09	76.5234
1272.38	55.6719
1276.67	107.09
1280.95	176.143
1285.24	188.064
1289.52	187.523
1293.8	204.189
1298.08	226.32
1302.35	151.676
1306.62	206.985
1310.89	231.266
1315.15	115.814
1319.42	260.671
1323.68	281.104
1327.94	335.354
1332.19	308.74
1336.44	329.179
1340.69	172.728
1344.94	39.6602
1349.19	238.801
1353.43	163.89
1357.67	86.7988
1361.9	170.269
1366.14	142.741
1370.37	271.289
1374.6	291.014
1378.83	239.481
1383.05	35.7393
1387.27	112.928
1391.49	212.053
1395.7	123.412
1399.92	79.7861
1404.13	173.977
1408.34	35.2207
1412.54	52.2363
1416.74	75.3272
1420.94	22.667
1425.14	165.494
1429.34	36.3252
1433.53	122.192
1437.72	122.993
1441.9	123.772
1446.09	8.69141
1450.27	80.9141
1454.45	113.638
1458.63	12.2949
1462.8	99.0059
1466.97	88.4766
1471.14	95.0205
1475.31	33.6377
1479.47	56.2998
1483.63	192.548
1487.79	84.9316
1491.94	40.9131
1496.09	20.1855
1500.24	83.2939
1504.39	82.9443
1508.54	92.7529
1512.68	170.605
1516.82	97.0371
1520.95	70.6289
1525.09	33.041
1529.22	82.2871
1533.35	56.373
1537.47	298.703
1541.6	91.8828
1545.72	86.792
1549.83	189.353
1553.95	202.838
1558.06	111.936
1562.17	133.93
1566.28	112.623
1570.38	0.822266
