Measurement: Raman, 514 nm, ccw, Raman Data Processed
Mineral: Dioptase
Rruff sample: R050010
Ideal chemistry: CuSiO_3_H_2_O
Locality: Tsumeb mine, Tsumeb, Otavi District, Oshikoto, Namibia
Source: Eugene Schlepp
Description: Bluish green single crystals
Measured chemistry: Cu_1.00_Si_1.00_O_3_Â·H_2_O ; trace amounts of Mg and Al; OH estimated by difference
Pin_id: M00232
Orientation: Laser parallel to a* (1 0 0). Fiducial mark perpendicular to laser is parallel to c [0 0 1]
Raman shift (cm-1)	intensity
87.064	0
91.262	43.442
95.458	884.073
99.652	1980.8
103.843	587.377
108.033	1694.44
112.22	2991.55
116.406	3531.18
120.589	4109.73
124.77	8699.22
128.949	19412.4
133.126	20454.8
137.301	13923.6
141.473	4087.46
145.644	876.477
149.812	695.727
153.979	2780.09
158.143	6365.63
162.305	5438.07
166.465	2388
170.623	2905.82
174.778	7100.77
178.932	8854.08
183.083	5656.81
187.233	3309.54
191.38	2732.63
195.525	3246.23
199.669	3123.6
203.81	3508.48
207.949	5073.33
212.085	8737.84
216.22	17375.2
220.353	30171.1
224.483	33168
228.612	21695.7
232.738	10613.9
236.863	4952.31
240.985	2572.03
245.105	1063
249.223	323.204
253.339	776.031
257.453	4268.83
261.565	13544.6
265.675	16306
269.783	8331.33
273.888	4329.85
277.992	3431.02
282.093	4374.46
286.193	6659.83
290.29	8996.69
294.386	6284.65
298.479	2023.43
302.57	63.747
306.659	602.854
310.746	776.833
314.831	596.014
318.914	130.006
322.995	1311.44
327.074	1280.6
331.151	326.507
335.226	116.896
339.299	19.006
343.37	687.387
347.438	3502.61
351.505	14197.7
355.57	29958.5
359.632	19329.2
363.693	7687.05
367.751	3810.27
371.808	2613.9
375.862	2565.37
379.914	3056.9
383.965	4554.4
388.013	8399.9
392.06	16901.4
396.104	29822.9
400.146	27524.3
404.186	14655.7
408.225	7367.05
412.261	5318.34
416.295	5609.6
420.327	6311.01
424.357	6872.49
428.386	7044.35
432.412	7285.16
436.436	7082.3
440.458	6345.02
444.478	5242.39
448.496	4744.23
452.513	4345.98
456.527	3545.49
460.539	2524.76
464.549	1814.5
468.557	1236.4
472.563	890.044
476.567	769.495
480.57	818.838
484.57	909.408
488.568	1008.64
492.564	814.526
496.558	692.04
500.551	700.042
504.541	887.854
508.529	1161.43
512.515	1497.69
516.5	1679.62
520.482	1741.25
524.462	1605.63
528.441	1461.87
532.417	1244.04
536.391	1076.11
540.364	821.059
544.334	835.913
548.303	986.646
552.269	1475.2
556.234	2731.52
560.197	4048.64
564.157	4111.56
568.116	3198.27
572.073	2526.75
576.027	1689.98
579.98	780.946
583.931	381.65
587.88	133.081
591.827	28.911
595.772	115.78
599.715	138.933
603.656	196.553
607.595	120.739
611.532	28.2
615.468	57.648
619.401	79.151
623.332	295.556
627.262	502.329
631.189	647.557
635.115	1042.4
639.039	1638.08
642.96	2609.59
646.88	4433.86
650.798	8786.9
654.714	18641.9
658.628	26637.3
662.54	19922.5
666.45	10867.6
670.358	6032.53
674.264	3851.08
678.169	2429.11
682.071	1662.06
685.972	1217.94
689.87	949.119
693.767	780.881
697.662	676.928
701.555	556.305
705.446	542.469
709.335	576.038
713.222	687.545
717.107	809.259
720.99	1186.24
724.872	1657.11
728.751	2619.51
732.629	4229.68
736.504	6588.62
740.378	8269.35
744.25	7118.22
748.12	4892.16
751.988	3102.81
755.854	1837.48
759.719	1143.93
763.581	998.554
767.442	767.497
771.3	346.229
775.157	324.948
779.012	284.943
782.865	273.236
786.716	234.463
790.565	292.603
794.413	291.641
798.258	272.576
802.102	261.413
805.943	169.157
809.783	177.819
813.621	135.391
817.457	71.292
821.292	41.26
825.124	66.559
828.954	33.764
832.783	10.166
836.61	40.316
840.435	75.797
844.258	50.648
848.079	28.802
851.898	31.233
855.715	75.93
859.531	184.029
863.345	13.928
867.157	1.028
870.967	29.764
874.775	45.542
878.581	15.048
882.386	32.623
886.188	61.191
889.989	133.756
893.788	230.324
897.585	377.911
901.38	619.651
905.174	917.78
908.965	1562.48
912.755	2010.84
916.543	1795.84
920.329	1182.3
924.113	925.139
927.895	780.185
931.676	793.31
935.454	681.478
939.231	736.688
943.006	765.944
946.78	982.251
950.551	1280.38
954.32	1558.12
958.088	1721.87
961.854	1455.43
965.618	1088.27
969.38	1061.25
973.141	1035.15
976.9	1215.23
980.656	1390.47
984.411	1794.36
988.165	2223.36
991.916	3026.92
995.665	4532.9
999.413	7691.03
1003.16	12163.3
1006.9	11956.6
1010.65	10965
1014.39	11175.9
1018.12	10516.9
1021.86	8985.21
1025.6	7312.99
1029.33	5402.82
1033.06	3850.98
1036.79	2621.26
1040.52	1912.66
1044.25	1438.18
1047.97	1138.82
1051.69	917.57
1055.41	778.432
1059.13	636.398
1062.85	561.457
1066.57	422.6
1070.28	347.823
1073.99	267.12
1077.7	206.488
1081.41	170.922
1085.12	147.617
1088.82	94.323
1092.52	187.297
1096.22	132.378
1099.92	54.361
1103.62	14.936
1107.32	47.756
1111.01	1.186
1114.7	19.401
1118.39	106.192
1122.08	221.952
1125.77	91.408
1129.45	107.417
1133.14	141.915
1136.82	159.208
1140.5	207.367
1144.18	213.628
1147.85	215.557
1151.53	248.048
1155.2	292.366
1158.87	269.835
1162.54	254.796
1166.21	277.147
1169.88	291.734
1173.54	314.962
1177.2	286.934
1180.86	234.995
1184.52	152.702
1188.18	195.429
1191.83	161.258
1195.49	145.893
1199.14	139.605
1202.79	145.094
1206.44	127.526
1210.08	131.94
1213.73	171.381
1217.37	137.904
1221.01	143.58
1224.65	117.963
1228.29	62.058
1231.93	58.172
1235.56	53.793
1239.19	14.959
1242.83	22.112
1246.46	32.366
1250.08	39.626
1253.71	7.702
1257.33	35.742
1260.96	8.529
1264.58	4.549
1268.19	2.426
1271.81	17.267
1275.43	20.668
1279.04	1.73
1282.65	27.565
1286.27	22.917
1289.87	22.297
1293.48	7.635
1297.09	39.474
1300.69	47.115
1304.29	27.552
1307.89	8.208
1311.49	41.763
1315.09	59.501
1318.68	84.99
1322.28	104.262
1325.87	129.348
1329.46	104.224
1333.05	142.914
1336.63	100.413
1340.22	64.715
1343.8	118.821
1347.38	86.734
1350.96	95.463
1354.54	109.011
1358.12	69.809
1361.69	77.005
1365.26	106.031
1368.83	91.876
1372.4	83.504
1375.97	63.775
1379.54	50.889
1383.1	126.254
1386.66	69.025
1390.23	53.738
1393.79	29.255
1397.34	43.182
1400.9	78.983
1404.45	84.632
1408.01	15.821
1411.56	20.849
1415.11	62.42
1418.66	35.509
1422.2	142.585
1425.75	51.427
1429.29	66.874
1432.83	33.974
1436.37	55.506
1439.91	72.623
1443.44	51.569
1446.98	43.708
1450.51	39.633
1454.04	36.259
1457.57	31.465
1461.1	60.443
1464.63	40.12
1468.15	86.959
1471.67	69.053
1475.19	52.406
1478.71	86.931
1482.23	58.748
1485.75	76.248
1489.26	18.162
1492.78	50.727
1496.29	6.6
1499.8	28.243
1503.31	31.467
1506.81	39.228
1510.32	33.599
1513.82	30.567
1517.32	6.56
