Measurement: Raman, 514 nm, ccw, Raman Data Processed
Mineral: Diopside
Rruff sample: R060276
Ideal chemistry: CaMgSi_2_O_6_
Locality: Inagli, Yakutia, Siberia, Russia
Source: Herb Obodda
Description: Transparent green cleavage fragment
Measured chemistry: (Ca_0.97_Na_0.03_)_Σ=1_(Mg_0.96_Fe_0.03_Cr_0.01_)_Σ=1_(Si_1.98_Al_0.02_)_Σ=2_O_6_
Pin_id: L01321
Orientation: Laser parallel to (1 0 1). Fiducial mark perpendicular to laser is parallel to -b [0 -1 0]
Raman shift (cm-1)	intensity
109.512	0
114.44	62.2363
119.365	91.7578
124.288	59.7297
129.209	229.591
134.127	349.664
139.043	451.665
143.956	382.39
148.867	50.4658
153.775	14.355
158.681	84.7466
163.585	136.987
168.486	230.291
173.385	736.666
178.282	1244.02
183.176	1626.33
188.067	703.166
192.956	114.726
197.843	41.5085
202.727	12.627
207.609	70.8333
212.489	25.394
217.366	126.851
222.24	548.476
227.112	965.701
231.982	1317.43
236.849	1177.38
241.714	616.932
246.577	742.082
251.437	983.813
256.294	1268.38
261.149	548.399
266.002	106.989
270.852	6.66797
275.7	49.2432
280.545	79.5786
285.388	102.271
290.229	401.379
295.067	745.363
299.902	1404.36
304.735	2714.84
309.566	5199.68
314.394	11484.6
319.22	18356.4
324.043	23796.5
328.864	18730.2
333.682	8215.26
338.498	4072.72
343.311	2631.52
348.122	2051.2
352.931	1984.47
357.737	2021.93
362.54	1916.17
367.341	2129.72
372.14	2923.65
376.936	5524.88
381.73	12673.4
386.521	21330.3
391.31	26424.5
396.096	16619.9
400.88	5726.66
405.661	2180.77
410.44	1053.23
415.216	679.624
419.99	539.837
424.761	301.724
429.53	162.26
434.297	163.52
439.061	43.8594
443.822	47.582
448.581	17.3843
453.337	99.3599
458.091	215.578
462.843	254.814
467.592	166.997
472.338	162.433
477.082	87.0029
481.824	2.75928
486.563	89.7197
491.3	45.8823
496.034	23.2451
500.765	52.8984
505.494	104.665
510.221	302.555
514.945	509.562
519.666	1105.67
524.385	2070.92
529.102	2592.33
533.816	2095.87
538.527	1018.6
543.236	665.448
547.943	420.433
552.647	547.532
557.348	548.736
562.047	581.052
566.744	385.416
571.438	189.92
576.129	225.05
580.818	113.812
585.504	103.621
590.188	3.0918
594.87	7.35498
599.549	73.0737
604.225	2.67871
608.899	49.1206
613.57	12.0737
618.239	142.097
622.905	199.953
627.569	288.369
632.23	424.565
636.889	553.327
641.545	810.469
646.198	1420.77
650.849	2504.52
655.498	5546.51
660.144	11523.5
664.787	16807.5
669.428	15689.5
674.067	7462.82
678.703	3252.41
683.336	1726.02
687.967	1055.22
692.595	657.097
697.221	508.237
701.844	412.979
706.465	401.893
711.083	285.082
715.698	214.926
720.311	152.43
724.922	68.4644
729.53	154.118
734.135	114.416
738.738	55.4219
743.338	50.919
747.936	11.0073
752.531	29.398
757.124	4.42969
761.714	23.353
766.302	7.75781
770.887	151.809
775.469	30.5869
780.049	67.0869
784.626	102.329
789.201	92.2842
793.773	2.02002
798.343	30.605
802.91	11.5693
807.475	2.08057
812.037	31.6548
816.596	55.8628
821.153	63.4312
825.707	85.4033
830.259	6.21289
834.808	22.4907
839.355	45.5523
843.899	169.141
848.441	182.706
852.98	375.147
857.516	501.49
862.05	457.127
866.581	405.318
871.11	445.892
875.636	291.726
880.159	527.014
884.68	422.569
889.199	436.69
893.714	533.433
898.228	389.156
902.738	441.184
907.246	335.192
911.752	286.081
916.255	170.207
920.755	212.975
925.253	213.193
929.748	178.933
934.241	160.957
938.731	167.901
943.218	96.3311
947.703	210.434
952.186	242.856
956.665	323.161
961.142	616.882
965.617	547.15
970.089	672.177
974.558	874.022
979.025	1245
983.489	1643.29
987.951	2264.76
992.41	3406.39
996.866	5855.2
1001.32	11940.2
1005.77	27470.4
1010.22	51106.8
1014.67	53378.4
1019.11	24074.3
1023.55	8944.39
1027.99	4649.88
1032.42	3103.78
1036.86	2547.3
1041.29	2552.61
1045.72	2445.57
1050.14	2219.36
1054.56	1610.92
1058.98	1241.55
1063.4	1087.83
1067.82	854.857
1072.23	714.807
1076.64	533.302
1081.05	550.425
1085.45	428.384
1089.85	469.342
1094.25	426.184
1098.65	304.557
1103.04	360.35
1107.43	281.281
1111.82	270.64
1116.21	358.376
1120.59	415.674
1124.97	345.183
1129.35	296.381
1133.73	296.447
1138.1	273.573
1142.47	331.464
1146.84	195.647
1151.21	191.594
1155.57	31.2427
1159.93	94.5293
1164.29	70.3086
1168.64	50.7715
1172.99	66.4639
1177.34	62.0547
1181.69	78.9551
1186.04	18.4229
1190.38	12.3174
1194.72	61.6148
1199.05	77.1152
1203.39	88.147
1207.72	45.272
1212.05	9.05908
1216.37	32.3696
1220.7	52.3052
1225.02	87.4844
1229.34	60.8935
1233.65	108.863
1237.97	154.236
1242.28	153.255
1246.59	119.767
1250.89	63.6074
1255.19	47.5459
1259.49	138.294
1263.79	155.741
1268.09	167.565
1272.38	257.771
1276.67	195.44
1280.95	169.125
1285.24	205.631
1289.52	164.55
1293.8	147.727
1298.08	169.347
1302.35	65.833
1306.62	169.109
1310.89	100.012
1315.15	120.421
1319.42	180.518
1323.68	143.185
1327.94	178.675
1332.19	170.576
1336.44	241.371
1340.69	116.815
1344.94	182.162
1349.19	194.633
1353.43	152.893
1357.67	181.254
1361.9	95.8662
1366.14	233.316
1370.37	206.734
1374.6	148.346
1378.83	97.4502
1383.05	164.381
1387.27	48.8643
1391.49	122.774
1395.7	95.8897
1399.92	131.287
1404.13	171.824
1408.34	56.4746
1412.54	65.6973
1416.74	114.703
1420.94	63.0586
1425.14	1.18848
1429.34	83.4346
1433.53	37.7305
1437.72	169.219
1441.9	24.8467
1446.09	134.259
1450.27	136.175
1454.45	153.264
1458.63	91.2129
1462.8	151.883
1466.97	36.7315
1471.14	248.971
1475.31	143.197
1479.47	168.617
1483.63	167.736
1487.79	190.82
1491.94	130.56
1496.09	196.552
1500.24	268.565
1504.39	105.806
1508.54	205.633
1512.68	190.39
1516.82	235.998
1520.95	217.461
1525.09	127.735
1529.22	306.759
1533.35	165.843
1537.47	60.6309
1541.6	69.2832
1545.72	100.022
1549.83	4.59961
1553.95	268.794
1558.06	186.754
1562.17	50.0234
1566.28	121.315
1570.38	116.926
