Measurement: Raman, 514 nm, ccw, Raman Data Processed
Mineral: Diopside
Rruff sample: R040097
Ideal chemistry: CaMgSi_2_O_6_
Locality: Fassathal, Tyrol
Source: University of Arizona Mineral Museum
Description: Green prismatic crystals
Measured chemistry: Ca_1.00_(Mg_0.83_Al_0.10_Fe_0.09_Ca_0.02_Ti_0.02_)(Si_0.88_Al_0.12_)_2_O_6_
Pin_id: M00269
Orientation: Laser parallel to b* (0 1 0). Fiducial mark perpendicular to laser is parallel to -c [0 0 -1]
Raman shift (cm-1)	intensity
126.063	0
128.84	221.904
131.615	513.829
134.39	767.428
137.164	1360.21
139.937	1597.59
142.709	1641.59
145.48	1396.13
148.25	788.362
151.019	577.838
153.788	379.496
156.555	213.109
159.322	71.432
162.088	184.15
164.853	83.166
167.617	59.219
170.38	22.631
173.142	86.902
175.904	197.639
178.664	179.436
181.424	292.164
184.183	375.727
186.94	240.039
189.698	115.014
192.454	110.592
195.209	116.723
197.963	73.369
200.717	71.914
203.47	29.854
206.221	120.9
208.972	78.734
211.722	38.557
214.472	228.502
217.22	198.672
219.967	279.049
222.714	289.658
225.46	340.445
228.204	281.41
230.948	292.475
233.692	253.691
236.434	195.068
239.175	126.611
241.916	348.307
244.655	280.105
247.394	251.969
250.132	523.871
252.869	475.902
255.605	428.072
258.34	260.377
261.075	162.807
263.808	325.359
266.541	208.041
269.273	130.861
272.004	135.094
274.734	28.283
277.463	17.096
280.192	73.076
282.919	153.057
285.646	196.67
288.372	314.398
291.097	444.785
293.821	470.922
296.544	480.582
299.266	582.049
301.988	623.812
304.709	739.51
307.428	852.041
310.147	1004.8
312.865	1201.68
315.583	1343.69
318.299	1547.03
321.015	1970.56
323.729	1994.98
326.443	2148.75
329.156	2050.08
331.868	1903.82
334.579	1947.08
337.29	1801.1
339.999	1515.23
342.708	1469.48
345.416	1333.82
348.123	1388.25
350.829	1482.77
353.534	1437.36
356.239	1471.4
358.942	1346.12
361.645	1057.33
364.347	1072.14
367.048	1083.27
369.748	984.365
372.448	849.268
375.146	794.191
377.844	879.139
380.54	864.1
383.236	1069.08
385.932	1344.09
388.626	1679.13
391.319	1674.18
394.012	1689.25
396.704	1564.34
399.394	1089.57
402.084	835.188
404.774	521.023
407.462	226.924
410.15	92.367
412.836	38.896
415.522	184.973
418.207	174.809
420.891	12.047
423.575	11.381
426.257	135.99
428.939	33.035
431.619	49.689
434.299	166.01
436.978	90.418
439.657	156.436
442.334	66.797
445.011	100.377
447.687	281.15
450.361	326.541
453.036	215.193
455.709	55.928
458.381	234.262
461.053	330.969
463.724	267.098
466.394	224.402
469.063	149.445
471.731	134.75
474.398	289.846
477.065	373.922
479.731	317.916
482.396	181.828
485.06	565.656
487.723	299.496
490.385	293.248
493.047	351.236
495.708	440.486
498.368	553.955
501.027	637.334
503.685	760.598
506.342	1083.74
508.999	1106.76
511.655	759.646
514.31	562.4
516.964	555.029
519.617	557.516
522.27	569.895
524.921	712.143
527.572	454.289
530.222	716.307
532.871	768.188
535.52	780.742
538.167	832.363
540.814	524.486
543.46	417.418
546.105	260.262
548.749	552.229
551.393	408.49
554.035	401.137
556.677	352.426
559.318	230.912
561.958	489.557
564.597	333.863
567.236	408.652
569.874	126.311
572.511	258.039
575.147	396.275
577.782	368.273
580.416	475.18
583.05	155.873
585.683	288.631
588.315	424.412
590.946	120.021
593.576	52.48
596.206	66.43
598.834	11.535
601.462	68.645
604.089	6.316
606.715	420.189
609.341	57.367
611.965	7.271
614.589	182.271
617.212	300.787
619.834	297.564
622.456	102.539
625.076	303.836
627.696	280.104
630.315	475.154
632.933	575.896
635.551	560.592
638.167	514.16
640.783	739.879
643.398	1084.41
646.012	1326.97
648.625	1529.54
651.237	1781.98
653.849	2284.65
656.46	3057.65
659.07	4298.11
661.679	5429.3
664.288	6109.03
666.895	6358.8
669.502	5208
672.108	4146.93
674.713	2965.59
677.318	2273.98
679.921	1673.92
682.524	1422.74
685.126	1201.09
687.727	908.482
690.328	325.643
692.927	567.822
695.526	435.23
698.124	462.637
700.721	349.82
703.318	445.363
705.913	40.633
708.508	535.547
711.102	700.145
713.695	264.301
716.288	52.336
718.879	128.613
721.47	113.633
724.06	305.586
726.649	256.938
729.238	81.145
731.825	279.812
734.412	337.301
736.998	366.805
739.584	44.277
742.168	36.656
744.752	225.492
747.334	393.301
749.916	266.969
752.498	383.082
755.078	327.98
757.658	321.559
760.237	446
762.815	502.668
765.392	556.488
767.969	76.684
770.544	302.129
773.119	735.496
775.693	379.531
778.267	182.562
780.839	27.254
783.411	442.109
785.982	557.582
788.552	91.465
791.122	176.016
793.69	241.117
796.258	655.145
798.825	299.973
801.391	163.43
803.957	156.66
806.522	249.633
809.085	692.359
811.649	404.828
814.211	167.02
816.772	518.965
819.333	370.699
821.893	862.207
824.452	633.508
827.011	434.613
829.568	505.512
832.125	636.395
834.681	716.871
837.236	236.965
839.791	396.832
842.345	456.359
844.898	574.801
847.45	513.789
850.001	112.18
852.552	100.223
855.102	566.527
857.651	1063.44
860.199	987.203
862.746	403.266
865.293	508.922
867.839	898.199
870.384	806.203
872.928	450.113
875.472	363.812
878.015	236.965
880.557	285.418
883.098	250.68
885.639	64.555
888.178	109.688
890.717	537.898
893.256	364.133
895.793	145.668
898.33	20.301
900.865	153.578
903.401	586.312
905.935	111.453
908.468	55.926
911.001	138.168
913.533	297.605
916.064	362.996
918.595	237.863
921.124	301.617
923.653	376.918
926.182	481.246
928.709	722.633
931.236	76.543
933.761	521.602
936.286	455.645
938.811	424.492
941.334	378.754
943.857	1.539
946.379	554.648
948.9	1089.14
951.421	584.402
953.94	419.805
956.459	392.73
958.978	845.457
961.495	1139.85
964.012	625.914
966.527	316.633
969.043	170.582
971.557	834.5
974.071	308.633
976.583	372.484
979.095	446.668
981.607	1340.22
984.117	1393.35
986.627	566.922
989.136	619.18
991.644	1595.98
994.152	2238.52
996.659	2668.52
999.165	2842.66
1001.67	4296.22
1004.17	5160.3
1006.68	5192.63
1009.18	4905.68
1011.68	4028.51
1014.18	3460.64
1016.68	1995.19
1019.18	1279.85
1021.68	1094.85
1024.18	1650.19
1026.68	935.645
1029.18	671.223
1031.67	586.367
1034.17	753.582
1036.66	1022.57
1039.16	802.91
1041.65	764.141
1044.14	1096.54
1046.63	1520.44
1049.12	935.98
1051.62	843.41
1054.11	553.242
1056.59	1126.13
1059.08	1012.39
1061.57	392.777
1064.06	568.418
1066.54	570.922
1069.03	708.93
1071.51	256.293
1073.99	1.938
1076.47	0
