Measurement: Raman, 514 nm, ccw, Raman Data Processed
Mineral: Diopside
Rruff sample: R060861
Ideal chemistry: CaMgSi_2_O_6_
Locality: Red Mountain Volcano, NW of Flagstaff, Arizona, USA
Source: Jennifer Sano
Description: Worn brown fragment
Measured chemistry: (Ca_0.72_Fe^2+^_0.23_Na_0.05_)_Σ=1_(Mg_0.80_Al_0.15_Ti_0.03_Fe^3+^_0.02_)_Σ=1_(Si_1.82_Al_0.18_)_Σ=2_O_6_
Pin_id: M01653
Orientation: Laser parallel to -c* (0 0 -1). Fiducial mark perpendicular to laser is parallel to a [1 0 0]
Raman shift (cm-1)	intensity
212.835	0
217.741	278.109
222.645	979.438
227.545	1168.12
232.443	588.854
237.337	121.159
242.228	310.498
247.116	275.211
252	516.706
256.882	368.909
261.76	569.224
266.636	97.585
271.508	205.528
276.377	129.971
281.243	372.144
286.106	948.909
290.966	1962.74
295.823	2804.57
300.676	3808.63
305.527	4915.88
310.375	6296.84
315.219	8376.76
320.061	10962
324.899	13979.3
329.734	16236.5
334.567	17021.7
339.396	16510.8
344.222	15664.7
349.046	15428
353.866	15525.4
358.683	15614.1
363.497	15095.8
368.308	13965.3
373.117	13132
377.922	12592.3
382.724	13132.9
387.523	15130.4
392.32	17166
397.113	16577.2
401.903	13516
406.691	8672.23
411.475	4960.91
416.256	2488.58
421.035	1584.8
425.81	925.523
430.583	530.092
435.353	404.406
440.119	331.397
444.883	39.998
449.644	63.1758
454.402	383.175
459.157	583.237
463.909	1122.16
468.659	1408.85
473.405	1544.35
478.149	1506.26
482.889	1754.91
487.627	1544.67
492.362	1764.11
497.094	1798.38
501.823	1992.23
506.549	2039.65
511.273	2671.58
515.993	3206.94
520.711	3596.65
525.426	4230.67
530.138	4597.94
534.847	5233.45
539.553	5337.14
544.257	5170.95
548.958	5173.82
553.655	5075.72
558.351	4918.91
563.043	4355.38
567.732	3767.75
572.419	2988.91
577.103	2456.8
581.784	1843.39
586.463	1111.63
591.138	284.702
595.811	69.9189
600.481	315.161
605.148	269.454
609.813	124.69
614.475	443.854
619.134	916.196
623.79	1263.34
628.444	2149.2
633.095	3206.91
637.743	4501.48
642.388	6352.9
647.031	9257.2
651.671	14094.4
656.308	22430.5
660.942	33906.4
665.574	44296.3
670.203	42762.2
674.83	31199
679.454	19591.9
684.075	12360.8
688.693	8246.73
693.309	5626.78
697.922	4118.97
702.532	3113.32
707.14	2432.89
711.745	2066.72
716.348	1327.85
720.947	842.341
725.545	401.243
730.139	32.5732
734.731	238.951
739.32	418.312
743.907	552.958
748.491	555.705
753.072	229.807
757.651	94.6133
762.227	281.493
766.801	533.512
771.372	797.192
775.94	866.65
780.506	834.998
785.069	966.343
789.63	1052.8
794.188	873.473
798.744	1053.47
803.297	1061.91
807.847	1217.87
812.395	1433.45
816.94	1514.77
821.483	1665.91
826.023	1378.96
830.561	1251.02
835.096	1131.32
839.628	988.536
844.158	890.17
848.686	1061.17
853.211	1605.63
857.734	2268.62
862.254	3075.24
866.771	3472.2
871.286	3520.95
875.798	3745.2
880.308	3198.45
884.816	2910.44
889.321	2839.95
893.824	2733.39
898.324	2735.57
902.821	2523.81
907.316	2548.08
911.809	2695.3
916.299	2571.33
920.787	2837.21
925.272	3063.04
929.755	3193.88
934.236	3241.73
938.714	3344.22
943.189	3601.99
947.662	3958.04
952.133	4546.32
956.601	5144.76
961.067	5744.36
965.531	6676.03
969.992	7543.77
974.45	9036.55
978.907	10639.3
983.361	12993
987.812	15820.7
992.261	20199.2
996.708	26360.5
1001.15	32844.8
1005.59	37355.8
1010.03	36389.3
1014.47	29181.9
1018.91	20809.4
1023.34	14559
1027.77	10542.9
1032.2	8387.83
1036.62	7258.03
1041.05	6137.85
1045.46	5436.46
1049.88	4416.48
1054.3	3732.65
1058.71	3116.85
1063.12	2801.54
1067.53	2190.01
1071.94	2067.93
1076.35	1836.31
1080.75	1923.77
1085.15	2003.25
1089.55	1711.71
1093.94	1809.31
1098.33	1550.02
1102.72	1738.36
1107.11	1780.42
1111.5	1652.01
1115.88	1696.6
1120.26	1459.19
1124.64	1214.83
1129.02	939.912
1133.4	478.18
1137.77	315.534
1142.14	48.3555
1146.51	225.113
1150.87	273.948
1155.24	218.264
1159.6	285.423
1163.96	216.802
1168.31	291.338
1172.67	171.79
1177.02	151.846
1181.37	92.3545
1185.72	33.4541
1190.07	62.1885
1194.41	39.8403
1198.75	115.939
1203.09	191.497
1207.43	234.557
1211.76	288.096
1216.09	343.224
1220.42	367.998
1224.75	461.312
1229.08	595.46
1233.4	543.221
1237.72	588.669
1242.04	632.804
1246.36	648.64
1250.68	827.208
1254.99	775.521
1259.3	820.576
1263.61	804.506
1267.92	860.111
1272.22	927.68
1276.52	1028.89
1280.82	889.54
1285.12	912.028
1289.42	774.618
1293.71	873.406
1298	784.882
1302.29	865.418
1306.58	734.974
1310.87	863.464
1315.15	743.555
1319.43	671.83
1323.71	608.341
1327.99	605.023
1332.26	581.895
1336.54	685.386
1340.81	622.278
1345.08	689.913
1349.34	608.623
1353.61	569.766
1357.87	655.738
1362.13	506.871
1366.39	483.168
1370.64	459.971
1374.9	493.998
1379.15	439.499
1383.4	305.997
1387.65	290.068
1391.9	262.612
1396.14	334.101
1400.38	346.349
1404.62	285.708
1408.86	293.688
1413.1	396.951
1417.33	82.8779
1421.56	274.951
1425.79	187.908
1430.02	220.309
1434.25	402.923
1438.47	246.02
1442.69	393.312
1446.91	365.416
1451.13	399.103
1455.35	284.072
1459.56	276.866
1463.78	254.289
1467.98	86.5137
1472.19	271.897
1476.4	135.425
1480.6	55.9414
1484.81	105.077
1489.01	107.748
1493.2	8.58594
1497.4	94.1445
1501.6	69.8945
1505.79	88.2334
1509.98	41.8565
1514.17	108.61
1518.36	15.5049
1522.54	71.1523
1526.72	49.8232
1530.9	72.4775
1535.08	27.1191
1539.26	49.876
1543.44	133.589
1547.61	119.369
1551.78	35.5752
1555.95	96.4375
1560.12	106.864
1564.29	0.447266
