Measurement: Raman, 514 nm, ccw, Raman Data Processed
Mineral: Diopside
Rruff sample: R050406
Ideal chemistry: CaMgSi_2_O_6_
Locality: unknown
Source: University of Arizona Mineral Museum
Description: Brownish gray massive
Measured chemistry: (Ca_0.95_Na_0.05_)(Mg_0.75_Fe^2+^_0.18_Fe^3+^_0.05_Al_0.01_Ti_0.01_Mn^2+^_0.01_)(Si_0.98_Al_0.02_)_2_O_6_
Pin_id: M00100
Orientation: Laser parallel to (1 0 1). Fiducial mark perpendicular to laser is parallel to -b [0 -1 0]
Raman shift (cm-1)	intensity
94.714	0
99.649	9.16309
104.582	348.856
109.512	1696.1
114.44	966.52
119.365	780.332
124.288	1331.49
129.209	3933.94
134.127	9280.42
139.043	7948.69
143.956	2786.17
148.867	960.338
153.775	489.415
158.681	275.409
163.585	437.885
168.486	204.79
173.385	188.266
178.282	145.719
183.176	32.6445
188.067	98.7529
192.956	161.889
197.843	117.176
202.727	159.494
207.609	83.1748
212.489	3.19678
217.366	50.5742
222.24	76.9556
227.112	50.8472
231.982	45.7871
236.849	1.6665
241.714	44.8237
246.577	142.552
251.437	235.37
256.294	283.056
261.149	134.061
266.002	80.9106
270.852	43.1177
275.7	112.884
280.545	19.7334
285.388	127.944
290.229	339.721
295.067	611.075
299.902	1107.38
304.735	2151.76
309.566	3775.93
314.394	6408.9
319.22	9023.74
324.043	8170.49
328.864	6114.87
333.682	4570.33
338.498	4320.56
343.311	5048.66
348.122	7034.57
352.931	9283.44
357.737	8639.3
362.54	6835.8
367.341	5670.91
372.14	5920.81
376.936	8649.96
381.73	15184.4
386.521	19911
391.31	13390.8
396.096	6506.73
400.88	3123.52
405.661	1791.11
410.44	1295.28
415.216	997.22
419.99	626.218
424.761	419.653
429.53	216.083
434.297	131.271
439.061	181.208
443.822	87.9273
448.581	306.322
453.337	510.253
458.091	677.303
462.843	671.04
467.592	609.224
472.338	552.776
477.082	358.354
481.824	464.061
486.563	469.563
491.3	509.68
496.034	455.47
500.765	754.155
505.494	629.512
510.221	706.399
514.945	1040.77
519.666	1247.62
524.385	1675.03
529.102	2199.98
533.816	2328.36
538.527	2179.19
543.236	2109.37
547.943	1983.87
552.647	2076.69
557.348	1838.05
562.047	1515.57
566.744	1438.63
571.438	1106.9
576.129	913.333
580.818	450.382
585.504	172.356
590.188	85.7192
594.87	119.652
599.549	26.2905
604.225	33.6724
608.899	213.812
613.57	341.837
618.239	607.284
622.905	1010.15
627.569	1419.8
632.23	2015.89
636.889	2741.14
641.545	4122.11
646.198	6561.99
650.849	11747.6
655.498	24007
660.144	47330.3
664.787	57781
669.428	35301.2
674.067	16652.3
678.703	8352.92
683.336	4739.53
687.967	2999.47
692.595	1993.88
697.221	1347.76
701.844	970.094
706.465	673.867
711.083	415.076
715.698	287.714
720.311	98.7744
724.922	105.532
729.53	25.7236
734.135	41.2383
738.738	51.2637
743.338	115.194
747.936	44.082
752.531	16.3955
757.124	80.9956
761.714	49.853
766.302	59.0523
770.887	47.7217
775.469	28.8721
780.049	0.484863
784.626	61.6162
789.201	80.3364
793.773	71.6631
798.343	19.5913
802.91	37.9341
807.475	22.0732
812.037	22.6714
816.596	12.1265
821.153	93.8013
825.707	133.496
830.259	152.98
834.808	221.273
839.355	709.403
843.899	2027.39
848.441	5203.26
852.98	9541.04
857.516	7710.27
862.05	4674.84
866.581	2873.64
871.11	1962.73
875.636	1644.29
880.159	1384.27
884.68	1286.48
889.199	1137.54
893.714	1099.49
898.228	1032.15
902.738	924.169
907.246	801.703
911.752	669.154
916.255	457.572
920.755	678.71
925.253	500.468
929.748	387.786
934.241	397.351
938.731	310.086
943.218	369.638
947.703	438.772
952.186	746.074
956.665	982.94
961.142	1210.44
965.617	1294.58
970.089	1426.43
974.558	1657.03
979.025	1973.26
983.489	2267.11
987.951	2919.63
992.41	4140.87
996.866	6921.83
1001.32	13004.6
1005.77	27095.4
1010.22	47168.4
1014.67	37050.6
1019.11	16693.1
1023.55	8744.56
1027.99	6040
1032.42	5261.66
1036.86	5857.78
1041.29	6898.29
1045.72	6291.35
1050.14	4352.38
1054.56	2725.21
1058.98	2116.54
1063.4	1529.65
1067.82	1181.05
1072.23	1043.14
1076.64	1027.17
1081.05	958.447
1085.45	799.508
1089.85	874.546
1094.25	845.49
1098.65	780.1
1103.04	876.255
1107.43	819.574
1111.82	793.983
1116.21	898.483
1120.59	944.093
1124.97	964.064
1129.35	938.094
1133.73	698.241
1138.1	650.336
1142.47	464.606
1146.84	394.756
1151.21	174.887
1155.57	102.285
1159.93	94.9756
1164.29	64.2456
1168.64	48.6797
1172.99	7.41406
1177.34	37.0435
1181.69	44.3369
1186.04	20.4936
1190.38	24.7974
1194.72	67.4517
1199.05	15.4155
1203.39	17.0093
1207.72	26.2105
1212.05	98.1977
1216.37	66.9199
1220.7	46.4922
1225.02	83.6284
1229.34	0.683594
1233.65	39.3779
1237.97	121.622
1242.28	149.977
1246.59	26.7124
1250.89	184.926
1255.19	222.605
1259.49	153.284
1263.79	210.674
1268.09	147.099
1272.38	286.111
1276.67	264.704
1280.95	180.879
1285.24	240.709
1289.52	229.839
1293.8	208.113
1298.08	261.185
1302.35	358.199
1306.62	194.623
1310.89	221.02
1315.15	233.035
1319.42	306.215
1323.68	313.709
1327.94	295.203
1332.19	260.57
1336.44	365.997
1340.69	243.215
1344.94	365.725
1349.19	208.607
1353.43	280.657
1357.67	201.184
1361.9	169.835
1366.14	232.942
1370.37	186.231
1374.6	146.204
1378.83	147.096
1383.05	183.577
1387.27	92.2876
1391.49	232.668
1395.7	193.968
1399.92	168.573
1404.13	136.138
1408.34	130.583
1412.54	96.7607
1416.74	63.7856
1420.94	75.8042
1425.14	98.6035
1429.34	101.587
1433.53	118.5
1437.72	89.438
1441.9	152.963
1446.09	99.2319
1450.27	54.2622
1454.45	94.6143
1458.63	68.1148
1462.8	29.0698
1466.97	133.129
1471.14	85.4893
1475.31	87.8086
1479.47	87.3613
1483.63	93.9551
1487.79	55.562
1491.94	71.1099
1496.09	104.377
1500.24	113.301
1504.39	33.3374
1508.54	78.5439
1512.68	21.1318
1516.82	18.7964
1520.95	96.8018
1525.09	44.916
1529.22	1.84717
1533.35	84.6973
1537.47	63.8574
1541.6	113.113
1545.72	108.061
1549.83	63.7095
1553.95	301.435
1558.06	85.5879
1562.17	82.374
1566.28	64.6875
1570.38	0.125
