Measurement: Raman, 514 nm, ccw, Raman Data Processed
Mineral: Diopside
Rruff sample: R060171
Ideal chemistry: CaMgSi_2_O_6_
Locality: Jeffrey mine, Asbestos, Quebec, Canada
Source: Guy Ouellet
Description: Yellowish-brown tabular crystals associated with vesuvianite, R060170
Measured chemistry: Ca_1.00_(Mg_0.98_Mn_0.02_)_Î£=1_Si_2.00_O_6_
Pin_id: L00876
Orientation: Laser parallel to -b* (0 -1 0). Fiducial mark perpendicular to laser is parallel to -c [0 0 -1]
Raman shift (cm-1)	intensity
95.948	0
100.883	29.5154
105.815	141.265
110.744	268.082
115.671	269.427
120.596	175.565
125.519	85.437
130.439	460.791
135.356	957.106
140.271	1084.07
145.184	845.96
150.094	155.399
155.002	184.447
159.908	124.218
164.811	142.732
169.711	310.705
174.61	551.98
179.505	959.573
184.399	1444.1
189.29	129.914
194.178	76.356
199.064	117.999
203.948	83.8486
208.829	35.7417
213.708	38.4531
218.585	119.69
223.459	606.317
228.33	1356.13
233.199	1878.56
238.066	1781.13
242.93	733.73
247.792	1599.67
252.651	2507.43
257.508	3061.58
262.363	609.046
267.215	176.867
272.064	85.2656
276.912	29.7954
281.756	18.5806
286.598	97.3897
291.438	211.007
296.276	277.447
301.111	482.463
305.943	1169.68
310.773	2571.37
315.601	6427.07
320.426	10689.1
325.248	13399.5
330.068	5824.54
334.886	1793.2
339.701	1009.23
344.514	818.644
349.324	618.179
354.132	845.699
358.938	917.428
363.741	589.235
368.541	208.11
373.339	161.047
378.135	167.042
382.928	271.087
387.718	363.194
392.506	351.52
397.292	125.047
402.075	50.7393
406.856	54.6094
411.634	102.49
416.41	41.1997
421.183	37.9228
425.954	97.5024
430.722	53.7139
435.488	1.06934
440.251	53.9043
445.012	31.2109
449.77	50.853
454.526	9.22705
459.28	112.457
464.03	30.0098
468.779	147.374
473.525	19.627
478.268	74.8452
483.009	94.0459
487.747	198.248
492.483	409.55
497.217	1129.88
501.948	3129.21
506.676	5083.52
511.402	4039.83
516.125	998.184
520.846	463.546
525.565	554.933
530.281	432.348
534.994	313.758
539.705	98.2944
544.413	123.942
549.119	145.593
553.822	150.202
558.523	107.482
563.222	78.6162
567.917	194.26
572.611	166.677
577.302	3.00488
581.99	31.876
586.676	132.066
591.359	103.427
596.04	142.719
600.718	109.057
605.394	110.198
610.067	170.606
614.737	188.592
619.406	337.813
624.071	526.146
628.734	690.744
633.395	918.477
638.053	1183.17
642.708	1997.62
647.361	3304.18
652.012	6376.24
656.66	15198.7
661.305	29508.4
665.948	38622.2
670.588	25819.7
675.226	10172.5
679.861	4836.29
684.494	2607.29
689.124	1653.02
693.752	1057.89
698.377	814.152
702.999	542.064
707.619	415.94
712.237	234.09
716.852	254.322
721.464	161.845
726.074	63.7544
730.681	64.9404
735.286	200.001
739.888	95.7534
744.488	109.62
749.085	113.51
753.68	111.768
758.272	49.4365
762.861	13.2275
767.448	45.2173
772.033	30.3735
776.614	149.781
781.194	49.499
785.77	86.2153
790.345	35.0923
794.916	67.4653
799.485	22.1558
804.052	38.7295
808.616	118.137
813.177	32.083
817.736	36.6836
822.292	100.929
826.846	16.9062
831.397	8.65771
835.945	85.2026
840.491	133.49
845.035	43.5508
849.576	139.424
854.114	348.131
858.65	248.685
863.183	120.114
867.713	146.418
872.241	130.512
876.767	1.63769
881.29	56.9902
885.81	40.4185
890.328	119.634
894.843	80.5596
899.356	33.6919
903.866	14.106
908.373	50.0845
912.878	26.5703
917.38	83.9438
921.88	175.755
926.377	18.7778
930.872	53.2759
935.364	124.079
939.853	30.9409
944.34	20.0547
948.824	72.4004
953.306	146.236
957.785	134.219
962.261	252.537
966.735	308.929
971.207	344.666
975.675	415.566
980.141	638.96
984.605	719.134
989.066	1181.84
993.524	1693.63
997.98	3291.45
1002.43	7755.79
1006.88	24274.8
1011.33	46517.4
1015.78	37728
1020.22	11648.4
1024.66	4483.2
1029.1	2511.15
1033.53	1751.51
1037.97	1465.31
1042.4	1615.52
1046.82	2154.55
1051.25	1495.55
1055.67	756.658
1060.09	469.722
1064.51	342.89
1068.92	369.749
1073.33	152.465
1077.74	168.411
1082.15	121.012
1086.55	203.198
1090.95	122.48
1095.35	116.293
1099.75	141.609
1104.14	0.869141
1108.53	23.8555
1112.92	201.14
1117.31	203.244
1121.69	325.363
1126.07	170.242
1130.45	183.947
1134.82	137.287
1139.19	85.5967
1143.57	108.459
1147.93	152.11
1152.3	188.88
1156.66	163.018
1161.02	19.1934
1165.38	3.78711
1169.73	15.1953
1174.08	7.60644
1178.43	101.486
1182.78	68.8144
1187.12	8.39551
1191.46	89.3662
1195.8	22.0889
1200.14	54.167
1204.47	28.792
1208.8	136.986
1213.13	86.6924
1217.46	6.81934
1221.78	5.61328
1226.1	110.336
1230.42	87.0312
1234.73	2.27832
1239.04	256.435
1243.35	50.7275
1247.66	65.6064
1251.97	146.133
1256.27	211.251
1260.57	155.007
1264.86	281.705
1269.16	68.9385
1273.45	74.9658
1277.74	154.401
1282.03	164.894
1286.31	262.563
1290.59	194.488
1294.87	107.6
1299.14	113.061
1303.42	143.832
1307.69	174.621
1311.95	78.9785
1316.22	195.383
1320.48	224.318
1324.74	168.078
1329	292.231
1333.26	203.685
1337.51	266.55
1341.76	296.869
1346	163.298
1350.25	210.04
1354.49	327.437
1358.73	165.932
1362.96	154.327
1367.2	164.936
1371.43	149.722
1375.66	211.939
1379.88	108.908
1384.11	225.921
1388.33	133.692
1392.54	60.6602
1396.76	72.9678
1400.97	56.6338
1405.18	138.415
1409.39	94.7432
1413.59	106.934
1417.8	142.358
1421.99	120.27
1426.19	157.053
1430.38	64.8164
1434.58	188.413
1438.77	100.571
1442.95	135.383
1447.13	225.603
1451.32	60.4727
1455.49	84.1309
1459.67	7.40039
1463.84	52.8389
1468.01	153.908
1472.18	210.829
1476.35	148.847
1480.51	196.968
1484.67	105.186
1488.83	207.314
1492.98	194.806
1497.13	85.459
1501.28	98.2481
1505.43	201.224
1509.57	134.45
1513.71	339.468
1517.85	388.956
1521.99	155.081
1526.12	225.558
1530.25	132.983
1534.38	44.1504
1538.5	65.0713
1542.62	95.0869
1546.74	168.402
1550.86	111.128
1554.98	232.582
1559.09	71.7832
1563.2	259.397
1567.31	147.482
1571.41	6.62793
