Measurement: Raman, 514 nm, ccw, Raman Data Processed
Mineral: Diopside
Rruff sample: R070123
Ideal chemistry: CaMgSi_2_O_6_
Locality: Yates mine, Otter Lake, Huddersfield Township, Pontiac County, Québec, Canada
Source: Michael Scott
Description: Black prismatic crystals associated with orange calcite
Measured chemistry: (Ca_0.95_Na_0.04_Mn_0.01_)_Σ=1_(Mg_0.63_Fe_0.33_Al_0.04_)_Σ=1_Si_2.00_O_6_
Pin_id: M00826
Orientation: Laser parallel to a* (1 0 0). Fiducial mark perpendicular to laser is parallel to -b [0 -1 0]
Raman shift (cm-1)	intensity
117.295	0
122.247	7.09131
127.196	299.041
132.143	540.397
137.086	661.646
142.026	328.039
146.963	20.8306
151.898	163.053
156.829	131.222
161.758	444.028
166.683	331.252
171.606	215.621
176.526	329.734
181.442	299.269
186.356	151.731
191.267	121.536
196.175	242.618
201.08	368.905
205.983	312.943
210.882	292.95
215.778	587.605
220.672	754.357
225.563	873.249
230.45	1060.35
235.335	1017.69
240.217	762.296
245.096	703.066
249.973	684.978
254.846	591.016
259.716	555.571
264.584	344.08
269.449	260.66
274.31	201.942
279.169	309.755
284.026	452.598
288.879	911.922
293.729	1555.43
298.577	2325.61
303.422	3419.4
308.263	5398.38
313.103	9188.09
317.939	13217.1
322.772	13797.3
327.603	10048.8
332.43	6672.61
337.255	5172.12
342.077	4937.89
346.896	5848.21
351.713	6827
356.526	6503.71
361.337	5179.19
366.145	4825.66
370.95	5517.14
375.753	8268.59
380.552	14123
385.349	19428.4
390.143	17029.7
394.934	8401
399.722	3654.2
404.508	1738.31
409.29	885.351
414.07	571.438
418.848	305.578
423.622	169.721
428.394	9.83398
433.163	40.4048
437.929	128.647
442.692	163.779
447.453	3.0415
452.21	123.494
456.966	128.372
461.718	266.659
466.467	193.404
471.214	157.529
475.958	111.61
480.699	72.6694
485.438	136.311
490.174	119.821
494.907	130.007
499.637	229.861
504.365	377.42
509.09	755.673
513.812	942.612
518.531	1257.22
523.248	1766.5
527.962	1958.43
532.673	1514.01
537.382	1197.09
542.088	951.055
546.791	988.509
551.491	1281.57
556.189	1458.23
560.884	1243.48
565.576	853.31
570.266	688.285
574.953	409.421
579.637	244.679
584.319	214.596
588.998	83.6216
593.674	229.868
598.348	215.474
603.018	345.7
607.687	356.076
612.352	212.576
617.015	342.312
621.675	551.869
626.333	882.282
630.988	890.182
635.64	1043.23
640.289	1428.91
644.936	2013.19
649.581	3418.89
654.222	6628.02
658.861	12825.6
663.497	20015.6
668.131	17330
672.762	8912.85
677.391	4229.17
682.016	2294.93
686.639	1335.16
691.26	869.848
695.878	520.014
700.493	480.662
705.106	360.802
709.716	325.446
714.323	155.839
718.928	23.8154
723.53	5.98389
728.13	135.964
732.727	114.281
737.321	190.456
741.913	54.4209
746.502	83.9551
751.089	4.12549
755.673	69.3379
760.254	15.4429
764.833	61.8662
769.41	202.991
773.983	76.8755
778.554	174.517
783.123	190.923
787.689	138.116
792.252	54.1196
796.813	133.955
801.371	122.65
805.927	143.233
810.48	222.732
815.031	201.173
819.579	312.015
824.124	491.976
828.667	463.38
833.208	419.818
837.745	349.307
842.281	580.87
846.813	958.526
851.344	1566.35
855.871	2011.78
860.396	1871.36
864.919	1606.73
869.439	1291.54
873.957	1250.92
878.472	1221.92
882.984	1142.28
887.494	1244.3
892.002	1420.97
896.507	1372.97
901.009	1312.72
905.509	1188.03
910.006	1100.89
914.501	868.312
918.994	597.453
923.484	544.205
927.971	447.541
932.456	356.669
936.938	228.825
941.418	88.9458
945.896	127.989
950.371	160.824
954.843	246.351
959.313	625.508
963.781	661.292
968.246	864.564
972.709	1029.75
977.169	1082.44
981.626	1461.76
986.082	1909.73
990.534	2644.41
994.985	4449.98
999.432	8244.54
1003.88	16420.1
1008.32	32402.9
1012.76	44229.1
1017.2	27000.4
1021.63	10864
1026.07	5861.08
1030.5	3985.8
1034.93	3193.07
1039.35	2943.44
1043.78	2382.88
1048.2	1940.85
1052.62	1510.93
1057.03	1138.84
1061.44	923.581
1065.86	701.652
1070.27	616.286
1074.67	741.695
1079.08	799.317
1083.48	894.181
1087.88	773.925
1092.27	669.927
1096.67	441.79
1101.06	464.074
1105.45	538.581
1109.84	546.359
1114.22	480.203
1118.6	570.284
1122.98	496.528
1127.36	583.917
1131.73	359.43
1136.11	339.046
1140.48	232.739
1144.85	33.4819
1149.21	11.752
1153.58	86.1177
1157.94	15.0864
1162.3	92.1089
1166.65	6.72412
1171.01	68.4731
1175.36	4.41162
1179.7	43.5185
1184.05	32.9048
1188.4	38.894
1192.74	57.8052
1197.08	76.5132
1201.41	43.2441
1205.75	35.8457
1210.08	31.1953
1214.41	121.948
1218.74	66.8267
1223.07	189.501
1227.39	151.979
1231.71	170.254
1236.03	339.878
1240.34	240.183
1244.66	303.831
1248.97	345.362
1253.28	433.875
1257.59	530.281
1261.89	726.512
1266.19	767.536
1270.49	965.342
1274.79	870.927
1279.09	843.012
1283.38	766.084
1287.67	597.031
1291.96	672.864
1296.24	767.894
1300.53	874.141
1304.81	956.806
1309.09	1090.74
1313.37	1024.87
1317.64	1096.24
1321.91	1019.2
1326.18	852.574
1330.45	653.976
1334.71	377.298
1338.98	375.537
1343.24	282.746
1347.5	349.089
1351.75	289.951
1356.01	343.207
1360.26	183.275
1364.51	154.904
1368.76	261.757
1373	317.671
1377.24	512.763
1381.48	547.301
1385.72	466.943
1389.96	420.34
1394.19	328.962
1398.42	372.055
1402.65	367.216
1406.88	478.423
1411.1	376.993
1415.33	237.779
1419.55	323.4
1423.76	217.818
1427.98	246.79
1432.19	438.457
1436.4	630.015
1440.61	1040.79
1444.82	1423.02
1449.03	1668.47
1453.23	1913.69
1457.43	1762.09
1461.62	1597
1465.82	1242.13
1470.02	904.093
1474.21	696.501
1478.39	637.139
1482.58	530.907
1486.77	336.884
1490.95	235.145
1495.13	165.858
1499.31	28.8257
1503.48	1.26367
1507.66	41.8364
1511.83	87.6538
1516	27.6035
1520.16	90.0532
1524.33	109.222
1528.49	247.32
1532.65	394.058
1536.81	189.764
1540.97	147.877
1545.12	251.261
1549.27	136.938
1553.42	83.2476
1557.57	47.1841
1561.71	2.59619
