Measurement: Raman, 514 nm, ccw, Raman Data Processed
Mineral: Diopside
Rruff sample: R070123
Ideal chemistry: CaMgSi_2_O_6_
Locality: Yates mine, Otter Lake, Huddersfield Township, Pontiac County, Québec, Canada
Source: Michael Scott
Description: Black prismatic crystals associated with orange calcite
Measured chemistry: (Ca_0.95_Na_0.04_Mn_0.01_)_Σ=1_(Mg_0.63_Fe_0.33_Al_0.04_)_Σ=1_Si_2.00_O_6_
Pin_id: M01164
Orientation: Laser parallel to c* (0 0 1). Fiducial mark perpendicular to laser is parallel to a [1 0 0]
Raman shift (cm-1)	intensity
117.295	0
122.247	1.96924
127.196	91.2756
132.143	301.797
137.086	299.885
142.026	170.158
146.963	7.96533
151.898	47.1567
156.829	104.613
161.758	305.445
166.683	338.097
171.606	424.254
176.526	670.661
181.442	590.14
186.356	439.548
191.267	400.743
196.175	368.668
201.08	329.074
205.983	160.413
210.882	136.311
215.778	237.196
220.672	443.014
225.563	697.394
230.45	1022.68
235.335	945.517
240.217	634.318
245.096	603.059
249.973	615.707
254.846	538.231
259.716	462.953
264.584	282.792
269.449	177.282
274.31	130.469
279.169	285.058
284.026	403.523
288.879	743.765
293.729	1287.57
298.577	1947.1
303.422	2941.43
308.263	4857.09
313.103	8180.84
317.939	11871.8
322.772	12383.7
327.603	8935.59
332.43	5643.15
337.255	4131.28
342.077	3741.97
346.896	4164.2
351.713	5239.95
356.526	4930.21
361.337	3906.94
366.145	3637.14
370.95	4688.78
375.753	7610.84
380.552	13225.3
385.349	18649.2
390.143	16165.4
394.934	8302.98
399.722	3475.91
404.508	1608.16
409.29	930.722
414.07	604.73
418.848	335.208
423.622	191.112
428.394	22.4161
433.163	54.9331
437.929	30.1373
442.692	26.3086
447.453	25.4636
452.21	179.275
456.966	371.062
461.718	332.366
466.467	247.676
471.214	181.002
475.958	229.694
480.699	129.56
485.438	154.454
490.174	184.405
494.907	205.389
499.637	291.389
504.365	452.388
509.09	582.372
513.812	890.323
518.531	1225.98
523.248	1806.17
527.962	2101.22
532.673	1587.35
537.382	1037.55
542.088	990.685
546.791	1146.69
551.491	1622.56
556.189	2591.26
560.884	2207.81
565.576	1122.21
570.266	650.422
574.953	453.808
579.637	231.975
584.319	54.7355
588.998	10.7045
593.674	22.2147
598.348	76.9185
603.018	34.3092
607.687	42.4943
612.352	76.8268
617.015	119.645
621.675	233.269
626.333	359.132
630.988	570.02
635.64	748.533
640.289	1056.67
644.936	1675.41
649.581	2736.78
654.222	5583.75
658.861	11225.8
663.497	17935.3
668.131	16131.7
672.762	8397.85
677.391	4025.27
682.016	2209.57
686.639	1429.71
691.26	957.343
695.878	719.189
700.493	554.303
705.106	439.686
709.716	383.612
714.323	276.149
718.928	179.39
723.53	142.119
728.13	143.084
732.727	69.4831
737.321	58.2905
741.913	16.4392
746.502	32.228
751.089	21.3638
755.673	50.6924
760.254	60.8342
764.833	81.7163
769.41	89.3663
773.983	65.215
778.554	49.0474
783.123	57.2983
787.689	78.0028
792.252	3.25378
796.813	33.6799
801.371	41.4706
805.927	6.7583
810.48	20.4668
815.031	15.5459
819.579	2.7721
824.124	39.5891
828.667	7.3468
833.208	18.8586
837.745	43.059
842.281	10.47
846.813	198.024
851.344	549.635
855.871	847.317
860.396	756.808
864.919	605.972
869.439	592.751
873.957	667.059
878.472	788.26
882.984	910.144
887.494	967.478
892.002	1036.45
896.507	986.249
901.009	1035.74
905.509	927.203
910.006	848.062
914.501	768.249
918.994	660.055
923.484	582.176
927.971	588.318
932.456	539.134
936.938	391.039
941.418	360.281
945.896	346.345
950.371	481.852
954.843	722.579
959.313	930.151
963.781	1154.02
968.246	1352.6
972.709	1536.4
977.169	1868.75
981.626	2270.44
986.082	2725.53
990.534	3527.02
994.985	5347.91
999.432	9021.23
1003.88	18254.5
1008.32	36870.2
1012.76	51017
1017.2	31472.2
1021.63	12753
1026.07	6817.15
1030.5	4967.32
1034.93	4515.39
1039.35	4526.48
1043.78	4305.81
1048.2	3306.82
1052.62	2347.64
1057.03	1655.36
1061.44	1341.28
1065.86	1103.73
1070.27	877.249
1074.67	719.265
1079.08	664.247
1083.48	621.882
1087.88	530.591
1092.27	483.438
1096.67	466.327
1101.06	437.867
1105.45	461.618
1109.84	447.129
1114.22	442.753
1118.6	453.214
1122.98	451.87
1127.36	508.405
1131.73	446.009
1136.11	399.659
1140.48	273.258
1144.85	170.898
1149.21	111.472
1153.58	22.1154
1157.94	29.2799
1162.3	10.1338
1166.65	22.6973
1171.01	27.8378
1175.36	36.3095
1179.7	16.2677
1184.05	28.4998
1188.4	21.1826
1192.74	37.2152
1197.08	17.6716
1201.41	10.5688
1205.75	3.80975
1210.08	10.6492
1214.41	26.8245
1218.74	1.71893
1223.07	36.3057
1227.39	15.6072
1231.71	41.5735
1236.03	58.2841
1240.34	57.7689
1244.66	95.0308
1248.97	74.0691
1253.28	103.875
1257.59	103.448
1261.89	79.7853
1266.19	108.886
1270.49	121.749
1274.79	111.372
1279.09	106.753
1283.38	94.8973
1287.67	145.858
1291.96	112.93
1296.24	122.272
1300.53	143.053
1304.81	143.654
1309.09	71.324
1313.37	130.205
1317.64	106.502
1321.91	80.1975
1326.18	111.193
1330.45	106.043
1334.71	121.719
1338.98	120.086
1343.24	89.4964
1347.5	151.461
1351.75	71.4672
1356.01	106.835
1360.26	124.095
1364.51	63.9308
1368.76	108.187
1373	114.274
1377.24	90.5659
1381.48	71.6609
1385.72	75.8163
1389.96	70.7619
1394.19	81.8721
1398.42	97.7922
1402.65	68.6176
1406.88	38.3339
1411.1	20.8866
1415.33	27.4416
1419.55	26.0491
1423.76	46.638
1427.98	72.3015
1432.19	49.0022
1436.4	32.2567
1440.61	34.8619
1444.82	25.4564
1449.03	8.40949
1453.23	37.5887
1457.43	38.876
1461.62	27.3069
1465.82	43.8926
1470.02	7.46564
1474.21	41.0215
1478.39	10.5925
1482.58	59.1912
1486.77	0.845886
1490.95	33.5316
1495.13	16.7739
1499.31	28.8615
1503.48	19.8209
1507.66	37.864
1511.83	25.0676
1516	4.27515
1520.16	5.91736
1524.33	28.8398
1528.49	15.0037
1532.65	10.4894
1536.81	50.6343
1540.97	15.0687
1545.12	31.1675
1549.27	17.9636
1553.42	28.8318
1557.57	67.2914
1561.71	13.1977
