Measurement: Raman, 514 nm, ccw, Raman Data Processed
Mineral: Diopside
Rruff sample: R070123
Ideal chemistry: CaMgSi_2_O_6_
Locality: Yates mine, Otter Lake, Huddersfield Township, Pontiac County, Québec, Canada
Source: Michael Scott
Description: Black prismatic crystals associated with orange calcite
Measured chemistry: (Ca_0.95_Na_0.04_Mn_0.01_)_Σ=1_(Mg_0.63_Fe_0.33_Al_0.04_)_Σ=1_Si_2.00_O_6_
Pin_id: M01501
Orientation: Laser parallel to -b* (0 -1 0). Fiducial mark perpendicular to laser is parallel to c [0 0 1]
Raman shift (cm-1)	intensity
115.57	0
120.521	166.794
125.469	1868.7
130.414	5112.37
135.356	9042.61
140.295	6030.74
145.232	1485.48
150.165	376.47
155.096	103.173
160.024	64.2412
164.949	211.611
169.872	333.584
174.791	712.101
179.708	569.299
184.622	358.01
189.533	298.474
194.441	343.69
199.347	435.921
204.249	165.981
209.149	22.4148
214.046	26.9214
218.94	67.6875
223.832	222.462
228.72	423.431
233.606	581.538
238.489	313.623
243.369	134.393
248.247	170.29
253.121	170.312
257.993	162.447
262.862	8.69067
267.728	9.15015
272.592	27.6182
277.452	1.17285
282.31	89.0591
287.165	209.028
292.017	426.519
296.867	837.115
301.714	1393.05
306.558	2435.43
311.399	4009.45
316.237	5700.46
321.073	6561.66
325.906	5304.98
330.736	3493.44
335.563	2696.69
340.387	2566.15
345.209	2757.59
350.028	3271.96
354.844	3339.06
359.658	2640.34
364.469	2096.06
369.277	1853.38
374.082	2445.86
378.884	3811.35
383.684	5862.84
388.481	5865.34
393.275	3438.85
398.066	1580.36
402.855	642.881
407.641	387.731
412.424	296.5
417.205	187.162
421.983	32.1921
426.758	14.4353
431.53	26.6186
436.299	28.648
441.066	14.0735
445.83	14.8359
450.591	49.9126
455.35	99.6807
460.106	89.6956
464.859	78.7393
469.609	57.3303
474.357	10.1623
479.102	128.147
483.844	50.1235
488.584	273
493.321	457.768
498.055	925.445
502.786	1598.11
507.515	1255.81
512.241	768.395
516.964	701.84
521.685	711.187
526.402	981.532
531.118	975.78
535.83	953.039
540.54	906.171
545.247	822.134
549.951	765.923
554.653	758.561
559.352	704.03
564.048	689.334
568.742	602.958
573.432	541.501
578.121	305.747
582.806	193.988
587.489	89.062
592.169	42.6079
596.847	6.88013
601.521	11.0156
606.193	58.9875
610.863	150.19
615.53	238.39
620.194	393.176
624.855	598.267
629.514	891.791
634.17	1281.03
638.823	1735.99
643.474	2564.56
648.122	4248.95
652.767	8016.05
657.41	16313.9
662.05	27661.2
666.688	28654.6
671.322	16065.2
675.954	7367.99
680.584	3751.34
685.211	2229.38
689.835	1414.12
694.456	963.567
699.075	648.729
703.691	459.606
708.305	324.212
712.916	247.565
717.524	119.83
722.13	89.9866
726.733	6.96729
731.333	17.7385
735.931	56.4514
740.526	34.8191
745.118	18.4692
749.708	56.8352
754.295	51.178
758.88	5.18189
763.462	72.5251
768.041	64.0742
772.618	63.4797
777.192	47.2429
781.763	46.8132
786.332	41.7703
790.898	9.64258
795.462	48.5571
800.023	54.9707
804.581	32.676
809.137	26.4309
813.69	1.23486
818.24	138.003
822.788	82.7908
827.334	154.612
831.876	132.48
836.416	122.409
840.954	330.412
845.489	857.504
850.021	2117.7
854.551	3136
859.078	2471.26
863.602	1359.21
868.124	880.18
872.644	743.595
877.16	664.747
881.675	635.612
886.186	611.53
890.695	570.918
895.202	555.204
899.705	601.293
904.207	406.113
908.705	420.817
913.201	423.133
917.695	328.828
922.186	433.01
926.674	374.696
931.16	387.706
935.643	264.58
940.124	269.835
944.602	184.819
949.077	284.875
953.55	449.53
958.021	499.637
962.489	627.186
966.954	735.166
971.417	879.572
975.877	997.449
980.334	1133.77
984.789	1538.52
989.242	2019.69
993.692	3148.28
998.139	5660.33
1002.58	10836.9
1007.03	23093.1
1011.47	36204
1015.9	27309.5
1020.34	11736.4
1024.77	6385.32
1029.2	4517.54
1033.63	4347.93
1038.05	4897.48
1042.47	5007.07
1046.89	3896.46
1051.31	2568.64
1055.72	1826.24
1060.14	1277.18
1064.55	983.833
1068.95	781.669
1073.36	689.438
1077.76	605.199
1082.16	637.093
1086.55	579.77
1090.95	604.398
1095.34	579.755
1099.73	517.808
1104.12	541.475
1108.5	400.147
1112.88	503.906
1117.26	494.217
1121.64	455.346
1126.01	500.44
1130.38	426.198
1134.75	371.351
1139.12	260.504
1143.48	225.669
1147.84	135.847
1152.2	63.9219
1156.56	36.9197
1160.91	2.83252
1165.27	20.4004
1169.61	102.045
1173.96	24.0591
1178.31	54.657
1182.65	49.7241
1186.98	25.2039
1191.32	34.8965
1195.66	49.4148
1199.99	19.3035
1204.32	32.4001
1208.64	21.7622
1212.97	6.75952
1217.29	15.4531
1221.61	43.8672
1225.93	59.02
1230.24	104.927
1234.55	20.5781
1238.86	32.9031
1243.17	59.9522
1247.47	173.75
1251.78	150.3
1256.07	162.603
1260.37	140.643
1264.67	201.444
1268.96	114.997
1273.25	152.302
1277.54	110.36
1281.82	149.759
1286.1	179.346
1290.38	109.651
1294.66	196.111
1298.93	99.9739
1303.21	143.87
1307.48	109.279
1311.74	122.519
1316.01	137.225
1320.27	155.644
1324.53	160.263
1328.79	148.647
1333.05	217.779
1337.3	211.161
1341.55	200.525
1345.8	101.263
1350.04	109.315
1354.29	125.112
1358.53	97.1321
1362.76	135.004
1367	88.9221
1371.23	147.672
1375.46	107.513
1379.69	109.356
1383.92	73.2061
1388.14	95.3931
1392.36	105.3
1396.58	73.9893
1400.8	103.884
1405.01	68.4023
1409.22	80.1045
1413.43	6.56787
1417.64	27.9468
1421.85	35.3086
1426.05	78.4407
1430.25	102.874
1434.44	42.4421
1438.64	57.28
1442.83	55.354
1447.02	85.1118
1451.21	96.2686
1455.39	36.6472
1459.58	6.10913
1463.76	65.6035
1467.94	68.2361
1472.11	32.9326
1476.28	29.6897
1480.45	101.487
1484.62	70.3477
1488.79	126.311
1492.95	25.1138
1497.11	45.3372
1501.27	80.7351
1505.43	43.2373
1509.58	46.009
1513.73	99.6328
1517.88	16.2669
1522.03	93.7229
1526.18	72.3865
1530.32	91.0034
1534.46	79.52
1538.6	96.0247
1542.73	54.76
1546.86	6.30615
1550.99	86.2988
1555.12	93.2866
1559.25	15.2271
1563.37	0
