Measurement: Raman, 514 nm, ccw, Raman Data Processed
Mineral: Dioptase
Rruff sample: R050010
Ideal chemistry: CuSiO_3_H_2_O
Locality: Tsumeb mine, Tsumeb, Otavi District, Oshikoto, Namibia
Source: Eugene Schlepp
Description: Bluish green single crystals
Measured chemistry: Cu_1.00_Si_1.00_O_3_Â·H_2_O ; trace amounts of Mg and Al; OH estimated by difference
Pin_id: L00476
Orientation: Laser parallel to c* (0 0 1). Fiducial mark perpendicular to laser is parallel to a [1 0 0]
Raman shift (cm-1)	intensity
104.6	0
108.781	277.474
112.959	2042.47
117.136	3303.72
121.31	2669.29
125.482	3949.06
129.653	13493.6
133.821	18237.4
137.987	13988.5
142.152	3544.32
146.314	125.797
150.474	209.525
154.633	940.181
158.789	6234.9
162.943	7330.81
167.095	2063.06
171.246	960.956
175.394	3425.35
179.54	6311.96
183.684	3510.88
187.826	1727.85
191.967	1443.47
196.105	2518.77
200.241	1554.02
204.375	1599.13
208.507	2736.32
212.638	4721.61
216.766	9156.51
220.892	18858
225.016	25002.8
229.139	16559.8
233.259	7827.58
237.377	3665.99
241.493	2224.88
245.608	1329.93
249.72	247.101
253.83	266.37
257.939	1521.74
262.045	6921.17
266.15	13800.7
270.252	6800.7
274.353	3216.72
278.451	2918.54
282.548	3892.43
286.642	5377.05
290.735	7652.45
294.826	6335.3
298.914	2264.73
303.001	393.75
307.086	379.052
311.168	460.676
315.249	369.73
319.328	67.724
323.405	1582.18
327.48	1911.21
331.553	614.838
335.624	92.105
339.693	94.171
343.76	481.331
347.826	1653.42
351.889	6355.29
355.95	20513
360.01	14490.4
364.067	5157.71
368.123	2428.79
372.176	1505.69
376.228	1608.53
380.277	1899.74
384.325	2601.97
388.371	4450.95
392.415	9560.93
396.457	19880.9
400.497	21151
404.535	10571
408.571	4741.05
412.605	3411.09
416.638	3538.82
420.668	3808.86
424.697	4188.88
428.723	4659.22
432.748	4862.29
436.77	4711.88
440.791	4272.7
444.81	3782.16
448.827	3488.67
452.842	3401.17
456.855	2979.33
460.867	2099.35
464.876	1515.8
468.883	1017.98
472.889	662.309
476.892	446.391
480.894	552.662
484.894	676.599
488.892	682.378
492.888	483.001
496.882	470.591
500.874	582.47
504.865	601.889
508.853	883.943
512.84	1233.87
516.824	1442.68
520.807	1459.42
524.788	1133.09
528.767	855.683
532.744	827.208
536.719	605.71
540.693	406.254
544.664	335.853
548.634	467.52
552.601	795.03
556.567	1571.89
560.531	2503.55
564.493	2748.22
568.453	2389.89
572.412	2098.51
576.368	1291.12
580.323	681.71
584.275	383.258
588.226	180.761
592.175	63.164
596.122	121.713
600.068	80.135
604.011	128.129
607.952	63.853
611.892	128.273
615.83	113.406
619.766	52.073
623.7	228.515
627.632	399.375
631.563	429.458
635.491	536.982
639.418	1083.48
643.343	1653.08
647.266	2864.66
651.187	5280.22
655.106	11286.8
659.024	18783.5
662.939	14440.3
666.853	7657.11
670.765	4095.03
674.675	2390.48
678.583	1724.19
682.49	1263.51
686.394	948.965
690.297	633.083
694.198	490.077
698.097	525.165
701.995	541.74
705.89	507.6
709.784	532.447
713.675	608.698
717.565	886.938
721.453	1191
725.34	1790.66
729.224	2758.3
733.107	4530.93
736.988	7347.77
740.867	9634.37
744.744	8410.64
748.62	5164.08
752.493	3002.52
756.365	1910.75
760.235	1362.56
764.103	914.187
767.969	599.572
771.834	411.129
775.697	354.443
779.558	300.354
783.417	354.344
787.274	375.399
791.13	298.505
794.983	256.646
798.835	314.819
802.686	267.026
806.534	189.268
810.38	164.551
814.225	35.873
818.068	132.234
821.909	55.636
825.749	47.065
829.586	39.479
833.422	54.167
837.256	63.873
841.088	0.349
844.919	76.564
848.748	27.238
852.575	12.797
856.4	60.261
860.223	12.484
864.045	20.692
867.864	9.105
871.682	5.923
875.499	18.705
879.313	10.526
883.126	16.42
886.937	79.389
890.746	211.431
894.553	221.545
898.359	202.743
902.163	357.067
905.965	629.656
909.765	1054.59
913.564	1618.88
917.361	1397.61
921.156	892.779
924.949	620.343
928.74	530.084
932.53	624.917
936.318	636.842
940.104	593.861
943.889	523.985
947.672	594.216
951.453	827.545
955.232	1077.01
959.01	1281.63
962.785	1062.59
966.559	863.593
970.332	790.633
974.102	882.853
977.871	934.788
981.638	1115.51
985.404	1371.17
989.167	2803.74
992.929	2362.02
996.689	3264.88
1000.45	6022.31
1004.2	9606.76
1007.96	9070.22
1011.71	8009.06
1015.46	8220.3
1019.21	7882.77
1022.96	7083.27
1026.71	6303.05
1030.45	5136.33
1034.19	3699.73
1037.94	2566.23
1041.68	1833.62
1045.41	1256.34
1049.15	949.156
1052.88	861.079
1056.62	728.104
1060.35	623.216
1064.08	459.415
1067.8	384.688
1071.53	316.03
1075.25	252.458
1078.97	192.099
1082.7	166.75
1086.41	177.88
1090.13	113.241
1093.85	100.569
1097.56	11.885
1101.27	10.222
1104.98	45.228
1108.69	19.229
1112.4	21.403
1116.1	62.864
1119.81	61.383
1123.51	312.115
1127.21	88.758
1130.91	74.012
1134.61	153.254
1138.3	140.645
1141.99	144.285
1145.68	160.656
1149.38	153.196
1153.06	141.738
1156.75	156.7
1160.43	231.015
1164.12	247.836
1167.8	215.671
1171.48	177.979
1175.16	179.845
1178.83	153.63
1182.51	115.926
1186.18	66.668
1189.85	104.033
1193.52	155.057
1197.19	132.91
1200.86	117.006
1204.52	114.834
1208.19	74.46
1211.85	111.105
1215.51	99.469
1219.17	87.251
1222.82	138.623
1226.48	126.116
1230.13	26.119
1233.78	42.394
1237.43	55.012
1241.08	23.409
1244.73	10.638
1248.37	38.211
1252.01	19.412
1255.66	42.839
1259.3	50.184
1262.93	10.253
1266.57	15.816
1270.21	22.029
1273.84	36.646
1277.47	92.928
1281.1	42.107
1284.73	4.329
1288.36	7.958
1291.98	14.542
1295.6	14.633
1299.23	21.994
1302.85	26.042
1306.46	27.205
1310.08	5.201
1313.7	54.28
1317.31	51.063
1320.92	109.563
1324.53	79.79
1328.14	76.742
1331.75	63.429
1335.35	56.848
1338.96	74.011
1342.56	13.92
1346.16	69.564
1349.76	92.956
1353.36	49.104
1356.95	102.01
1360.55	63.684
1364.14	110.129
1367.73	52.333
1371.32	73.437
1374.91	47.021
1378.49	45.118
1382.08	65.663
1385.66	51.043
1389.24	57.473
1392.82	120.984
1396.4	111.464
1399.97	109.747
1403.55	67.878
1407.12	85.126
1410.69	27.732
1414.26	35.083
1417.83	34.792
1421.4	49.744
1424.96	113.25
1428.53	72.223
1432.09	90.268
1435.65	94.07
1439.21	105.625
1442.76	128.991
1446.32	88.094
1449.87	71.601
1453.43	84.708
1456.98	64.642
1460.53	111.571
1464.07	46.812
1467.62	74.05
1471.16	127.644
1474.71	83.419
1478.25	145.567
1481.79	85.73
1485.32	42.785
1488.86	31.021
1492.39	25.493
1495.93	48.27
1499.46	27.353
1502.99	17.754
1506.52	33.598
1510.05	19.378
1513.57	28.269
1517.09	76.645
1520.62	31.156
