Measurement: Raman, 514 nm, ccw, Raman Data Processed
Mineral: Diopside
Rruff sample: R040097
Ideal chemistry: CaMgSi_2_O_6_
Locality: Fassathal, Tyrol
Source: University of Arizona Mineral Museum
Description: Green prismatic crystals
Measured chemistry: Ca_1.00_(Mg_0.83_Al_0.10_Fe_0.09_Ca_0.02_Ti_0.02_)(Si_0.88_Al_0.12_)_2_O_6_
Pin_id: M00269
Orientation: Laser parallel to b* (0 1 0). Fiducial mark perpendicular to laser is parallel to -c [0 0 -1]
Raman shift (cm-1)	intensity
123.286	0
126.063	89.089
128.84	407.592
131.615	713.743
134.39	1239.96
137.164	1883.79
139.937	2328.78
142.709	2395.12
145.48	1908.67
148.25	1333.55
151.019	807.251
153.788	481.155
156.555	426.373
159.322	322.094
162.088	202.17
164.853	201.758
167.617	286.312
170.38	136.044
173.142	165.202
175.904	275.154
178.664	145.852
181.424	9.669
184.183	156.854
186.94	48.26
189.698	10.292
192.454	142.918
195.209	96.11
197.963	93.982
200.717	81.91
203.47	73.48
206.221	38.351
208.972	73.024
211.722	37.391
214.472	88.611
217.22	64.995
219.967	121.746
222.714	88.854
225.46	236.285
228.204	164.014
230.948	112.018
233.692	120.295
236.434	178.789
239.175	22.455
241.916	176.348
244.655	85.369
247.394	84.504
250.132	183.684
252.869	133.068
255.605	152.713
258.34	132.617
261.075	170.998
263.808	153.186
266.541	83.711
269.273	7.447
272.004	25.418
274.734	166.672
277.463	150.455
280.192	5.373
282.919	52.92
285.646	199.586
288.372	158.797
291.097	246.945
293.821	298.16
296.544	377.832
299.266	489.463
301.988	481.566
304.709	714.025
307.428	636.73
310.147	809.613
312.865	972.635
315.583	1445.81
318.299	1899.04
321.015	2322.41
323.729	2695.59
326.443	2828.83
329.156	2802.02
331.868	2665.08
334.579	2428.3
337.29	2241.71
339.999	1935.3
342.708	1839.07
345.416	1801.15
348.123	1875.1
350.829	1899.14
353.534	2033.12
356.239	2139.92
358.942	2192.74
361.645	2107.39
364.347	2188.24
367.048	2149.58
369.748	2072.67
372.448	1950.19
375.146	2023.7
377.844	2219.15
380.54	2484.34
383.236	3100.05
385.932	3595.87
388.626	4531.82
391.319	4767.89
394.012	4854.16
396.704	4130.55
399.394	3147.2
402.084	2003.18
404.774	1247.32
407.462	756.5
410.15	465.303
412.836	252.871
415.522	310.576
418.207	288.559
420.891	146.793
423.575	25.244
426.257	33.91
428.939	17.223
431.619	94.883
434.299	18.221
436.978	22.326
439.657	212.508
442.334	32.473
445.011	18.316
447.687	360.051
450.361	221.662
453.036	117.105
455.709	145.391
458.381	156.279
461.053	386.787
463.724	507.434
466.394	337.67
469.063	377.969
471.731	398.318
474.398	378.711
477.065	449.139
479.731	409.602
482.396	380.094
485.06	328.186
487.723	401.184
490.385	311.771
493.047	602.387
495.708	603.02
498.368	443.67
501.027	334.338
503.685	435.025
506.342	645.748
508.999	666.471
511.655	477.195
514.31	577.918
516.964	698.701
519.617	799.494
522.27	960.273
524.921	1331.06
527.572	1221.86
530.222	1592.67
532.871	1923.51
535.52	1674.35
538.167	1565.18
540.814	1025.97
543.46	1046.73
546.105	974.617
548.749	848.846
551.393	439.486
554.035	701.766
556.677	389.17
559.318	581.135
561.958	584.115
564.597	544.301
567.236	391.941
569.874	118.295
572.511	371.088
575.147	598.023
577.782	613.961
580.416	348.73
583.05	174.676
585.683	134.988
588.315	130.494
590.946	108.012
593.576	129.293
596.206	16.189
598.834	66.875
601.462	117.312
604.089	78.906
606.715	29.586
609.341	29.744
611.965	80.9
614.589	141.346
617.212	184.523
619.834	204.055
622.456	262.143
625.076	270.297
627.696	480.248
630.315	478.414
632.933	464.877
635.551	632.096
638.167	969.1
640.783	1307.13
643.398	1462.98
646.012	1568.68
648.625	1985.11
651.237	2800.77
653.849	3585.88
656.46	4721.16
659.07	6395.62
661.679	8292.58
664.288	9656.65
666.895	9950.53
669.502	8594.19
672.108	6547.66
674.713	4650.93
677.318	3453.98
679.921	2607.54
682.524	2060.22
685.126	1492.65
687.727	1234.86
690.328	1094.12
692.927	759.227
695.526	670.789
698.124	532.139
700.721	353.264
703.318	564.164
705.913	244.836
708.508	445.188
711.102	425.225
713.695	154.875
716.288	185.867
718.879	82.865
721.47	31.307
724.06	189.4
726.649	137.092
729.238	4.393
731.825	458.65
734.412	207.471
736.998	233.219
739.584	211.438
742.168	26.705
744.752	147.664
747.334	379.895
749.916	9.994
752.498	49.742
755.078	100.332
757.658	342.588
760.237	157
762.815	286.129
765.392	297.016
767.969	0.18
770.544	350.76
773.119	461.262
775.693	271.885
778.267	232.361
780.839	22.916
783.411	313.236
785.982	383.355
788.552	173.266
791.122	252.953
793.69	302.412
796.258	581.65
798.825	340.676
801.391	149.484
803.957	298.051
806.522	496.418
809.085	744.586
811.649	472.543
814.211	20.289
816.772	767.816
819.333	425.133
821.893	842.25
824.452	629.164
827.011	445.883
829.568	732.398
832.125	568.73
834.681	754.863
837.236	500.816
839.791	386.594
842.345	292.203
844.898	997.633
847.45	842.871
850.001	697.949
852.552	1282.89
855.102	1977.32
857.651	2161.91
860.199	2195.14
862.746	1610.22
865.293	1602.65
867.839	1718.38
870.384	1624.75
872.928	1115.86
875.472	1093.15
878.015	732.469
880.557	699.332
883.098	386.305
885.639	343.746
888.178	294.637
890.717	673.18
893.256	572.004
895.793	296.121
898.33	73.086
900.865	212.266
903.401	707.449
905.935	216.531
908.468	196.715
911.001	79.309
913.533	479.223
916.064	211.031
918.595	362.047
921.124	180.637
923.653	424.281
926.182	606.812
928.709	638.645
931.236	142.074
933.761	375.305
936.286	619.359
938.811	460.895
941.334	352.125
943.857	112.004
946.379	752.992
948.9	953.082
951.421	533.887
953.94	602.449
956.459	563.691
958.978	834.707
961.495	1135.51
964.012	685.199
966.527	555.547
969.043	464.961
971.557	974.871
974.071	624.57
976.583	554.125
979.095	683.773
981.607	1173.77
984.117	1203.98
986.627	804.484
989.136	1015.59
991.644	1667.41
994.152	2110.01
996.659	2396.65
999.165	2959.96
1001.67	4153.31
1004.17	5209.46
1006.68	5473.03
1009.18	5126.64
1011.68	4320.31
1014.18	3433.98
1016.68	1817.74
1019.18	1411.72
1021.68	1205.94
1024.18	1170.5
1026.68	975.328
1029.18	730.535
1031.67	746.188
1034.17	772.352
1036.66	719.098
1039.16	576.438
1041.65	554.363
1044.14	823.059
1046.63	1362.45
1049.12	682.996
1051.62	764.352
1054.11	526.688
1056.59	1080.16
1059.08	794.941
1061.57	411.238
1064.06	199.258
1066.54	499.285
1069.03	581.656
1071.51	276.758
1073.99	65.883
1076.47	526.445
1078.96	843.844
1081.44	7.723
1083.92	105.137
1086.4	431.828
1088.88	0
