Measurement: Raman, 514 nm, ccw, Raman Data Processed
Mineral: Diopside
Rruff sample: R050666
Ideal chemistry: CaMgSi_2_O_6_
Locality: Franklin, Sussex County, New Jersey, USA
Source: University of Arizona Mineral Museum
Description: Brown cleavage fragment with white hardystonite
Measured chemistry: Ca(Mg_0.66_Mn_0.33_Fe_0.01_)Si_2_O_6_
Pin_id: L00536
Orientation: Laser parallel to c* (0 0 1). Fiducial mark perpendicular to laser is parallel to -a [-1 0 0]
Raman shift (cm-1)	intensity
109.512	0
114.44	189.997
119.365	5.61475
124.288	246.26
129.209	1048.11
134.127	1351.08
139.043	643.188
143.956	55.2632
148.867	3.36548
153.775	157.25
158.681	53.8921
163.585	81.4409
168.486	33.2707
173.385	175.106
178.282	98.2498
183.176	91.6511
188.067	62.5964
192.956	33.8765
197.843	55.4915
202.727	149.464
207.609	12.5435
212.489	6.46899
217.366	2.63818
222.24	26.4927
227.112	66.063
231.982	230.839
236.849	134.427
241.714	136.714
246.577	216.96
251.437	309.214
256.294	399.143
261.149	434.153
266.002	345.682
270.852	341.573
275.7	354.038
280.545	406.589
285.388	464.243
290.229	708.461
295.067	1029.7
299.902	1960.33
304.735	3370.19
309.566	5255.89
314.394	6143
319.22	3943.34
324.043	2190.2
328.864	1477.76
333.682	1539.09
338.498	2138.81
343.311	3544.9
348.122	4373.61
352.931	3390.19
357.737	2363.94
362.54	1747.68
367.341	1972.43
372.14	3459.1
376.936	6580.61
381.73	9356.13
386.521	5449.65
391.31	2167.17
396.096	789.7
400.88	486.229
405.661	273.698
410.44	202.137
415.216	112.559
419.99	100.949
424.761	38.3098
429.53	0.58374
434.297	19.2361
439.061	42.8543
443.822	143.904
448.581	250.99
453.337	226.155
458.091	194.468
462.843	24.7302
467.592	89.9954
472.338	30.7873
477.082	31.8215
481.824	45.0557
486.563	5.51685
491.3	75.957
496.034	161.414
500.765	236.93
505.494	188.524
510.221	185.327
514.945	182.216
519.666	303.189
524.385	410.261
529.102	308.603
533.816	266.984
538.527	262.455
543.236	405.906
547.943	1100.32
552.647	1928.68
557.348	1374.99
562.047	623.25
566.744	327.837
571.438	199.579
576.129	131.099
580.818	113.153
585.504	76.3069
590.188	41.7148
594.87	26.7715
599.549	53.2439
604.225	123.593
608.899	242.099
613.57	285.664
618.239	428.711
622.905	640.597
627.569	879.681
632.23	1199.1
636.889	1658.98
641.545	2619
646.198	4928.1
650.849	10582.2
655.498	22370.9
660.144	29303.2
664.787	17534.3
669.428	8122.02
674.067	3861.68
678.703	2237.93
683.336	1400.72
687.967	901.768
692.595	682.219
697.221	521.504
701.844	364.621
706.465	253.577
711.083	142.414
715.698	109.209
720.311	99.7122
724.922	13.8472
729.53	28.3237
734.135	2.22046
738.738	9.10767
743.338	44.3506
747.936	36.6301
752.531	70.7764
757.124	55.9026
761.714	83.971
766.302	15.968
770.887	28.1499
775.469	27.5102
780.049	36.8923
784.626	25.9529
789.201	4.23364
793.773	7.79272
798.343	10.7537
802.91	8.21411
807.475	10.063
812.037	59.1938
816.596	29.0203
821.153	25.5312
825.707	27.7541
830.259	158.901
834.808	280.983
839.355	819.009
843.899	2299.98
848.441	3315.91
852.98	1677.8
857.516	796.657
862.05	430.177
866.581	331.398
871.11	247.102
875.636	278.491
880.159	178.947
884.68	217.276
889.199	180.672
893.714	141.41
898.228	226.188
902.738	262.115
907.246	292.386
911.752	268.797
916.255	257.617
920.755	203.693
925.253	151.474
929.748	199.116
934.241	63.2105
938.731	15.0706
943.218	89.6133
947.703	77.8723
952.186	211.334
956.665	308.437
961.142	317.271
965.617	408.705
970.089	457.321
974.558	621.106
979.025	765.062
983.489	1040.21
987.951	1418.53
992.41	2210.03
996.866	3806.72
1001.32	8107.64
1005.77	20930.8
1010.22	51312.1
1014.67	43462.7
1019.11	15327.4
1023.55	6606.35
1027.99	4728.48
1032.42	5057.9
1036.86	7493.4
1041.29	9907.8
1045.72	4490.76
1050.14	2183.24
1054.56	1385.45
1058.98	969.361
1063.4	763.464
1067.82	568.285
1072.23	531.928
1076.64	509.534
1081.05	479.34
1085.45	430.401
1089.85	363.48
1094.25	450.908
1098.65	351.226
1103.04	375.969
1107.43	372.471
1111.82	438.403
1116.21	567.989
1120.59	647.472
1124.97	575.81
1129.35	385.53
1133.73	379.276
1138.1	256.04
1142.47	246.816
1146.84	108.598
1151.21	61.7141
1155.57	16.5293
1159.93	25.7263
1164.29	49.4763
1168.64	50.8555
1172.99	80.6719
1177.34	66.9841
1181.69	61.0237
1186.04	22.7163
1190.38	20.6885
1194.72	52.8906
1199.05	21.9988
1203.39	0.986816
1207.72	10.7856
1212.05	6.22339
1216.37	2.30298
1220.7	29.2205
1225.02	37.1006
1229.34	27.7278
1233.65	54.279
1237.97	43.7153
1242.28	4.02905
1246.59	68.1824
1250.89	22.2476
1255.19	89.1773
1259.49	102.977
1263.79	113.646
1268.09	129.186
1272.38	100.597
1276.67	33.9231
1280.95	145.075
1285.24	26.2607
1289.52	126.425
1293.8	116.196
1298.08	117.01
1302.35	142.994
1306.62	132.377
1310.89	133.505
1315.15	190.857
1319.42	293.839
1323.68	252.02
1327.94	246.083
1332.19	153.664
1336.44	174.63
1340.69	144.5
1344.94	162.037
1349.19	97.4548
1353.43	141.096
1357.67	100.244
1361.9	144.197
1366.14	167.48
1370.37	121.297
1374.6	54.1787
1378.83	153.936
1383.05	154.517
1387.27	122.089
1391.49	100.615
1395.7	111.371
1399.92	81.8279
1404.13	65.2551
1408.34	88.51
1412.54	18.6921
1416.74	29.3767
1420.94	131.474
1425.14	75.3579
1429.34	17.8745
1433.53	28.8416
1437.72	120.549
1441.9	75.2688
1446.09	125.126
1450.27	163.745
1454.45	96.2944
1458.63	56.1804
1462.8	60.3203
1466.97	90.4387
1471.14	93.5581
1475.31	6.67944
1479.47	41.1011
1483.63	21.8438
1487.79	29.9556
1491.94	70.7991
1496.09	22.6104
1500.24	21.1025
1504.39	96.7261
1508.54	51.3613
1512.68	73.5366
1516.82	88.835
1520.95	37.8984
1525.09	143.827
1529.22	11.1821
1533.35	50.7827
1537.47	158.683
1541.6	50.3413
1545.72	121.731
1549.83	85.2778
1553.95	156.01
1558.06	22.4883
1562.17	40.0244
1566.28	25.1631
1570.38	114.295
