Measurement: Raman, 514 nm, ccw, Raman Data Processed
Mineral: Diopside
Rruff sample: R050406
Ideal chemistry: CaMgSi_2_O_6_
Locality: unknown
Source: University of Arizona Mineral Museum
Description: Brownish gray massive
Measured chemistry: (Ca_0.95_Na_0.05_)(Mg_0.75_Fe^2+^_0.18_Fe^3+^_0.05_Al_0.01_Ti_0.01_Mn^2+^_0.01_)(Si_0.98_Al_0.02_)_2_O_6_
Pin_id: M00407
Orientation: Laser parallel to a* (1 0 0). Fiducial mark perpendicular to laser is parallel to b [0 1 0]
Raman shift (cm-1)	intensity
116.903	0
121.827	222.848
126.749	789.644
131.668	2768.97
136.585	6420.14
141.5	3802.51
146.412	801.21
151.321	104.851
156.229	37.9268
161.134	454.367
166.036	440.828
170.936	287.522
175.834	778.509
180.729	699.353
185.622	409.959
190.512	398.421
195.4	580.752
200.286	569.928
205.169	503.066
210.049	515.992
214.928	1030.34
219.803	1407.7
224.677	1685.09
229.548	1622.45
234.416	1203.67
239.282	780.663
244.146	716.398
249.007	609.824
253.866	494.893
258.722	463.379
263.576	57.7358
268.427	230.908
273.276	50.249
278.123	101.228
282.967	190.689
287.809	746.706
292.648	1420.39
297.485	2386.91
302.319	3473.47
307.151	5438.9
311.98	9484.55
316.807	15414
321.631	18210.3
326.454	14045.6
331.273	9043.36
336.09	6393.5
340.905	5439.1
345.717	5826.64
350.527	7087.53
355.334	7331.74
360.139	6540.21
364.941	6162.89
369.741	6343.77
374.538	7895.83
379.333	12619
384.126	20070.4
388.916	19808.8
393.703	11200.4
398.488	4973.04
403.271	2313.74
408.051	1194.85
412.828	736.143
417.603	571.258
422.376	356.518
427.146	113.125
431.914	11.7725
436.679	30.8672
441.442	186.087
446.202	8.31055
450.96	44.6787
455.715	212.595
460.467	225.243
465.218	194.23
469.965	140.383
474.711	163.849
479.454	277.68
484.194	190.138
488.932	322.352
493.667	352.413
498.4	439.235
503.13	856.758
507.858	1361.02
512.583	1653.99
517.306	1940.66
522.026	2125.05
526.744	2415.39
531.459	2012.59
536.172	1642.54
540.882	1440.11
545.59	1365.23
550.295	1370.98
554.998	1298.46
559.698	1249.85
564.396	1160.82
569.091	1025.24
573.784	833.842
578.474	632.727
583.162	291.822
587.847	185.463
592.529	40.3467
597.209	53.0938
601.887	130.985
606.562	3.11914
611.235	125.382
615.905	199.196
620.572	343.693
625.237	417.131
629.9	730.167
634.56	1030.53
639.217	1499.45
643.872	2189.12
648.524	3725.76
653.174	7066.74
657.821	15014.5
662.466	26280.5
667.108	24760.2
671.748	13559.7
676.385	6547.72
681.02	3770.28
685.652	2474.38
690.281	1642.23
694.908	1475.35
699.533	1154.42
704.155	1184.07
708.774	1032.99
713.391	909.23
718.005	532
722.617	356.392
727.226	346.713
731.833	188.875
736.437	96.4561
741.039	94.4268
745.638	59.6611
750.234	92.9316
754.828	55.2998
759.419	37.8555
764.008	0.086914
768.595	140.655
773.178	6.61426
777.759	36.0654
782.338	13.8877
786.914	99.6094
791.488	58.291
796.059	58.6728
800.627	115.652
805.193	18.415
809.756	26.2266
814.317	113.601
818.875	107.183
823.431	81.5273
827.984	80.6162
832.534	148.602
837.082	92.4922
841.627	320.279
846.17	588.037
850.71	1617.79
855.248	2209.56
859.783	1712.37
864.316	1174.06
868.846	1159.7
873.373	1046.13
877.898	1054.7
882.42	1127.05
886.94	1244.32
891.457	1346.63
895.971	1225.8
900.483	1170.09
904.993	984.737
909.5	1053.19
914.004	972.477
918.505	1110.06
923.004	850.362
927.501	792.282
931.995	654.054
936.486	570.062
940.975	383.998
945.461	494.789
949.945	690.394
954.426	1010.56
958.904	1106.13
963.38	1321.8
967.853	1480.09
972.324	1890.27
976.792	2144.77
981.258	2437.26
985.72	3030.53
990.181	3869.62
994.639	6143.7
999.094	10155.2
1003.55	19404.2
1008	37104.1
1012.44	47498.5
1016.89	28132.8
1021.33	12364.8
1025.77	6748.41
1030.21	4749.53
1034.64	4074.22
1039.07	4040.62
1043.5	3767.93
1047.93	3236.52
1052.35	2876.9
1056.78	2333.73
1061.19	2125.83
1065.61	1630.84
1070.02	1439.92
1074.43	1319.64
1078.84	1354.9
1083.25	1148.54
1087.65	1108.8
1092.05	1067.62
1096.45	748.783
1100.85	878.363
1105.24	707.301
1109.63	758.017
1114.02	1823.89
1118.4	1312.7
1122.78	1588.91
1127.16	1249.19
1131.54	655.7
1135.92	583.45
1140.29	422.881
1144.66	351.406
1149.02	155.871
1153.39	93.7969
1157.75	2.31543
1162.11	74.9297
1166.46	74.6103
1170.82	24.4287
1175.17	164.722
1179.52	10.5
1183.86	125.689
1188.21	0.235352
1192.55	20.5479
1196.89	110.452
1201.22	9.71387
1205.55	13.5889
1209.88	36.6103
1214.21	20.4482
1218.54	27.0068
1222.86	62.9736
1227.18	94.5869
1231.5	223.803
1235.81	124.65
1240.12	158.128
1244.43	214.278
1248.74	193.109
1253.04	181.562
1257.34	183.67
1261.64	184.422
1265.94	214.807
1270.23	150.934
1274.52	302.665
1278.81	389.032
1283.1	184.111
1287.38	133.957
1291.66	250.89
1295.94	270.539
1300.21	207.735
1304.48	251.833
1308.75	229.531
1313.02	121.833
1317.29	170.722
1321.55	283.69
1325.81	298.767
1330.06	164.615
1334.32	279.807
1338.57	616.672
1342.82	342.526
1347.06	161.419
1351.31	289.977
1355.55	300.798
1359.79	294.188
1364.02	373.016
1368.26	369.09
1372.49	292.516
1376.71	270.824
1380.94	99.4033
1385.16	129.108
1389.38	218.164
1393.6	206.683
1397.81	238.245
1402.02	234.465
1406.23	66.2256
1410.44	161.189
1414.64	116.384
1418.85	205.057
1423.04	136.013
1427.24	163.173
1431.43	109.816
1435.62	33.4873
1439.81	64.1738
1444	26.4365
1448.18	157.502
1452.36	49.2754
1456.54	8.125
1460.71	16.5693
1464.89	122.241
1469.06	96.0928
1473.22	5.95215
1477.39	69.6885
1481.55	87.4277
1485.71	59.0342
1489.86	132.598
1494.02	67.0869
1498.17	34.7197
1502.32	210.507
1506.46	185.627
1510.61	160.436
1514.75	125.193
1518.88	167.308
1523.02	23.0762
1527.15	102.743
1531.28	100
1535.41	256.752
1539.53	166.674
1543.66	124.475
1547.78	172.137
1551.89	369.627
1556.01	137.211
1560.12	84.3652
1564.23	267.848
1568.33	196.533
1572.43	0
