Measurement: Raman, 514 nm, ccw, Raman Data Processed
Mineral: Diopside
Rruff sample: R050406
Ideal chemistry: CaMgSi_2_O_6_
Locality: unknown
Source: University of Arizona Mineral Museum
Description: Brownish gray massive
Measured chemistry: (Ca_0.95_Na_0.05_)(Mg_0.75_Fe^2+^_0.18_Fe^3+^_0.05_Al_0.01_Ti_0.01_Mn^2+^_0.01_)(Si_0.98_Al_0.02_)_2_O_6_
Pin_id: M00191
Orientation: Laser parallel to -b* (0 -1 0). Fiducial mark perpendicular to laser is parallel to c [0 0 1]
Raman shift (cm-1)	intensity
116.903	0
121.827	396.547
126.749	1780.47
131.668	5197.11
136.585	6375.74
141.5	4759.29
146.412	1582.37
151.321	614.36
156.229	52.2432
161.134	53.416
166.036	195.418
170.936	484.127
175.834	662.251
180.729	758.615
185.622	595.923
190.512	608.031
195.4	584.232
200.286	523.174
205.169	64.46
210.049	17.3447
214.928	55.417
219.803	134.24
224.677	513.993
229.548	690.871
234.416	648.857
239.282	507.416
244.146	595.642
249.007	808.098
253.866	816.691
258.722	854.871
263.576	241.065
268.427	108.362
273.276	73.4199
278.123	95.0684
282.967	98.5068
287.809	380.755
292.648	630.368
297.485	1248.02
302.319	2017.76
307.151	3299.19
311.98	5275.88
316.807	7692.4
321.631	8622.86
326.454	7300.77
331.273	5164.16
336.09	3670.13
340.905	3153.21
345.717	3188.36
350.527	3837.57
355.334	3824.65
360.139	3404.84
364.941	2693.66
369.741	2391.89
374.538	2777.13
379.333	4004.36
384.126	5416.58
388.916	5230.81
393.703	3711.03
398.488	1786.25
403.271	763.459
408.051	403.649
412.828	84.8174
417.603	141.727
422.376	31.6602
427.146	13.415
431.914	108.411
436.679	41.6865
441.442	24.2676
446.202	23.6777
450.96	21.2432
455.715	285.501
460.467	124.577
465.218	244.725
469.965	63.4004
474.711	121.77
479.454	123.065
484.194	254.499
488.932	357.822
493.667	858.019
498.4	1981.36
503.13	2656.79
507.858	2337.09
512.583	1497.19
517.306	1009.06
522.026	1057.6
526.744	1211.25
531.459	1000.42
536.172	975.078
540.882	945.609
545.59	1019.91
550.295	1196.91
554.998	1512.63
559.698	1162.94
564.396	1001.03
569.091	700.81
573.784	575.981
578.474	365.438
583.162	386.393
587.847	211.802
592.529	15.3438
597.209	24.876
601.887	13.3418
606.562	33.6523
611.235	142.714
615.905	433.527
620.572	560.613
625.237	887.302
629.9	1174.94
634.56	1626.49
639.217	2365.2
643.872	3597.85
648.524	5773.51
653.174	11497.7
657.821	22892.4
662.466	32848.4
667.108	30397.7
671.748	18222.9
676.385	8844.93
681.02	4649.78
685.652	2796.41
690.281	1782.53
694.908	1279.12
699.533	837.213
704.155	683.849
708.774	544.013
713.391	483.091
718.005	299.075
722.617	181.807
727.226	107.129
731.833	133.331
736.437	144.609
741.039	120.583
745.638	19.1543
750.234	119.438
754.828	94.0391
759.419	5.95801
764.008	29.2178
768.595	53.1143
773.178	23.7529
777.759	9.125
782.338	168.046
786.914	58.9443
791.488	62.5977
796.059	99.9736
800.627	99.0273
805.193	81.1553
809.756	109.522
814.317	171.262
818.875	171.501
823.431	215.17
827.984	155.769
832.534	215.319
837.082	218.847
841.627	422.377
846.17	819.93
850.71	1843.53
855.248	2262.18
859.783	1917.72
864.316	1401.47
868.846	1090.3
873.373	994.543
877.898	938.146
882.42	1180.1
886.94	1074.55
891.457	852.548
895.971	956.252
900.483	919.565
904.993	835.254
909.5	764.481
914.004	428.445
918.505	537.788
923.004	513.861
927.501	569.769
931.995	319.592
936.486	449.346
940.975	393.872
945.461	471.962
949.945	690.081
954.426	650.813
958.904	863.299
963.38	1165.45
967.853	1142.36
972.324	1411.13
976.792	1733.69
981.258	1991.91
985.72	2623.78
990.181	3360.3
994.639	5667.49
999.094	9949.34
1003.55	19462
1008	34885.5
1012.44	39731.8
1016.89	25157.9
1021.33	11704.1
1025.77	7174.61
1030.21	5431.44
1034.64	5109.07
1039.07	5707.24
1043.5	5468.18
1047.93	4513.94
1052.35	3134.94
1056.78	2273.36
1061.19	1663.2
1065.61	1444.24
1070.02	1111.01
1074.43	1001.04
1078.84	1010.47
1083.25	778.484
1087.65	1131.98
1092.05	720.381
1096.45	740.4
1100.85	860.023
1105.24	720.891
1109.63	548.217
1114.02	771.391
1118.4	880.664
1122.78	1162.16
1127.16	1076.15
1131.54	732.023
1135.92	546.066
1140.29	494.25
1144.66	361.559
1149.02	171.492
1153.39	153.504
1157.75	26.9355
1162.11	40.6289
1166.46	35.832
1170.82	191.6
1175.17	56.7598
1179.52	81.4141
1183.86	149.127
1188.21	111.863
1192.55	47.6855
1196.89	140.897
1201.22	104.902
1205.55	122.705
1209.88	42.8633
1214.21	5.06836
1218.54	132.369
1222.86	88.4707
1227.18	42.7363
1231.5	170.5
1235.81	1.03516
1240.12	189.121
1244.43	121.934
1248.74	459.547
1253.04	40.9336
1257.34	228.029
1261.64	252.92
1265.94	277.562
1270.23	305.951
1274.52	214.084
1278.81	206.959
1283.1	197.559
1287.38	347.705
1291.66	263.756
1295.94	417.445
1300.21	93.9785
1304.48	250.467
1308.75	50.584
1313.02	119.584
1317.29	296.84
1321.55	246.203
1325.81	287.365
1330.06	396.223
1334.32	321.424
1338.57	402.377
1342.82	405.488
1347.06	206.496
1351.31	294.685
1355.55	476.33
1359.79	301.986
1364.02	294.945
1368.26	261.404
1372.49	223.873
1376.71	412.096
1380.94	350.144
1385.16	106.022
1389.38	163.674
1393.6	186.1
1397.81	128.512
1402.02	212.201
1406.23	63.9395
1410.44	167.014
1414.64	280.053
1418.85	125.965
1423.04	136.754
1427.24	144.555
1431.43	311.373
1435.62	192.93
1439.81	34.7188
1444	346.967
1448.18	198.496
1452.36	279.676
1456.54	161.084
1460.71	296.076
1464.89	169.316
1469.06	73.2793
1473.22	93.8809
1477.39	139.486
1481.55	125.238
1485.71	117.938
1489.86	156.81
1494.02	328.027
1498.17	65.8281
1502.32	119.297
1506.46	16.6621
1510.61	32.7266
1514.75	76.7148
1518.88	117.635
1523.02	232.978
1527.15	24.3223
1531.28	216.475
1535.41	239.891
1539.53	238.457
1543.66	123.168
1547.78	349.139
1551.89	450.926
1556.01	153.514
1560.12	171.963
1564.23	257.272
1568.33	3.29883
1572.43	0
