Measurement: Raman, 514 nm, ccw, Raman Data Processed
Mineral: Diopside
Rruff sample: R040009
Ideal chemistry: CaMgSi_2_O_6_
Locality: Otter Lake, Quebec, Canada
Source: University of Arizona Mineral Museum
Description: Green square prismatic crystal associated with pale orange calcite
Measured chemistry: (Ca_0.97_Fe_0.02_Na_0.01_)_Σ=1_(Mg_0.97_Fe_0.02_Al_0.01_)_Σ=1_Si_2.00_O_6_; trace amounts of Mn and Ti
Pin_id: L00101
Orientation: Laser parallel to -a [-1 0 0]. Fiducial mark perpendicular to laser is parallel to -b* (0 -1 0)
Raman shift (cm-1)	intensity
89.193	0
93.375	197.607
97.554	119.992
101.732	24.542
105.908	391.873
110.082	197.196
114.254	430.455
118.424	1255.7
122.592	1242.73
126.758	982.249
130.922	2566.57
135.083	7679.92
139.243	15681.1
143.401	5833.44
147.557	1908.14
151.711	728.691
155.863	404.154
160.013	128.779
164.161	177.313
168.308	100.697
172.452	166.92
176.594	650.002
180.734	2535.35
184.872	738.661
189.008	109.397
193.143	362.535
197.275	259.936
201.405	76.481
205.534	84.476
209.66	110.748
213.784	38.981
217.907	20.796
222.027	9.266
226.146	319.177
230.263	947.569
234.377	2136.52
238.49	612.53
242.601	353.337
246.709	703.018
250.816	2230.57
254.921	4158.75
259.024	1379.2
263.125	303.699
267.224	14.35
271.321	51.751
275.416	59.502
279.51	7.505
283.601	19.232
287.69	66.214
291.778	113.442
295.863	207.984
299.947	409.276
304.029	753.329
308.108	1179.85
312.186	2250.21
316.262	5078.21
320.336	13784.7
324.408	22841.5
328.478	12571.2
332.546	5366.1
336.612	2813.78
340.677	1711.29
344.739	1307.64
348.799	973.412
352.858	915.864
356.915	830.156
360.969	893.351
365.022	1013.45
369.073	1131.39
373.122	881.268
377.169	930.336
381.215	1325.06
385.258	2744.56
389.299	5878.08
393.339	4326.41
397.376	1820.6
401.412	693.676
405.446	349.643
409.478	355.532
413.508	102.281
417.536	90.914
421.562	81.528
425.586	66.103
429.609	54.745
433.629	66.656
437.648	42.413
441.665	27.495
445.68	46.755
449.693	11.762
453.704	27.54
457.713	47.142
461.721	36.631
465.726	74.103
469.73	16.441
473.731	82.66
477.731	65.328
481.729	47.354
485.725	124.827
489.72	49.153
493.712	131.395
497.703	381.578
501.691	965.7
505.678	3722.73
509.663	4984.7
513.646	1748.58
517.627	930.389
521.607	536.078
525.584	567.674
529.56	840.165
533.534	593.524
537.506	344.751
541.476	249.974
545.444	253.081
549.41	208.027
553.375	232.799
557.337	270.398
561.298	307.82
565.257	183.064
569.214	187.129
573.17	240.008
577.123	153.47
581.075	224.279
585.024	143.961
588.972	108.704
592.918	85.047
596.863	139.345
600.805	141.271
604.746	199.957
608.685	235.68
612.621	289.619
616.557	419.508
620.49	490.405
624.421	635.921
628.351	912.09
632.279	1158.96
636.205	1347.53
640.129	1797.67
644.051	2324.26
647.972	3484.47
651.89	6304.21
655.807	9748.97
659.722	20117.2
663.636	43295.7
667.547	56033.5
671.457	30956
675.365	14305.1
679.271	7576.38
683.175	4620.55
687.077	2939.53
690.978	2072.41
694.877	1618.69
698.774	1139.23
702.669	1064.51
706.562	1007.43
710.454	781.152
714.344	548.637
718.232	448.858
722.118	292.813
726.002	198.473
729.885	215.894
733.766	195.967
737.645	196.849
741.522	128.156
745.397	102.908
749.271	91.318
753.143	21.733
757.013	51.141
760.881	1.21
764.748	30.337
768.613	7.96
772.476	83.269
776.337	91.788
780.196	57.362
784.054	26.829
787.91	51.867
791.764	34.514
795.616	55.724
799.467	10.399
803.316	43.517
807.163	15.643
811.008	68.862
814.851	60.334
818.693	104.088
822.533	4.014
826.371	16.229
830.208	21.137
834.042	25.808
837.875	18.85
841.706	106.188
845.536	229.244
849.363	469.045
853.189	1596.62
857.013	2110.97
860.836	1078.1
864.656	636.003
868.475	434.699
872.292	262.246
876.108	339.996
879.922	392.551
883.733	307.379
887.544	349.577
891.352	255.187
895.159	247.566
898.964	252.319
902.767	312.357
906.568	421.496
910.368	290.384
914.166	229.565
917.962	291.694
921.757	339.406
925.55	321.728
929.341	367.919
933.13	140.309
936.918	16.723
940.703	89.736
944.488	101.546
948.27	58.243
952.051	151.815
955.83	213.297
959.607	221.963
963.383	153.352
967.156	332.133
970.928	428.574
974.699	477.018
978.468	613.042
982.234	759.531
986	897.477
989.763	1291.27
993.525	1845.96
997.285	2705.15
1001.04	4719.26
1004.8	7399.93
1008.55	16706.9
1012.31	38054.5
1016.06	32133.9
1019.81	12320.2
1023.56	5510.24
1027.31	3798.15
1031.05	2542.38
1034.79	2311.67
1038.53	2276.75
1042.27	2514.69
1046.01	3210.44
1049.75	3282.97
1053.48	1911.41
1057.22	1092.12
1060.95	802.669
1064.68	561.623
1068.4	531.818
1072.13	500.033
1075.86	429.312
1079.58	415.035
1083.3	330.918
1087.02	399.312
1090.74	252.093
1094.45	183.477
1098.17	155.43
1101.88	185.496
1105.59	73.455
1109.3	35.512
1113.01	66.955
1116.71	19.279
1120.42	70.194
1124.12	268.438
1127.82	131.697
1131.52	56.521
1135.22	174.886
1138.91	229.81
1142.61	121.93
1146.3	169.062
1149.99	15.879
1153.68	113.317
1157.37	19.029
1161.06	132.97
1164.74	104.956
1168.42	161.004
1172.1	21.188
1175.78	6.331
1179.46	130.16
1183.14	16.809
1186.81	63.262
1190.48	101.332
1194.15	154.675
1197.83	187.549
1201.49	187.701
1205.16	234.043
1208.82	171.106
1212.49	139.938
1216.15	173.117
1219.81	144.627
1223.46	221.21
1227.12	260.487
1230.78	183.953
1234.43	194.3
1238.08	284.41
1241.73	260.855
1245.38	123.105
1249.03	163.56
1252.67	87.713
1256.31	250.001
1259.95	67.822
1263.6	227.109
1267.23	151.762
1270.87	122.672
1274.51	274.277
1278.14	18.562
1281.77	119.045
1285.4	139.423
1289.03	157.097
1292.66	2.417
1296.28	67.091
1299.91	78.574
1303.53	31.932
1307.15	29.617
1310.77	134.621
1314.38	90.893
1318	161.189
1321.61	37.938
1325.23	280.963
1328.84	58.211
1332.45	179.172
1336.06	154.484
1339.66	5.416
1343.27	96.871
1346.87	9.699
1350.47	147.039
1354.07	161.432
1357.67	311.504
1361.26	426.885
1364.86	520.193
1368.45	547.992
1372.04	437.357
1375.63	388.154
1379.22	260.938
1382.81	325.672
1386.39	465.061
1389.98	332.582
1393.56	315.709
1397.14	460.912
1400.72	291.762
1404.3	297.396
1407.87	21.541
1411.45	234.723
1415.02	150.74
1418.59	166.83
1422.16	316.506
1425.73	319.945
1429.29	190.979
1432.86	508.84
1436.42	586.973
1439.98	228.646
1443.54	350.732
1447.1	406.59
1450.66	102.963
1454.21	429.955
1457.77	303.072
1461.32	791.596
1464.87	214.932
1468.42	62.762
1471.96	285.318
1475.51	916.127
1479.06	612.465
1482.6	239.146
1486.14	0.375
