Measurement: Raman, 514 nm, ccw, Raman Data Processed
Mineral: Dolomite
Rruff sample: R040030
Ideal chemistry: CaMg(CO_3_)_2_
Locality: Austria
Source: University of Arizona Mineral Museum
Description: Group of colorless tabular crystals
Measured chemistry: (Ca_0.99_Mg_0.01_)_Î£=1_Mg_1.00_(CO_3_)_2_ ; trace amounts of Mn; CO_2_ estimated by difference
Pin_id: M00035
Orientation: Laser parallel to -c* (0 0 -1). Fiducial mark perpendicular to laser is parallel to -a [-1 0 0]
Raman shift (cm-1)	intensity
91.398	0
95.582	116.589
99.764	195.132
103.943	230.278
108.121	228.479
112.297	398.661
116.47	201.681
120.642	194.193
124.811	134.276
128.979	82.233
133.144	76.224
137.307	25.877
141.469	31.469
145.628	17.002
149.786	31.12
153.941	94.748
158.094	107.266
162.245	127.864
166.395	263.827
170.542	753.003
174.687	2021.12
178.83	2787.04
182.972	1234.59
187.111	342.175
191.248	99.836
195.383	42.563
199.516	31.29
203.647	10.06
207.777	21.518
211.904	11.857
216.029	9.065
220.152	18.876
224.273	29.991
228.392	13.134
232.509	42.866
236.625	23.331
240.738	38.716
244.849	36.965
248.958	20.903
253.065	28.913
257.171	35.199
261.274	35.887
265.375	35.189
269.475	58.056
273.572	104.696
277.667	114.455
281.76	179.251
285.852	223.203
289.941	386.685
294.029	708.07
298.114	1364.91
302.198	1865.34
306.279	1189.47
310.359	541.552
314.436	293.992
318.512	239.148
322.586	198.432
326.657	186.175
330.727	217.191
334.795	355.018
338.861	753.624
342.924	733.654
346.986	367.088
351.046	185.107
355.104	169.126
359.16	117.754
363.214	68.819
367.267	66.204
371.317	80.688
375.365	86.824
379.411	40.896
383.456	35.848
387.498	89.927
391.539	67.672
395.577	76.103
399.614	50.817
403.649	0.737
407.681	21.781
411.712	38.488
415.741	39.967
419.768	4.177
423.793	0.877
427.816	0.367
431.837	13.731
435.857	2.456
439.874	20.645
443.889	35.629
447.903	49.457
451.914	19.161
455.924	46.745
459.932	19.211
463.938	25.565
467.941	41.806
471.943	46.973
475.944	47.065
479.942	52.07
483.938	67.517
487.932	43.822
491.925	59.554
495.915	66.187
499.904	3.724
503.891	12.152
507.876	56.479
511.859	42.856
515.84	58.234
519.819	45.314
523.796	87.314
527.771	89.736
531.745	74.208
535.716	45.834
539.686	48.871
543.654	55.096
547.62	74.76
551.584	51.381
555.546	59.038
559.506	49.571
563.465	69.319
567.421	2.276
571.376	71.074
575.329	52.792
579.279	54.877
583.228	65.239
587.175	88.458
591.121	108.107
595.064	130.373
599.006	129.908
602.945	124.943
606.883	115.796
610.819	88.629
614.753	135.304
618.685	179.071
622.615	251.63
626.544	420.363
630.471	403.347
634.395	238.002
638.318	169.704
642.239	182.164
646.158	306.582
650.076	359.723
653.991	331.791
657.905	252.581
661.817	99.128
665.726	38.221
669.635	27.341
673.541	2.457
677.445	1.468
681.348	22.25
685.248	10.132
689.147	1.059
693.044	42.767
696.94	55.499
700.833	70.227
704.724	144.111
708.614	239.927
712.502	369.765
716.388	607.531
720.272	1180.31
724.155	2399.62
728.035	2754.36
731.914	1384.07
735.791	528.792
739.666	254.41
743.539	153.107
747.41	94.799
751.28	38.506
755.148	46.214
759.014	28.909
762.878	28.574
766.74	20.808
770.601	2.735
774.46	26.231
778.316	27.686
782.172	34.915
786.025	6.367
789.876	33.404
793.726	20.73
797.574	68.833
801.42	38.271
805.264	39.998
809.107	35.066
812.947	48.125
816.786	25.183
820.623	43.497
824.459	70.593
828.292	110.141
832.124	42.484
835.954	109.903
839.782	93.49
843.608	157.027
847.433	166.204
851.255	185.104
855.076	269.09
858.895	356.072
862.713	445.051
866.528	290.028
870.342	187.003
874.154	201.978
877.965	147.956
881.773	406.938
885.58	273.92
889.385	171.905
893.188	161.893
896.989	201.884
900.789	163.918
904.587	212.968
908.383	111.025
912.177	92.971
915.97	91.608
919.76	91.61
923.55	66.819
927.337	53.615
931.122	32.736
934.906	59.275
938.688	54.536
942.468	63.223
946.247	66.297
950.023	80.58
953.798	81.887
957.572	73.172
961.343	52.528
965.113	65.91
968.881	78.317
972.647	36.75
976.411	44.194
980.174	75.39
983.935	35.079
987.694	25.227
991.452	64.587
995.207	45.987
998.961	130.437
1002.71	463.925
1006.46	255.444
1010.21	35.993
1013.96	76.573
1017.71	93.185
1021.45	258.829
1025.19	276.504
1028.93	246.211
1032.67	182.951
1036.41	203.723
1040.14	187.528
1043.87	208.366
1047.61	281.789
1051.34	333.88
1055.06	326
1058.79	425.24
1062.52	611.758
1066.24	852.63
1069.96	1301.57
1073.68	1797.88
1077.4	2451.43
1081.11	2946.83
1084.83	3745.38
1088.54	5208
1092.25	10008.7
1095.96	30471.4
1099.67	57444.2
1103.37	20406.9
1107.08	5882.77
1110.78	2625.61
1114.48	1436.47
1118.18	941.368
1121.88	676.292
1125.57	464.716
1129.27	408.696
1132.96	247.193
1136.65	206.228
1140.34	159.285
1144.02	71.362
1147.71	148.481
1151.39	105.625
1155.07	87.684
1158.76	54.985
1162.43	41.197
1166.11	67.427
1169.79	39.676
1173.46	89.942
1177.13	84.226
1180.8	55.525
1184.47	5.84
1188.14	22.181
1191.8	20.524
1195.46	39.77
1199.13	4.03
1202.79	68.242
1206.45	48.785
1210.1	3.923
1213.76	63.208
1217.41	101.481
1221.06	0.591
1224.71	27.851
1228.36	37.274
1232.01	17.811
1235.65	104.072
1239.3	143.252
1242.94	117.44
1246.58	183.635
1250.22	118.838
1253.85	102.067
1257.49	93.283
1261.12	164.543
1264.75	226.116
1268.38	239.432
1272.01	256.717
1275.64	247.035
1279.27	148.393
1282.89	131.768
1286.51	24.146
1290.13	95.5
1293.75	134.821
1297.37	124.112
1300.98	111.269
1304.6	134.236
1308.21	213.15
1311.82	228.044
1315.43	195.922
1319.03	220.78
1322.64	172.614
1326.24	150.409
1329.85	132.171
1333.44	32.897
1337.04	40.584
1340.64	21.526
1344.24	44.958
1347.83	11.521
1351.42	1.841
1355.01	5.778
1358.6	14.341
1362.19	48.989
1365.78	10.079
1369.36	30.066
1372.94	108.504
1376.53	38.789
1380.1	74.019
1383.68	55.242
1387.26	51.458
1390.83	52.666
1394.41	27.862
1397.98	55.035
1401.55	27.19
1405.12	19.341
1408.68	42.428
1412.25	110.511
1415.81	34.585
1419.37	94.661
1422.93	121.739
1426.49	132.825
1430.05	246.908
1433.6	389.597
1437.15	659.618
1440.71	1410.77
1444.26	2118.41
1447.81	1401.53
1451.35	1156.68
1454.9	1087.57
1458.44	978.24
1461.98	807.679
1465.53	653.062
1469.07	510.624
1472.6	342.197
1476.14	381.341
1479.67	290.323
1483.21	291.834
1486.74	288.772
1490.27	202.796
1493.8	166.916
1497.32	96.46
1500.85	68.699
1504.37	33.965
1507.89	4.764
1511.41	41.104
1514.93	49.234
1518.45	0.156
