Measurement: Raman, 514 nm, ccw, Raman Data Processed
Mineral: Dolomite
Rruff sample: R050357
Ideal chemistry: CaMg(CO_3_)_2_
Locality: Black Rock, Lawrence County, Arkansas, USA
Source: California Institute of Technology
Description: Aggregate of pale pink curved saddle-shaped crystals
Measured chemistry: Ca_1.00_(Mg_0.98_Fe^2+^_0.02_)_Î£=1_(CO_3_)_2_ ; CO_2_ estimated by difference
Pin_id: L01901
Orientation: Laser parallel to a* (1 0 0). Fiducial mark perpendicular to laser is parallel to c [0 0 1]
Raman shift (cm-1)	intensity
109.512	0
114.44	40.9254
119.365	45.8705
124.288	0.596436
129.209	47.3862
134.127	58.25
139.043	107.439
143.956	66.6588
148.867	91.6721
153.775	157.132
158.681	283.966
163.585	604.853
168.486	1450.26
173.385	3851.09
178.282	4330.81
183.176	1324.84
188.067	377.005
192.956	204.263
197.843	160.655
202.727	133.215
207.609	86.9429
212.489	10.7913
217.366	86.7468
222.24	53.8687
227.112	35.105
231.982	1.58752
236.849	12.8014
241.714	75.2575
246.577	15.2028
251.437	2.62964
256.294	49.7167
261.149	71.8544
266.002	111.318
270.852	150.061
275.7	217.035
280.545	419.247
285.388	771.717
290.229	1697.27
295.067	3478.78
299.902	4505.44
304.735	2558.53
309.566	1082.23
314.394	530.281
319.22	327.106
324.043	258.601
328.864	281.858
333.682	529.06
338.498	872.619
343.311	435.573
348.122	169.558
352.931	138.382
357.737	42.4254
362.54	113.219
367.341	53.2946
372.14	87.1326
376.936	46.9056
381.73	45.4077
386.521	6.30811
391.31	51.0245
396.096	44.1418
400.88	5.67725
405.661	50.4448
410.44	19.6642
415.216	61.798
419.99	0.05127
424.761	39.0908
429.53	8.82825
434.297	47.9392
439.061	12.88
443.822	90.1863
448.581	15.2812
453.337	82.326
458.091	75.3644
462.843	31.3949
467.592	15.5909
472.338	32.5995
477.082	7.46338
481.824	59.783
486.563	11.8069
491.3	64.7568
496.034	51.6191
500.765	41.4565
505.494	35.2903
510.221	21.1338
514.945	56.0337
519.666	56.8137
524.385	67.5833
529.102	32.3926
533.816	44.9456
538.527	35.7419
543.236	68.2585
547.943	84.8127
552.647	22.7681
557.348	39.5442
562.047	62.239
566.744	5.92383
571.438	36.447
576.129	2.0581
580.818	52.9414
585.504	3.4646
590.188	29.7432
594.87	36.4592
599.549	13.8813
604.225	46.5623
608.899	8.46631
613.57	44.8264
618.239	20.4714
622.905	18.1116
627.569	27.6824
632.23	40.2649
636.889	46.9556
641.545	28.7107
646.198	54.1533
650.849	45.2744
655.498	53.3499
660.144	54.7747
664.787	71.6575
669.428	87.8044
674.067	74.001
678.703	9.59863
683.336	72.3506
687.967	99.3247
692.595	102.881
697.221	126.298
701.844	197.326
706.465	294.185
711.083	431.583
715.698	853.733
720.311	1739.25
724.922	2520.83
729.53	1295.01
734.135	493.119
738.738	180.663
743.338	153.697
747.936	115.701
752.531	103.456
757.124	79.0662
761.714	50.989
766.302	98.8709
770.887	33.5176
775.469	19.3279
780.049	80.0996
784.626	4.81494
789.201	76.6077
793.773	73.5193
798.343	18.3486
802.91	57.833
807.475	63.1965
812.037	24.0596
816.596	82.2944
821.153	98.0198
825.707	4.38135
830.259	12.3818
834.808	1.65918
839.355	26.7642
843.899	18.0193
848.441	58.096
852.98	25.8086
857.516	54.4282
862.05	14.9893
866.581	59.5042
871.11	34.0115
875.636	114.359
880.159	221.702
884.68	160.019
889.199	58.3142
893.714	24.5947
898.228	64.8596
902.738	55.1194
907.246	32.333
911.752	88.3748
916.255	23.5671
920.755	19.667
925.253	22.6511
929.748	19.5735
934.241	68.5193
938.731	23.75
943.218	26.9719
947.703	80.304
952.186	49.2329
956.665	10.1099
961.142	6.06372
965.617	88.0715
970.089	33.5593
974.558	73.3789
979.025	81.4556
983.489	44.4661
987.951	60.6282
992.41	99.5007
996.866	19.2505
1001.32	86.5134
1005.77	79.4053
1010.22	67.8132
1014.67	63.272
1019.11	97.7678
1023.55	71.3101
1027.99	150.897
1032.42	242.737
1036.86	196.519
1041.29	179.213
1045.72	191.025
1050.14	263.909
1054.56	323.91
1058.98	470.42
1063.4	801.352
1067.82	1082.79
1072.23	1740.04
1076.64	2331.34
1081.05	2836.14
1085.45	4347.62
1089.85	9195.24
1094.25	29892.3
1098.65	52130.9
1103.04	14649.6
1107.43	3884.32
1111.82	1578.16
1116.21	801.65
1120.59	558.507
1124.97	332.438
1129.35	233.47
1133.73	178.783
1138.1	138.276
1142.47	109.318
1146.84	104.54
1151.21	84.8179
1155.57	91.9075
1159.93	8.84766
1164.29	20.4043
1168.64	115.367
1172.99	73.6267
1177.34	66.1375
1181.69	35.9612
1186.04	36.7974
1190.38	14.022
1194.72	48.3035
1199.05	42.5872
1203.39	98.8677
1207.72	34.929
1212.05	0.126465
1216.37	16.2314
1220.7	26.3215
1225.02	22.4165
1229.34	1.52393
1233.65	83.4246
1237.97	67.0999
1242.28	55.252
1246.59	93.8643
1250.89	64.1577
1255.19	64.1753
1259.49	42.0632
1263.79	54.4451
1268.09	108.082
1272.38	73.6587
1276.67	37.1755
1280.95	8.74292
1285.24	46.1545
1289.52	101.311
1293.8	70.6397
1298.08	80.7773
1302.35	6.99512
1306.62	28.9082
1310.89	10.019
1315.15	3.83252
1319.42	93.6016
1323.68	99.3408
1327.94	28.666
1332.19	156.307
1336.44	39.9185
1340.69	83.4075
1344.94	44.9717
1349.19	38.4602
1353.43	62.3755
1357.67	17.2612
1361.9	50.9231
1366.14	14.8931
1370.37	57.2444
1374.6	71.3687
1378.83	12.458
1383.05	70.9702
1387.27	94.0212
1391.49	61.7031
1395.7	55.2593
1399.92	49.3118
1404.13	6.15845
1408.34	46.8713
1412.54	26.0029
1416.74	108.876
1420.94	116.052
1425.14	152.264
1429.34	157.261
1433.53	300.806
1437.72	801.477
1441.9	1282.23
1446.09	547.014
1450.27	322.115
1454.45	152.264
1458.63	134.175
1462.8	89.1167
1466.97	118.841
1471.14	16.8767
1475.31	89.6711
1479.47	57.2815
1483.63	39.1057
1487.79	72.8232
1491.94	33.3103
1496.09	47.1316
1500.24	120.891
1504.39	72.7234
1508.54	42.9153
1512.68	69.0889
1516.82	24.2927
1520.95	33.4343
1525.09	56.8059
1529.22	105.447
1533.35	59.6438
1537.47	103.138
1541.6	105.206
1545.72	25.8389
1549.83	96.0181
1553.95	70.9175
1558.06	125.872
1562.17	74.0562
1566.28	70.8262
1570.38	94.0391
