Measurement: Raman, 514 nm, ccw, Raman Data Processed
Mineral: Dolomite
Rruff sample: R050241
Ideal chemistry: CaMg(CO_3_)_2_
Locality: Eugui quarries, Navarre, Spain
Source: Marcus Origlieri
Description: Light gray colored tabular crystals
Measured chemistry: (Ca_0.96_Mg_0.04_)_Σ=1_(Mg_0.98_Fe^2+^_0.02_)_Σ=1_(CO_3_)_2_ ; CO_2_ estimated by difference
Pin_id: L00120
Orientation: Laser parallel to c* (0 0 1). Fiducial mark perpendicular to laser is parallel to b [0 1 0]
Raman shift (cm-1)	intensity
118.134	0
123.058	29.4894
127.979	6.62024
132.898	48.7466
137.814	34.6508
142.728	60.0676
147.639	122.527
152.549	237.948
157.455	387.035
162.359	878.983
167.261	2846.91
172.161	6612.15
177.058	9268.09
181.952	4795.24
186.845	1022.98
191.734	462.265
196.622	211.726
201.507	131.35
206.389	92.162
211.269	40.1484
216.147	19.2351
221.022	15.566
225.895	64.7678
230.765	7.88025
235.633	13.5154
240.498	4.98914
245.361	44.4843
250.222	40.9626
255.08	25.4329
259.936	44.2858
264.789	87.9746
269.64	117.346
274.488	208.119
279.334	349.109
284.178	669.502
289.019	1693.35
293.857	4089.45
298.693	7281.18
303.527	6614.45
308.358	2737.05
313.187	1093.7
318.013	586.203
322.837	352.969
327.659	349.103
332.478	557.345
337.294	901.295
342.108	792.978
346.92	300.159
351.729	72.0644
356.535	79.8499
361.34	89.4531
366.141	87.4402
370.94	12.8565
375.737	71.5957
380.531	9.10449
385.323	74.5523
390.113	24.9854
394.9	88.3875
399.684	30.7107
404.466	1.85889
409.245	37.738
414.022	28.8992
418.797	43.6282
423.569	19.6721
428.338	6.28223
433.105	29.1609
437.87	17.9819
442.632	15.5481
447.391	35.9746
452.149	14.3618
456.903	38.4751
461.655	33.0525
466.405	72.4585
471.152	28.103
475.897	69.3821
480.639	28.6912
485.378	67.6667
490.116	58.7881
494.85	38.4421
499.582	127.911
504.312	73.8613
509.039	39.4233
513.764	94.2559
518.486	12.3027
523.206	39.929
527.923	48.9973
532.638	13.6392
537.35	12.2644
542.059	39.5903
546.766	26.803
551.471	99.2742
556.173	32.6387
560.873	115.763
565.57	0.26001
570.264	107.21
574.957	74.0989
579.646	48.8894
584.333	6.58643
589.018	50.5708
593.7	6.79321
598.379	31.8843
603.056	24.3284
607.73	21.9624
612.402	3.52148
617.072	59.3276
621.739	45.5405
626.403	30.8284
631.065	35.0796
635.724	104.13
640.381	11.6238
645.035	80.0679
649.687	14.5581
654.336	2.62622
658.983	7.05689
663.627	23.8164
668.268	41.7458
672.907	72.3147
677.544	137.237
682.178	67.3137
686.809	105.706
691.438	138.515
696.065	193.093
700.688	204.412
705.31	409.907
709.929	515.342
714.545	1000.71
719.158	1989.43
723.77	3273.61
728.378	2764.29
732.984	1093.53
737.588	393.87
742.189	251.419
746.787	67.5654
751.383	93.6138
755.976	35.936
760.567	118.09
765.155	48.3152
769.741	68.4465
774.324	22.4561
778.904	79.2266
783.482	15.6262
788.058	31.7678
792.631	44.2583
797.201	6.26904
801.769	112.714
806.334	27.624
810.897	68.689
815.457	37.9546
820.014	85.1045
824.569	88.1416
829.122	64.9902
833.671	51.542
838.219	22.8686
842.763	43.7051
847.306	38.0083
851.845	106.602
856.382	67.4214
860.917	70.9727
865.448	84.7744
869.978	124.353
874.505	50.1499
879.029	255.883
883.55	329.251
888.069	54.727
892.586	65.0391
897.1	50.1855
901.611	71.813
906.12	23.98
910.626	55.4067
915.129	30.1436
919.63	72.5063
924.129	16.9028
928.625	67.2602
933.118	95.5894
937.609	87.3003
942.097	47.6645
946.582	54.3643
951.065	46.1914
955.546	82.4917
960.023	74.3066
964.499	48.0615
968.971	15.5249
973.441	23.2368
977.909	68.2065
982.374	78.9409
986.836	29.9624
991.295	30.7754
995.753	40.2256
1000.21	95.8555
1004.66	49.1079
1009.11	44.5107
1013.55	69.1318
1018	104.126
1022.44	197.679
1026.88	223.394
1031.32	135.122
1035.75	156.472
1040.18	249.808
1044.61	259.506
1049.04	253.872
1053.46	348.397
1057.88	461.795
1062.3	733.524
1066.71	1185.92
1071.13	1870.01
1075.54	2784.41
1079.94	3686.21
1084.35	5053.3
1088.75	8643.31
1093.15	24623.6
1097.55	58390.7
1101.94	35704.7
1106.34	7541.89
1110.73	2497.34
1115.11	1266.1
1119.5	743.323
1123.88	408.952
1128.26	296.959
1132.63	218.84
1137.01	138.103
1141.38	12.4614
1145.75	231.868
1150.12	3.76953
1154.48	90.0151
1158.84	111.371
1163.2	51.6343
1167.55	15.4028
1171.91	140.75
1176.26	165.839
1180.61	5.16943
1184.95	37.0562
1189.29	28.7656
1193.63	87.3584
1197.97	184.883
1202.31	3.6084
1206.64	13.6211
1210.97	118.752
1215.29	29.417
1219.62	64.8106
1223.94	108.686
1228.26	117.667
1232.57	139.394
1236.89	89.1543
1241.2	62.3252
1245.51	47.8565
1249.81	180.852
1254.12	151.924
1258.42	150.435
1262.72	159.879
1267.01	145.644
1271.3	44.1416
1275.59	72.958
1279.88	32.1543
1284.17	129.084
1288.45	95.8887
1292.73	16.667
1297.01	140.441
1301.28	137.924
1305.55	25.1602
1309.82	88.3154
1314.09	139.873
1318.35	217.597
1322.61	137.658
1326.87	206.902
1331.13	144.1
1335.38	91.2734
1339.63	134.996
1343.88	226.934
1348.12	7.31348
1352.37	193.143
1356.61	133.494
1360.85	188.999
1365.08	151.759
1369.31	214.824
1373.54	174.171
1377.77	79.6836
1381.99	227.321
1386.22	174.852
1390.43	204.038
1394.65	130.273
1398.87	68.2998
1403.08	103.35
1407.29	203.45
1411.49	258.944
1415.69	123.852
1419.89	153.373
1424.09	150.958
1428.29	257.707
1432.48	329.779
1436.67	633.312
1440.86	1948.95
1445.04	1336.23
1449.23	582.477
1453.4	346.893
1457.58	218.831
1461.76	82.5557
1465.93	80.1777
1470.1	193.668
1474.26	157.883
1478.43	30.6182
1482.59	14.7734
1486.75	12.0918
1490.9	289.481
1495.06	38.2529
1499.21	62.251
1503.35	91.5205
1507.5	13.0117
1511.64	185.495
1515.78	218.94
1519.92	68.6406
1524.05	21.8574
1528.18	48.1484
1532.31	111.189
1536.44	56.2891
1540.56	230.337
1544.69	162.168
1548.8	96.6279
1552.92	169.731
1557.03	184.686
1561.14	164.621
1565.25	124.653
1569.36	3.48535
