Measurement: Raman, 514 nm, ccw, Raman Data Processed
Mineral: Dolomite
Rruff sample: R040030
Ideal chemistry: CaMg(CO_3_)_2_
Locality: Austria
Source: University of Arizona Mineral Museum
Description: Group of colorless tabular crystals
Measured chemistry: (Ca_0.99_Mg_0.01_)_Î£=1_Mg_1.00_(CO_3_)_2_ ; trace amounts of Mn; CO_2_ estimated by difference
Pin_id: M00005
Orientation: Laser parallel to a* (1 0 0). Fiducial mark perpendicular to laser is parallel to -c [0 0 -1]
Raman shift (cm-1)	intensity
91.398	0
95.582	59.134
99.764	117.199
103.943	164.87
108.121	197.08
112.297	205.592
116.47	183.74
120.642	147.57
124.811	109.55
128.979	41.284
133.144	47.404
137.307	6.338
141.469	62.609
145.628	79.358
149.786	46.086
153.941	103.657
158.094	225.501
162.245	332.845
166.395	702.307
170.542	1995.14
174.687	5873.9
178.83	9930.91
182.972	4659.14
187.111	1357.54
191.248	518.103
195.383	178.719
199.516	95.334
203.647	19.939
207.777	1.519
211.904	9.061
216.029	25.452
220.152	18.008
224.273	64.381
228.392	210.691
232.509	122.101
236.625	66.806
240.738	16.982
244.849	6.865
248.958	28.925
253.065	38.456
257.171	34.451
261.274	47.111
265.375	29.723
269.475	148.384
273.572	271.861
277.667	486.731
281.76	726.033
285.852	1270.78
289.941	2417.8
294.029	4739.92
298.114	9667.42
302.198	13964.8
306.279	9262.21
310.359	3997.42
314.436	1938
318.512	1051.83
322.586	719.798
326.657	476.606
330.727	344.49
334.795	419.821
338.861	722.542
342.924	811.349
346.986	393.639
351.046	197.417
355.104	173.268
359.16	133.357
363.214	101.003
367.267	99.448
371.317	54.84
375.365	26.835
379.411	51.943
383.456	28.213
387.498	41.983
391.539	46.4
395.577	38.442
399.614	37.529
403.649	64.855
407.681	35.117
411.712	9.112
415.741	29.383
419.768	19.885
423.793	19.947
427.816	3.765
431.837	1.536
435.857	4.02
439.874	2.339
443.889	3.578
447.903	30.577
451.914	12.444
455.924	48.182
459.932	73.831
463.938	57.397
467.941	36.873
471.943	44.261
475.944	73.552
479.942	57.752
483.938	19.854
487.932	24.854
491.925	66.743
495.915	10.525
499.904	2.804
503.891	61.738
507.876	37.272
511.859	77.954
515.84	14.382
519.819	87.677
523.796	109.156
527.771	97.497
531.745	97.422
535.716	41.737
539.686	53.585
543.654	83.756
547.62	48.406
551.584	69.656
555.546	56.655
559.506	101.508
563.465	113.198
567.421	109.611
571.376	72.809
575.329	41.563
579.279	70.803
583.228	73.064
587.175	54.445
591.121	62.972
595.064	136.879
599.006	85.046
602.945	134.571
606.883	96.749
610.819	102.225
614.753	75.691
618.685	139.732
622.615	163.858
626.544	267.081
630.471	253.603
634.395	172.434
638.318	187.061
642.239	95.92
646.158	163.676
650.076	214.278
653.991	196.187
657.905	156.543
661.817	81.103
665.726	34.122
669.635	21.859
673.541	46.9
677.445	56.087
681.348	23.011
685.248	12.869
689.147	31.021
693.044	79.644
696.94	130.23
700.833	56.679
704.724	70.43
708.614	203.655
712.502	299.949
716.388	423.214
720.272	735.503
724.155	1517.72
728.035	1932.76
731.914	1035.68
735.791	425.858
739.666	203.956
743.539	119.037
747.41	116.162
751.28	64.273
755.148	21.311
759.014	21.838
762.878	41.984
766.74	3.131
770.601	53.026
774.46	40.805
778.316	31.462
782.172	47.957
786.025	10.511
789.876	33.134
793.726	16.133
797.574	14.333
801.42	20.458
805.264	5.464
809.107	5.442
812.947	71.531
816.786	40.472
820.623	8.105
824.459	5.054
828.292	56.009
832.124	66.771
835.954	144.644
839.782	55.271
843.608	144.977
847.433	93.75
851.255	134.004
855.076	203.49
858.895	332.132
862.713	258.76
866.528	222.371
870.342	88.968
874.154	97.551
877.965	106.12
881.773	385.682
885.58	265.232
889.385	152.776
893.188	68.319
896.989	92.856
900.789	138.408
904.587	176.943
908.383	137.164
912.177	72.329
915.97	49.751
919.76	50.818
923.55	87
927.337	115.859
931.122	117.405
934.906	36.354
938.688	47.925
942.468	81.996
946.247	73.351
950.023	110.356
953.798	104.753
957.572	107.644
961.343	33.662
965.113	14.198
968.881	115.995
972.647	69.644
976.411	52.318
980.174	24.906
983.935	58.105
987.694	23.114
991.452	94.684
995.207	39.539
998.961	147.439
1002.71	347.386
1006.46	168.358
1010.21	86.358
1013.96	120.385
1017.71	151.439
1021.45	254.565
1025.19	267.67
1028.93	211.968
1032.67	172.123
1036.41	186.322
1040.14	220.362
1043.87	243.78
1047.61	308.502
1051.34	351.707
1055.06	397.247
1058.79	429.901
1062.52	594.537
1066.24	877.52
1069.96	1255.94
1073.68	1832.8
1077.4	2571.73
1081.11	2935.86
1084.83	3532.89
1088.54	4930.69
1092.25	9205.8
1095.96	27311.9
1099.67	59028.1
1103.37	23414.3
1107.08	6360.57
1110.78	2672.83
1114.48	1425.1
1118.18	966.389
1121.88	658.706
1125.57	581.522
1129.27	379.783
1132.96	267.144
1136.65	239.769
1140.34	170.134
1144.02	150.036
1147.71	147.414
1151.39	120.773
1155.07	66.288
1158.76	106.842
1162.43	18.473
1166.11	14.805
1169.79	35.123
1173.46	73.512
1177.13	101.799
1180.8	68.251
1184.47	71.85
1188.14	144.773
1191.8	39.889
1195.46	37.251
1199.13	44.823
1202.79	99.311
1206.45	38.321
1210.1	82.597
1213.76	172.928
1217.41	113.334
1221.06	48.634
1224.71	45.134
1228.36	48.43
1232.01	15.748
1235.65	109.831
1239.3	198.467
1242.94	155.003
1246.58	134.527
1250.22	189.884
1253.85	145.579
1257.49	133.041
1261.12	167.729
1264.75	99.183
1268.38	199.422
1272.01	177.639
1275.64	222.876
1279.27	202.017
1282.89	101.146
1286.51	5.788
1290.13	80.096
1293.75	100.813
1297.37	142.374
1300.98	128.839
1304.6	152.108
1308.21	208.119
1311.82	112.056
1315.43	69.87
1319.03	94.647
1322.64	47.153
1326.24	50.733
1329.85	23.194
1333.44	63.735
1337.04	107.812
1340.64	115.252
1344.24	130.698
1347.83	52.499
1351.42	24.159
1355.01	24.267
1358.6	7.4
1362.19	64.289
1365.78	10.16
1369.36	72.481
1372.94	26.386
1376.53	95.193
1380.1	66.263
1383.68	148.603
1387.26	52.879
1390.83	88.082
1394.41	49.185
1397.98	89.229
1401.55	170.197
1405.12	143.163
1408.68	210.905
1412.25	216.132
1415.81	250.39
1419.37	172.883
1422.93	213.209
1426.49	181.195
1430.05	252.253
1433.6	346.117
1437.15	525.115
1440.71	1215.98
1444.26	2045.55
1447.81	1329.76
1451.35	1041.26
1454.9	988.486
1458.44	827.031
1461.98	680.503
1465.53	599.146
1469.07	364.543
1472.6	292.575
1476.14	278.343
1479.67	203.885
1483.21	305
1486.74	324.888
1490.27	268.922
1493.8	303.579
1497.32	226.261
1500.85	177.569
1504.37	105.778
1507.89	13.417
1511.41	30.81
1514.93	0.307
1518.45	0
