Measurement: Raman, 514 nm, ccw, Raman Data Processed
Mineral: Dolomite
Rruff sample: R050241
Ideal chemistry: CaMg(CO_3_)_2_
Locality: Eugui quarries, Navarre, Spain
Source: Marcus Origlieri
Description: Light gray colored tabular crystals
Measured chemistry: (Ca_0.96_Mg_0.04_)_Σ=1_(Mg_0.98_Fe^2+^_0.02_)_Σ=1_(CO_3_)_2_ ; CO_2_ estimated by difference
Pin_id: L00120
Orientation: Laser parallel to c* (0 0 1). Fiducial mark perpendicular to laser is parallel to b [0 1 0]
Raman shift (cm-1)	intensity
118.134	0
123.058	35.5144
127.979	0.848022
132.898	7.76721
137.814	86.312
142.728	104.502
147.639	69.8547
152.549	134.205
157.455	227.135
162.359	409.454
167.261	1406.04
172.161	3078.89
177.058	4063.79
181.952	2144.57
186.845	504.33
191.734	186
196.622	115.148
201.507	51.8583
206.389	35.6498
211.269	2.47009
216.147	52.3295
221.022	18.3185
225.895	45.3083
230.765	76.8049
235.633	17.4064
240.498	5.17285
245.361	9.28503
250.222	37.0856
255.08	28.0301
259.936	94.9485
264.789	23.2466
269.64	75.313
274.488	178.775
279.334	194.544
284.178	362.493
289.019	897.717
293.857	2095.85
298.693	3292.8
303.527	2300.81
308.358	968.2
313.187	403.407
318.013	243.779
322.837	130.681
327.659	204.79
332.478	458.008
337.294	784.138
342.108	719.332
346.92	309.149
351.729	107.134
356.535	42.0879
361.34	18.1487
366.141	36.2544
370.94	32.916
375.737	84.7122
380.531	13.0168
385.323	48.6094
390.113	55.8804
394.9	12.2349
399.684	33.541
404.466	16.2112
409.245	60.989
414.022	105.419
418.797	33.4011
423.569	25.98
428.338	17.7454
433.105	10.9724
437.87	39.4258
442.632	82.2908
447.391	29.0991
452.149	34.2551
456.903	14.6008
461.655	50.9631
466.405	51.1011
471.152	30.3142
475.897	12.054
480.639	26.4959
485.378	49.0994
490.116	90.3159
494.85	29.6035
499.582	113.61
504.312	66.8098
509.039	78.2612
513.764	15.0903
518.486	20.9841
523.206	3.37549
527.923	58.9731
532.638	16.2278
537.35	38.6216
542.059	16.9172
546.766	21.6453
551.471	64.425
556.173	54.0159
560.873	39.3215
565.57	70.5022
570.264	56.4683
574.957	103.123
579.646	62.9321
584.333	51.727
589.018	40.1909
593.7	14.228
598.379	92.0115
603.056	45.0254
607.73	18.9866
612.402	47.5264
617.072	70.6509
621.739	72.9497
626.403	84.3262
631.065	67.2771
635.724	57.5102
640.381	24.4915
645.035	108.402
649.687	58.8545
654.336	71.438
658.983	63.2759
663.627	60.6411
668.268	85.3584
672.907	57.2258
677.544	40.5686
682.178	177.314
686.809	116.729
691.438	151.797
696.065	281.052
700.688	276.819
705.31	446.969
709.929	642.605
714.545	951.525
719.158	2201.55
723.77	3468.6
728.378	2547.47
732.984	982.702
737.588	463.212
742.189	271.094
746.787	185.873
751.383	105.54
755.976	121.943
760.567	79.012
765.155	1.38892
769.741	73.1484
774.324	25.2522
778.904	59.8037
783.482	81.2642
788.058	14.0845
792.631	67.7246
797.201	15.397
801.769	123.513
806.334	85.2241
810.897	65.4956
815.457	29.4424
820.014	104.206
824.569	68.0552
829.122	94.1436
833.671	86.1064
838.219	128.94
842.763	163.295
847.306	19.0581
851.845	42.5571
856.382	117.101
860.917	51.0991
865.448	105.09
869.978	150.289
874.505	84.1372
879.029	163.397
883.55	243.689
888.069	98.5576
892.586	197.38
897.1	34.6748
901.611	85.9668
906.12	59.3174
910.626	22.2378
915.129	93.751
919.63	134.238
924.129	21.5591
928.625	29.125
933.118	145.826
937.609	73.4902
942.097	80.4482
946.582	77.7778
951.065	33.2139
955.546	76.3511
960.023	101.978
964.499	53.166
968.971	142.096
973.441	4.75391
977.909	134.886
982.374	50.6416
986.836	26.1753
991.295	116.197
995.753	1.54736
1000.21	92.2231
1004.66	138.955
1009.11	63.1548
1013.55	169.112
1018	138.532
1022.44	68.7109
1026.88	97.314
1031.32	104.797
1035.75	98.0405
1040.18	171.382
1044.61	271.785
1049.04	246.081
1053.46	264.143
1057.88	448.908
1062.3	714.051
1066.71	1060.09
1071.13	1547.88
1075.54	2594.88
1079.94	3225.96
1084.35	4264.46
1088.75	7466.69
1093.15	21970.4
1097.55	52154
1101.94	32045.6
1106.34	6752.26
1110.73	2294.69
1115.11	1011.88
1119.5	589.674
1123.88	388.198
1128.26	299.735
1132.63	216.118
1137.01	223.918
1141.38	58.7651
1145.75	133.047
1150.12	52.186
1154.48	15.0557
1158.84	68.813
1163.2	36.2031
1167.55	72.1235
1171.91	110.962
1176.26	0.839355
1180.61	16.9561
1184.95	85.0215
1189.29	38.4858
1193.63	72.8223
1197.97	78.9116
1202.31	49.6128
1206.64	89.0625
1210.97	94.335
1215.29	148.155
1219.62	80.332
1223.94	43.0889
1228.26	111.043
1232.57	119.357
1236.89	57.291
1241.2	92.375
1245.51	140.607
1249.81	75.4951
1254.12	22.3457
1258.42	97.9375
1262.72	2.65918
1267.01	91.2686
1271.3	101.287
1275.59	51.457
1279.88	123.256
1284.17	118.914
1288.45	82.3115
1292.73	0.638672
1297.01	139.794
1301.28	79.791
1305.55	90.2295
1309.82	119.671
1314.09	28.4424
1318.35	77.5156
1322.61	111.382
1326.87	157.893
1331.13	150.879
1335.38	174.748
1339.63	110.242
1343.88	59.9473
1348.12	261.517
1352.37	64.876
1356.61	150.06
1360.85	53.4268
1365.08	96.3633
1369.31	81.1133
1373.54	79.4971
1377.77	112.767
1381.99	133.29
1386.22	95.6797
1390.43	110.548
1394.65	15.4434
1398.87	128.246
1403.08	66.4522
1407.29	152.759
1411.49	45.4844
1415.69	55.2285
1419.89	147.629
1424.09	153.178
1428.29	211.818
1432.48	307.207
1436.67	797.739
1440.86	2044.02
1445.04	1318.1
1449.23	569.269
1453.4	261.028
1457.58	163.894
1461.76	96.5596
1465.93	116.477
1470.1	82.8389
1474.26	56.7393
1478.43	15.751
1482.59	213.682
1486.75	155.232
1490.9	129.605
1495.06	148.841
1499.21	164.924
1503.35	128.562
1507.5	4.20606
1511.64	183.039
1515.78	73.8545
1519.92	202.648
1524.05	121.93
1528.18	209.111
1532.31	92.0693
1536.44	225.707
1540.56	168.359
1544.69	78.9707
1548.8	69.5938
1552.92	58.5107
1557.03	139.15
1561.14	82.8701
1565.25	97.2383
1569.36	179.633
