Measurement: Raman, 514 nm, ccw, Raman Data Processed
Mineral: Dolomite
Rruff sample: R050129
Ideal chemistry: CaMg(CO_3_)_2_
Locality: Black Cloud mine, Leadville, Lake County, Colorado, USA
Source: Dave Bunk Minerals
Description: Aggregate of colorless to white rhombohedra
Measured chemistry: Ca(Mg_0.62_Fe^2+^_0.33_Mn_0.05_)_Î£=1_(CO_3_)_2_ ; CO_2_ estimated by difference
Pin_id: M00287
Orientation: Laser parallel to a* (1 0 0). Fiducial mark perpendicular to laser is parallel to c [0 0 1]
Raman shift (cm-1)	intensity
88.608	0
92.793	81.687
96.976	75.014
101.157	78.618
105.336	116.052
109.513	128.858
113.688	323.229
117.861	225.369
122.032	12.074
126.201	37.499
130.367	62.75
134.532	8.178
138.695	114.999
142.856	95.17
147.014	218.422
151.171	332.006
155.325	424.153
159.478	795.613
163.629	1765.04
167.777	3138.37
171.924	3311.45
176.068	1987.6
180.211	970.507
184.351	484.815
188.49	227.252
192.626	111.38
196.761	83.157
200.893	25.66
205.024	19.114
209.152	3.188
213.279	18.603
217.403	16.376
221.526	56.496
225.646	111.212
229.765	40.003
233.881	39.131
237.996	43.193
242.108	153.702
246.219	203.616
250.328	271.365
254.434	428.471
258.539	544.833
262.641	856.214
266.742	1220.57
270.84	1876.54
274.937	2846.28
279.032	4200.59
283.125	5907.79
287.215	7499.37
291.304	7824.29
295.391	6605.65
299.476	4410.11
303.558	2713.95
307.639	1689.76
311.718	1179.94
315.795	865.494
319.87	721.588
323.943	623.465
328.014	477.564
332.083	468.321
336.15	344.812
340.215	364.719
344.279	368.316
348.34	360.963
352.399	328.998
356.457	205.519
360.512	238.287
364.565	238.536
368.617	123.702
372.666	118.445
376.714	72.963
380.76	51.042
384.803	31.063
388.845	52.12
392.885	41.559
396.923	44.26
400.959	24.133
404.993	44.281
409.025	51.411
413.055	15.49
417.084	4.551
421.11	38.454
425.134	36.748
429.157	20.782
433.177	3.343
437.196	7.12
441.213	24.389
445.227	57.394
449.24	70.928
453.251	64.098
457.26	10.229
461.267	0.802
465.272	57.496
469.276	90.981
473.277	40.294
477.276	77.769
481.274	18.312
485.27	36.894
489.263	32.111
493.255	75.589
497.245	88.761
501.233	109.72
505.219	96.534
509.203	91.427
513.186	127.173
517.166	132.588
521.145	55.677
525.121	115.542
529.096	116.644
533.069	152.84
537.04	80.197
541.009	116.087
544.976	115.416
548.941	90.232
552.905	110.894
556.866	96.613
560.826	49.832
564.784	98.346
568.74	114.83
572.694	118.793
576.646	66.758
580.596	94.909
584.544	139.245
588.491	47.885
592.435	47.692
596.378	39.224
600.319	17.456
604.258	39.905
608.195	68.379
612.131	12.685
616.064	22.611
619.995	5.473
623.925	30.307
627.853	45.508
631.779	42.106
635.703	8
639.625	70.557
643.546	17.165
647.464	8.048
651.381	8.149
655.296	9.415
659.209	7.382
663.12	32.464
667.029	42.026
670.937	18.791
674.842	12.271
678.746	67.26
682.648	17.098
686.548	44.76
690.447	24.504
694.343	23.041
698.238	50.656
702.13	75.329
706.021	166.923
709.91	250.456
713.798	420.934
717.683	846.313
721.567	1023.71
725.448	824.175
729.328	442.639
733.206	283.1
737.083	214.494
740.957	177.013
744.83	100.415
748.701	158.622
752.57	128.74
756.437	105.566
760.302	116.753
764.166	110.145
768.027	170.339
771.887	126.148
775.745	148.851
779.602	154.031
783.456	197.631
787.309	249.062
791.16	312.674
795.009	246.312
798.856	227.769
802.702	271.604
806.545	361.151
810.387	381.452
814.227	431.45
818.065	486.323
821.902	556.287
825.737	591.014
829.569	573.071
833.401	474.223
837.23	380.964
841.057	335.72
844.883	263.283
848.707	274.203
852.529	129.154
856.35	177.14
860.168	161.153
863.985	133.196
867.8	199.269
871.613	365.374
875.425	157.515
879.234	121.689
883.042	95.898
886.848	59.142
890.653	39.425
894.455	2.257
898.256	47.102
902.055	41.505
905.852	9.731
909.648	13.405
913.442	71.89
917.233	53.419
921.024	5.993
924.812	28.603
928.599	0.744
932.384	8.039
936.167	7.278
939.948	61.551
943.728	28.449
947.506	49.603
951.282	1.667
955.056	8.288
958.829	39.341
962.6	44.397
966.369	5.532
970.136	43.767
973.902	49.035
977.666	34.343
981.428	68.674
985.188	36.008
988.947	32.388
992.704	99.824
996.459	93.352
1000.21	58.928
1003.96	65.561
1007.71	137.263
1011.46	107.015
1015.21	148.838
1018.95	141.758
1022.7	170.411
1026.44	134.806
1030.18	145.916
1033.91	211.073
1037.65	244.313
1041.39	303.613
1045.12	351.894
1048.85	359.78
1052.58	382.217
1056.31	443.144
1060.03	621.571
1063.76	665.128
1067.48	942.821
1071.2	1158.59
1074.92	1578.76
1078.63	2240.62
1082.35	4484.08
1086.06	10451.6
1089.78	26433.2
1093.49	30234.2
1097.19	12842.7
1100.9	4119.65
1104.61	1662.63
1108.31	882.062
1112.01	582.857
1115.71	487.966
1119.41	445.529
1123.11	307.353
1126.8	184.764
1130.5	174.795
1134.19	150.891
1137.88	147.331
1141.57	123.026
1145.25	121.501
1148.94	130.694
1152.62	73.721
1156.3	34.532
1159.98	81.002
1163.66	33.25
1167.34	53.593
1171.01	126.336
1174.68	107.188
1178.36	89.904
1182.02	49.885
1185.69	16.891
1189.36	78.287
1193.02	8.893
1196.69	121.306
1200.35	78.417
1204.01	91.187
1207.66	60.069
1211.32	71.096
1214.98	39.411
1218.63	34.925
1222.28	21.827
1225.93	52.603
1229.58	150.249
1233.22	102.958
1236.87	59.873
1240.51	125.338
1244.15	42.919
1247.79	49.149
1251.43	31.315
1255.07	78.441
1258.7	85.512
1262.33	78.476
1265.96	123.366
1269.59	58.17
1273.22	150.822
1276.85	96.349
1280.47	25.201
1284.1	24.064
1287.72	68.211
1291.34	98.238
1294.95	62.164
1298.57	65.948
1302.19	72.51
1305.8	34.08
1309.41	62.818
1313.02	34.274
1316.63	7.249
1320.23	61.087
1323.84	38.813
1327.44	79.415
1331.05	65.875
1334.64	67.215
1338.24	22.888
1341.84	29.022
1345.43	1.078
1349.03	54.052
1352.62	3.018
1356.21	69.831
1359.8	68.804
1363.39	129.877
1366.97	66.894
1370.56	71.389
1374.14	46.825
1377.72	8.282
1381.3	59.083
1384.87	82.821
1388.45	105.259
1392.02	148.086
1395.6	152.928
1399.17	173.646
1402.74	147.465
1406.3	164.719
1409.87	186.63
1413.43	274.24
1417	279.155
1420.56	277.59
1424.12	425.384
1427.67	506.649
1431.23	725.366
1434.79	808.037
1438.34	857.885
1441.89	685.999
1445.44	520.734
1448.99	381.937
1452.54	315.432
1456.08	179.562
1459.62	193.296
1463.17	67.862
1466.71	114.369
1470.24	208.163
1473.78	166.25
1477.32	186.229
1480.85	156.679
1484.38	141.044
1487.91	83.503
1491.44	59.046
1494.97	80.094
1498.5	30.228
1502.02	15.211
1505.54	52.065
1509.07	98.817
1512.59	82.076
1516.1	0
