Measurement: Raman, 514 nm, ccw, Raman Data Processed
Mineral: Dolomite
Rruff sample: R040030
Ideal chemistry: CaMg(CO_3_)_2_
Locality: Austria
Source: University of Arizona Mineral Museum
Description: Group of colorless tabular crystals
Measured chemistry: (Ca_0.99_Mg_0.01_)_Î£=1_Mg_1.00_(CO_3_)_2_ ; trace amounts of Mn; CO_2_ estimated by difference
Pin_id: M00035
Orientation: Laser parallel to -c* (0 0 -1). Fiducial mark perpendicular to laser is parallel to -a [-1 0 0]
Raman shift (cm-1)	intensity
91.398	0
95.582	115.506
99.764	216.66
103.943	300.624
108.121	224.709
112.297	317.795
116.47	289.888
120.642	165.837
124.811	131.525
128.979	110.393
133.144	41.737
137.307	14.619
141.469	5.511
145.628	8.148
149.786	44.465
153.941	57.8
158.094	179.853
162.245	231.389
166.395	393.315
170.542	979.509
174.687	2609.32
178.83	3685.68
182.972	1502.07
187.111	413.282
191.248	182.029
195.383	85.896
199.516	56.765
203.647	12.597
207.777	21.675
211.904	16.088
216.029	15.687
220.152	23.458
224.273	19.414
228.392	24.279
232.509	1.958
236.625	33.924
240.738	0.028
244.849	26.437
248.958	12.581
253.065	73.806
257.171	26.937
261.274	25.566
265.375	47.252
269.475	8.112
273.572	22.155
277.667	131.542
281.76	147.778
285.852	179.627
289.941	300.581
294.029	490.911
298.114	864.731
302.198	994.184
306.279	698.745
310.359	333.805
314.436	194.546
318.512	145.588
322.586	163.976
326.657	171.068
330.727	158.322
334.795	327.15
338.861	677.029
342.924	617.51
346.986	329.911
351.046	203.035
355.104	162.747
359.16	128.414
363.214	84.372
367.267	55.938
371.317	80.895
375.365	96.471
379.411	92.719
383.456	44.654
387.498	71.137
391.539	89.855
395.577	71.963
399.614	78.955
403.649	64.34
407.681	16.829
411.712	2.032
415.741	5.066
419.768	4.112
423.793	55.875
427.816	29.61
431.837	43.933
435.857	17.179
439.874	7.707
443.889	1.06
447.903	21.822
451.914	3.812
455.924	62.385
459.932	62.443
463.938	44.409
467.941	35.242
471.943	74.971
475.944	81.633
479.942	82.17
483.938	66.602
487.932	7.92
491.925	64.108
495.915	45.197
499.904	38.175
503.891	36.041
507.876	68.801
511.859	76.23
515.84	55.972
519.819	95.668
523.796	139.673
527.771	60.405
531.745	60.127
535.716	45.345
539.686	80.256
543.654	97.413
547.62	27.167
551.584	31.177
555.546	51.078
559.506	101.077
563.465	108.745
567.421	71.708
571.376	33.886
575.329	87.57
579.279	66.186
583.228	115.287
587.175	146.314
591.121	113.38
595.064	158.912
599.006	179.065
602.945	178.537
606.883	110.769
610.819	136.971
614.753	118.33
618.685	233.602
622.615	360.852
626.544	522.457
630.471	497.542
634.395	255.149
638.318	153.58
642.239	230.034
646.158	359.211
650.076	411.46
653.991	369.557
657.905	283.469
661.817	113.615
665.726	35.761
669.635	90.888
673.541	29.2
677.445	31.586
681.348	19.019
685.248	20.755
689.147	36.665
693.044	77.285
696.94	69.146
700.833	86.009
704.724	177.665
708.614	225.306
712.502	359.787
716.388	572.62
720.272	1167.42
724.155	2395.09
728.035	2584.61
731.914	1300.36
735.791	530.085
739.666	192.767
743.539	110.473
747.41	118.189
751.28	124.903
755.148	77.615
759.014	25.697
762.878	4.913
766.74	10.486
770.601	8.038
774.46	34.525
778.316	14.956
782.172	58.664
786.025	7.567
789.876	31.723
793.726	75.848
797.574	25.95
801.42	34.041
805.264	35.125
809.107	28.201
812.947	10.271
816.786	57.334
820.623	40.319
824.459	25.576
828.292	100.286
832.124	117.962
835.954	182.241
839.782	102.541
843.608	189.586
847.433	164.902
851.255	222.833
855.076	303.834
858.895	465.837
862.713	502.844
866.528	415.858
870.342	262.875
874.154	204.894
877.965	264.918
881.773	428.948
885.58	299.984
889.385	227.04
893.188	189.132
896.989	221.233
900.789	213.394
904.587	216.592
908.383	148.654
912.177	131.297
915.97	162.43
919.76	93.618
923.55	111.988
927.337	128.018
931.122	91.917
934.906	67.191
938.688	95.189
942.468	82.564
946.247	146.048
950.023	118.521
953.798	121.024
957.572	88.558
961.343	22.124
965.113	29.712
968.881	80.343
972.647	33.007
976.411	26.662
980.174	78.704
983.935	62.17
987.694	5.32
991.452	63.877
995.207	94.498
998.961	146.202
1002.71	535.945
1006.46	263.726
1010.21	97.685
1013.96	53.543
1017.71	157.44
1021.45	304.376
1025.19	329.351
1028.93	275.366
1032.67	192.42
1036.41	138.514
1040.14	157.936
1043.87	215.212
1047.61	339.013
1051.34	353.62
1055.06	347.301
1058.79	412.746
1062.52	509.174
1066.24	820.811
1069.96	1203.49
1073.68	1580.54
1077.4	2287.43
1081.11	2712.37
1084.83	3491.44
1088.54	4965.62
1092.25	9333.85
1095.96	28144.1
1099.67	52454.4
1103.37	18194.8
1107.08	5319.16
1110.78	2339.56
1114.48	1250
1118.18	845.483
1121.88	611.997
1125.57	458.639
1129.27	283.138
1132.96	209.846
1136.65	210.491
1140.34	35.851
1144.02	103.561
1147.71	58.303
1151.39	86.074
1155.07	66.871
1158.76	76.689
1162.43	13.528
1166.11	33.385
1169.79	34.263
1173.46	48.157
1177.13	96.07
1180.8	94.997
1184.47	53.939
1188.14	7.889
1191.8	26.882
1195.46	48.166
1199.13	0.504
1202.79	9.453
1206.45	103.399
1210.1	1.126
1213.76	67.135
1217.41	108.509
1221.06	30.482
1224.71	35.32
1228.36	72.248
1232.01	77.865
1235.65	130.579
1239.3	263.281
1242.94	246.993
1246.58	171.713
1250.22	222.44
1253.85	195.366
1257.49	173.158
1261.12	104.16
1264.75	138.082
1268.38	292.022
1272.01	307.072
1275.64	273.917
1279.27	243.828
1282.89	143.769
1286.51	73.717
1290.13	103.643
1293.75	145.439
1297.37	202.16
1300.98	134.72
1304.6	157.99
1308.21	216.252
1311.82	227.469
1315.43	252.664
1319.03	215.834
1322.64	233.938
1326.24	168.979
1329.85	175.971
1333.44	127.625
1337.04	98.405
1340.64	52.046
1344.24	47.054
1347.83	61.446
1351.42	115.096
1355.01	39.216
1358.6	42.578
1362.19	27.104
1365.78	22.531
1369.36	28.624
1372.94	41.24
1376.53	82.029
1380.1	136.432
1383.68	104.224
1387.26	101.015
1390.83	95.803
1394.41	107.554
1397.98	93.275
1401.55	112.975
1405.12	159.653
1408.68	230.308
1412.25	242.948
1415.81	166.598
1419.37	127.268
1422.93	202.963
1426.49	192.696
1430.05	253.358
1433.6	450.081
1437.15	696.489
1440.71	1408.7
1444.26	2119.96
1447.81	1467.44
1451.35	1196.09
1454.9	1184.05
1458.44	1104.78
1461.98	968.684
1465.53	750.228
1469.07	579.57
1472.6	519.508
1476.14	411.817
1479.67	353.197
1483.21	440.505
1486.74	378.423
1490.27	408.802
1493.8	254.603
1497.32	197.42
1500.85	170.598
1504.37	110.7
1507.89	26.06
1511.41	16.318
1514.93	76.843
1518.45	41.67
