Measurement: Raman, 514 nm, ccw, Raman Data Processed
Mineral: Dolomite
Rruff sample: R050272
Ideal chemistry: CaMg(CO_3_)_2_
Locality: Eagle mine, Gillman, Colorado, USA
Source: University of Arizona Mineral Museum
Description: Gray-white rhombohedral crystals
Measured chemistry: (Ca_0.96_Fe^2+^_0.04_)_Σ=1_(Mg_0.63_Mn^2+^_0.21_Fe^2+^_0.16_)_Σ=1_(CO_3_)_2_ ; CO_3_ estimated by difference and stoichiometry
Pin_id: L00489
Orientation: Laser parallel to -a* (-1 0 0). Fiducial mark perpendicular to laser is parallel to -c [0 0 -1]
Raman shift (cm-1)	intensity
80.125	0
84.311	41.937
88.496	66.508
92.678	210.88
96.858	224.304
101.036	150.685
105.212	134.978
109.387	133.626
113.559	238.265
117.729	189.186
121.897	87.996
126.063	11.741
130.228	18.627
134.39	77.101
138.55	127.447
142.709	109.457
146.865	157.852
151.019	204.832
155.171	407.166
159.322	621.281
163.47	1212.47
167.617	2864.64
171.761	5148
175.904	3908.54
180.044	1821.14
184.183	827.775
188.319	448.351
192.454	260.809
196.586	233.131
200.717	91.268
204.846	31.185
208.972	3.862
213.097	4.708
217.22	24.519
221.341	10.937
225.46	38.949
229.577	54.702
233.692	16.496
237.805	71.122
241.916	33.275
246.025	119.46
250.132	118.113
254.237	222.497
258.34	433.048
262.442	587.837
266.541	833.189
270.639	1173.68
274.734	1776.62
278.828	2633.25
282.919	3990.88
287.009	6329.88
291.097	9154.47
295.183	9935.75
299.266	7272.24
303.348	4329.25
307.428	2507.6
311.507	1495.68
315.583	994.986
319.657	709.85
323.729	581.675
327.8	421.052
331.868	388.989
335.935	390.963
339.999	345.481
344.062	239.98
348.123	192.436
352.182	171.568
356.239	159.553
360.294	87.105
364.347	28.264
368.398	106.906
372.448	117.08
376.495	29.32
380.54	0.08
384.584	53.736
388.626	0.304
392.666	11.367
396.704	4.88
400.74	9.215
404.774	1.186
408.806	12.273
412.836	5.977
416.865	25.445
420.891	39.647
424.916	4.375
428.939	16.557
432.959	37.115
436.978	73.753
440.996	50.073
445.011	38.114
449.024	27.048
453.036	44.757
457.045	45.273
461.053	19.378
465.059	63.625
469.063	78.59
473.065	117.377
477.065	79.764
481.063	7.025
485.06	64.438
489.054	125.666
493.047	87.734
497.038	57.333
501.027	75.871
505.014	142.033
508.999	98.86
512.982	32.842
516.964	80.473
520.944	153.75
524.921	122.185
528.897	81.783
532.871	91.97
536.844	102.224
540.814	145.521
544.783	160.735
548.749	57.439
552.714	74.345
556.677	122.683
560.638	136.226
564.597	130.336
568.555	73.402
572.511	96.077
576.464	120.371
580.416	121.182
584.366	43.654
588.315	55.381
592.261	102.114
596.206	111.172
600.148	90.612
604.089	19.975
608.028	33.594
611.965	84.52
615.901	102.699
619.834	4.891
623.766	0.381
627.696	38.23
631.624	33.76
635.551	45.198
639.475	5.839
643.398	2.172
647.318	44.348
651.237	62.068
655.155	45.577
659.07	7.136
662.984	7.069
666.895	67.818
670.805	79.554
674.713	89.547
678.62	50.264
682.524	24.674
686.427	81.369
690.328	114.049
694.227	153.146
698.124	7.817
702.02	164.397
705.913	175.641
709.805	349.135
713.695	712.923
717.584	1250.03
721.47	1685.5
725.355	1258.89
729.238	709.288
733.119	378.548
736.998	214.696
740.876	120.873
744.752	105.155
748.626	165.436
752.498	103.512
756.368	73.413
760.237	17.139
764.104	95.971
767.969	105.609
771.832	128.302
775.693	83.841
779.553	33.301
783.411	27.061
787.267	86.59
791.122	75.361
794.974	87.657
798.825	45.998
802.674	26.752
806.522	43.975
810.367	110.326
814.211	81.96
818.053	45.442
821.893	33.218
825.732	32.036
829.568	38.331
833.403	95.472
837.236	111.605
841.068	41.687
844.898	18.623
848.726	6.85
852.552	73.606
856.376	116.585
860.199	68.557
864.02	44.522
867.839	25.525
871.656	83.375
875.472	106.271
879.286	156.165
883.098	98.057
886.909	12.05
890.717	4.828
894.524	2.287
898.33	25.6
902.133	84.5
905.935	86.397
909.735	79.723
913.533	51.036
917.33	17.02
921.124	59.88
924.918	113.796
928.709	70.639
932.499	32.428
936.286	24.324
940.073	7.308
943.857	124.158
947.64	100.201
951.421	80.802
955.2	50.58
958.978	34.147
962.753	29.627
966.527	78.784
970.3	111.028
974.071	71.582
977.84	31.91
981.607	29.547
985.372	30.249
989.136	113.641
992.898	149.857
996.659	115.556
1000.42	98.68
1004.17	98.426
1007.93	39.234
1011.68	83.137
1015.43	196.098
1019.18	236.237
1022.93	249.355
1026.68	188.527
1030.42	240.769
1034.17	193.084
1037.91	352.862
1041.65	434.78
1045.39	458.167
1049.12	506.782
1052.86	518.712
1056.59	533.488
1060.33	669.336
1064.06	952.265
1067.78	1386.52
1071.51	1764.57
1075.23	2255.75
1078.96	3360
1082.68	6302.52
1086.4	13117.9
1090.12	28681.5
1093.83	43541
1097.55	28473.7
1101.26	8672.09
1104.97	3011.68
1108.68	1464.6
1112.39	897.588
1116.1	654.63
1119.8	633.945
1123.5	688.149
1127.2	423.367
1130.9	220.643
1134.6	239.645
1138.3	60.32
1141.99	2.905
1145.69	192.525
1149.38	230.965
1153.07	235.436
1156.76	91.891
1160.44	113.467
1164.13	28.129
1167.81	2.085
1171.49	28.805
1175.17	59.769
1178.85	181.308
1182.52	165.561
1186.2	116.931
1189.87	4.638
1193.54	4.574
1197.21	36.242
1200.88	56.63
1204.55	137.136
1208.21	128.562
1211.88	128.224
1215.54	145.677
1219.2	313.107
1222.86	52.544
1226.51	35.329
1230.17	49.489
1233.82	17.521
1237.47	147.722
1241.12	190.339
1244.77	188.162
1248.42	25.195
1252.06	46.001
1255.71	62.602
1259.35	71.174
1262.99	72.812
1266.63	129.337
1270.26	512.776
1273.9	239.14
1277.53	113.459
1281.16	95.675
1284.8	42.782
1288.42	44.82
1292.05	47.723
1295.68	23.53
1299.3	139.189
1302.92	115.638
1306.55	134.894
1310.16	117.027
1313.78	88.95
1317.4	38.77
1321.01	10.51
1324.62	1.916
1328.24	12.555
1331.85	91.812
1335.45	152.66
1339.06	230.646
1342.66	172.331
1346.27	98.836
1349.87	35.596
1353.47	6.068
1357.07	22.624
1360.66	38.321
1364.26	59.475
1367.85	212.335
1371.44	127.919
1375.04	129.605
1378.62	174.49
1382.21	227.619
1385.8	115.218
1389.38	29.177
1392.96	66.097
1396.54	137.249
1400.12	115.469
1403.7	270.457
1407.28	438.198
1410.85	470.128
1414.42	402.245
1417.99	436.543
1421.56	354.506
1425.13	378.937
1428.7	438.182
1432.26	505.007
1435.83	710.513
1439.39	818.934
1442.95	827.205
1446.51	633.559
1450.06	594.657
1453.62	423.383
1457.17	387.811
1460.73	307.099
1464.28	181.605
1467.83	113.993
1471.37	88.059
1474.92	40.894
1478.46	114.728
1482.01	173.519
1485.55	212.138
1489.09	237.375
1492.63	277.007
1496.16	232.778
1499.7	185.291
1503.23	134.43
1506.76	92.236
1510.29	83.737
1513.82	0.556
