Measurement: Raman, 514 nm, ccw, Raman Data Processed
Mineral: Dolomite
Rruff sample: R050357
Ideal chemistry: CaMg(CO_3_)_2_
Locality: Black Rock, Lawrence County, Arkansas, USA
Source: California Institute of Technology
Description: Aggregate of pale pink curved saddle-shaped crystals
Measured chemistry: Ca_1.00_(Mg_0.98_Fe^2+^_0.02_)_Î£=1_(CO_3_)_2_ ; CO_2_ estimated by difference
Pin_id: L01901
Orientation: Laser parallel to a* (1 0 0). Fiducial mark perpendicular to laser is parallel to c [0 0 1]
Raman shift (cm-1)	intensity
109.512	0
114.44	52.8634
119.365	65.9746
124.288	62.9862
129.209	12.5885
134.127	53.5881
139.043	78.3367
143.956	126.005
148.867	215.313
153.775	224.106
158.681	364.932
163.585	801.9
168.486	1825.13
173.385	4803.81
178.282	5623.85
183.176	1598.21
188.067	492.664
192.956	319.192
197.843	189.949
202.727	93.045
207.609	11.908
212.489	51.4929
217.366	68.038
222.24	61.9458
227.112	65.1007
231.982	34.3372
236.849	52.648
241.714	57.0454
246.577	80.5527
251.437	79.4445
256.294	99.6033
261.149	139.566
266.002	174.773
270.852	264.172
275.7	394.48
280.545	636.79
285.388	1260.59
290.229	2686.37
295.067	5712.75
299.902	8028.41
304.735	4599.98
309.566	1846.27
314.394	832.028
319.22	471.857
324.043	370.994
328.864	305.139
333.682	546.575
338.498	896.614
343.311	424.703
348.122	155.861
352.931	94.9083
357.737	134.144
362.54	78.3406
367.341	128.917
372.14	36.2451
376.936	0.343994
381.73	76.2476
386.521	68.6294
391.31	21.2527
396.096	22.1665
400.88	32.7642
405.661	37.6782
410.44	22.1599
415.216	27.6699
419.99	19.6653
424.761	35.8101
429.53	45.3008
434.297	27.8142
439.061	27.2664
443.822	99.7202
448.581	36.1333
453.337	53.5139
458.091	76.8726
462.843	53.2297
467.592	48.4277
472.338	28.7676
477.082	37.9126
481.824	25.6643
486.563	24.2283
491.3	9.20557
496.034	63.196
500.765	26.1797
505.494	26.2114
510.221	87.1558
514.945	107.514
519.666	33.4258
524.385	40.2983
529.102	48.1372
533.816	52.6958
538.527	51.5076
543.236	28.3166
547.943	37.0691
552.647	85.783
557.348	25.5039
562.047	73.8354
566.744	95.5498
571.438	31.2966
576.129	51.4785
580.818	70.1667
585.504	21.6628
590.188	22.3071
594.87	50.2927
599.549	63.8589
604.225	30.3911
608.899	78.4468
613.57	65.9048
618.239	35.8887
622.905	71.2883
627.569	28.3325
632.23	30.9495
636.889	27.8018
641.545	73.04
646.198	43.5112
650.849	18.5156
655.498	97.9263
660.144	35.365
664.787	66.2349
669.428	78.2524
674.067	27.4448
678.703	58.1321
683.336	48.47
687.967	166.906
692.595	158.601
697.221	132.015
701.844	222.875
706.465	314.159
711.083	446.241
715.698	787.974
720.311	1677.64
724.922	2488.55
729.53	1239.1
734.135	522.768
738.738	208.298
743.338	211.71
747.936	95.093
752.531	107.487
757.124	93.8919
761.714	52.1611
766.302	87.407
770.887	41.6841
775.469	55.8843
780.049	53.4753
784.626	52.4988
789.201	20.1035
793.773	15.53
798.343	48.7837
802.91	45.4143
807.475	53.2195
812.037	31.9429
816.596	37.6084
821.153	11.1943
825.707	57.8516
830.259	18.1941
834.808	17.2127
839.355	33.0996
843.899	51.0195
848.441	40.0251
852.98	18.9844
857.516	0.904541
862.05	43.7759
866.581	58.6128
871.11	6.41284
875.636	142.177
880.159	249.915
884.68	145.622
889.199	28.9002
893.714	55.96
898.228	72.6211
902.738	62.231
907.246	19.8301
911.752	36.822
916.255	12.3589
920.755	75.6392
925.253	57.0466
929.748	60.228
934.241	10.3948
938.731	47.8284
943.218	51.2983
947.703	73.219
952.186	45.0364
956.665	15.2114
961.142	88.3018
965.617	2.6936
970.089	42.7507
974.558	17.5183
979.025	51.04
983.489	60.1865
987.951	81.6069
992.41	93.8564
996.866	76.4329
1001.32	86.0796
1005.77	49.5242
1010.22	27.2385
1014.67	149.036
1019.11	108.875
1023.55	74.7444
1027.99	166.598
1032.42	182.811
1036.86	167.081
1041.29	203.1
1045.72	173.233
1050.14	287.496
1054.56	339.862
1058.98	472.998
1063.4	687.009
1067.82	1017.01
1072.23	1562.81
1076.64	2220.29
1081.05	2855.78
1085.45	4236.88
1089.85	8783.26
1094.25	28245.6
1098.65	51063.8
1103.04	14375.5
1107.43	3744.98
1111.82	1443.9
1116.21	845.892
1120.59	714.056
1124.97	427.099
1129.35	233.427
1133.73	188.624
1138.1	85.8984
1142.47	101.899
1146.84	65.8884
1151.21	12.1824
1155.57	41.448
1159.93	43.227
1164.29	11.5369
1168.64	61.7444
1172.99	32.0308
1177.34	70.2942
1181.69	3.82056
1186.04	36.4299
1190.38	87.6597
1194.72	89.762
1199.05	80.9665
1203.39	17.2256
1207.72	51.1711
1212.05	7.66162
1216.37	32.5325
1220.7	10.8108
1225.02	74.5198
1229.34	66.8272
1233.65	50.6985
1237.97	57.6433
1242.28	99.8545
1246.59	2.71533
1250.89	41.4705
1255.19	15.2322
1259.49	18.241
1263.79	61.6213
1268.09	4.7146
1272.38	35.9197
1276.67	69.654
1280.95	24.957
1285.24	14.2139
1289.52	45.2571
1293.8	41.4241
1298.08	98.1345
1302.35	87.1938
1306.62	11.7949
1310.89	143.256
1315.15	107.028
1319.42	65.8379
1323.68	131.289
1327.94	106.825
1332.19	60.1392
1336.44	86.5508
1340.69	152.544
1344.94	66.0337
1349.19	111.059
1353.43	77.0469
1357.67	45.6284
1361.9	66.7749
1366.14	49.7978
1370.37	25.8857
1374.6	41.6362
1378.83	104.566
1383.05	73.5332
1387.27	72.1401
1391.49	97.9741
1395.7	22.8364
1399.92	13.3574
1404.13	101.221
1408.34	98.6318
1412.54	14.1265
1416.74	129.153
1420.94	139.568
1425.14	121.257
1429.34	122.58
1433.53	360.688
1437.72	906.634
1441.9	1517.8
1446.09	641.636
1450.27	327.778
1454.45	185.355
1458.63	222.916
1462.8	121.294
1466.97	98.4624
1471.14	42.9522
1475.31	140.582
1479.47	74.9136
1483.63	32.5938
1487.79	90.9228
1491.94	9.09815
1496.09	83.1748
1500.24	36.6397
1504.39	40.5083
1508.54	51.8848
1512.68	16.416
1516.82	105.039
1520.95	61.2681
1525.09	168.494
1529.22	136.961
1533.35	110.284
1537.47	36.0708
1541.6	61.689
1545.72	12.8335
1549.83	131.28
1553.95	103.204
1558.06	11.4224
1562.17	19.3594
1566.28	98.376
1570.38	57.4365
