Measurement: Raman, 514 nm, ccw, Raman Data Processed
Mineral: Dolomite
Rruff sample: R050129
Ideal chemistry: CaMg(CO_3_)_2_
Locality: Black Cloud mine, Leadville, Lake County, Colorado, USA
Source: Dave Bunk Minerals
Description: Aggregate of colorless to white rhombohedra
Measured chemistry: Ca(Mg_0.62_Fe^2+^_0.33_Mn_0.05_)_Î£=1_(CO_3_)_2_ ; CO_2_ estimated by difference
Pin_id: M00233
Orientation: Laser parallel to -c* (0 0 -1). Fiducial mark perpendicular to laser is parallel to [1 1 0]
Raman shift (cm-1)	intensity
108.121	0
112.297	123.493
116.47	33.733
120.642	48.975
124.811	18.315
128.979	1.056
133.144	47.473
137.307	37.094
141.469	66.471
145.628	67.511
149.786	50.041
153.941	178.746
158.094	265.629
162.245	392.13
166.395	978.446
170.542	2772.47
174.687	3202.06
178.83	1202.75
182.972	562.843
187.111	352.76
191.248	205.45
195.383	168.845
199.516	125.094
203.647	42.601
207.777	20.146
211.904	49.461
216.029	37.693
220.152	28.583
224.273	6.886
228.392	19.585
232.509	14.534
236.625	19.795
240.738	31.702
244.849	19.593
248.958	27.025
253.065	2.861
257.171	23.864
261.274	67.337
265.375	31.879
269.475	79.525
273.572	121.666
277.667	230.175
281.76	326.638
285.852	535.229
289.941	877.553
294.029	1198.52
298.114	1097.9
302.198	656.995
306.279	429.992
310.359	246.755
314.436	189.583
318.512	188.513
322.586	163.963
326.657	198.533
330.727	224.266
334.795	311.19
338.861	400.232
342.924	265.577
346.986	156.292
351.046	120.744
355.104	126.88
359.16	72.098
363.214	92.617
367.267	120.954
371.317	135.175
375.365	101.108
379.411	75.691
383.456	98.861
387.498	94.571
391.539	93.114
395.577	65.515
399.614	38.638
403.649	36.421
407.681	19.411
411.712	1.259
415.741	1.975
419.768	40.586
423.793	77.335
427.816	4.312
431.837	39.816
435.857	33.405
439.874	30.529
443.889	22.925
447.903	15.165
451.914	32.184
455.924	38.882
459.932	56.546
463.938	59.901
467.941	66.164
471.943	50.958
475.944	80.989
479.942	44.556
483.938	62.84
487.932	77.997
491.925	59.044
495.915	62.939
499.904	42.469
503.891	79.848
507.876	65.716
511.859	28.052
515.84	21.113
519.819	34.437
523.796	41.857
527.771	105.11
531.745	99.626
535.716	61.005
539.686	70.036
543.654	51.51
547.62	74.841
551.584	69.114
555.546	61.328
559.506	38.742
563.465	72.755
567.421	36.737
571.376	36.892
575.329	63.958
579.279	71.408
583.228	60.548
587.175	60.607
591.121	37.613
595.064	52.951
599.006	62.208
602.945	46.739
606.883	34.402
610.819	35.536
614.753	44.749
618.685	49.065
622.615	9.434
626.544	26.344
630.471	80.375
634.395	41.318
638.318	3.351
642.239	17.094
646.158	2.493
650.076	0.625
653.991	18.095
657.905	36.24
661.817	1.825
665.726	17.339
669.635	5.481
673.541	27.521
677.445	57.73
681.348	70.413
685.248	43.89
689.147	82.368
693.044	150.332
696.94	137.719
700.833	139.115
704.724	218.784
708.614	344.215
712.502	657.585
716.388	1270.29
720.272	2134.62
724.155	2165.89
728.035	1190.16
731.914	564.439
735.791	242.22
739.666	154.459
743.539	81.755
747.41	25.955
751.28	79.05
755.148	67.792
759.014	52.923
762.878	28.002
766.74	18.205
770.601	53.429
774.46	57.163
778.316	5.375
782.172	13.5
786.025	16.304
789.876	51.106
793.726	71.705
797.574	9.263
801.42	13.21
805.264	31.206
809.107	8.202
812.947	20.749
816.786	25.082
820.623	11.454
824.459	7.734
828.292	14.453
832.124	36.767
835.954	2.952
839.782	58.228
843.608	46.321
847.433	11.634
851.255	80.325
855.076	16.249
858.895	7.153
862.713	83.032
866.528	4.105
870.342	36.729
874.154	53.554
877.965	73.366
881.773	162.166
885.58	6.046
889.385	15.717
893.188	6.47
896.989	6.213
900.789	49.925
904.587	56.643
908.383	36.301
912.177	16.323
915.97	5.331
919.76	13.438
923.55	112.174
927.337	0.61
931.122	42.508
934.906	12.639
938.688	46.257
942.468	28.574
946.247	56.269
950.023	70.87
953.798	53.665
957.572	23.88
961.343	50.506
965.113	19.49
968.881	93.265
972.647	66.965
976.411	7.856
980.174	26.258
983.935	33.731
987.694	38.755
991.452	40.236
995.207	82.172
998.961	98.609
1002.71	93.723
1006.46	76.813
1010.21	62.656
1013.96	97.84
1017.71	175.566
1021.45	252.853
1025.19	255.547
1028.93	200.906
1032.67	196.319
1036.41	209.265
1040.14	281.804
1043.87	396.426
1047.61	497.011
1051.34	468.705
1055.06	484.45
1058.79	683.673
1062.52	819.536
1066.24	1081.21
1069.96	1605.44
1073.68	2106.23
1077.4	2443.32
1081.11	3315.48
1084.83	6158.71
1088.54	14095
1092.25	40947.3
1095.96	48739.7
1099.67	16992.1
1103.37	5151.52
1107.08	2122.02
1110.78	1038.62
1114.48	711.329
1118.18	540.048
1121.88	501.866
1125.57	426.791
1129.27	259.59
1132.96	183.596
1136.65	217.644
1140.34	225.009
1144.02	126.944
1147.71	132.075
1151.39	154.606
1155.07	180.941
1158.76	97.332
1162.43	117.836
1166.11	45.678
1169.79	19.569
1173.46	21.673
1177.13	37.389
1180.8	76.811
1184.47	116.129
1188.14	57.775
1191.8	70.325
1195.46	41.413
1199.13	35.588
1202.79	82.799
1206.45	43.54
1210.1	117.637
1213.76	101.673
1217.41	68.728
1221.06	66.736
1224.71	48.217
1228.36	19.312
1232.01	62.12
1235.65	51.306
1239.3	72.392
1242.94	81.355
1246.58	67.232
1250.22	42.005
1253.85	82.869
1257.49	25.617
1261.12	76.512
1264.75	11.272
1268.38	70.891
1272.01	112.471
1275.64	103.94
1279.27	22.346
1282.89	46.656
1286.51	6.195
1290.13	8.125
1293.75	12.206
1297.37	49.394
1300.98	6.267
1304.6	42.788
1308.21	33.172
1311.82	4.409
1315.43	22.182
1319.03	16.223
1322.64	20.846
1326.24	4.04
1329.85	49.345
1333.44	58.193
1337.04	32.615
1340.64	78.019
1344.24	103.262
1347.83	36.392
1351.42	74.427
1355.01	17.608
1358.6	37.276
1362.19	20.136
1365.78	23.848
1369.36	66.602
1372.94	121.429
1376.53	116.263
1380.1	127.594
1383.68	47.421
1387.26	57.158
1390.83	111.733
1394.41	53.055
1397.98	1.238
1401.55	40.122
1405.12	167.788
1408.68	171.753
1412.25	159.578
1415.81	177.104
1419.37	200.498
1422.93	217.065
1426.49	144.339
1430.05	294.255
1433.6	403.945
1437.15	707.903
1440.71	792.3
1444.26	564.064
1447.81	472.824
1451.35	360.688
1454.9	295.624
1458.44	246.384
1461.98	157.006
1465.53	170.578
1469.07	120.173
1472.6	71.632
1476.14	45.314
1479.67	6.15
1483.21	139.168
1486.74	129.824
1490.27	126.773
1493.8	83.195
1497.32	129.154
1500.85	173.328
1504.37	69.955
1507.89	31.897
1511.41	6.85
1514.93	9.789
1518.45	0.326
