Measurement: Raman, 514 nm, ccw, Raman Data Processed
Mineral: Dolomite
Rruff sample: R050129
Ideal chemistry: CaMg(CO_3_)_2_
Locality: Black Cloud mine, Leadville, Lake County, Colorado, USA
Source: Dave Bunk Minerals
Description: Aggregate of colorless to white rhombohedra
Measured chemistry: Ca(Mg_0.62_Fe^2+^_0.33_Mn_0.05_)_Î£=1_(CO_3_)_2_ ; CO_2_ estimated by difference
Pin_id: M00287
Orientation: Laser parallel to a* (1 0 0). Fiducial mark perpendicular to laser is parallel to c [0 0 1]
Raman shift (cm-1)	intensity
92.793	0
96.976	125.657
101.157	109.031
105.336	37.768
109.513	212.493
113.688	327.292
117.861	256.16
122.032	47.594
126.201	1.303
130.367	3.417
134.532	90.76
138.695	169.685
142.856	147.262
147.014	227.337
151.171	360.85
155.325	650.165
159.478	1151.94
163.629	2400.09
167.777	4441.27
171.924	4966.71
176.068	2990.23
180.211	1399.25
184.351	699.68
188.49	353.267
192.626	233.767
196.761	123.937
200.893	25.834
205.024	10.508
209.152	17.166
213.279	10.797
217.403	25.355
221.526	52.965
225.646	6.524
229.765	4.051
233.881	58.936
237.996	81.604
242.108	178.047
246.219	251.968
250.328	327.283
254.434	485.338
258.539	668.679
262.641	995.868
266.742	1473.42
270.84	2133.62
274.937	3123.66
279.032	4602.73
283.125	6636.77
287.215	8605.94
291.304	9148.5
295.391	7815.26
299.476	5219.19
303.558	3182.07
307.639	1903.01
311.718	1231.75
315.795	843.926
319.87	633.767
323.943	534.079
328.014	445.797
332.083	398.115
336.15	337.815
340.215	295.456
344.279	243.953
348.34	205.892
352.399	516.635
356.457	591.99
360.512	141.674
364.565	100.429
368.617	71.656
372.666	44.181
376.714	47.497
380.76	14.423
384.803	53.519
388.845	26.98
392.885	1.518
396.923	26.147
400.959	1.766
404.993	15.666
409.025	11.377
413.055	9.879
417.084	3.17
421.11	40.204
425.134	8.121
429.157	34.233
433.177	13.32
437.196	25.253
441.213	47.692
445.227	62.946
449.24	48.867
453.251	56.692
457.26	49.458
461.267	57.347
465.272	46.963
469.276	30.147
473.277	25.747
477.276	62.347
481.274	81.462
485.27	82.552
489.263	75.433
493.255	85.09
497.245	60.635
501.233	74.009
505.219	141.268
509.203	127.154
513.186	87.21
517.166	98.82
521.145	123.726
525.121	107.42
529.096	114.711
533.069	131.755
537.04	119.838
541.009	139.144
544.976	97.838
548.941	106.526
552.905	107.793
556.866	119.465
560.826	85.829
564.784	84.933
568.74	85.187
572.694	102.418
576.646	84.153
580.596	72.173
584.544	69.745
588.491	27.829
592.435	31.616
596.378	43.681
600.319	46.648
604.258	28.809
608.195	26.148
612.131	37.253
616.064	31.438
619.995	17.613
623.925	17.664
627.853	43.757
631.779	33.638
635.703	26.554
639.625	1.057
643.546	0.84
647.464	11.09
651.381	29.675
655.296	17.028
659.209	17.328
663.12	5.386
667.029	16.994
670.937	33.2
674.842	26.393
678.746	31.732
682.648	44.066
686.548	55.391
690.447	69.714
694.343	63.259
698.238	125.557
702.13	164.85
706.021	306.135
709.91	507.414
713.798	991.7
717.683	1778.03
721.567	2103.37
725.448	1479.75
729.328	768.135
733.206	376.521
737.083	265.908
740.957	160.041
744.83	105.901
748.701	53.831
752.57	38.018
756.437	39.835
760.302	13.965
764.166	6.212
768.027	59.334
771.887	7.226
775.745	38.394
779.602	18.97
783.456	9.144
787.309	16.955
791.16	23.086
795.009	5.102
798.856	11.191
802.702	2.406
806.545	70.632
810.387	59.578
814.227	43.457
818.065	25.082
821.902	48.947
825.737	27.862
829.569	52
833.401	110.127
837.23	32.17
841.057	66.275
844.883	18.587
848.707	62.518
852.529	47.626
856.35	12.737
860.168	12.852
863.985	37.971
867.8	58.095
871.613	123.225
875.425	81.361
879.234	89.503
883.042	31.652
886.848	22.81
890.653	13.975
894.455	11.866
898.256	37.781
902.055	15.767
905.852	7.23
909.648	31.224
913.442	5.165
917.233	42.928
921.024	17.966
924.812	1.952
928.599	7.981
932.384	20.046
936.167	7.226
939.948	4.058
943.728	39.326
947.506	53.397
951.282	23.682
955.056	42.535
958.829	13.693
962.6	33.881
966.369	0.89
970.136	49.375
973.902	5.671
977.666	54.994
981.428	66.125
985.188	54.762
988.947	73.2
992.704	75.667
996.459	69.914
1000.21	56.434
1003.96	91.016
1007.71	114.642
1011.46	130.295
1015.21	171.998
1018.95	208.774
1022.7	198.611
1026.44	197.493
1030.18	254.437
1033.91	306.44
1037.65	387.495
1041.39	406.542
1045.12	416.198
1048.85	511.225
1052.58	580.123
1056.31	636.292
1060.03	774.479
1063.76	967.422
1067.48	1381.81
1071.2	1743.25
1074.92	2189.82
1078.63	3386.85
1082.35	6362.24
1086.06	14769.9
1089.78	38235.5
1093.49	46750.9
1097.19	20536.7
1100.9	6396.91
1104.61	2447.74
1108.31	1357.59
1112.01	828.225
1115.71	630.986
1119.41	563.02
1123.11	402.99
1126.8	329.012
1130.5	273.186
1134.19	240.675
1137.88	186.771
1141.57	93.856
1145.25	94.975
1148.94	148.4
1152.62	109.025
1156.3	105.921
1159.98	106.435
1163.66	91.8
1167.34	91.165
1171.01	105.668
1174.68	69.067
1178.36	85.032
1182.02	72.746
1185.69	87.398
1189.36	73.476
1193.02	42.736
1196.69	46.593
1200.35	69.782
1204.01	37.796
1207.66	56.248
1211.32	61.953
1214.98	17.204
1218.63	2.373
1222.28	41.812
1225.93	63.902
1229.58	81.889
1233.22	54.999
1236.87	64.096
1240.51	8.166
1244.15	17.194
1247.79	23.199
1251.43	65.189
1255.07	8.266
1258.7	63.189
1262.33	67.084
1265.96	38.901
1269.59	38.671
1273.22	30.323
1276.85	61.854
1280.47	40.255
1284.1	36.604
1287.72	23.865
1291.34	38.054
1294.95	13.839
1298.57	37.154
1302.19	25.064
1305.8	11.126
1309.41	9.414
1313.02	40.795
1316.63	45.714
1320.23	25.141
1323.84	35.461
1327.44	91.685
1331.05	208.83
1334.64	82.912
1338.24	20.064
1341.84	37.88
1345.43	5.233
1349.03	10.4
1352.62	17.382
1356.21	49.136
1359.8	6.848
1363.39	56.483
1366.97	32.234
1370.56	10.142
1374.14	36.014
1377.72	78.307
1381.3	44.485
1384.87	43.674
1388.45	65.844
1392.02	70.781
1395.6	111.661
1399.17	63.348
1402.74	165.914
1406.3	152.164
1409.87	153.03
1413.43	196.914
1417	240.028
1420.56	244.312
1424.12	383.615
1427.67	499.88
1431.23	701.042
1434.79	831.606
1438.34	903.021
1441.89	778.173
1445.44	544.663
1448.99	336.266
1452.54	287.63
1456.08	168.75
1459.62	134.279
1463.17	89.777
1466.71	116.389
1470.24	52.502
1473.78	78.729
1477.32	128.18
1480.85	138.912
1484.38	149.049
1487.91	113.419
1491.44	63.288
1494.97	0.215
1498.5	55.082
1502.02	34.445
1505.54	12.366
1509.07	75.82
1512.59	44.955
