Measurement: Raman, 514 nm, ccw, Raman Data Processed
Mineral: Dolomite
Rruff sample: R050370
Ideal chemistry: CaMg(CO_3_)_2_
Locality: Morro Velho mine, Nova Lima, Minas Gerais, Brazil
Source: Eugene Schlepp
Description: Colorless bladed crystals associated with pyrrhotite and albite
Measured chemistry: (Ca_0.84_Fe_0.16_)_Σ=1_(Mg_0.98_Mn_0.02_)_Σ=1_(CO_3_)_2_ ; CO_2_ estimated by difference
Pin_id: L01076
Orientation: Laser parallel to a* (1 0 0). Fiducial mark perpendicular to laser is parallel to c [0 0 1]
Raman shift (cm-1)	intensity
118.134	0
123.058	4.25439
127.979	61.668
132.898	143.869
137.814	209.922
142.728	302.984
147.639	395.786
152.549	447.406
157.455	707.627
162.359	1359.41
167.261	2169.01
172.161	3010.01
177.058	2555.11
181.952	1197.11
186.845	729.802
191.734	533.515
196.622	447.349
201.507	421.066
206.389	331.503
211.269	406.769
216.147	533.798
221.022	582.774
225.895	889.6
230.765	707.174
235.633	416.57
240.498	510.683
245.361	390.483
250.222	418.956
255.08	549.054
259.936	941.073
264.789	908.037
269.64	1319.99
274.488	2041.05
279.334	3207.22
284.178	4778.08
289.019	6085.27
293.857	6293.48
298.693	5215.04
303.527	2983.47
308.358	1604.46
313.187	958.803
318.013	644.688
322.837	456.215
327.659	426.546
332.478	362.274
337.294	515.518
342.108	604.596
346.92	423.928
351.729	381.879
356.535	180.656
361.34	139.782
366.141	163.004
370.94	130.223
375.737	9.31934
380.531	105.965
385.323	22.709
390.113	120.732
394.9	3.97852
399.684	7.57227
404.466	8.9873
409.245	31.9521
414.022	29.6699
418.797	18.8896
423.569	23.79
428.338	45.294
433.105	51.2051
437.87	24.4756
442.632	62.792
447.391	28.9824
452.149	19.4258
456.903	17.0791
461.655	180.911
466.405	3.44629
471.152	107.553
475.897	94.0586
480.639	108.327
485.378	177.384
490.116	60.1846
494.85	88.1348
499.582	206.23
504.312	184.48
509.039	169.874
513.764	166.389
518.486	77.0244
523.206	89.3711
527.923	105.105
532.638	134.849
537.35	151.205
542.059	13.1279
546.766	164.201
551.471	44.919
556.173	180.852
560.873	136.94
565.57	140.623
570.264	61.5674
574.957	150.856
579.646	47.6768
584.333	148.883
589.018	188.985
593.7	140.227
598.379	222.756
603.056	78.3252
607.73	11.3438
612.402	45.8506
617.072	11.0889
621.739	133.299
626.403	149.631
631.065	175.859
635.724	73.2881
640.381	57.5801
645.035	73.0019
649.687	56.7295
654.336	158.981
658.983	205.491
663.627	79.3731
668.268	200.791
672.907	106.31
677.544	153.281
682.178	19.834
686.809	132.601
691.438	47.416
696.065	90.083
700.688	56.8691
705.31	255.32
709.929	217.536
714.545	380.914
719.158	620.965
723.77	477.273
728.378	406.807
732.984	329.326
737.588	206.851
742.189	140.375
746.787	201.614
751.383	269.941
755.976	145.618
760.567	14.3291
765.155	265.399
769.741	194.909
774.324	117.43
778.904	177.931
783.482	86.5947
788.058	75.334
792.631	83.7969
797.201	74.2539
801.769	74.0791
806.334	43.9414
810.897	8.73926
815.457	38.3789
820.014	186.444
824.569	11.5459
829.122	24.7041
833.671	179.886
838.219	155.418
842.763	154.63
847.306	102.851
851.845	127.948
856.382	22.8672
860.917	215.79
865.448	58.75
869.978	171.719
874.505	99.7022
879.029	343.72
883.55	282.795
888.069	48.9668
892.586	64.2832
897.1	93.4531
901.611	86.6025
906.12	59.6016
910.626	61.6328
915.129	133.3
919.63	133.531
924.129	95.3926
928.625	98.2061
933.118	76.2793
937.609	180.81
942.097	153.007
946.582	156.79
951.065	152.122
955.546	2.66406
960.023	75.6836
964.499	180.119
968.971	136.773
973.441	105.346
977.909	60.4873
982.374	166.206
986.836	167.395
991.295	47.8975
995.753	82.1484
1000.21	166.501
1004.66	223.968
1009.11	98.5312
1013.55	234.192
1018	233.951
1022.44	225.09
1026.88	401.044
1031.32	258.64
1035.75	252.264
1040.18	358.673
1044.61	329.271
1049.04	415.956
1053.46	611.891
1057.88	534.498
1062.3	901.635
1066.71	1090.09
1071.13	1821.1
1075.54	2190.82
1079.94	3029.89
1084.35	6781.79
1088.75	19458.9
1093.15	39704.2
1097.55	37223.8
1101.94	11293.2
1106.34	3092.8
1110.73	1284.35
1115.11	901.973
1119.5	787.814
1123.88	508.697
1128.26	469.05
1132.63	257.656
1137.01	202.949
1141.38	263.313
1145.75	93.8682
1150.12	225.4
1154.48	58.9951
1158.84	185.634
1163.2	97.3486
1167.55	99.7881
1171.91	45.0674
1176.26	11.8027
1180.61	408.199
1184.95	152.463
1189.29	169.141
1193.63	152.195
1197.97	131.683
1202.31	33.5625
1206.64	35.4629
1210.97	80.8272
1215.29	167.551
1219.62	85.251
1223.94	91.9482
1228.26	54.5791
1232.57	76.8311
1236.89	194.849
1241.2	139.165
1245.51	163.739
1249.81	138.591
1254.12	205.722
1258.42	84.8789
1262.72	239.816
1267.01	80.7754
1271.3	90.626
1275.59	284.398
1279.88	275.199
1284.17	170.502
1288.45	196.927
1292.73	2.73438
1297.01	52.2754
1301.28	91.1768
1305.55	59.7861
1309.82	155.111
1314.09	217.366
1318.35	14.4092
1322.61	160.572
1326.87	377.259
1331.13	35.4336
1335.38	8.31445
1339.63	164.039
1343.88	139.307
1348.12	62.0449
1352.37	154.04
1356.61	72.6221
1360.85	185.167
1365.08	259.752
1369.31	93.1894
1373.54	27.5303
1377.77	140.213
1381.99	194.465
1386.22	178.252
1390.43	25.21
1394.65	27.6338
1398.87	26.415
1403.08	61.0049
1407.29	228.598
1411.49	278.193
1415.69	370.84
1419.89	302.984
1424.09	585.508
1428.29	329.93
1432.48	639.002
1436.67	693.674
1440.86	1050.87
1445.04	499.391
1449.23	538.707
1453.4	393.998
1457.58	272.281
1461.76	179.059
1465.93	115.758
1470.1	305.211
1474.26	161.512
1478.43	167.027
1482.59	166.482
1486.75	110.43
1490.9	89.3203
1495.06	141.022
1499.21	12.0488
1503.35	69.1777
1507.5	139.791
1511.64	137.828
1515.78	291.94
1519.92	281.16
1524.05	361.049
1528.18	203.051
1532.31	277.883
1536.44	4.87109
1540.56	11.627
1544.69	224.139
1548.8	37.0449
1552.92	138.06
1557.03	142.268
1561.14	96.0879
1565.25	163.566
1569.36	235.207
