Measurement: Raman, 514 nm, ccw, Raman Data Processed
Mineral: Dolomite
Rruff sample: R050241
Ideal chemistry: CaMg(CO_3_)_2_
Locality: Eugui quarries, Navarre, Spain
Source: Marcus Origlieri
Description: Light gray colored tabular crystals
Measured chemistry: (Ca_0.96_Mg_0.04_)_Σ=1_(Mg_0.98_Fe^2+^_0.02_)_Σ=1_(CO_3_)_2_ ; CO_2_ estimated by difference
Pin_id: L00518
Orientation: Laser parallel to -a* (-1 0 0). Fiducial mark perpendicular to laser is parallel to c [0 0 1]
Raman shift (cm-1)	intensity
100.883	0
105.815	62.2468
110.744	66.3435
115.671	69.2007
120.596	49.9846
125.519	58.8706
130.439	8.14111
135.356	155.961
140.271	118.489
145.184	167.728
150.094	279.256
155.002	250.914
159.908	463.569
164.811	1330.09
169.711	3068.24
174.61	4962.23
179.505	7709.16
184.399	2218.4
189.29	650.056
194.178	334.229
199.064	243.794
203.948	101.929
208.829	139.492
213.708	133.28
218.585	88.4238
223.459	15.7495
228.33	20.2725
233.199	96.936
238.066	20.2466
242.93	29.312
247.792	107.943
252.651	56.3467
257.508	79.1543
262.363	89.999
267.215	108.311
272.064	247.686
276.912	494.756
281.756	842.845
286.598	1830.4
291.438	4349.32
296.276	7610.6
301.111	9121.72
305.943	5273.5
310.773	1950.74
315.601	852.248
320.426	469.025
325.248	331.713
330.068	492.587
334.886	513.069
339.701	743.742
344.514	463.765
349.324	194.288
354.132	139.441
358.938	114.818
363.741	55.2295
368.541	101.175
373.339	93.73
378.135	27.4028
382.928	45.4263
387.718	112.116
392.506	25.0195
397.292	87.7466
402.075	77.4707
406.856	28.1558
411.634	16.7656
416.41	61.5478
421.183	42.5083
425.954	72.4277
430.722	60.581
435.488	21.3882
440.251	98.6631
445.012	69.9385
449.77	0.627441
454.526	31.6382
459.28	121.906
464.03	42.2329
468.779	45.9756
473.525	76.5737
478.268	116.498
483.009	62.4614
487.747	95.2993
492.483	160.091
497.217	85.9243
501.948	88.2393
506.676	69.7544
511.402	106.396
516.125	11.3867
520.846	80.8389
525.565	13.6274
530.281	108.131
534.994	118.963
539.705	114.818
544.413	58.3105
549.119	88.9688
553.822	7.48731
558.523	39.606
563.222	112.62
567.917	92.5361
572.611	25.9521
577.302	69.8931
581.99	164.425
586.676	57.958
591.359	39.8047
596.04	11.4404
600.718	129.212
605.394	83.1055
610.067	106.033
614.737	198.725
619.406	71.1284
624.071	128.225
628.734	29.3174
633.395	36.397
638.053	201.666
642.708	111.481
647.361	146.715
652.012	104.619
656.66	188.454
661.305	143.864
665.948	18.1162
670.588	81.3867
675.226	150.728
679.861	102.786
684.494	236.745
689.124	129.909
693.752	285.317
698.377	335.593
702.999	412.225
707.619	660.281
712.237	1060.29
716.852	2028.02
721.464	3654.32
726.074	4110.29
730.681	2107.53
735.286	809.855
739.888	290.299
744.488	203.397
749.085	184.812
753.68	244.936
758.272	190.642
762.861	114.792
767.448	75.5166
772.033	41.1016
776.614	1.41797
781.194	125.289
785.77	70.6953
790.345	91.0088
794.916	105.542
799.485	47.5859
804.052	20.4531
808.616	52.0508
813.177	41.6973
817.736	52.3594
822.292	205.36
826.846	117.254
831.397	88.4883
835.945	13.2041
840.491	61.9648
845.035	100.272
849.576	121.149
854.114	122.09
858.65	155.562
863.183	136.925
867.713	131.697
872.241	150.039
876.767	228.33
881.29	154.351
885.81	170.034
890.328	44.2412
894.843	98.6152
899.356	38.4795
903.866	143.16
908.373	134.448
912.878	71.8272
917.38	37.0381
921.88	42.7471
926.377	177.169
930.872	117.941
935.364	111.934
939.853	258.435
944.34	75.9434
948.824	70.542
953.306	1.04394
957.785	30.6279
962.261	116.481
966.735	0.289063
971.207	64.7978
975.675	127.371
980.141	167.983
984.605	160.439
989.066	78.3027
993.524	39.9326
997.98	61.5137
1002.43	148.993
1006.88	220.404
1011.33	145.592
1015.78	90.6641
1020.22	156.477
1024.66	131.811
1029.1	152.006
1033.53	264.795
1037.97	168.641
1042.4	339.006
1046.82	287.725
1051.25	251.379
1055.67	313.377
1060.09	621.597
1064.51	823.72
1068.92	1247.33
1073.33	2038.45
1077.74	2683.3
1082.15	3344.35
1086.55	5273.19
1090.95	12525.6
1095.35	33102.5
1099.75	48556.3
1104.14	15551.1
1108.53	3737.16
1112.92	1473.67
1117.31	818.907
1121.69	515.316
1126.07	410.74
1130.45	62.081
1134.82	121.42
1139.19	253.643
1143.57	96.584
1147.93	40.0185
1152.3	353.996
1156.66	124.202
1161.02	80.8037
1165.38	99.1621
1169.73	201.226
1174.08	322.791
1178.43	134.091
1182.78	181.356
1187.12	245.48
1191.46	215.672
1195.8	83.4961
1200.14	85.3584
1204.47	77.5186
1208.8	122.513
1213.13	88.5742
1217.46	179.349
1221.78	134.876
1226.1	223.42
1230.42	69.3262
1234.73	105.345
1239.04	77.3984
1243.35	79.2812
1247.66	82.2402
1251.97	21.6846
1256.27	136.138
1260.57	110.046
1264.86	123.853
1269.16	290.756
1273.45	92.3359
1277.74	97.8457
1282.03	180.162
1286.31	160.932
1290.59	116.326
1294.87	58.2793
1299.14	25.8125
1303.42	10.291
1307.69	54.0547
1311.95	58.0605
1316.22	21.0938
1320.48	157.184
1324.74	303.922
1329	233.254
1333.26	150.92
1337.51	257.44
1341.76	81.6426
1346	171.295
1350.25	187.613
1354.49	137.572
1358.73	130.098
1362.96	105.559
1367.2	139.488
1371.43	53.875
1375.66	146.752
1379.88	23.4785
1384.11	146.348
1388.33	160.717
1392.54	129.109
1396.76	201.676
1400.97	133.988
1405.18	209.826
1409.39	340.002
1413.59	157.644
1417.8	27.6582
1421.99	278.09
1426.19	256.783
1430.38	302.049
1434.58	812.6
1438.77	1871.51
1442.95	2496.01
1447.13	998.305
1451.32	440.387
1455.49	210.912
1459.67	93.9922
1463.84	136.279
1468.01	16.3477
1472.18	43.627
1476.35	422.557
1480.51	232.652
1484.67	280.432
1488.83	6.71875
1492.98	207.457
1497.13	348.068
1501.28	310.752
1505.43	240.131
1509.57	349.908
1513.71	87.7227
1517.85	141.42
1521.99	171.488
1526.12	159.969
1530.25	194.648
1534.38	355.812
1538.5	431.268
1542.62	0.210938
1546.74	175.963
1550.86	222.51
1554.98	182.5
1559.09	69.3125
1563.2	113.092
1567.31	2.18359
1571.41	0
