Measurement: Raman, 514 nm, ccw, Raman Data Processed
Mineral: Dolomite
Rruff sample: R050272
Ideal chemistry: CaMg(CO_3_)_2_
Locality: Eagle mine, Gillman, Colorado, USA
Source: University of Arizona Mineral Museum
Description: Gray-white rhombohedral crystals
Measured chemistry: (Ca_0.96_Fe^2+^_0.04_)_Σ=1_(Mg_0.63_Mn^2+^_0.21_Fe^2+^_0.16_)_Σ=1_(CO_3_)_2_ ; CO_3_ estimated by difference and stoichiometry
Pin_id: L00059
Orientation: Laser parallel to c* (0 0 1). Fiducial mark perpendicular to laser is parallel to a [1 0 0]
Raman shift (cm-1)	intensity
46.563	0
50.765	73.756
54.966	82.543
59.164	64.691
63.36	34.876
67.554	64.089
71.747	8.089
75.937	23.032
80.125	59.444
84.311	93.219
88.496	41.397
92.678	136.189
96.858	96.913
101.036	50.278
105.212	50.937
109.387	4.901
113.559	22.942
117.729	57.628
121.897	17.997
126.063	2.114
130.228	33.667
134.39	63.39
138.55	110.356
142.709	116.547
146.865	156.147
151.019	191.069
155.171	294.44
159.322	457.836
163.47	766.484
167.617	1676.8
171.761	3675.71
175.904	2969.27
180.044	1157.54
184.183	462.544
188.319	252.333
192.454	144.906
196.586	79.267
200.717	35.813
204.846	16.338
208.972	16.985
213.097	36.899
217.22	5.63
221.341	27.798
225.46	5.487
229.577	0.512
233.692	21.317
237.805	3.279
241.916	25.103
246.025	51.311
250.132	69.01
254.237	76.685
258.34	86.511
262.442	125.503
266.541	116.72
270.639	216.607
274.734	259.562
278.828	336.361
282.919	498.411
287.009	774.39
291.097	1147.44
295.183	1346.2
299.266	1031.74
303.348	605.446
307.428	378.486
311.507	246.7
315.583	185.871
319.657	157.35
323.729	177.673
327.8	183.925
331.868	223.005
335.935	249.904
339.999	274.777
344.062	194.398
348.123	152.966
352.182	109.412
356.239	87.904
360.294	81.249
364.347	66.487
368.398	59.783
372.448	72.775
376.495	28.252
380.54	27.766
384.584	43.005
388.626	35.909
392.666	39.179
396.704	22.88
400.74	16.513
404.774	19.498
408.806	12.531
412.836	4.261
416.865	11.259
420.891	24.903
424.916	0.822
428.939	0.803
432.959	29.023
436.978	4.469
440.996	9.851
445.011	15.177
449.024	8.428
453.036	4.388
457.045	12.799
461.053	30.925
465.059	11.024
469.063	0.928
473.065	22.073
477.065	27.024
481.063	24.931
485.06	18.805
489.054	14.996
493.047	16.426
497.038	12.168
501.027	41.861
505.014	14.508
508.999	15.119
512.982	31.542
516.964	57.737
520.944	45.799
524.921	33.829
528.897	47.759
532.871	73.747
536.844	73.566
540.814	36.555
544.783	30.677
548.749	45.394
552.714	54.386
556.677	40.366
560.638	50.4
564.597	56.229
568.555	42.268
572.511	25.207
576.464	38.333
580.416	30.564
584.366	55.745
588.315	46.896
592.261	24.227
596.206	23.312
600.148	13.542
604.089	38.84
608.028	12.591
611.965	11.792
615.901	1.362
619.834	20.799
623.766	12.772
627.696	13.333
631.624	28.294
635.551	10.653
639.475	14.898
643.398	5.798
647.318	12.574
651.237	11.193
655.155	27.173
659.07	24.999
662.984	28.018
666.895	45.735
670.805	46.439
674.713	49.782
678.62	76.296
682.524	67.956
686.427	130.279
690.328	95.024
694.227	157.047
698.124	176.71
702.02	232.852
705.913	327.445
709.805	591.089
713.695	1184.73
717.584	2411.37
721.47	3496
725.355	2526.63
729.238	1203.25
733.119	557.871
736.998	261.483
740.876	146.299
744.752	92.078
748.626	55.701
752.498	36.291
756.368	17.865
760.237	24.406
764.104	9.952
767.969	12.263
771.832	3.77
775.693	10.165
779.553	10.412
783.411	8.851
787.267	10.51
791.122	1.86
794.974	8.946
798.825	1.574
802.674	11.614
806.522	1.229
810.367	2.905
814.211	5.027
818.053	1.877
821.893	11.179
825.732	3.211
829.568	3.783
833.403	10.186
837.236	0.138
841.068	7.066
844.898	0.972
848.726	23.858
852.552	4.27
856.376	1.421
860.199	5.399
864.02	6.2
867.839	23.992
871.656	69.776
875.472	74.551
879.286	75.318
883.098	62.078
886.909	30.831
890.717	20.578
894.524	6.316
898.33	2.044
902.133	0.765
905.935	19.479
909.735	3.191
913.533	13.9
917.33	12.823
921.124	12.866
924.918	34.271
928.709	10.949
932.499	5.724
936.286	13.221
940.073	3.8
943.857	23.499
947.64	7.824
951.421	9.616
955.2	31.373
958.978	16.763
962.753	9.35
966.527	18.942
970.3	17.021
974.071	37.041
977.84	43.745
981.607	19.524
985.372	63.937
989.136	39.626
992.898	54.036
996.659	52.747
1000.42	75.435
1004.17	74.981
1007.93	107.652
1011.68	84.944
1015.43	152.978
1019.18	166.039
1022.93	219.126
1026.68	239.244
1030.42	256.4
1034.17	269.589
1037.91	313.81
1041.65	378.062
1045.39	438.144
1049.12	496.289
1052.86	581.61
1056.59	654.013
1060.33	810.45
1064.06	1019.93
1067.78	1374.81
1071.51	1955.27
1075.23	2639.89
1078.96	3677.65
1082.68	6306.23
1086.4	13015
1090.12	28845.9
1093.83	61053.7
1097.55	41108.7
1101.26	11674.8
1104.97	4004.8
1108.68	1940.87
1112.39	1148.7
1116.1	814.121
1119.8	572.296
1123.5	530.514
1127.2	368.409
1130.9	304.698
1134.6	293.622
1138.3	242.373
1141.99	196.88
1145.69	191.297
1149.38	175.744
1153.07	143.364
1156.76	123.882
1160.44	134.431
1164.13	86.046
1167.81	64.841
1171.49	80.436
1175.17	74.847
1178.85	79.184
1182.52	66.227
1186.2	43.434
1189.87	41.137
1193.54	25.3
1197.21	32.463
1200.88	33.33
1204.55	25.103
1208.21	28.872
1211.88	25.502
1215.54	22.989
1219.2	15.79
1222.86	25.819
1226.51	24.104
1230.17	10.272
1233.82	0.194
1237.47	21.768
1241.12	7.773
1244.77	4.281
1248.42	34.868
1252.06	25.69
1255.71	14.486
1259.35	7.341
1262.99	15.156
1266.63	20.961
1270.26	5.767
1273.9	13.57
1277.53	6.361
1281.16	17.124
1284.8	3.859
1288.42	9.56
1292.05	25.229
1295.68	10.857
1299.3	3.422
1302.92	4.926
1306.55	11.372
1310.16	11.771
1313.78	32.13
1317.4	3.544
1321.01	6.254
1324.62	3.006
1328.24	4.797
1331.85	9.367
1335.45	2.488
1339.06	19.558
1342.66	14.587
1346.27	19.572
1349.87	2.477
1353.47	12.564
1357.07	6.685
1360.66	17.143
1364.26	11.046
1367.85	17.752
1371.44	8.529
1375.04	19.37
1378.62	9.09
1382.21	22.781
1385.8	35.297
1389.38	2.172
1392.96	24.425
1396.54	30.984
1400.12	24.759
1403.7	43.039
1407.28	57.314
1410.85	82.498
1414.42	100.847
1417.99	131.818
1421.56	160.166
1425.13	176.867
1428.7	251.244
1432.26	413.04
1435.83	642.346
1439.39	846.686
1442.95	722.414
1446.51	452.519
1450.06	342.819
1453.62	260.956
1457.17	187.725
1460.73	111.27
1464.28	100.601
1467.83	52.722
1471.37	66.572
1474.92	12.281
1478.46	49.922
1482.01	32.738
1485.55	33.948
1489.09	41.405
1492.63	30.904
1496.16	10.33
1499.7	10.308
1503.23	8.534
1506.76	11.17
1510.29	5.26
1513.82	0.516
1517.35	33.657
