Measurement: Raman, 514 nm, ccw, Raman Data Processed
Mineral: Dolomite
Rruff sample: R050272
Ideal chemistry: CaMg(CO_3_)_2_
Locality: Eagle mine, Gillman, Colorado, USA
Source: University of Arizona Mineral Museum
Description: Gray-white rhombohedral crystals
Measured chemistry: (Ca_0.96_Fe^2+^_0.04_)_Σ=1_(Mg_0.63_Mn^2+^_0.21_Fe^2+^_0.16_)_Σ=1_(CO_3_)_2_ ; CO_3_ estimated by difference and stoichiometry
Pin_id: L00489
Orientation: Laser parallel to -a* (-1 0 0). Fiducial mark perpendicular to laser is parallel to -c [0 0 -1]
Raman shift (cm-1)	intensity
89.89	0
94.071	47.367
98.251	47.631
102.428	18.208
106.604	60.666
110.777	64.899
114.949	170.811
119.119	69.746
123.286	29.333
127.452	138.31
131.615	96.002
135.777	72.864
139.937	102.51
144.094	107.558
148.25	86.944
152.403	179.188
156.555	760.732
160.705	626.314
164.853	677.49
168.998	1468.62
173.142	1818.45
177.284	842.1
181.424	382.54
185.562	205.729
189.698	207.999
193.831	132.316
197.963	109.613
202.093	96.87
206.221	85.261
210.347	26.756
214.472	15.317
218.594	21.516
222.714	12.754
226.832	20.364
230.948	14.58
235.063	8.322
239.175	3.351
243.286	24.432
247.394	38.774
251.501	20.078
255.605	2.396
259.708	34.779
263.808	56.043
267.907	82.223
272.004	161.037
276.099	248.521
280.192	334.092
284.283	471.931
288.372	731.076
292.459	915.841
296.544	817.05
300.627	562.038
304.709	307.809
308.788	193.336
312.865	147.038
316.941	110.002
321.015	132.872
325.086	148.057
329.156	89.283
333.224	194.811
337.29	221.979
341.354	105.23
345.416	128.966
349.476	135.717
353.534	74.255
357.591	53.769
361.645	84.007
365.698	73.027
369.748	57.709
373.797	64.086
377.844	83.183
381.889	47.177
385.932	68.07
389.973	22.545
394.012	59.712
398.049	41.469
402.084	20.286
406.118	20.735
410.15	77.787
414.179	43.607
418.207	26.129
422.233	5.569
426.257	13.397
430.279	52.532
434.299	66.693
438.318	14.817
442.334	84.765
446.349	22.556
450.361	23.58
454.372	47.702
458.381	59.928
462.388	79.315
466.394	65.638
470.397	3.182
474.398	59.92
478.398	72.859
482.396	61.724
486.391	72.354
490.385	29.944
494.377	51.669
498.368	2.671
502.356	66.754
506.342	28.252
510.327	63.491
514.31	44.397
518.291	105.229
522.27	64.679
526.247	75.267
530.222	85.542
534.196	96.899
538.167	94.387
542.137	47.684
546.105	68.053
550.071	26.14
554.035	15.336
557.998	79.723
561.958	71.857
565.917	61.182
569.874	49.846
573.829	38.05
577.782	45.429
581.733	70.014
585.683	30.665
589.63	78.004
593.576	48.4
597.52	18.958
601.462	44.53
605.402	60.938
609.341	18.998
613.277	57.226
617.212	13.648
621.145	36.795
625.076	102.52
629.006	92.605
632.933	47.869
636.859	42.761
640.783	69
644.705	63.896
648.625	30.548
652.543	25.848
656.46	49.645
660.375	12.873
664.288	13.006
668.199	59.745
672.108	19.058
676.016	26.262
679.921	114.037
683.825	38.373
687.727	84.926
691.628	43.685
695.526	40.048
699.423	121.128
703.318	193.192
707.211	265.118
711.102	484.048
714.992	911.105
718.879	1525.07
722.765	1647.94
726.649	974.859
730.532	451.824
734.412	208.738
738.291	147.68
742.168	89.52
746.043	122.424
749.916	40.362
753.788	4.294
757.658	27.719
761.526	54.597
765.392	27.387
769.257	11.963
773.119	30.308
776.98	34.547
780.839	4.406
784.697	36.055
788.552	41.659
792.406	1.264
796.258	11.776
800.108	14.329
803.957	7.158
807.804	83.236
811.649	11.448
815.492	34.866
819.333	16.746
823.173	1.629
827.011	15.016
830.847	7.665
834.681	8.874
838.514	11.137
842.345	10.002
846.174	43.68
850.001	98.917
853.827	27.149
857.651	7.615
861.473	104.602
865.293	1.179
869.112	106.043
872.928	85.194
876.744	76.511
880.557	81.76
884.369	36.019
888.178	5.29
891.987	20.575
895.793	62.876
899.598	60.2
903.401	54.539
907.202	50.379
911.001	57.765
914.799	120.162
918.595	78.575
922.389	33.027
926.182	21.255
929.972	32.68
933.761	21.074
937.549	22.426
941.334	67.009
945.118	53.775
948.9	41.422
952.681	11.388
956.459	33.818
960.236	12.583
964.012	109.397
967.785	119.237
971.557	6.881
975.327	61.364
979.095	68.252
982.862	82.653
986.627	70.719
990.39	7.635
994.152	37.688
997.912	39.956
1001.67	99.979
1005.43	56.32
1009.18	135.228
1012.93	141.22
1016.68	163.598
1020.43	125.164
1024.18	170.779
1027.93	188.461
1031.67	215.233
1035.42	373.065
1039.16	361.011
1042.9	340.167
1046.63	338.658
1050.37	349.83
1054.11	473.06
1057.84	555.659
1061.57	810.478
1065.3	963.879
1069.03	1232.03
1072.75	1655.61
1076.47	2246.26
1080.2	3897.01
1083.92	7907.69
1087.64	16400.6
1091.36	36145.6
1095.07	39436.6
1098.79	13586.6
1102.5	4172.4
1106.21	1705.71
1109.92	1121.4
1113.62	717.901
1117.33	543.277
1121.04	450.724
1124.74	326.286
1128.44	188.918
1132.14	145.547
1135.83	153.064
1139.53	185.037
1143.22	229.883
1146.92	100.379
1150.61	132.305
1154.3	89.274
1157.98	76.219
1161.67	58.633
1165.35	53.607
1169.04	122.56
1172.72	72.707
1176.4	88.779
1180.07	73.905
1183.75	2.72
1187.42	9.378
1191.1	6.918
1194.77	82.706
1198.44	63.077
1202.1	100.905
1205.77	105.854
1209.43	105.391
1213.1	35.917
1216.76	60.195
1220.42	111.532
1224.07	87.889
1227.73	3.241
1231.38	181.689
1235.04	153.72
1238.69	111.329
1242.34	105.986
1245.99	8.103
1249.63	12.262
1253.28	37.496
1256.92	160.055
1260.56	175.691
1264.2	129.157
1267.84	138.932
1271.48	57.296
1275.11	7.411
1278.74	27.799
1282.38	35.913
1286.01	97.892
1289.63	194.719
1293.26	144.458
1296.89	108.118
1300.51	117.562
1304.13	24.921
1307.75	38.175
1311.37	47.308
1314.99	124.324
1318.6	96.197
1322.22	118.886
1325.83	144.469
1329.44	137.863
1333.05	109.157
1336.66	88.349
1340.26	26.947
1343.87	14.173
1347.47	55.614
1351.07	10.872
1354.67	84.457
1358.27	88.859
1361.86	112.345
1365.46	128.585
1369.05	169.66
1372.64	73.485
1376.23	45.926
1379.82	13.743
1383.41	66.962
1386.99	5.741
1390.57	123.63
1394.16	172.882
1397.74	206.864
1401.32	205.573
1404.89	171.748
1408.47	125.155
1412.04	219.451
1415.61	263.769
1419.18	259.349
1422.75	146.704
1426.32	159.86
1429.89	295.719
1433.45	444.037
1437.01	602.753
1440.58	635.799
1444.13	410.896
1447.69	314.197
1451.25	230.208
1454.81	83.579
1458.36	80.603
1461.91	81.182
1465.46	66.343
1469.01	206.952
1472.56	138.26
1476.1	243.807
1479.64	173.159
1483.19	226.072
1486.73	250.865
1490.27	117.005
1493.81	75.907
1497.34	97.943
1500.88	3.542
1504.41	7.366
1507.94	27.174
1511.47	35.815
1515	34.057
1518.53	0
