Measurement: Raman, 514 nm, ccw, Raman Data Processed
Mineral: Dolomite
Rruff sample: R040030
Ideal chemistry: CaMg(CO_3_)_2_
Locality: Austria
Source: University of Arizona Mineral Museum
Description: Group of colorless tabular crystals
Measured chemistry: (Ca_0.99_Mg_0.01_)_Î£=1_Mg_1.00_(CO_3_)_2_ ; trace amounts of Mn; CO_2_ estimated by difference
Pin_id: M00005
Orientation: Laser parallel to a* (1 0 0). Fiducial mark perpendicular to laser is parallel to -c [0 0 -1]
Raman shift (cm-1)	intensity
50.85	0
55.054	39.84
59.255	61.298
63.454	123.326
67.652	74.367
71.847	12.83
76.04	19.302
80.232	61.541
84.421	83.343
88.608	162.55
92.793	256.117
96.976	265.079
101.157	222.278
105.336	284.755
109.513	277.367
113.688	241.037
117.861	246.754
122.032	198.512
126.201	151.305
130.367	141.126
134.532	131.634
138.695	126.183
142.856	100.017
147.014	68.052
151.171	154.13
155.325	148.991
159.478	167.553
163.629	228.725
167.777	391.792
171.924	999.871
176.068	2657.95
180.211	3066.02
184.351	1056.09
188.49	312.16
192.626	129.218
196.761	70.3
200.893	46.371
205.024	51.436
209.152	31.476
213.279	23.313
217.403	7.739
221.526	32.557
225.646	38.306
229.765	17.086
233.881	4.928
237.996	4.059
242.108	18.585
246.219	7.492
250.328	33.265
254.434	26.4
258.539	47.877
262.641	48.888
266.742	4.397
270.84	36.416
274.937	49.766
279.032	43.788
283.125	108.779
287.215	157.225
291.304	299.315
295.391	548.354
299.476	1054.29
303.558	1223.1
307.639	652.976
311.718	276.878
315.795	171.469
319.87	128.277
323.943	105.029
328.014	75.863
332.083	142.788
336.15	386.832
340.215	724.53
344.279	551.147
348.34	221.786
352.399	108.333
356.457	52.77
360.512	26.165
364.565	33.53
368.617	34.902
372.666	48.206
376.714	34.53
380.76	17.988
384.803	17.968
388.845	32.254
392.885	30.492
396.923	22.659
400.959	19.693
404.993	8.648
409.025	21.636
413.055	23.291
417.084	17.353
421.11	8.339
425.134	17.336
429.157	11.594
433.177	20.048
437.196	28.529
441.213	23.965
445.227	6.364
449.24	12.716
453.251	22.021
457.26	21.302
461.267	43.556
465.272	39.788
469.276	21.991
473.277	24.163
477.276	12.301
481.274	11.405
485.27	35.482
489.263	2.521
493.255	12.486
497.245	8.45
501.233	45.35
505.219	37.211
509.203	13.017
513.186	28.04
517.166	59.406
521.145	53.119
525.121	39.935
529.096	35.633
533.069	19.845
537.04	20.35
541.009	28.256
544.976	14.605
548.941	16.138
552.905	19.553
556.866	46.87
560.826	15.942
564.784	9.953
568.74	18.69
572.694	21.808
576.646	50.837
580.596	39.734
584.544	17.653
588.491	56.01
592.435	55.309
596.378	68.022
600.319	54.03
604.258	49.868
608.195	50.394
612.131	57.136
616.064	48.853
619.995	86.06
623.925	101.624
627.853	250.424
631.779	171.302
635.703	83.903
639.625	55.625
643.546	118.96
647.464	163.28
651.381	144.853
655.296	122.764
659.209	58.421
663.12	39.038
667.029	33.589
670.937	41.291
674.842	20.918
678.746	29.53
682.648	13.12
686.548	11.832
690.447	26.318
694.343	20.773
698.238	67.254
702.13	115.508
706.021	172.844
709.91	208.175
713.798	285.557
717.683	516.916
721.567	1005.23
725.448	1986.61
729.328	1670.94
733.206	724.096
737.083	317.342
740.957	124.691
744.83	104.09
748.701	81.482
752.57	5.865
756.437	18.233
760.302	14.588
764.166	50.934
768.027	33.919
771.887	15.286
775.745	4.475
779.602	3.277
783.456	15.946
787.309	1.081
791.16	1.819
795.009	5.756
798.856	17.276
802.702	26.301
806.545	58.562
810.387	32.066
814.227	36.031
818.065	1.027
821.902	7
825.737	48.803
829.569	83.786
833.401	65.131
837.23	5.118
841.057	14.304
844.883	45.204
848.707	115.101
852.529	153.994
856.35	162.887
860.168	154.778
863.985	145.669
867.8	125.56
871.613	168.45
875.425	104.341
879.234	124.233
883.042	336.126
886.848	106.024
890.653	102.926
894.455	89.831
898.256	94.743
902.055	87.668
905.852	45.567
909.648	80.469
913.442	69.409
917.233	52.353
921.024	69.378
924.812	21.383
928.599	35.493
932.384	13.89
936.167	48.247
939.948	62.96
943.728	39.107
947.506	21.857
951.282	28.911
955.056	7.007
958.829	0.954
962.6	44.438
966.369	12.551
970.136	51.481
973.902	25.383
977.666	30.342
981.428	12.219
985.188	7.91
988.947	60.488
992.704	63.057
996.459	56.265
1000.21	103.499
1003.96	241.758
1007.71	80.043
1011.46	105.354
1015.21	118.691
1018.95	120.055
1022.7	126.446
1026.44	123.864
1030.18	139.31
1033.91	194.783
1037.65	235.284
1041.39	227.9
1045.12	240.606
1048.85	210.026
1052.58	313.662
1056.31	345.38
1060.03	490.15
1063.76	669.957
1067.48	922.192
1071.2	1331.72
1074.92	1823.62
1078.63	2352.54
1082.35	2934.64
1086.06	3765.52
1089.78	5763.75
1093.49	12120
1097.19	37686.3
1100.9	46782.7
1104.61	13349.8
1108.31	4193.23
1112.01	1990.19
1115.71	1133.68
1119.41	792.167
1123.11	511.601
1126.8	411.8
1130.5	351.673
1134.19	241.281
1137.88	207.931
1141.57	207.621
1145.25	177.338
1148.94	162.079
1152.62	126.687
1156.3	86.629
1159.98	44.436
1163.66	67.262
1167.34	78.106
1171.01	106.967
1174.68	101.845
1178.36	94.74
1182.02	67.649
1185.69	4.426
1189.36	16.946
1193.02	26.051
1196.69	11.031
1200.35	69.988
1204.01	21.456
1207.66	33.679
1211.32	8.3
1214.98	5.567
1218.63	4.874
1222.28	31.968
1225.93	20.355
1229.58	29.734
1233.22	60.755
1236.87	69.751
1240.51	72.698
1244.15	32.681
1247.79	13.193
1251.43	49.755
1255.07	92.714
1258.7	51.9
1262.33	90.956
1265.96	99.101
1269.59	153.112
1273.22	126.145
1276.85	99.199
1280.47	74.264
1284.1	50.331
1287.72	44.372
1291.34	75.351
1294.95	100.233
1298.57	127.041
1302.19	46.783
1305.8	42.419
1309.41	40.003
1313.02	87.567
1316.63	28.106
1320.23	107.615
1323.84	129.087
1327.44	94.527
1331.05	140.843
1334.64	67.196
1338.24	45.36
1341.84	26.814
1345.43	62.941
1349.03	26.789
1352.62	14.336
1356.21	13.095
1359.8	46.908
1363.39	32.023
1366.97	65.349
1370.56	66.603
1374.14	10.921
1377.72	17.22
1381.3	38.18
1384.87	23.028
1388.45	38.941
1392.02	113.836
1395.6	99.712
1399.17	87.571
1402.74	82.409
1406.3	91.227
1409.87	76.03
1413.43	78.828
1417	79.632
1420.56	108.444
1424.12	68.272
1427.67	104.631
1431.23	190.359
1434.79	266.748
1438.34	489.307
1441.89	1012.63
1445.44	1099.31
1448.99	664.398
1452.54	434.645
1456.08	392.42
1459.62	326.989
1463.17	306.893
1466.71	244.138
1470.24	198.974
1473.78	187.379
1477.32	144.866
1480.85	209.985
1484.38	153.888
1487.91	153.029
1491.44	80.297
1494.97	4.894
1498.5	17.166
1502.02	4.259
1505.54	42.281
1509.07	26.354
1512.59	47.708
1516.1	63.859
