Measurement: Raman, 514 nm, ccw, Raman Data Processed
Mineral: Dolomite
Rruff sample: R050272
Ideal chemistry: CaMg(CO_3_)_2_
Locality: Eagle mine, Gillman, Colorado, USA
Source: University of Arizona Mineral Museum
Description: Gray-white rhombohedral crystals
Measured chemistry: (Ca_0.96_Fe^2+^_0.04_)_Σ=1_(Mg_0.63_Mn^2+^_0.21_Fe^2+^_0.16_)_Σ=1_(CO_3_)_2_ ; CO_3_ estimated by difference and stoichiometry
Pin_id: L00059
Orientation: Laser parallel to c* (0 0 1). Fiducial mark perpendicular to laser is parallel to a [1 0 0]
Raman shift (cm-1)	intensity
63.36	0
67.554	16.922
71.747	45.792
75.937	10.648
80.125	2.65
84.311	55.448
88.496	123.946
92.678	132.395
96.858	92.891
101.036	59.811
105.212	70.442
109.387	63.064
113.559	27.608
117.729	80.882
121.897	40.198
126.063	7.138
130.228	0.038
134.39	37.007
138.55	75.444
142.709	101.799
146.865	133.269
151.019	230.766
155.171	266.023
159.322	460.327
163.47	848.171
167.617	1840.1
171.761	3905.88
175.904	3277.44
180.044	1421.67
184.183	588.534
188.319	316.115
192.454	190.444
196.586	118.541
200.717	57.397
204.846	19.015
208.972	17.821
213.097	0.948
217.22	18.07
221.341	46.979
225.46	7.437
229.577	24.042
233.692	5.332
237.805	11.07
241.916	37.346
246.025	32.382
250.132	61.898
254.237	122.491
258.34	153.842
262.442	189.323
266.541	277.716
270.639	371.265
274.734	520.285
278.828	791.889
282.919	1153.58
287.009	1890.31
291.097	2914.22
295.183	3512.28
299.266	2756.79
303.348	1572.37
307.428	903.173
311.507	564.869
315.583	376.797
319.657	283.646
323.729	265.336
327.8	254.742
331.868	288.87
335.935	295.899
339.999	292.761
344.062	224.606
348.123	172.148
352.182	115.556
356.239	132.687
360.294	111.676
364.347	102.75
368.398	122.12
372.448	105.78
376.495	74.323
380.54	52.212
384.584	69.506
388.626	56.603
392.666	58.358
396.704	21.29
400.74	25.802
404.774	40.153
408.806	22.412
412.836	4.466
416.865	9.255
420.891	30.112
424.916	8.672
428.939	10.705
432.959	22.929
436.978	40.028
440.996	6.978
445.011	6.05
449.024	19.72
453.036	17.409
457.045	21.036
461.053	28.596
465.059	16.092
469.063	15.534
473.065	13.974
477.065	22.227
481.063	17.464
485.06	13.683
489.054	33.793
493.047	21.805
497.038	35.782
501.027	4.743
505.014	15.601
508.999	16.384
512.982	27.872
516.964	55.201
520.944	46.288
524.921	51.306
528.897	50.276
532.871	39.122
536.844	47.051
540.814	55.004
544.783	62.827
548.749	63.787
552.714	46.638
556.677	36.426
560.638	43.331
564.597	53.415
568.555	45.313
572.511	24.205
576.464	32.211
580.416	50.284
584.366	7.98
588.315	12.922
592.261	36.878
596.206	34.876
600.148	28.834
604.089	23.847
608.028	17.84
611.965	14.365
615.901	25.986
619.834	19.59
623.766	0.23
627.696	24.729
631.624	12.588
635.551	25.864
639.475	9.468
643.398	0.216
647.318	13.513
651.237	7.836
655.155	11.905
659.07	34.136
662.984	39.75
666.895	8.238
670.805	33.017
674.713	25.47
678.62	33.061
682.524	37.45
686.427	88.358
690.328	59.849
694.227	95.846
698.124	148.437
702.02	187.689
705.913	283.143
709.805	497.861
713.695	1012.26
717.584	2048.65
721.47	2916.03
725.355	2113.4
729.238	975.758
733.119	488.109
736.998	216.011
740.876	122.445
744.752	81.771
748.626	63.087
752.498	67.473
756.368	32.762
760.237	42.99
764.104	3.734
767.969	3.008
771.832	3.422
775.693	19.783
779.553	0.932
783.411	8.097
787.267	22.233
791.122	24.281
794.974	2.629
798.825	4.218
802.674	14.192
806.522	4.134
810.367	8.019
814.211	13.829
818.053	11.645
821.893	1.445
825.732	12.095
829.568	25.644
833.403	2.562
837.236	11.23
841.068	1.842
844.898	6.581
848.726	5.956
852.552	11.521
856.376	16.966
860.199	1.568
864.02	19.861
867.839	17.279
871.656	81.689
875.472	61.091
879.286	77.485
883.098	63.873
886.909	8.255
890.717	1.378
894.524	30.976
898.33	24.325
902.133	4.303
905.935	5.015
909.735	16.355
913.533	4.694
917.33	3.353
921.124	8.392
924.918	19.513
928.709	9.823
932.499	1.878
936.286	10.578
940.073	0.824
943.857	31.385
947.64	12.889
951.421	21.392
955.2	9.416
958.978	40.723
962.753	17.475
966.527	10.928
970.3	13.928
974.071	26.1
977.84	25.362
981.607	34.851
985.372	43.131
989.136	61.816
992.898	58.795
996.659	77.874
1000.42	42.508
1004.17	76.164
1007.93	105.865
1011.68	111.316
1015.43	110.979
1019.18	124.765
1022.93	163.602
1026.68	164.989
1030.42	200.403
1034.17	252.362
1037.91	319.374
1041.65	361.733
1045.39	426.804
1049.12	460.912
1052.86	543.065
1056.59	611.17
1060.33	732.387
1064.06	938.533
1067.78	1241.79
1071.51	1789.41
1075.23	2364.78
1078.96	3265.18
1082.68	5914.62
1086.4	12403.1
1090.12	27631.6
1093.83	56123.1
1097.55	34876.8
1101.26	9832.41
1104.97	3503.12
1108.68	1713.87
1112.39	1008.65
1116.1	698.52
1119.8	518.633
1123.5	456.718
1127.2	375.477
1130.9	277.837
1134.6	233.287
1138.3	223.029
1141.99	190.986
1145.69	178.675
1149.38	167.538
1153.07	147.693
1156.76	108.91
1160.44	103.178
1164.13	79.249
1167.81	75.461
1171.49	80.193
1175.17	78.536
1178.85	63.715
1182.52	53.58
1186.2	68.973
1189.87	34.444
1193.54	37.39
1197.21	28.155
1200.88	45.659
1204.55	28.245
1208.21	25.857
1211.88	24.405
1215.54	27.152
1219.2	26.234
1222.86	24.016
1226.51	26.838
1230.17	42.465
1233.82	14.923
1237.47	22.482
1241.12	43.072
1244.77	30.115
1248.42	11.541
1252.06	16.961
1255.71	0.495
1259.35	8.964
1262.99	14.389
1266.63	42.787
1270.26	37.16
1273.9	14.486
1277.53	7.206
1281.16	15.031
1284.8	29.205
1288.42	18.352
1292.05	19.439
1295.68	18.493
1299.3	23.515
1302.92	10.486
1306.55	1.578
1310.16	9.674
1313.78	18.174
1317.4	7.967
1321.01	14.717
1324.62	0.427
1328.24	9.083
1331.85	4.693
1335.45	6.273
1339.06	2.821
1342.66	15.912
1346.27	9.385
1349.87	11.832
1353.47	5.915
1357.07	15.66
1360.66	4.049
1364.26	10.358
1367.85	0.647
1371.44	8.181
1375.04	17.414
1378.62	29.551
1382.21	20.422
1385.8	1.627
1389.38	8.803
1392.96	21.902
1396.54	32.54
1400.12	40.357
1403.7	54.865
1407.28	84.842
1410.85	101.551
1414.42	80.297
1417.99	126.281
1421.56	185.787
1425.13	224.318
1428.7	334.576
1432.26	431.51
1435.83	591.081
1439.39	746.482
1442.95	654.621
1446.51	414.003
1450.06	308.205
1453.62	192.138
1457.17	136.183
1460.73	139.114
1464.28	90.956
1467.83	69.829
1471.37	70.679
1474.92	36.734
1478.46	34.911
1482.01	32.134
1485.55	28.509
1489.09	64.988
1492.63	36.671
1496.16	18.563
1499.7	35.736
1503.23	14.766
1506.76	24.673
1510.29	3.439
1513.82	19.984
1517.35	19.259
1520.88	0
