Measurement: Raman, 514 nm, ccw, Raman Data Processed
Mineral: Dolomite
Rruff sample: R050357
Ideal chemistry: CaMg(CO_3_)_2_
Locality: Black Rock, Lawrence County, Arkansas, USA
Source: California Institute of Technology
Description: Aggregate of pale pink curved saddle-shaped crystals
Measured chemistry: Ca_1.00_(Mg_0.98_Fe^2+^_0.02_)_Î£=1_(CO_3_)_2_ ; CO_2_ estimated by difference
Pin_id: L01901
Orientation: Laser parallel to a* (1 0 0). Fiducial mark perpendicular to laser is parallel to c [0 0 1]
Raman shift (cm-1)	intensity
109.512	0
114.44	45.8662
119.365	65.4385
124.288	12.3711
129.209	103.426
134.127	119.074
139.043	183.346
143.956	285.946
148.867	219.01
153.775	505.701
158.681	640.505
163.585	1670.18
168.486	4391.55
173.385	9743.42
178.282	10026.7
183.176	3164.14
188.067	880.073
192.956	531.244
197.843	213.055
202.727	235.652
207.609	115.985
212.489	247.748
217.366	439.405
222.24	1157.1
227.112	1717.36
231.982	847.883
236.849	385.657
241.714	200.606
246.577	201.021
251.437	239.989
256.294	162.714
261.149	363.807
266.002	463.114
270.852	698.227
275.7	1084.85
280.545	1943.12
285.388	3902.06
290.229	8703.27
295.067	16843.3
299.902	23000.2
304.735	12965.3
309.566	5186.13
314.394	2431.08
319.22	1336.88
324.043	929.604
328.864	707.721
333.682	943.159
338.498	803.102
343.311	645.158
348.122	331.538
352.931	198.91
357.737	139.507
362.54	71.6299
367.341	220.967
372.14	158.361
376.936	77.1226
381.73	76.6245
386.521	59.9858
391.31	40.2744
396.096	110.728
400.88	14.583
405.661	131.355
410.44	9.19336
415.216	38.1504
419.99	8.28467
424.761	32.5723
429.53	7.25391
434.297	104.197
439.061	71.6143
443.822	78.7729
448.581	18.0005
453.337	129.616
458.091	121.792
462.843	33.0059
467.592	5.37549
472.338	128.748
477.082	103.453
481.824	75.2398
486.563	53.2905
491.3	6.44775
496.034	40.8852
500.765	30.8486
505.494	113.643
510.221	1.74805
514.945	175.341
519.666	199.301
524.385	3.75732
529.102	94.1992
533.816	122.168
538.527	100.166
543.236	76.897
547.943	66.9438
552.647	106.204
557.348	42.2788
562.047	105.169
566.744	45.522
571.438	38.0581
576.129	170.789
580.818	49.2085
585.504	98.3486
590.188	96.7295
594.87	131.716
599.549	118.003
604.225	47.8418
608.899	69.915
613.57	106.953
618.239	63.4233
622.905	38.0928
627.569	16.8677
632.23	94.8481
636.889	43.501
641.545	74.1562
646.198	12.7983
650.849	115.841
655.498	101.236
660.144	3.13721
664.787	119.16
669.428	79.6904
674.067	90.1045
678.703	58.5962
683.336	41.335
687.967	44.1753
692.595	50.3364
697.221	78.521
701.844	226.321
706.465	185.637
711.083	188.728
715.698	344.786
720.311	589.236
724.922	945.244
729.53	556.35
734.135	359.801
738.738	128.821
743.338	68.8144
747.936	83.6543
752.531	101.53
757.124	36.0869
761.714	26.0435
766.302	89.0488
770.887	93.1899
775.469	61.8301
780.049	109.226
784.626	43.9648
789.201	12.0278
793.773	65.7246
798.343	84.9443
802.91	164.994
807.475	112.933
812.037	71.8359
816.596	74.6294
821.153	63.3643
825.707	179.037
830.259	51.25
834.808	4.77832
839.355	31.7686
843.899	91.5166
848.441	68.71
852.98	41.8496
857.516	224.609
862.05	23.5918
866.581	12.5205
871.11	155.39
875.636	204.195
880.159	626.954
884.68	413.683
889.199	207.372
893.714	59.5381
898.228	111.102
902.738	36.832
907.246	53.3828
911.752	147.343
916.255	25.1133
920.755	156.811
925.253	45.6435
929.748	109.024
934.241	37.2178
938.731	168.075
943.218	65.0117
947.703	2.59766
952.186	13.2246
956.665	19.9375
961.142	114.826
965.617	55.4336
970.089	267.263
974.558	135.54
979.025	106.307
983.489	73.6035
987.951	89.9287
992.41	129.458
996.866	117.732
1001.32	125.86
1005.77	93.5811
1010.22	145.023
1014.67	181.516
1019.11	184.029
1023.55	169.561
1027.99	282.179
1032.42	309.208
1036.86	332.9
1041.29	402.966
1045.72	310.836
1050.14	263.237
1054.56	316.315
1058.98	639.146
1063.4	896.092
1067.82	1353
1072.23	1888.92
1076.64	2594.96
1081.05	3283.01
1085.45	5017.89
1089.85	11410
1094.25	34174.3
1098.65	49411.8
1103.04	14697.6
1107.43	3794.67
1111.82	1502.51
1116.21	941.78
1120.59	813.611
1124.97	510.519
1129.35	272.525
1133.73	295.149
1138.1	166.523
1142.47	87.9199
1146.84	116.532
1151.21	166.214
1155.57	100.567
1159.93	50.084
1164.29	106.003
1168.64	26.3184
1172.99	25.7363
1177.34	31.042
1181.69	2.01074
1186.04	139.881
1190.38	183.382
1194.72	67.4561
1199.05	90.3623
1203.39	178.034
1207.72	32.7881
1212.05	169.125
1216.37	52.0752
1220.7	115.458
1225.02	70.4775
1229.34	0.130859
1233.65	146.95
1237.97	17.7188
1242.28	188.162
1246.59	129.955
1250.89	132.679
1255.19	44.5781
1259.49	62.0537
1263.79	106.743
1268.09	75.0527
1272.38	104.626
1276.67	17.5557
1280.95	156.382
1285.24	137.112
1289.52	31.0176
1293.8	81.6553
1298.08	90.9941
1302.35	15.1396
1306.62	44.8799
1310.89	132.46
1315.15	70.2168
1319.42	56.9268
1323.68	147.528
1327.94	109.653
1332.19	89.46
1336.44	130.709
1340.69	219.815
1344.94	105.251
1349.19	116.446
1353.43	79.25
1357.67	193.4
1361.9	10.0645
1366.14	204.287
1370.37	89.0606
1374.6	143.742
1378.83	50.7324
1383.05	171.732
1387.27	24.4893
1391.49	160.352
1395.7	22.2656
1399.92	109.885
1404.13	168.25
1408.34	181.523
1412.54	107.088
1416.74	150.486
1420.94	198.131
1425.14	141.465
1429.34	190.571
1433.53	580.273
1437.72	1154.28
1441.9	1869.36
1446.09	803.737
1450.27	367.582
1454.45	287.771
1458.63	311.567
1462.8	87.9512
1466.97	81.7168
1471.14	51.2363
1475.31	116.166
1479.47	175.592
1483.63	172.175
1487.79	18.0742
1491.94	122.578
1496.09	19.2939
1500.24	56.4043
1504.39	211.407
1508.54	177.538
1512.68	93.8125
1516.82	185.204
1520.95	87.333
1525.09	159.064
1529.22	145.095
1533.35	153.906
1537.47	43.4336
1541.6	139.637
1545.72	94.8027
1549.83	154.668
1553.95	99.9228
1558.06	139.435
1562.17	108.351
1566.28	171.368
1570.38	1.08496
