Measurement: Raman, 514 nm, ccw, Raman Data Processed
Mineral: Dolomite
Rruff sample: R040030
Ideal chemistry: CaMg(CO_3_)_2_
Locality: Austria
Source: University of Arizona Mineral Museum
Description: Group of colorless tabular crystals
Measured chemistry: (Ca_0.99_Mg_0.01_)_Î£=1_Mg_1.00_(CO_3_)_2_ ; trace amounts of Mn; CO_2_ estimated by difference
Pin_id: M00005
Orientation: Laser parallel to a* (1 0 0). Fiducial mark perpendicular to laser is parallel to -c [0 0 -1]
Raman shift (cm-1)	intensity
90.003	0
94.188	231.712
98.37	281.964
102.55	605.673
106.729	565.054
110.905	418.954
115.079	501.087
119.251	636.426
123.422	488.034
127.59	207.079
131.756	244.644
135.92	61.35
140.082	6.966
144.242	60.143
148.4	86.689
152.556	55.706
156.71	43.775
160.862	178.275
165.012	89.933
169.16	235.451
173.306	795.265
177.449	1910.97
181.591	1294.8
185.731	374.353
189.869	142.664
194.005	100.055
198.139	42.605
202.271	61.454
206.4	21.324
210.528	32.184
214.654	56.132
218.778	102.697
222.9	626.551
227.019	1996.71
231.137	1942.47
235.253	922.191
239.367	477.027
243.479	280.159
247.589	190.587
251.697	251.582
255.803	160.338
259.906	101.58
264.008	133.58
268.108	112.479
272.206	175.192
276.302	247.735
280.396	340.808
284.488	446.981
288.578	628.637
292.666	1101.75
296.753	2182.96
300.837	3646.41
304.919	3226.76
308.999	1669.92
313.077	871.071
317.154	544.61
321.228	384.823
325.3	310.476
329.371	217.533
333.439	253.463
337.506	418.185
341.57	599.858
345.633	431.482
349.693	282.265
353.752	160.706
357.809	208.223
361.863	188.717
365.916	85.839
369.967	4.172
374.016	77.274
378.063	108.935
382.108	58.19
386.151	78.304
390.192	164.006
394.231	159.77
398.269	137.344
402.304	22.983
406.337	44.55
410.369	60.742
414.398	65.634
418.426	11.05
422.452	57.38
426.475	23.725
430.497	62.049
434.517	6.232
438.535	12.708
442.551	86.677
446.565	137.393
450.577	99.875
454.588	108.136
458.596	69.186
462.602	152.031
466.607	130.693
470.61	113.17
474.61	98.494
478.609	140.677
482.606	169.727
486.601	74.647
490.594	153.34
494.585	129.21
498.575	88.457
502.562	33.769
506.548	7.089
510.531	93.348
514.513	162.803
518.493	181.516
522.47	138.589
526.446	151.342
530.421	106.983
534.393	201.643
538.363	134.224
542.331	95.815
546.298	138.29
550.263	194.504
554.225	140.395
558.186	182.311
562.145	153.818
566.103	241.864
570.058	222.165
574.011	161.692
577.963	162.783
581.912	216.613
585.86	372.222
589.806	363.272
593.75	219.857
597.692	279.814
601.632	511.632
605.571	423.274
609.507	327.131
613.442	211.766
617.375	351.464
621.306	568.854
625.235	1118.7
629.162	1145.36
633.087	589.152
637.011	485.92
640.932	561.614
644.852	812.624
648.77	815.016
652.686	749.246
656.6	676.83
660.513	499.114
664.423	229.946
668.332	156.402
672.239	42.036
676.144	53.795
680.047	112.437
683.948	21.879
687.848	17.682
691.746	40.23
695.641	5.441
699.535	10.109
703.427	36.894
707.318	57.119
711.206	51.743
715.093	68.369
718.978	44.404
722.861	90.172
726.742	97.008
730.621	105.732
734.499	145.404
738.374	161.057
742.248	97.685
746.12	126.277
749.99	146.479
753.859	101.3
757.725	112.723
761.59	156.086
765.453	79.392
769.314	59.639
773.174	44.83
777.031	82.96
780.887	170.03
784.741	57.047
788.593	144.009
792.443	87.919
796.291	210.78
800.138	242.597
803.983	253.372
807.826	207.105
811.667	42.803
815.507	127.471
819.344	180.114
823.18	240.417
827.014	263.296
830.847	302.371
834.677	298.036
838.506	317.72
842.333	446.451
846.158	571.107
849.981	498.283
853.803	508.68
857.623	660.414
861.441	1075.12
865.257	859.018
869.071	629.17
872.884	493.396
876.695	396.354
880.504	686.669
884.311	1153.29
888.117	528.932
891.92	440.451
895.722	370.218
899.523	292.816
903.321	309.789
907.118	464.838
910.913	457.746
914.706	354.884
918.497	163.04
922.287	19.226
926.075	78.48
929.861	206.712
933.645	267.169
937.428	159.503
941.208	190.076
944.987	95.701
948.765	45.38
952.54	151.115
956.314	190.907
960.086	211.757
963.856	146.667
967.625	76.636
971.392	123.666
975.157	84.692
978.92	111.598
982.682	21.45
986.441	55.274
990.199	83.149
993.956	84.172
997.71	93.401
1001.46	782.686
1005.21	1002.66
1008.96	349.964
1012.71	382.717
1016.46	127.642
1020.2	271.728
1023.94	393.975
1027.68	419.295
1031.42	462.583
1035.16	289.08
1038.9	249.206
1042.63	214.205
1046.36	163.013
1050.09	304.385
1053.82	358.428
1057.55	487.334
1061.27	514.348
1065	648.822
1068.72	917.958
1072.44	1329.43
1076.16	2109.78
1079.87	2631.22
1083.59	3111.69
1087.3	3842.34
1091.01	5762.91
1094.72	13903.5
1098.43	41834.2
1102.14	28314.8
1105.84	7325.58
1109.55	2786.35
1113.25	1500.16
1116.94	796.027
1120.64	468.948
1124.34	376.077
1128.03	367.238
1131.73	310.47
1135.42	259.631
1139.11	304.668
1142.8	114.7
1146.48	58.713
1150.16	38.712
1153.85	44.711
1157.53	64.827
1161.21	111.935
1164.88	140.971
1168.56	147.987
1172.23	101.989
1175.91	13.125
1179.58	49.722
1183.25	105.511
1186.91	151.268
1190.58	233.042
1194.24	60.912
1197.91	47.255
1201.57	122.546
1205.23	52.62
1208.88	111.958
1212.54	59.508
1216.19	276.392
1219.85	311.769
1223.5	290.402
1227.14	240.431
1230.79	273.412
1234.44	94.051
1238.08	319.59
1241.72	262.178
1245.37	341.697
1249	526.161
1252.64	412.787
1256.28	540.938
1259.91	357.862
1263.54	304.665
1267.17	287.367
1270.8	430.953
1274.43	404.036
1278.06	455.274
1281.68	547.663
1285.3	708.887
1288.92	268.279
1292.54	329.874
1296.16	463.377
1299.78	120.614
1303.39	176.796
1307	309.71
1310.61	551.744
1314.22	602.591
1317.83	803.771
1321.44	699.336
1325.04	466.947
1328.64	224.109
1332.24	168.483
1335.85	30.547
1339.44	19.168
1343.04	102.063
1346.63	301.235
1350.23	317.294
1353.82	298.198
1357.41	266.112
1360.99	143.108
1364.58	121.384
1368.17	101.634
1371.75	64.137
1375.33	31.673
1378.91	249.423
1382.49	457.332
1386.07	435.5
1389.64	412.709
1393.21	493.544
1396.79	288.456
1400.36	119.973
1403.92	7.629
1407.49	12.875
1411.06	100.306
1414.62	204.498
1418.18	111.412
1421.74	197.74
1425.3	267.038
1428.86	270.175
1432.42	275.232
