Measurement: Raman, 514 nm, ccw, Raman Data Processed
Mineral: Dolomite
Rruff sample: R050272
Ideal chemistry: CaMg(CO_3_)_2_
Locality: Eagle mine, Gillman, Colorado, USA
Source: University of Arizona Mineral Museum
Description: Gray-white rhombohedral crystals
Measured chemistry: (Ca_0.96_Fe^2+^_0.04_)_Σ=1_(Mg_0.63_Mn^2+^_0.21_Fe^2+^_0.16_)_Σ=1_(CO_3_)_2_ ; CO_3_ estimated by difference and stoichiometry
Pin_id: L00489
Orientation: Laser parallel to -a* (-1 0 0). Fiducial mark perpendicular to laser is parallel to -c [0 0 -1]
Raman shift (cm-1)	intensity
95.465	0
99.644	43.412
103.82	49.103
107.995	73.108
112.168	117.328
116.339	113.553
120.508	28.563
124.675	42.17
128.84	26.424
133.003	69.708
137.164	0.186
141.323	65.802
145.48	29.543
149.635	44.655
153.788	37.335
157.939	133.746
162.088	218.171
166.235	610.651
170.38	1446.88
174.523	1573.4
178.664	798.633
182.803	343.052
186.94	176.557
191.076	100.991
195.209	94.323
199.34	61.521
203.47	49.633
207.597	8.623
211.722	25.496
215.846	53.277
219.967	334.94
224.087	573.487
228.204	404.915
232.32	225.459
236.434	99.083
240.545	57.353
244.655	67.924
248.763	78.706
252.869	84.052
256.973	103.67
261.075	160.812
265.175	253.32
269.273	323.943
273.369	565.754
277.463	776.421
281.556	1248.61
285.646	1933.1
289.734	2919.83
293.821	3658.72
297.905	3175.66
301.988	2030.97
306.069	1147.15
310.147	668.535
314.224	456.038
318.299	340.645
322.372	230.065
326.443	181.539
330.512	270.819
334.579	169.884
338.645	344.254
342.708	468.124
346.769	452.063
350.829	210.787
354.887	133.344
358.942	90.802
362.996	88.524
367.048	80.848
371.098	20.139
375.146	9.349
379.192	1.257
383.236	18.345
387.279	43.118
391.319	7.659
395.358	27.082
399.394	0.622
403.429	24.535
407.462	2.555
411.493	49.45
415.522	0.945
419.549	18.462
423.575	12.995
427.598	23.758
431.619	50.268
435.639	6.897
439.657	29.666
443.673	39.195
447.687	43.657
451.699	33.05
455.709	40.414
459.717	99.677
463.724	28.617
467.728	50.027
471.731	48.712
475.732	109.831
479.731	107.005
483.728	41.808
487.723	48.622
491.716	82.959
495.708	127.025
499.697	74.954
503.685	88.197
507.671	105.211
511.655	107.957
515.637	111.343
519.617	60.644
523.596	109.76
527.572	73.914
531.547	100.338
535.52	83.765
539.491	61.794
543.46	60.943
547.427	131.017
551.393	133.595
555.356	125.107
559.318	106.12
563.278	136.845
567.236	69.348
571.192	90.513
575.147	146.651
579.099	71.35
583.05	120.634
586.999	61.178
590.946	63.462
594.891	84.211
598.834	86.762
602.776	99.665
606.715	63.037
610.653	21.949
614.589	19.915
618.523	105.692
622.456	83.26
626.386	112.271
630.315	324.568
634.242	53.31
638.167	75.454
642.09	49.822
646.012	46.551
649.931	25.352
653.849	53.197
657.765	27.138
661.679	40.915
665.592	31.387
669.502	1.404
673.411	66.983
677.318	92.151
681.223	77.115
685.126	59.552
689.028	64.842
692.927	40.896
696.825	87.84
700.721	123.53
704.616	17.471
708.508	124.35
712.399	149.178
716.288	328.913
720.175	493.646
724.06	461.131
727.944	248.427
731.825	216.115
735.705	111.724
739.584	145.109
743.46	55.846
747.334	56.307
751.207	69.11
755.078	68.66
758.947	96.082
762.815	86.385
766.68	68.459
770.544	11.575
774.406	54.849
778.267	70.095
782.125	43.905
785.982	12.915
789.837	45.144
793.69	32.576
797.542	87.603
801.391	107.042
805.239	33.727
809.085	30.244
812.93	7.496
816.772	65.968
820.613	67.415
824.452	31.819
828.29	68.523
832.125	28.684
835.959	20.021
839.791	65.571
843.621	16.76
847.45	39.476
851.277	33.227
855.102	39.341
858.925	32.14
862.746	32.794
866.566	109.457
870.384	280.131
874.2	203.818
878.015	170.521
881.828	315.246
885.639	133.989
889.448	115.75
893.256	6.554
897.061	70.358
900.865	47.089
904.668	34.904
908.468	53.735
912.267	56.596
916.064	60.524
919.86	35.106
923.653	24.326
927.445	75.364
931.236	103.438
935.024	20.555
938.811	65.336
942.596	9.503
946.379	15.536
950.161	31.126
953.94	132.495
957.719	160.994
961.495	110.299
965.27	82.174
969.043	20.787
972.814	23.597
976.583	40.326
980.351	38.109
984.117	76.062
987.882	13.648
991.644	13.439
995.405	38.07
999.165	113.138
1002.92	102.336
1006.68	153.652
1010.43	84.083
1014.18	77.597
1017.93	123.188
1021.68	219.845
1025.43	363.578
1029.18	348.413
1032.92	390.356
1036.66	318.369
1040.4	333.956
1044.14	411.113
1047.88	486.006
1051.62	630.747
1055.35	658.902
1059.08	713.439
1062.81	928.055
1066.54	1135.02
1070.27	1675.81
1073.99	2257.66
1077.72	3422.6
1081.44	6004.63
1085.16	12533.5
1088.88	24143.7
1092.59	49565.5
1096.31	40805.9
1100.02	13197.3
1103.73	4544.84
1107.44	2100.33
1111.15	1230.93
1114.86	804.614
1118.57	539.41
1122.27	543.751
1125.97	363.841
1129.67	333.598
1133.37	337.574
1137.07	343.702
1140.76	237.983
1144.45	130.708
1148.15	148.982
1151.84	54.402
1155.53	173.594
1159.21	210.28
1162.9	222.358
1166.58	185.958
1170.26	72.651
1173.94	56.739
1177.62	42.223
1181.3	32.941
1184.97	92.645
1188.65	76.19
1192.32	133.988
1195.99	102.649
1199.66	111.143
1203.33	51.957
1206.99	18.506
1210.65	8.182
1214.32	126.315
1217.98	115.985
1221.64	174.863
1225.29	213.585
1228.95	178.5
1232.6	129.514
1236.26	22.875
1239.91	63.218
1243.56	85.479
1247.2	206.036
1250.85	178.466
1254.49	179.621
1258.13	134.615
1261.78	44.587
1265.41	19.518
1269.05	4.336
1272.69	63.1
1276.32	93.812
1279.95	174.385
1283.59	157.885
1287.21	136.305
1290.84	107.552
1294.47	118.66
1298.09	65.369
1301.72	33.422
1305.34	73.031
1308.96	26.498
1312.58	78.86
1316.19	161.118
1319.81	183.265
1323.42	70.266
1327.03	63.194
1330.64	76.97
1334.25	6.021
1337.86	0.397
1341.46	8.946
1345.07	32.969
1348.67	82.183
1352.27	121.397
1355.87	41.578
1359.46	86.387
1363.06	11.424
1366.65	36.876
1370.25	10.378
1373.84	4.431
1377.43	161.28
1381.02	165.503
1384.6	283.959
1388.18	202.87
1391.77	226.75
1395.35	86.125
1398.93	513.533
1402.51	118.966
1406.08	146.229
1409.66	231.644
1413.23	239.626
1416.8	376.009
1420.37	490.733
1423.94	723.039
1427.51	690.459
1431.08	769.722
1434.64	792.343
1438.2	786.685
1441.76	550.077
1445.32	382.532
1448.88	242.895
1452.43	362.487
1455.99	295.238
1459.54	330.631
1463.09	328.607
1466.64	248.339
1470.19	172.765
1473.74	269.201
1477.28	154.694
1480.83	82.692
1484.37	104.401
1487.91	103.787
1491.45	83.566
1494.98	32.58
1498.52	98.142
1502.05	135.601
1505.59	184.117
1509.12	236.427
1512.65	221.876
1516.17	268.644
