Measurement: Raman, 514 nm, ccw, Raman Data Processed
Mineral: Dolomite
Rruff sample: R040030
Ideal chemistry: CaMg(CO_3_)_2_
Locality: Austria
Source: University of Arizona Mineral Museum
Description: Group of colorless tabular crystals
Measured chemistry: (Ca_0.99_Mg_0.01_)_Î£=1_Mg_1.00_(CO_3_)_2_ ; trace amounts of Mn; CO_2_ estimated by difference
Pin_id: M00035
Orientation: Laser parallel to -c* (0 0 -1). Fiducial mark perpendicular to laser is parallel to -a [-1 0 0]
Raman shift (cm-1)	intensity
95.582	0
99.764	53.009
103.943	115.334
108.121	142.327
112.297	246.303
116.47	212.466
120.642	119.631
124.811	72.473
128.979	36.446
133.144	30.534
137.307	24.973
141.469	0.259
145.628	34.305
149.786	41.448
153.941	57.219
158.094	136.069
162.245	213.495
166.395	472.795
170.542	1163.64
174.687	3227.77
178.83	4544.68
182.972	1803.74
187.111	519.318
191.248	200.591
195.383	80.783
199.516	67.055
203.647	15.705
207.777	38.542
211.904	37.375
216.029	0.465
220.152	11.119
224.273	17.602
228.392	7.288
232.509	19.377
236.625	76.648
240.738	38.507
244.849	22.999
248.958	36.949
253.065	15.279
257.171	27.281
261.274	10.178
265.375	18.181
269.475	1.51
273.572	3.93
277.667	117.001
281.76	143.338
285.852	161.453
289.941	247.063
294.029	487.649
298.114	876.737
302.198	1154.69
306.279	694.43
310.359	387.723
314.436	234.979
318.512	176.6
322.586	160.515
326.657	154.291
330.727	166.476
334.795	295.356
338.861	636.364
342.924	602.241
346.986	295.657
351.046	148.004
355.104	141.673
359.16	119.051
363.214	75.826
367.267	58.811
371.317	96.087
375.365	71.119
379.411	33.973
383.456	82.66
387.498	61.057
391.539	70.884
395.577	75.096
399.614	65.198
403.649	39.198
407.681	34.753
411.712	2.611
415.741	7.856
419.768	50.877
423.793	67.245
427.816	15.759
431.837	10.505
435.857	4.994
439.874	46.159
443.889	1.376
447.903	50.044
451.914	17.31
455.924	3.496
459.932	56.453
463.938	38.316
467.941	75.061
471.943	75.702
475.944	47.251
479.942	84.682
483.938	47.025
487.932	51.166
491.925	57.294
495.915	27.321
499.904	23.241
503.891	57.064
507.876	37.768
511.859	83.432
515.84	91.686
519.819	76.548
523.796	60.174
527.771	74.915
531.745	88.862
535.716	20.514
539.686	86.634
543.654	62.174
547.62	56.752
551.584	51.475
555.546	46.18
559.506	56.745
563.465	105.966
567.421	70.146
571.376	33.358
575.329	66.36
579.279	119.365
583.228	98.935
587.175	105.629
591.121	94.311
595.064	126.376
599.006	133.281
602.945	86.82
606.883	69.844
610.819	57.483
614.753	114.844
618.685	142.008
622.615	230.416
626.544	327.351
630.471	339.999
634.395	192.614
638.318	128.633
642.239	139.358
646.158	190.728
650.076	287.38
653.991	228.232
657.905	206.446
661.817	101.685
665.726	60.825
669.635	37
673.541	55.529
677.445	39.03
681.348	4.59
685.248	1.902
689.147	31.005
693.044	76.114
696.94	94.194
700.833	123.186
704.724	190.265
708.614	317.259
712.502	405.992
716.388	652.087
720.272	1364.16
724.155	2705.2
728.035	3025.99
731.914	1450.95
735.791	604.8
739.666	224.642
743.539	123.583
747.41	129.508
751.28	54.413
755.148	47.294
759.014	30.15
762.878	4.022
766.74	30.754
770.601	70.426
774.46	65.084
778.316	5.357
782.172	34.863
786.025	16.515
789.876	2.832
793.726	43.068
797.574	79.238
801.42	23.369
805.264	1.523
809.107	4.551
812.947	20.588
816.786	82.585
820.623	57.57
824.459	59.052
828.292	102.39
832.124	131.046
835.954	122.495
839.782	89.823
843.608	154.386
847.433	142.636
851.255	251.479
855.076	291.309
858.895	393.125
862.713	506.928
866.528	322.721
870.342	195.503
874.154	158.271
877.965	143.028
881.773	358.776
885.58	239.514
889.385	193.247
893.188	174.981
896.989	212.711
900.789	190.438
904.587	162.19
908.383	218.861
912.177	164.559
915.97	178.629
919.76	128.024
923.55	79.079
927.337	56.014
931.122	48.711
934.906	63.773
938.688	166.474
942.468	86.071
946.247	104.781
950.023	135.514
953.798	95.381
957.572	137.791
961.343	72.581
965.113	89.536
968.881	95.473
972.647	89.465
976.411	33.589
980.174	106.662
983.935	19.886
987.694	28.902
991.452	104.722
995.207	96.571
998.961	132.435
1002.71	423.318
1006.46	208.225
1010.21	45.157
1013.96	33.113
1017.71	199.094
1021.45	297.1
1025.19	231.132
1028.93	232.19
1032.67	182.274
1036.41	138.401
1040.14	190.021
1043.87	289.656
1047.61	301.89
1051.34	315.095
1055.06	367.056
1058.79	410.452
1062.52	474.287
1066.24	835.766
1069.96	1105.3
1073.68	1632.88
1077.4	2274.58
1081.11	2673.01
1084.83	3407.92
1088.54	4705.91
1092.25	9003.94
1095.96	27512
1099.67	51330.2
1103.37	17778.3
1107.08	5117.48
1110.78	2309.68
1114.48	1269.97
1118.18	840.242
1121.88	621.535
1125.57	467.526
1129.27	377.117
1132.96	215.381
1136.65	196.757
1140.34	158.156
1144.02	79.581
1147.71	111.36
1151.39	55.97
1155.07	73.442
1158.76	84.931
1162.43	73.431
1166.11	31.94
1169.79	71.459
1173.46	54.985
1177.13	165.519
1180.8	49.058
1184.47	60.601
1188.14	53.146
1191.8	29.666
1195.46	6.74
1199.13	15.381
1202.79	155.413
1206.45	18.555
1210.1	44.263
1213.76	79.142
1217.41	92.347
1221.06	31.891
1224.71	23.413
1228.36	40.767
1232.01	80.619
1235.65	101.934
1239.3	149.108
1242.94	188.284
1246.58	226.458
1250.22	165.629
1253.85	100.964
1257.49	31.249
1261.12	98.811
1264.75	129.214
1268.38	209.413
1272.01	272.689
1275.64	244.928
1279.27	238.233
1282.89	145.539
1286.51	81.803
1290.13	49.962
1293.75	116.039
1297.37	186.052
1300.98	176.96
1304.6	109.692
1308.21	205.221
1311.82	180.696
1315.43	199.133
1319.03	160.52
1322.64	151.844
1326.24	124.104
1329.85	172.285
1333.44	87.92
1337.04	38.501
1340.64	66.119
1344.24	47.526
1347.83	24.546
1351.42	34.277
1355.01	48.574
1358.6	9.231
1362.19	57.194
1365.78	36.155
1369.36	12.352
1372.94	55.394
1376.53	33.78
1380.1	88.431
1383.68	184.335
1387.26	79.218
1390.83	144.018
1394.41	53.826
1397.98	46.597
1401.55	17.327
1405.12	79.011
1408.68	107.626
1412.25	180.232
1415.81	113.818
1419.37	197.4
1422.93	208.984
1426.49	197.583
1430.05	263.2
1433.6	403.944
1437.15	705.71
1440.71	1492.93
1444.26	2246.69
1447.81	1528.26
1451.35	1178.66
1454.9	1187.12
1458.44	1150.97
1461.98	928.747
1465.53	735.096
1469.07	550.444
1472.6	475.585
1476.14	423.3
1479.67	324.283
1483.21	326.617
1486.74	328.826
1490.27	311.148
1493.8	142.779
1497.32	115.068
1500.85	124.498
1504.37	21.408
1507.89	5.947
1511.41	32.411
1514.93	60.705
1518.45	0.285
