Measurement: Raman, 514 nm, ccw, Raman Data Processed
Mineral: Dolomite
Rruff sample: R050370
Ideal chemistry: CaMg(CO_3_)_2_
Locality: Morro Velho mine, Nova Lima, Minas Gerais, Brazil
Source: Eugene Schlepp
Description: Colorless bladed crystals associated with pyrrhotite and albite
Measured chemistry: (Ca_0.84_Fe_0.16_)_Σ=1_(Mg_0.98_Mn_0.02_)_Σ=1_(CO_3_)_2_ ; CO_2_ estimated by difference
Pin_id: L00563
Orientation: Laser parallel to -c* (0 0 -1). Fiducial mark perpendicular to laser is parallel to a [1 0 0]
Raman shift (cm-1)	intensity
118.134	0
123.058	18.1577
127.979	72.1777
132.898	119.546
137.814	159.583
142.728	197.636
147.639	229.613
152.549	399.816
157.455	696.177
162.359	1446.67
167.261	2911.44
172.161	4286.37
177.058	2578.26
181.952	852.456
186.845	400.428
191.734	193.823
196.622	135.482
201.507	86.387
206.389	5.58252
211.269	64.654
216.147	61.071
221.022	56.6101
225.895	20.304
230.765	58.0984
235.633	83.9731
240.498	15.9202
245.361	90.7207
250.222	74.3655
255.08	176.27
259.936	289.137
264.789	327.186
269.64	564.465
274.488	857.003
279.334	1383.42
284.178	2128.01
289.019	2869.68
293.857	3310.55
298.693	2538.57
303.527	1410.21
308.358	719.44
313.187	387.781
318.013	193.979
322.837	191.48
327.659	264.739
332.478	285.838
337.294	391.457
342.108	314.125
346.92	160.838
351.729	51.52
356.535	65.293
361.34	58.8291
366.141	51.6216
370.94	60.2727
375.737	119.497
380.531	13.8821
385.323	39.6799
390.113	38.4287
394.9	56.1435
399.684	8.83276
404.466	18.5247
409.245	28.1746
414.022	49.811
418.797	23.4077
423.569	25.9814
428.338	61.523
433.105	39.0901
437.87	41.6829
442.632	2.75293
447.391	11.2075
452.149	28.3213
456.903	86.8682
461.655	59.3804
466.405	5.07104
471.152	88.4629
475.897	45.9946
480.639	44.5332
485.378	48.3403
490.116	69.9138
494.85	39.5056
499.582	61.1448
504.312	159.964
509.039	42.032
513.764	31.7275
518.486	175.413
523.206	67.2146
527.923	119.117
532.638	110.96
537.35	35.9805
542.059	93.8018
546.766	131.795
551.471	153.498
556.173	127.307
560.873	187.291
565.57	47.1904
570.264	121.184
574.957	104.397
579.646	126.634
584.333	113.411
589.018	102.719
593.7	85.0471
598.379	20.5725
603.056	74.9788
607.73	147.527
612.402	64.8391
617.072	55.6519
621.739	74.0132
626.403	120.046
631.065	38.5386
635.724	2.18872
640.381	82.8867
645.035	100.125
649.687	110.439
654.336	2.41528
658.983	108.814
663.627	33.478
668.268	26.1802
672.907	29.9062
677.544	189.879
682.178	171.137
686.809	138.973
691.438	87.2871
696.065	280.673
700.688	231.045
705.31	437.278
709.929	616.976
714.545	1132.02
719.158	2059.05
723.77	2445.12
728.378	1343.21
732.984	654.848
737.588	251.855
742.189	170.029
746.787	130.1
751.383	109.688
755.976	91.2493
760.567	60.3193
765.155	82.1079
769.741	3.13013
774.324	60.4094
778.904	124.47
783.482	6.83154
788.058	161.371
792.631	86.2134
797.201	42.5102
801.769	71.2173
806.334	103.047
810.897	18.2764
815.457	62.522
820.014	8.99438
824.569	109.425
829.122	64.8301
833.671	148.197
838.219	72.4297
842.763	40.6929
847.306	41.7685
851.845	59.9185
856.382	94.0518
860.917	34.1694
865.448	90.2622
869.978	84.3008
874.505	121.29
879.029	156.32
883.55	103.353
888.069	9.37695
892.586	16.3926
897.1	31.8237
901.611	82.7485
906.12	18.4717
910.626	84.3921
915.129	31.3848
919.63	1.40381
924.129	36.582
928.625	8.82568
933.118	10.5815
937.609	55.333
942.097	152.318
946.582	6.17969
951.065	107.619
955.546	57.7349
960.023	52.854
964.499	43.8628
968.971	53.188
973.441	5.02686
977.909	110.254
982.374	54.458
986.836	124.662
991.295	26.9072
995.753	11.208
1000.21	108.56
1004.66	113.448
1009.11	130.945
1013.55	104.491
1018	136.088
1022.44	249.753
1026.88	217.517
1031.32	204.34
1035.75	255.235
1040.18	296.884
1044.61	406.848
1049.04	396.938
1053.46	508.962
1057.88	683.995
1062.3	862.817
1066.71	1308.81
1071.13	1786.69
1075.54	2359.68
1079.94	3381.67
1084.35	6821.42
1088.75	19718.3
1093.15	48604.2
1097.55	41815.1
1101.94	11202.2
1106.34	3067.42
1110.73	1336.72
1115.11	714.898
1119.5	511.288
1123.88	421.726
1128.26	320.106
1132.63	216.638
1137.01	255.261
1141.38	82.9468
1145.75	138.701
1150.12	159.55
1154.48	21.1406
1158.84	99.397
1163.2	12.4468
1167.55	122.318
1171.91	25.271
1176.26	137.177
1180.61	49.044
1184.95	18.1001
1189.29	97.46
1193.63	47.3452
1197.97	75.2466
1202.31	10.1665
1206.64	57.2974
1210.97	14.3257
1215.29	95.2036
1219.62	39.294
1223.94	9.8623
1228.26	56.7764
1232.57	52.5908
1236.89	126.178
1241.2	19.7959
1245.51	72.4966
1249.81	73.105
1254.12	7.26953
1258.42	10.7275
1262.72	57.2227
1267.01	115.175
1271.3	118.205
1275.59	14.4209
1279.88	54.7534
1284.17	27.9673
1288.45	74.9746
1292.73	204.864
1297.01	26.7002
1301.28	30.4824
1305.55	76.1431
1309.82	106.817
1314.09	33.3345
1318.35	62.145
1322.61	77.5772
1326.87	5.92285
1331.13	37.8784
1335.38	137.903
1339.63	132.01
1343.88	18.9902
1348.12	129.888
1352.37	164.03
1356.61	21.562
1360.85	70.1533
1365.08	64.6792
1369.31	14.1509
1373.54	124.717
1377.77	20.9536
1381.99	173.385
1386.22	15.3096
1390.43	184.117
1394.65	27.4683
1398.87	131.556
1403.08	54.1367
1407.29	6.1582
1411.49	64.9312
1415.69	86.8965
1419.89	198.544
1424.09	137.778
1428.29	302.938
1432.48	390.596
1436.67	735.28
1440.86	1002.44
1445.04	678.144
1449.23	385.633
1453.4	344.162
1457.58	210.509
1461.76	198.166
1465.93	224.099
1470.1	115.08
1474.26	48.7144
1478.43	173.303
1482.59	154.821
1486.75	96.4585
1490.9	65.4316
1495.06	102.983
1499.21	7.45703
1503.35	127.062
1507.5	0.555664
1511.64	38.1392
1515.78	35.8447
1519.92	139.367
1524.05	112.76
1528.18	57.0825
1532.31	185.847
1536.44	119.4
1540.56	168.083
1544.69	63.855
1548.8	97.1387
1552.92	101.957
1557.03	27.4448
1561.14	15.2803
1565.25	75.7353
1569.36	43.9409
