Measurement: Raman, 514 nm, ccw, Raman Data Processed
Mineral: Dolomite
Rruff sample: R050370
Ideal chemistry: CaMg(CO_3_)_2_
Locality: Morro Velho mine, Nova Lima, Minas Gerais, Brazil
Source: Eugene Schlepp
Description: Colorless bladed crystals associated with pyrrhotite and albite
Measured chemistry: (Ca_0.84_Fe_0.16_)_Σ=1_(Mg_0.98_Mn_0.02_)_Σ=1_(CO_3_)_2_ ; CO_2_ estimated by difference
Pin_id: L00563
Orientation: Laser parallel to -c* (0 0 -1). Fiducial mark perpendicular to laser is parallel to a [1 0 0]
Raman shift (cm-1)	intensity
118.134	0
123.058	35.5183
127.979	48.186
132.898	40.0625
137.814	176.686
142.728	171.504
147.639	213.363
152.549	355.452
157.455	549.043
162.359	1261.79
167.261	2290.51
172.161	3185.07
177.058	2038.64
181.952	778.352
186.845	391.577
191.734	226.375
196.622	153.368
201.507	114.571
206.389	37.1848
211.269	54.291
216.147	55.6943
221.022	56.2398
225.895	33.96
230.765	102.801
235.633	31.7573
240.498	37.8059
245.361	126.966
250.222	54.2837
255.08	113.521
259.936	327.94
264.789	265.352
269.64	434.418
274.488	662.724
279.334	970.918
284.178	1571.6
289.019	2127.53
293.857	2418.37
298.693	1902.52
303.527	1106.22
308.358	571.702
313.187	324.32
318.013	248.056
322.837	147.212
327.659	271.104
332.478	239.081
337.294	333.135
342.108	274.386
346.92	165.768
351.729	16.9812
356.535	119.18
361.34	20.676
366.141	49.0832
370.94	69.5591
375.737	15.1477
380.531	73.3423
385.323	71.1838
390.113	29.769
394.9	35.3984
399.684	64.0525
404.466	46.7019
409.245	59.3025
414.022	71.9719
418.797	106.717
423.569	20.4807
428.338	0.222168
433.105	97.9482
437.87	119.61
442.632	51.7695
447.391	63.7461
452.149	25.2656
456.903	126.825
461.655	9.42188
466.405	60.0308
471.152	39.6509
475.897	49.3052
480.639	12.9941
485.378	24.7124
490.116	58.4551
494.85	54.4341
499.582	144.003
504.312	44.5693
509.039	81.4341
513.764	55.395
518.486	132.611
523.206	112.707
527.923	62.8384
532.638	129.552
537.35	202.791
542.059	115.05
546.766	124.267
551.471	120.257
556.173	103.701
560.873	160.201
565.57	75.4326
570.264	138.373
574.957	67.4775
579.646	148.932
584.333	154.499
589.018	136.196
593.7	110.072
598.379	54.9858
603.056	91.9385
607.73	81.5791
612.402	27.6079
617.072	147.672
621.739	66.7715
626.403	43.7773
631.065	65.7773
635.724	65.981
640.381	3.22412
645.035	80.4619
649.687	100.775
654.336	9.96484
658.983	70.332
663.627	49.2891
668.268	52.7202
672.907	10.0288
677.544	200.45
682.178	100.327
686.809	92.3496
691.438	135.928
696.065	204.539
700.688	331.29
705.31	366.956
709.929	564.237
714.545	1233.81
719.158	2065.68
723.77	2344.58
728.378	1389.54
732.984	584.495
737.588	240.58
742.189	115.507
746.787	118.436
751.383	122.353
755.976	57.2515
760.567	160.13
765.155	14.9907
769.741	87.834
774.324	49.6543
778.904	44.0474
783.482	13.085
788.058	90.8296
792.631	21.1582
797.201	70.7212
801.769	16.1294
806.334	94.5044
810.897	82.3867
815.457	11.8003
820.014	128.534
824.569	80.7676
829.122	52.7134
833.671	99.3291
838.219	78.2022
842.763	46.0381
847.306	116.868
851.845	48.3452
856.382	64.7466
860.917	81.1079
865.448	104.43
869.978	24.7134
874.505	52.9512
879.029	140.165
883.55	167.337
888.069	35.4775
892.586	37.5879
897.1	131.669
901.611	105.699
906.12	106.726
910.626	89.7295
915.129	106.695
919.63	127.374
924.129	80.5747
928.625	78.542
933.118	96.5102
937.609	1.17432
942.097	130.661
946.582	1.38623
951.065	52.8662
955.546	5.1875
960.023	72.0767
964.499	32.1792
968.971	53.5142
973.441	31.102
977.909	68.8184
982.374	26.0356
986.836	53.811
991.295	96.457
995.753	126.135
1000.21	76.9243
1004.66	104.768
1009.11	53.5684
1013.55	143.603
1018	46.6792
1022.44	158.816
1026.88	198.045
1031.32	161.325
1035.75	285.648
1040.18	244.024
1044.61	348.451
1049.04	397.579
1053.46	512.168
1057.88	746.169
1062.3	838.612
1066.71	1248
1071.13	1744.04
1075.54	2339.5
1079.94	3458.98
1084.35	6676.43
1088.75	19977.5
1093.15	45722.9
1097.55	39787.6
1101.94	11153.1
1106.34	2986.66
1110.73	1311.31
1115.11	653.928
1119.5	557.865
1123.88	373.785
1128.26	234.534
1132.63	108.572
1137.01	137.44
1141.38	92.8144
1145.75	180.991
1150.12	89.5195
1154.48	115.209
1158.84	39.5102
1163.2	37.7886
1167.55	140.561
1171.91	45.2866
1176.26	108.823
1180.61	14.1191
1184.95	11.2407
1189.29	134.111
1193.63	121.456
1197.97	46.7202
1202.31	50.0469
1206.64	133.327
1210.97	48.6108
1215.29	109.92
1219.62	65.2808
1223.94	77.5151
1228.26	121.966
1232.57	39.8115
1236.89	36.3535
1241.2	53.4971
1245.51	60.0059
1249.81	89.5015
1254.12	12.8623
1258.42	30.3193
1262.72	8.68213
1267.01	57.1567
1271.3	47.1392
1275.59	12.6997
1279.88	90.3579
1284.17	28.7212
1288.45	116.836
1292.73	113.888
1297.01	41.8877
1301.28	67.8364
1305.55	77.7139
1309.82	134.461
1314.09	115.699
1318.35	33.7607
1322.61	122.866
1326.87	163.611
1331.13	61.5713
1335.38	69.4146
1339.63	64.9946
1343.88	8.93018
1348.12	58.773
1352.37	18.5273
1356.61	90.1914
1360.85	73.7715
1365.08	144.218
1369.31	119.55
1373.54	44.0625
1377.77	61.3384
1381.99	142.575
1386.22	163.202
1390.43	19.584
1394.65	27.3247
1398.87	81.1006
1403.08	17.417
1407.29	116.043
1411.49	125.307
1415.69	172.365
1419.89	164.388
1424.09	137.09
1428.29	289.254
1432.48	391.606
1436.67	765.138
1440.86	927.992
1445.04	677.802
1449.23	311.91
1453.4	280.717
1457.58	240.517
1461.76	252.848
1465.93	102.006
1470.1	141.436
1474.26	89.1997
1478.43	110.701
1482.59	135.764
1486.75	146.833
1490.9	78.4482
1495.06	36.5796
1499.21	71.8047
1503.35	37.8945
1507.5	43.1343
1511.64	217.585
1515.78	10.8169
1519.92	163.893
1524.05	122.759
1528.18	111.843
1532.31	178.302
1536.44	18.5352
1540.56	29.4458
1544.69	71.249
1548.8	69.7695
1552.92	83.4756
1557.03	68.5449
1561.14	2.6665
1565.25	94.4316
1569.36	64.1982
