Measurement: Raman, 514 nm, ccw, Raman Data Processed
Mineral: Dolomite
Rruff sample: R050241
Ideal chemistry: CaMg(CO_3_)_2_
Locality: Eugui quarries, Navarre, Spain
Source: Marcus Origlieri
Description: Light gray colored tabular crystals
Measured chemistry: (Ca_0.96_Mg_0.04_)_Σ=1_(Mg_0.98_Fe^2+^_0.02_)_Σ=1_(CO_3_)_2_ ; CO_2_ estimated by difference
Pin_id: L00518
Orientation: Laser parallel to -a* (-1 0 0). Fiducial mark perpendicular to laser is parallel to c [0 0 1]
Raman shift (cm-1)	intensity
100.883	0
105.815	36.616
110.744	69.2737
115.671	26.5908
120.596	49.9497
125.519	50.7092
130.439	37.3403
135.356	90.0857
140.271	141.644
145.184	163.471
150.094	143.056
155.002	261.283
159.908	410.076
164.811	1240.37
169.711	2895.32
174.61	4042.97
179.505	5993.57
184.399	1670.09
189.29	466.723
194.178	197.525
199.064	204.032
203.948	71.8179
208.829	33.2732
213.708	58.9922
218.585	34.9424
223.459	28.9827
228.33	1.0874
233.199	44.2581
238.066	40.4917
242.93	11.7048
247.792	61.428
252.651	26.5178
257.508	46.1792
262.363	71.9644
267.215	105.311
272.064	125.917
276.912	287.799
281.756	420.781
286.598	1165.82
291.438	2729.02
296.276	4339.41
301.111	5564.12
305.943	3558.52
310.773	1337.38
315.601	519.321
320.426	411.388
325.248	238.963
330.068	401.903
334.886	439.86
339.701	805.439
344.514	506.146
349.324	206.727
354.132	95.4351
358.938	112.27
363.741	93.489
368.541	10.9563
373.339	43.2727
378.135	8.34277
382.928	7.94287
387.718	14.76
392.506	19.4714
397.292	0.30835
402.075	19.2588
406.856	80.6294
411.634	30.3564
416.41	12.8042
421.183	94.3525
425.954	23.5334
430.722	75.6277
435.488	76.8648
440.251	23.5928
445.012	70.564
449.77	61.0418
454.526	10.9346
459.28	19.3608
464.03	46.977
468.779	19.449
473.525	84.783
478.268	124.977
483.009	84.2649
487.747	43.2739
492.483	39.5994
497.217	69.8118
501.948	68.3555
506.676	59.9294
511.402	84.4553
516.125	50.2754
520.846	94.4443
525.565	35.0303
530.281	83.5574
534.994	23.4551
539.705	104.814
544.413	79.2759
549.119	138.052
553.822	60.9228
558.523	86.6069
563.222	102.19
567.917	83.6309
572.611	112.043
577.302	5.18311
581.99	67.9297
586.676	120.428
591.359	15.9868
596.04	10.6709
600.718	60.584
605.394	95.876
610.067	74.4131
614.737	16.7773
619.406	95.9033
624.071	63.1528
628.734	84.6167
633.395	56.4829
638.053	67.9287
642.708	147.179
647.361	19.688
652.012	36.4722
656.66	101.143
661.305	77.3379
665.948	72.4023
670.588	31.6421
675.226	3.64697
679.861	35.3223
684.494	156.038
689.124	150.557
693.752	207.311
698.377	172.533
702.999	334.133
707.619	407.308
712.237	637.269
716.852	1380.9
721.464	2462.71
726.074	3069.15
730.681	1709.86
735.286	717.918
739.888	321.31
744.488	227.048
749.085	170.081
753.68	72.9375
758.272	125.623
762.861	98.3823
767.448	107.805
772.033	82.6611
776.614	123.758
781.194	51.1714
785.77	49.0371
790.345	44.2798
794.916	103.96
799.485	94.1475
804.052	82.7637
808.616	135.43
813.177	99.8784
817.736	80.0669
822.292	12.7275
826.846	119.833
831.397	22.105
835.945	114.107
840.491	10.6997
845.035	39.8838
849.576	81.4356
854.114	135.15
858.65	155.651
863.183	99.9795
867.713	154.055
872.241	53.939
876.767	128.622
881.29	228.269
885.81	116.609
890.328	103.326
894.843	143.195
899.356	142.763
903.866	130.548
908.373	29.313
912.878	137.93
917.38	69.4556
921.88	133.066
926.377	13.1782
930.872	79.4258
935.364	94.8203
939.853	78.7803
944.34	29.4878
948.824	51.7539
953.306	158.809
957.785	39.0674
962.261	71.1977
966.735	94.105
971.207	49.7446
975.675	117.054
980.141	128.145
984.605	65.3467
989.066	104.673
993.524	107.149
997.98	121.493
1002.43	73.5137
1006.88	153.327
1011.33	114.43
1015.78	131.676
1020.22	203.107
1024.66	86.2202
1029.1	123.86
1033.53	196.038
1037.97	264.345
1042.4	245.022
1046.82	238.833
1051.25	331.687
1055.67	321.403
1060.09	516.073
1064.51	853.06
1068.92	1061.94
1073.33	1924.06
1077.74	2634.46
1082.15	3307.4
1086.55	4913.15
1090.95	10849.8
1095.35	29454.5
1099.75	51292.8
1104.14	15686.6
1108.53	3871
1112.92	1445.31
1117.31	788.668
1121.69	662.045
1126.07	456.69
1130.45	280.062
1134.82	359.124
1139.19	90.8096
1143.57	169.991
1147.93	101.635
1152.3	30.6484
1156.66	15.4883
1161.02	59.1885
1165.38	4.17578
1169.73	0.216797
1174.08	103.13
1178.43	86.8408
1182.78	65.1514
1187.12	103.217
1191.46	46.2002
1195.8	70.4463
1200.14	145.593
1204.47	135.983
1208.8	33.6338
1213.13	181.273
1217.46	86.8516
1221.78	35.4219
1226.1	42.707
1230.42	42.4131
1234.73	100.793
1239.04	260.129
1243.35	78.4727
1247.66	11.457
1251.97	53.4805
1256.27	63.1992
1260.57	181.819
1264.86	89.2881
1269.16	146.15
1273.45	8.62012
1277.74	23.3223
1282.03	10.6406
1286.31	115.061
1290.59	237.497
1294.87	121.693
1299.14	54.9512
1303.42	72.4209
1307.69	90.9414
1311.95	121.478
1316.22	192.002
1320.48	193.312
1324.74	44.2002
1329	8.69043
1333.26	106.226
1337.51	116.682
1341.76	95.7256
1346	94.0547
1350.25	7.97168
1354.49	120.737
1358.73	121.314
1362.96	297.032
1367.2	118.21
1371.43	62.6494
1375.66	9.86133
1379.88	141.985
1384.11	56.501
1388.33	189.022
1392.54	182.435
1396.76	55.7158
1400.97	13.0352
1405.18	192.439
1409.39	162.36
1413.59	55.8643
1417.8	109.7
1421.99	211.831
1426.19	318.087
1430.38	191.36
1434.58	538.073
1438.77	1261.2
1442.95	1861.21
1447.13	770.765
1451.32	325.154
1455.49	349.315
1459.67	109.939
1463.84	287.361
1468.01	144.31
1472.18	175.085
1476.35	196.433
1480.51	160.399
1484.67	98.0088
1488.83	109.331
1492.98	155.359
1497.13	188.155
1501.28	125.178
1505.43	98.2519
1509.57	86.2842
1513.71	55.6973
1517.85	219.411
1521.99	130.38
1526.12	121.036
1530.25	219.13
1534.38	18.7236
1538.5	231.697
1542.62	93.4199
1546.74	171.686
1550.86	12.5137
1554.98	109.468
1559.09	62.4756
1563.2	50.0264
1567.31	166.362
1571.41	0
