Measurement: Raman, 514 nm, ccw, Raman Data Processed
Mineral: Dolomite
Rruff sample: R050241
Ideal chemistry: CaMg(CO_3_)_2_
Locality: Eugui quarries, Navarre, Spain
Source: Marcus Origlieri
Description: Light gray colored tabular crystals
Measured chemistry: (Ca_0.96_Mg_0.04_)_Σ=1_(Mg_0.98_Fe^2+^_0.02_)_Σ=1_(CO_3_)_2_ ; CO_2_ estimated by difference
Pin_id: L00518
Orientation: Laser parallel to -a* (-1 0 0). Fiducial mark perpendicular to laser is parallel to c [0 0 1]
Raman shift (cm-1)	intensity
100.883	0
105.815	114.988
110.744	79.6682
115.671	164.684
120.596	52.1655
125.519	144.03
130.439	77.5618
135.356	107.8
140.271	218.231
145.184	268.287
150.094	281.55
155.002	302.784
159.908	654.134
164.811	1959.99
169.711	4521.97
174.61	6576.19
179.505	11831.6
184.399	3176.6
189.29	815.48
194.178	333.75
199.064	344.379
203.948	191.311
208.829	151.609
213.708	76.3794
218.585	9.5874
223.459	44.6773
228.33	24.2217
233.199	26.023
238.066	14.9473
242.93	86.354
247.792	0.303711
252.651	93.4004
257.508	98.0352
262.363	93.1577
267.215	34.5952
272.064	215.197
276.912	245.746
281.756	456.048
286.598	1135.09
291.438	2846.45
296.276	4606.01
301.111	7250.74
305.943	5086.63
310.773	1900.57
315.601	853.789
320.426	520.66
325.248	287.979
330.068	331.384
334.886	558.86
339.701	882.832
344.514	568.459
349.324	102.449
354.132	195.852
358.938	96.6367
363.741	50.6206
368.541	144.621
373.339	60.6055
378.135	23.2363
382.928	52.248
387.718	10.5771
392.506	89.7314
397.292	8.39697
402.075	58.6016
406.856	31.7188
411.634	14.4458
416.41	85.499
421.183	96.8135
425.954	58.6582
430.722	48.4502
435.488	13.5908
440.251	117.692
445.012	84.8921
449.77	15.6094
454.526	64.4932
459.28	87.9004
464.03	119.665
468.779	43.1821
473.525	108.132
478.268	75.8223
483.009	62.7466
487.747	76.7988
492.483	4.34131
497.217	64.6548
501.948	55.4756
506.676	51.3066
511.402	21.6773
516.125	115.961
520.846	4.99463
525.565	101.145
530.281	78.7842
534.994	90.5977
539.705	111.899
544.413	23.3662
549.119	73.9233
553.822	143.728
558.523	11.8511
563.222	92.7363
567.917	119.017
572.611	27.687
577.302	44.1099
581.99	46.3877
586.676	54.5161
591.359	105.502
596.04	102.417
600.718	15.0322
605.394	105.932
610.067	38.3272
614.737	78.5591
619.406	86.728
624.071	166.507
628.734	164.371
633.395	182.01
638.053	68.1689
642.708	20.5776
647.361	200.048
652.012	120.314
656.66	169.011
661.305	120.856
665.948	39.5923
670.588	66.8315
675.226	237.139
679.861	3.18945
684.494	102.831
689.124	37.7051
693.752	149.312
698.377	189.44
702.999	259.173
707.619	259.031
712.237	373.622
716.852	760.68
721.464	1215.3
726.074	1514.01
730.681	1053.8
735.286	396.068
739.888	278.174
744.488	174.42
749.085	106.114
753.68	138.603
758.272	111.953
762.861	21.8994
767.448	124.413
772.033	154.838
776.614	2.33545
781.194	60.0918
785.77	3.19287
790.345	116.725
794.916	156.949
799.485	85.9756
804.052	8.01562
808.616	108.188
813.177	26.4619
817.736	134.371
822.292	23.2842
826.846	0.541016
831.397	10.8027
835.945	176.416
840.491	80.2734
845.035	35.7236
849.576	50.042
854.114	211.095
858.65	80.8994
863.183	179.855
867.713	139.188
872.241	120.601
876.767	186.15
881.29	156.992
885.81	225.841
890.328	240.56
894.843	92.0459
899.356	258.128
903.866	153.416
908.373	92.2529
912.878	230.344
917.38	8.61816
921.88	150.719
926.377	47.1543
930.872	120.846
935.364	11.9082
939.853	53.79
944.34	32.4678
948.824	16.248
953.306	14.0576
957.785	48.7734
962.261	50.0889
966.735	214.159
971.207	8.54492
975.675	5.32129
980.141	40.0254
984.605	119.624
989.066	124.612
993.524	202.454
997.98	33.001
1002.43	184.606
1006.88	30.1982
1011.33	114.727
1015.78	230.176
1020.22	186.835
1024.66	152.685
1029.1	161.188
1033.53	158.041
1037.97	116.531
1042.4	174.033
1046.82	245.033
1051.25	268.313
1055.67	414.165
1060.09	443.806
1064.51	678.38
1068.92	1138.83
1073.33	1925.58
1077.74	2504.02
1082.15	3375.53
1086.55	4890.56
1090.95	10895.9
1095.35	29391.9
1099.75	51764.1
1104.14	15372.2
1108.53	3789.15
1112.92	1608.23
1117.31	864.925
1121.69	582.111
1126.07	281.539
1130.45	269.801
1134.82	234.166
1139.19	182.291
1143.57	248.472
1147.93	249.066
1152.3	157.515
1156.66	135.131
1161.02	158.744
1165.38	166.077
1169.73	33.959
1174.08	100.434
1178.43	26.3994
1182.78	29.9463
1187.12	30.7021
1191.46	85.0654
1195.8	101.54
1200.14	28.332
1204.47	154.909
1208.8	39.5596
1213.13	143.164
1217.46	36.0791
1221.78	139.967
1226.1	115.576
1230.42	45.7051
1234.73	70.9961
1239.04	19.2764
1243.35	163.803
1247.66	116.434
1251.97	211.806
1256.27	11.1416
1260.57	106.068
1264.86	189.752
1269.16	62.249
1273.45	231.817
1277.74	187.51
1282.03	100.356
1286.31	52.498
1290.59	35.5527
1294.87	32.1982
1299.14	7.51758
1303.42	48.1719
1307.69	137.935
1311.95	177.763
1316.22	7.76074
1320.48	57.6602
1324.74	187.536
1329	58.8652
1333.26	127.814
1337.51	213.568
1341.76	138.817
1346	188.375
1350.25	190.22
1354.49	72.7686
1358.73	121.829
1362.96	64.1807
1367.2	108.205
1371.43	244.678
1375.66	118.514
1379.88	27.5186
1384.11	161.058
1388.33	46.6777
1392.54	169.188
1396.76	12.5322
1400.97	53.7568
1405.18	179.66
1409.39	97.5986
1413.59	145.982
1417.8	92.2803
1421.99	165.82
1426.19	71.3144
1430.38	82.6621
1434.58	210.441
1438.77	751.864
1442.95	1063.69
1447.13	608.684
1451.32	510.339
1455.49	185.287
1459.67	175.872
1463.84	90.9551
1468.01	127.589
1472.18	249.699
1476.35	12.831
1480.51	25.8525
1484.67	176.072
1488.83	310.641
1492.98	195.124
1497.13	137.627
1501.28	211.912
1505.43	288.926
1509.57	87.0205
1513.71	210.131
1517.85	169.389
1521.99	172.111
1526.12	6.97949
1530.25	129.23
1534.38	121.644
1538.5	57.4639
1542.62	128.821
1546.74	110.678
1550.86	139.832
1554.98	110.662
1559.09	43.1934
1563.2	213.123
1567.31	91.9238
1571.41	0
