Measurement: Raman, 514 nm, ccw, Raman Data Processed
Mineral: Dolomite
Rruff sample: R050370
Ideal chemistry: CaMg(CO_3_)_2_
Locality: Morro Velho mine, Nova Lima, Minas Gerais, Brazil
Source: Eugene Schlepp
Description: Colorless bladed crystals associated with pyrrhotite and albite
Measured chemistry: (Ca_0.84_Fe_0.16_)_Σ=1_(Mg_0.98_Mn_0.02_)_Σ=1_(CO_3_)_2_ ; CO_2_ estimated by difference
Pin_id: L00563
Orientation: Laser parallel to -c* (0 0 -1). Fiducial mark perpendicular to laser is parallel to a [1 0 0]
Raman shift (cm-1)	intensity
118.134	0
123.058	27.7234
127.979	108.805
132.898	125.986
137.814	197.662
142.728	187.777
147.639	280.349
152.549	426.049
157.455	774.127
162.359	1682.29
167.261	3233.32
172.161	4683.7
177.058	2871.96
181.952	970.796
186.845	442.789
191.734	216.468
196.622	116.564
201.507	14.7563
206.389	25.0742
211.269	44.8855
216.147	0.700684
221.022	27.2244
225.895	11.4058
230.765	12.3003
235.633	39.1902
240.498	0.089111
245.361	9.4729
250.222	34.436
255.08	172.389
259.936	261.132
264.789	177.758
269.64	368.69
274.488	552.682
279.334	889.206
284.178	1329.13
289.019	1921.36
293.857	2203.42
298.693	1832.05
303.527	943.826
308.358	469.992
313.187	341.411
318.013	173.688
322.837	165.657
327.659	245.84
332.478	278.069
337.294	311.354
342.108	264.293
346.92	147.256
351.729	145.665
356.535	65.1184
361.34	75.6033
366.141	17.6406
370.94	72.0112
375.737	80.696
380.531	8.22168
385.323	43.7788
390.113	42.1812
394.9	22.7273
399.684	21.738
404.466	49.7288
409.245	12.0586
414.022	25.352
418.797	8.6543
423.569	56.9656
428.338	25.3064
433.105	63.6711
437.87	25.0286
442.632	33.3684
447.391	50.7212
452.149	3.63843
456.903	68.989
461.655	20.666
466.405	52.6006
471.152	43.8174
475.897	109.039
480.639	81.9817
485.378	16.7869
490.116	81.387
494.85	58.5625
499.582	147.208
504.312	125.273
509.039	144.355
513.764	128.922
518.486	98.2905
523.206	104.33
527.923	156.61
532.638	91.6836
537.35	96.6728
542.059	94.491
546.766	181.431
551.471	139.754
556.173	104.907
560.873	108.304
565.57	102.766
570.264	103.267
574.957	58.79
579.646	23.7375
584.333	122.291
589.018	34.853
593.7	120.948
598.379	102.304
603.056	57.0647
607.73	137.372
612.402	8.9375
617.072	42.5923
621.739	12.4138
626.403	32.9048
631.065	103.482
635.724	110.242
640.381	57.1135
645.035	49.8557
649.687	42.6086
654.336	96.3838
658.983	75.7751
663.627	65.6792
668.268	27.4707
672.907	70.9529
677.544	28.8191
682.178	44.9209
686.809	80.7974
691.438	128.151
696.065	198.61
700.688	264.577
705.31	376.544
709.929	672.894
714.545	1285
719.158	2172.95
723.77	2304.89
728.378	1277.89
732.984	553.243
737.588	215.149
742.189	142.053
746.787	37.9836
751.383	5.91553
755.976	3.12158
760.567	150.388
765.155	83.2468
769.741	21.2146
774.324	8.03906
778.904	15.3682
783.482	31.0593
788.058	70.0964
792.631	75.5986
797.201	8.07007
801.769	49.9404
806.334	12.8828
810.897	105.31
815.457	90.654
820.014	68.918
824.569	20.125
829.122	28.3037
833.671	30.4348
838.219	56.5886
842.763	32.352
847.306	0.59668
851.845	59.5063
856.382	53.3765
860.917	41.2295
865.448	33.0664
869.978	48.895
874.505	68.7153
879.029	118.525
883.55	83.3247
888.069	62.0781
892.586	1.65234
897.1	13.2759
901.611	17.9907
906.12	91.4937
910.626	34.8379
915.129	66.3428
919.63	24.4439
924.129	136.346
928.625	11.8472
933.118	21.273
937.609	38.8652
942.097	10.416
946.582	76.3872
951.065	120.973
955.546	147.373
960.023	99.0811
964.499	133.402
968.971	5.2793
973.441	44.6299
977.909	12.1851
982.374	55.8726
986.836	164.059
991.295	54.1504
995.753	53.293
1000.21	82.4356
1004.66	90.7261
1009.11	14.0718
1013.55	114.473
1018	59.8174
1022.44	189.335
1026.88	265.64
1031.32	175.813
1035.75	223.526
1040.18	302.454
1044.61	382.493
1049.04	411.613
1053.46	535.011
1057.88	659.966
1062.3	889.065
1066.71	1287.34
1071.13	1783.61
1075.54	2448.85
1079.94	3613.63
1084.35	7110.52
1088.75	20999.9
1093.15	48965
1097.55	41629.6
1101.94	11380.5
1106.34	3065.85
1110.73	1288.23
1115.11	710.71
1119.5	529.273
1123.88	347.895
1128.26	273.198
1132.63	208.605
1137.01	168.406
1141.38	61.2622
1145.75	190.167
1150.12	46.1533
1154.48	46.1172
1158.84	3.55078
1163.2	139.524
1167.55	14.73
1171.91	54.9878
1176.26	56.2324
1180.61	98.8857
1184.95	92.8247
1189.29	100.017
1193.63	14.6343
1197.97	55.6397
1202.31	79.0132
1206.64	45.333
1210.97	36.6435
1215.29	7.1001
1219.62	58.4922
1223.94	54.7803
1228.26	24.9673
1232.57	57.1943
1236.89	123.225
1241.2	34.6357
1245.51	126.198
1249.81	72.1284
1254.12	59.0332
1258.42	13.9053
1262.72	28.0059
1267.01	104.327
1271.3	85.1753
1275.59	65.2939
1279.88	92.207
1284.17	11.1665
1288.45	67.6289
1292.73	90.5386
1297.01	7.8291
1301.28	4.99365
1305.55	6.05664
1309.82	104.038
1314.09	34.0444
1318.35	54.7046
1322.61	108.04
1326.87	101.616
1331.13	40.1919
1335.38	46.7158
1339.63	165.186
1343.88	10.2114
1348.12	137.525
1352.37	86.7744
1356.61	22.4648
1360.85	60.7886
1365.08	111.798
1369.31	109.73
1373.54	100.595
1377.77	83.9209
1381.99	119.681
1386.22	100.195
1390.43	14.9458
1394.65	46.0015
1398.87	13.5576
1403.08	100.069
1407.29	112.567
1411.49	115.953
1415.69	154.106
1419.89	148.002
1424.09	137.125
1428.29	310.479
1432.48	346.101
1436.67	729.928
1440.86	834.211
1445.04	584.483
1449.23	367.291
1453.4	307.736
1457.58	258.135
1461.76	125.163
1465.93	32.3286
1470.1	111.283
1474.26	79.2832
1478.43	81.4492
1482.59	39.3101
1486.75	112.47
1490.9	154.713
1495.06	104.939
1499.21	1.3584
1503.35	83.5762
1507.5	96.5874
1511.64	41.2109
1515.78	1.01074
1519.92	61.1201
1524.05	49.4517
1528.18	115.825
1532.31	166.63
1536.44	120.732
1540.56	64.1148
1544.69	147
1548.8	28.5352
1552.92	102.37
1557.03	55.7188
1561.14	93.9536
1565.25	2.79883
1569.36	14.9263
