Measurement: Raman, 514 nm, ccw, Raman Data Processed
Mineral: Dolomite
Rruff sample: R050129
Ideal chemistry: CaMg(CO_3_)_2_
Locality: Black Cloud mine, Leadville, Lake County, Colorado, USA
Source: Dave Bunk Minerals
Description: Aggregate of colorless to white rhombohedra
Measured chemistry: Ca(Mg_0.62_Fe^2+^_0.33_Mn_0.05_)_Î£=1_(CO_3_)_2_ ; CO_2_ estimated by difference
Pin_id: M00233
Orientation: Laser parallel to -c* (0 0 -1). Fiducial mark perpendicular to laser is parallel to [1 1 0]
Raman shift (cm-1)	intensity
109.513	0
113.688	65.416
117.861	196.207
122.032	7.035
126.201	68.764
130.367	145.219
134.532	133.921
138.695	112.883
142.856	94.699
147.014	72.457
151.171	167.954
155.325	142.156
159.478	250.118
163.629	571.794
167.777	1240.86
171.924	2606.75
176.068	2017.09
180.211	833.314
184.351	484.873
188.49	209.68
192.626	217.288
196.761	222.364
200.893	70.052
205.024	39.018
209.152	27.053
213.279	16.583
217.403	25.023
221.526	14.911
225.646	19.919
229.765	27.871
233.881	19.779
237.996	9.642
242.108	40.032
246.219	38.714
250.328	26.539
254.434	41.546
258.539	15.513
262.641	21.318
266.742	100.508
270.84	117.416
274.937	158.873
279.032	297.16
283.125	393.597
287.215	707.253
291.304	1023.34
295.391	1168.84
299.476	1000.03
303.558	603.149
307.639	378.79
311.718	235.973
315.795	171.418
319.87	143.259
323.943	126.04
328.014	175.06
332.083	263.014
336.15	303.801
340.215	262.569
344.279	172.794
348.34	160.357
352.399	125.235
356.457	129.958
360.512	71.604
364.565	100.871
368.617	120.044
372.666	58.621
376.714	111.385
380.76	121.597
384.803	101.328
388.845	53.299
392.885	21.209
396.923	46.552
400.959	50.285
404.993	55.389
409.025	19.858
413.055	46.17
417.084	51.574
421.11	44.679
425.134	14.659
429.157	44.398
433.177	62.809
437.196	53.919
441.213	3.719
445.227	43.113
449.24	28.576
453.251	38.73
457.26	40.549
461.267	55.292
465.272	60.639
469.276	89.683
473.277	29.932
477.276	30.837
481.274	33.732
485.27	21.255
489.263	46.976
493.255	41.223
497.245	64.723
501.233	124.172
505.219	82.17
509.203	35.379
513.186	56.174
517.166	89.791
521.145	52.822
525.121	57.846
529.096	40.054
533.069	61.617
537.04	82.759
541.009	46.735
544.976	34.823
548.941	83.655
552.905	48.407
556.866	73.377
560.826	55.275
564.784	41.177
568.74	57.01
572.694	37.144
576.646	19.889
580.596	28
584.544	62.397
588.491	44.342
592.435	52.518
596.378	6.345
600.319	23.492
604.258	16.462
608.195	19.333
612.131	64.513
616.064	2.572
619.995	16.975
623.925	27.325
627.853	66.575
631.779	48.455
635.703	54.913
639.625	50.728
643.546	3.312
647.464	57.873
651.381	66.175
655.296	72.835
659.209	67.737
663.12	28.816
667.029	25.619
670.937	73.702
674.842	46.816
678.746	38.1
682.648	18.419
686.548	139.389
690.447	122.693
694.343	102.758
698.238	122.938
702.13	166.057
706.021	252.327
709.91	419.567
713.798	730.717
717.683	1448.92
721.567	2503.17
725.448	2159.31
729.328	974.356
733.206	415.44
737.083	194.344
740.957	118.381
744.83	97.39
748.701	83.511
752.57	18.195
756.437	25.236
760.302	11.425
764.166	2.77
768.027	37.172
771.887	19.887
775.745	60.622
779.602	36.922
783.456	30.697
787.309	4.498
791.16	41.703
795.009	13.72
798.856	34.245
802.702	6.211
806.545	107.641
810.387	65.195
814.227	80.936
818.065	17.045
821.902	5.918
825.737	1.732
829.569	36.991
833.401	31.133
837.23	33.275
841.057	21.432
844.883	50.56
848.707	47.652
852.529	78.693
856.35	65.698
860.168	28.676
863.985	10.635
867.8	48.575
871.613	7.499
875.425	25.404
879.234	83.292
883.042	79.167
886.848	41.028
890.653	16.882
894.455	105.724
898.256	100.556
902.055	7.361
905.852	50.142
909.648	77.92
913.442	6.131
917.233	49.137
921.024	45.354
924.812	54.087
928.599	20.68
932.384	3.865
936.167	64.467
939.948	29.391
943.728	32.782
947.506	25.088
951.282	32.928
955.056	44.379
958.829	46.912
962.6	40.509
966.369	7.114
970.136	41.408
973.902	22.511
977.666	8.775
981.428	67.432
985.188	33.135
988.947	97.853
992.704	57.834
996.459	54.578
1000.21	102.606
1003.96	97.704
1007.71	93.319
1011.46	114.205
1015.21	120.111
1018.95	137.094
1022.7	149.001
1026.44	125.023
1030.18	173.066
1033.91	165.156
1037.65	269.543
1041.39	299.814
1045.12	319.071
1048.85	362.311
1052.58	328.487
1056.31	460.832
1060.03	626.198
1063.76	835.011
1067.48	1089.33
1071.2	1396.1
1074.92	1578.7
1078.63	2062.21
1082.35	3420.64
1086.06	7324.39
1089.78	19797.2
1093.49	44300.1
1097.19	30243.5
1100.9	8416.47
1104.61	2763.43
1108.31	1331.45
1112.01	864.339
1115.71	611.351
1119.41	483.522
1123.11	416.935
1126.8	292.601
1130.5	209.75
1134.19	200.879
1137.88	194.723
1141.57	188.247
1145.25	167.545
1148.94	151.158
1152.62	128.055
1156.3	43.611
1159.98	64.343
1163.66	4.499
1167.34	20.964
1171.01	57.298
1174.68	51.591
1178.36	63.011
1182.02	23.426
1185.69	2.951
1189.36	36.838
1193.02	7.043
1196.69	34.724
1200.35	77.053
1204.01	98.489
1207.66	75.866
1211.32	91.841
1214.98	6.497
1218.63	20.393
1222.28	12.891
1225.93	54.195
1229.58	100.768
1233.22	96.329
1236.87	100.235
1240.51	122.277
1244.15	83.438
1247.79	60.275
1251.43	38.375
1255.07	76.238
1258.7	105.891
1262.33	131.8
1265.96	103.452
1269.59	100.978
1273.22	51.415
1276.85	76.799
1280.47	1.824
1284.1	5.376
1287.72	4.589
1291.34	32.356
1294.95	76.224
1298.57	85.999
1302.19	92.623
1305.8	29.98
1309.41	29.257
1313.02	38.406
1316.63	78.586
1320.23	58.432
1323.84	56.288
1327.44	70.018
1331.05	107.303
1334.64	83.767
1338.24	16.103
1341.84	38.422
1345.43	23.517
1349.03	13.569
1352.62	12.934
1356.21	36.946
1359.8	76.485
1363.39	148.192
1366.97	115.892
1370.56	142.498
1374.14	25.163
1377.72	50.679
1381.3	23.981
1384.87	17.961
1388.45	54.453
1392.02	18.911
1395.6	88.141
1399.17	163.952
1402.74	167.321
1406.3	138.583
1409.87	112.136
1413.43	121.239
1417	102.562
1420.56	75.725
1424.12	141.119
1427.67	195.405
1431.23	402.891
1434.79	590.287
1438.34	942.618
1441.89	859.095
1445.44	564.832
1448.99	405.229
1452.54	287.189
1456.08	162.357
1459.62	170.808
1463.17	131.319
1466.71	78.861
1470.24	81.394
1473.78	120.473
1477.32	179.062
1480.85	155.375
1484.38	168.323
1487.91	124.951
1491.44	132.663
1494.97	73.673
1498.5	39.146
1502.02	69.998
1505.54	1.914
1509.07	26.273
1512.59	81.819
1516.1	73.473
1519.62	0
