Measurement: Raman, 514 nm, ccw, Raman Data Processed
Mineral: Dolomite
Rruff sample: R050129
Ideal chemistry: CaMg(CO_3_)_2_
Locality: Black Cloud mine, Leadville, Lake County, Colorado, USA
Source: Dave Bunk Minerals
Description: Aggregate of colorless to white rhombohedra
Measured chemistry: Ca(Mg_0.62_Fe^2+^_0.33_Mn_0.05_)_Î£=1_(CO_3_)_2_ ; CO_2_ estimated by difference
Pin_id: M00287
Orientation: Laser parallel to a* (1 0 0). Fiducial mark perpendicular to laser is parallel to c [0 0 1]
Raman shift (cm-1)	intensity
103.943	0
108.121	24.498
112.297	187.352
116.47	281.051
120.642	103.747
124.811	28.864
128.979	13.443
133.144	53
137.307	113.342
141.469	112.252
145.628	99.803
149.786	163.958
153.941	309.07
158.094	534.3
162.245	1003.79
166.395	2127.04
170.542	2859.02
174.687	2215.99
178.83	1121.65
182.972	570.073
187.111	301.812
191.248	174.97
195.383	120.597
199.516	50.461
203.647	17.332
207.777	25.147
211.904	18.841
216.029	7.337
220.152	55.524
224.273	32.112
228.392	8.904
232.509	12.418
236.625	2.703
240.738	10.156
244.849	9.794
248.958	71.604
253.065	125.416
257.171	163.761
261.274	287.174
265.375	360.382
269.475	540.5
273.572	819.097
277.667	1275.36
281.76	1833.47
285.852	2593.55
289.941	2959.83
294.029	2837.86
298.114	2056.08
302.198	1285.98
306.279	787.03
310.359	530.445
314.436	354.898
318.512	348.439
322.586	267.081
326.657	234.002
330.727	247.215
334.795	240.753
338.861	210.427
342.924	153.69
346.986	123.663
351.046	117.482
355.104	113.58
359.16	126.395
363.214	110.016
367.267	98.761
371.317	64.619
375.365	37.472
379.411	42.825
383.456	49.143
387.498	42.229
391.539	30.5
395.577	5.573
399.614	19.159
403.649	13.325
407.681	2.726
411.712	11.308
415.741	4.795
419.768	9.577
423.793	17.52
427.816	24.421
431.837	7.847
435.857	16.67
439.874	32.875
443.889	7.782
447.903	40.459
451.914	5.965
455.924	41.229
459.932	35.317
463.938	54.441
467.941	79.243
471.943	40.699
475.944	31.132
479.942	47.666
483.938	39.703
487.932	64.49
491.925	48.968
495.915	69.784
499.904	70.194
503.891	70.068
507.876	64.489
511.859	54.339
515.84	86.128
519.819	67.013
523.796	73.574
527.771	99.069
531.745	68.12
535.716	80.005
539.686	68.837
543.654	41.784
547.62	56.627
551.584	79.504
555.546	81.441
559.506	74.034
563.465	79.231
567.421	75.203
571.376	66.998
575.329	57.388
579.279	49.072
583.228	58.933
587.175	44.838
591.121	20.548
595.064	36.305
599.006	47.356
602.945	27.23
606.883	25.689
610.819	35.243
614.753	41.297
618.685	4.945
622.615	14.02
626.544	38.748
630.471	16.954
634.395	1.127
638.318	11.943
642.239	40.843
646.158	2.389
650.076	21.527
653.991	21.529
657.905	39.654
661.817	43.023
665.726	13.302
669.635	11.513
673.541	38.616
677.445	29.149
681.348	53.449
685.248	48.738
689.147	48.022
693.044	106.303
696.94	85.588
700.833	143.129
704.724	176.44
708.614	466.829
712.502	791.097
716.388	1393.36
720.272	2096.62
724.155	1717.88
728.035	952.138
731.914	468.391
735.791	226.65
739.666	106.014
743.539	102.068
747.41	12.137
751.28	9.082
755.148	17.265
759.014	25.447
762.878	36.926
766.74	0.018
770.601	6.073
774.46	26.971
778.316	29.739
782.172	1.37
786.025	3.869
789.876	7.832
793.726	14.286
797.574	10.816
801.42	36.888
805.264	14.761
809.107	20.145
812.947	43.486
816.786	81.293
820.623	89.22
824.459	90.899
828.292	51.704
832.124	67.358
835.954	75.143
839.782	54.919
843.608	39.687
847.433	48.447
851.255	27.198
855.076	7.921
858.895	13.623
862.713	44.316
866.528	29.002
870.342	76.683
874.154	91.36
877.965	35.033
881.773	29.702
885.58	8.369
889.385	37.033
893.188	9.306
896.989	23.671
900.789	57.112
904.587	33.587
908.383	43.253
912.177	42.677
915.97	29.724
919.76	14.77
923.55	21.801
927.337	15.66
931.122	11.159
934.906	12.018
938.688	32.076
942.468	4.002
946.247	19.538
950.023	51.069
953.798	32.599
957.572	38.129
961.343	14.313
965.113	5.765
968.881	32.792
972.647	43.382
976.411	1.99
980.174	10.615
983.935	37.257
987.694	74.924
991.452	66.632
995.207	99.374
998.961	110.134
1002.71	61.918
1006.46	104.384
1010.21	126.228
1013.96	126.99
1017.71	148.924
1021.45	211.896
1025.19	213.887
1028.93	225.925
1032.67	295.005
1036.41	260.108
1040.14	371.238
1043.87	397.5
1047.61	442.054
1051.34	547.325
1055.06	624.608
1058.79	683.915
1062.52	911.246
1066.24	1130.3
1069.96	1601.71
1073.68	2005.18
1077.4	2719.69
1081.11	4723.25
1084.83	10080.3
1088.54	25315.9
1092.25	47871.8
1095.96	31067
1099.67	10211.1
1103.37	3667.6
1107.08	1737.41
1110.78	958.561
1114.48	683.201
1118.18	520.486
1121.88	499.518
1125.57	367.423
1129.27	289.395
1132.96	243.278
1136.65	195.206
1140.34	182.946
1144.02	162.123
1147.71	156.918
1151.39	106.537
1155.07	105.226
1158.76	100.505
1162.43	110.838
1166.11	71.734
1169.79	50.869
1173.46	65.169
1177.13	21.6
1180.8	68.362
1184.47	77.971
1188.14	55.747
1191.8	60.005
1195.46	31.593
1199.13	56.168
1202.79	55.365
1206.45	36.664
1210.1	52.423
1213.76	37.158
1217.41	54.628
1221.06	49.133
1224.71	65.899
1228.36	53.47
1232.01	13.758
1235.65	6.697
1239.3	33.724
1242.94	57.799
1246.58	83.56
1250.22	64.317
1253.85	8.972
1257.49	85.716
1261.12	41.422
1264.75	12.015
1268.38	21.55
1272.01	28.99
1275.64	69.371
1279.27	22.66
1282.89	31.871
1286.51	2.983
1290.13	31.009
1293.75	4.976
1297.37	4.133
1300.98	27.65
1304.6	1.346
1308.21	39.945
1311.82	14.446
1315.43	35.876
1319.03	12.688
1322.64	21.495
1326.24	10.684
1329.85	20.798
1333.44	42.84
1337.04	9.802
1340.64	1.392
1344.24	14.529
1347.83	11.353
1351.42	38.071
1355.01	28.926
1358.6	2.105
1362.19	15.51
1365.78	6.647
1369.36	1.088
1372.94	67.359
1376.53	67.662
1380.1	60.549
1383.68	39.917
1387.26	52.141
1390.83	77.99
1394.41	72.824
1397.98	70.177
1401.55	66.294
1405.12	76.299
1408.68	85.954
1412.25	97.99
1415.81	136.995
1419.37	200.944
1422.93	232.864
1426.49	298.682
1430.05	369.336
1433.6	548.115
1437.15	668.529
1440.71	589.22
1444.26	439.303
1447.81	357.097
1451.35	226.303
1454.9	213.607
1458.44	161.701
1461.98	152.447
1465.53	110.225
1469.07	70.14
1472.6	81.171
1476.14	39.312
1479.67	119.521
1483.21	105.111
1486.74	80.906
1490.27	97.875
1493.8	101.158
1497.32	78.836
1500.85	61.035
1504.37	34.259
1507.89	56.903
1511.41	19.561
1514.93	27.287
