Measurement: Raman, 514 nm, ccw, Raman Data Processed
Mineral: Dolomite
Rruff sample: R050370
Ideal chemistry: CaMg(CO_3_)_2_
Locality: Morro Velho mine, Nova Lima, Minas Gerais, Brazil
Source: Eugene Schlepp
Description: Colorless bladed crystals associated with pyrrhotite and albite
Measured chemistry: (Ca_0.84_Fe_0.16_)_Σ=1_(Mg_0.98_Mn_0.02_)_Σ=1_(CO_3_)_2_ ; CO_2_ estimated by difference
Pin_id: L01076
Orientation: Laser parallel to a* (1 0 0). Fiducial mark perpendicular to laser is parallel to c [0 0 1]
Raman shift (cm-1)	intensity
118.134	0
123.058	4.24231
127.979	0.573242
132.898	71.9368
137.814	126.213
142.728	212.077
147.639	282.185
152.549	539.121
157.455	1137.07
162.359	2899.37
167.261	4562.46
172.161	5385.99
177.058	4064.74
181.952	1750.51
186.845	812.264
191.734	505.336
196.622	345.959
201.507	276.874
206.389	148.059
211.269	146.127
216.147	148.436
221.022	164.539
225.895	191.143
230.765	144.998
235.633	184.047
240.498	245.236
245.361	323.549
250.222	534.936
255.08	759.39
259.936	1188.97
264.789	1682.61
269.64	2603.56
274.488	4125.14
279.334	6667.09
284.178	9493.98
289.019	11688.8
293.857	11431.3
298.693	8695.3
303.527	5009.59
308.358	2652.18
313.187	1529.83
318.013	957.504
322.837	674.63
327.659	596.133
332.478	557.628
337.294	447.719
342.108	364.942
346.92	290.914
351.729	163.118
356.535	101.341
361.34	108.563
366.141	39.781
370.94	49.9871
375.737	96.1599
380.531	76.3108
385.323	67.4287
390.113	20.4971
394.9	71.4453
399.684	42.2693
404.466	7.92993
409.245	8.55591
414.022	53.1641
418.797	28.8894
423.569	53.2957
428.338	7.57227
433.105	68.4766
437.87	18.4287
442.632	79.449
447.391	35.2537
452.149	13.9419
456.903	61.5569
461.655	2.13501
466.405	9.57324
471.152	10.2002
475.897	59.823
480.639	65.0977
485.378	7.53369
490.116	116.316
494.85	41.2434
499.582	51.8689
504.312	68.406
509.039	99.8296
513.764	86.1675
518.486	185.282
523.206	81.4373
527.923	117.726
532.638	171.206
537.35	95.2288
542.059	95.2481
546.766	82.0801
551.471	73.9409
556.173	135.303
560.873	47.0718
565.57	108.503
570.264	98.801
574.957	42.51
579.646	46.9319
584.333	138.72
589.018	105.786
593.7	48.6418
598.379	62.657
603.056	40.0349
607.73	66.9202
612.402	11.0635
617.072	45.8398
621.739	19.4959
626.403	25.1912
631.065	33.5881
635.724	23.0327
640.381	17.4453
645.035	108.788
649.687	120.435
654.336	77.7375
658.983	35.9631
663.627	17.5715
668.268	64.7856
672.907	96.678
677.544	51.9836
682.178	15.0571
686.809	111.743
691.438	164.186
696.065	134.28
700.688	212.435
705.31	252.561
709.929	579.645
714.545	1040.69
719.158	1720.59
723.77	1948.9
728.378	1281.85
732.984	690.257
737.588	343.641
742.189	186.04
746.787	164.23
751.383	116.001
755.976	193.481
760.567	133.42
765.155	40.55
769.741	92.1899
774.324	16.5508
778.904	42.2131
783.482	21.7278
788.058	12.196
792.631	43.99
797.201	41.6052
801.769	23.0081
806.334	12.7918
810.897	10.0283
815.457	73.9094
820.014	40.6423
824.569	20.4439
829.122	77.325
833.671	34.5637
838.219	45.248
842.763	63.8975
847.306	34.5142
851.845	31.0994
856.382	39.6562
860.917	115.099
865.448	44.4875
869.978	85.8508
874.505	175.192
879.029	157.512
883.55	34.8142
888.069	100.098
892.586	63.3708
897.1	5.37061
901.611	23.9841
906.12	55.1946
910.626	81.3677
915.129	25.5615
919.63	52.7456
924.129	23.4136
928.625	78.7986
933.118	64.9302
937.609	3.41846
942.097	46.5371
946.582	47.8252
951.065	39.5938
955.546	43.2808
960.023	57.9661
964.499	35.4263
968.971	2.77661
973.441	42.9783
977.909	47.4963
982.374	37.5249
986.836	56.8777
991.295	149.272
995.753	121.4
1000.21	95.9358
1004.66	97.5205
1009.11	134.865
1013.55	112.87
1018	150.634
1022.44	249.454
1026.88	281.752
1031.32	261.265
1035.75	328.654
1040.18	371.872
1044.61	438.087
1049.04	522.263
1053.46	652.369
1057.88	775.205
1062.3	1004.79
1066.71	1421.4
1071.13	1968.08
1075.54	2702.11
1079.94	4095.23
1084.35	8804.77
1088.75	26706.9
1093.15	52601.2
1097.55	42085.1
1101.94	12604.6
1106.34	3382.14
1110.73	1542.74
1115.11	862.441
1119.5	698.161
1123.88	564.953
1128.26	285.588
1132.63	173.539
1137.01	161.539
1141.38	89.5947
1145.75	67.686
1150.12	67.166
1154.48	146.526
1158.84	119.881
1163.2	12.8589
1167.55	64.2036
1171.91	73.7188
1176.26	12.104
1180.61	38.477
1184.95	114.794
1189.29	89.9941
1193.63	85.313
1197.97	118.322
1202.31	57.8467
1206.64	56.2251
1210.97	42.7124
1215.29	52.0459
1219.62	101.168
1223.94	51.5449
1228.26	5.30762
1232.57	108.647
1236.89	61.9453
1241.2	14.2241
1245.51	52.4824
1249.81	48.7363
1254.12	0.052734
1258.42	113.079
1262.72	95.1426
1267.01	18.2002
1271.3	112.206
1275.59	4.17627
1279.88	111.099
1284.17	12.9819
1288.45	124.819
1292.73	100.572
1297.01	8.79492
1301.28	97.3984
1305.55	72.9336
1309.82	52.6113
1314.09	41.9331
1318.35	39.6108
1322.61	53.7515
1326.87	18.793
1331.13	174.603
1335.38	33.6821
1339.63	61.9492
1343.88	13.8589
1348.12	25.728
1352.37	40.2383
1356.61	35.6528
1360.85	90.7241
1365.08	120.168
1369.31	66.6611
1373.54	53.8911
1377.77	48.1045
1381.99	84.7949
1386.22	70.5483
1390.43	132.579
1394.65	48.5337
1398.87	189.452
1403.08	55.0542
1407.29	225
1411.49	134.615
1415.69	254.523
1419.89	317.771
1424.09	361.224
1428.29	553.032
1432.48	665.691
1436.67	1072.29
1440.86	1178.76
1445.04	851.85
1449.23	536.724
1453.4	328.103
1457.58	301.094
1461.76	235.904
1465.93	118.931
1470.1	144.646
1474.26	184.294
1478.43	155.548
1482.59	74.0894
1486.75	91.5249
1490.9	52.896
1495.06	52.208
1499.21	50.5688
1503.35	93.9385
1507.5	84.2441
1511.64	68.8648
1515.78	68.7124
1519.92	96.8374
1524.05	67.2695
1528.18	49.917
1532.31	80.7651
1536.44	56.5503
1540.56	22.8311
1544.69	87.0122
1548.8	56.2456
1552.92	57.0532
1557.03	62.6958
1561.14	41.2861
1565.25	22.6084
1569.36	4.12646
