Measurement: Raman, 514 nm, ccw, Raman Data Processed
Mineral: Dolomite
Rruff sample: R050272
Ideal chemistry: CaMg(CO_3_)_2_
Locality: Eagle mine, Gillman, Colorado, USA
Source: University of Arizona Mineral Museum
Description: Gray-white rhombohedral crystals
Measured chemistry: (Ca_0.96_Fe^2+^_0.04_)_Σ=1_(Mg_0.63_Mn^2+^_0.21_Fe^2+^_0.16_)_Σ=1_(CO_3_)_2_ ; CO_3_ estimated by difference and stoichiometry
Pin_id: L00059
Orientation: Laser parallel to c* (0 0 1). Fiducial mark perpendicular to laser is parallel to a [1 0 0]
Raman shift (cm-1)	intensity
64.758	0
68.952	26.904
73.144	26.456
77.333	1.514
81.521	41.59
85.706	65.492
89.89	71.437
94.071	70.172
98.251	43.789
102.428	40.964
106.604	53.662
110.777	34.506
114.949	64.751
119.119	87.15
123.286	19.516
127.452	19.5
131.615	6.829
135.777	30.888
139.937	60.303
144.094	108.028
148.25	143.112
152.403	198.799
156.555	286.251
160.705	390.621
164.853	775.595
168.998	1767.6
173.142	2742.47
177.284	1529.18
181.424	578.61
185.562	297.812
189.698	201.817
193.831	129.647
197.963	85.298
202.093	36.769
206.221	38.061
210.347	4.391
214.472	9.065
218.594	2.445
222.714	16.554
226.832	4.295
230.948	19.841
235.063	8.832
239.175	3.596
243.286	25.668
247.394	39.374
251.501	64.578
255.605	85.915
259.708	134.206
263.808	158.737
267.907	207.964
272.004	304.443
276.099	433.557
280.192	590.341
284.283	949.53
288.372	1505.45
292.459	2092.26
296.544	2106.35
300.627	1444.66
304.709	801.122
308.788	486.437
312.865	298.834
316.941	223.205
321.015	201.377
325.086	181.427
329.156	184.319
333.224	234.998
337.29	298.609
341.354	243.114
345.416	164.447
349.476	111.631
353.534	85.723
357.591	79.24
361.645	75.269
365.698	73.408
369.748	51.867
373.797	42.07
377.844	47.234
381.889	37.983
385.932	52.692
389.973	17.604
394.012	33.1
398.049	21.246
402.084	4.894
406.118	0.484
410.15	13.558
414.179	16.846
418.207	12.236
422.233	46.877
426.257	10.742
430.279	13.599
434.299	6.361
438.318	12.035
442.334	6.63
446.349	10.14
450.361	29.578
454.372	5.968
458.381	18.298
462.388	16.588
466.394	2.8
470.397	42.956
474.398	12.057
478.398	26.554
482.396	18.938
486.391	28.051
490.385	23.968
494.377	19.841
498.368	13.667
502.356	27.476
506.342	33.224
510.327	40.934
514.31	51.852
518.291	40.815
522.27	36.522
526.247	29.309
530.222	25.351
534.196	47.237
538.167	67.023
542.137	50.223
546.105	36.371
550.071	30.361
554.035	69.393
557.998	45.488
561.958	41.602
565.917	31.696
569.874	34.644
573.829	49.688
577.782	43.78
581.733	31.509
585.683	43.632
589.63	22.55
593.576	33.737
597.52	11.917
601.462	13.233
605.402	35.521
609.341	10.985
613.277	22.088
617.212	5.284
621.145	10.525
625.076	19.209
629.006	31.229
632.933	4.305
636.859	18.102
640.783	48.451
644.705	9.087
648.625	12.346
652.543	19.193
656.46	5.565
660.375	17.184
664.288	20.396
668.199	72.948
672.108	60.976
676.016	42.122
679.921	48.864
683.825	91.577
687.727	84.18
691.628	117.565
695.526	124.789
699.423	174.291
703.318	256.046
707.211	426.476
711.102	786.94
714.992	1449.36
718.879	2714.76
722.765	3210.17
726.649	1969.58
730.532	911.976
734.412	418.364
738.291	189.75
742.168	114.365
746.043	90.036
749.916	57.395
753.788	12.923
757.658	11.258
761.526	2.418
765.392	11.923
769.257	24.217
773.119	17.889
776.98	5.858
780.839	3.611
784.697	0.61
788.552	0.918
792.406	8.759
796.258	1.54
800.108	27.43
803.957	2.601
807.804	13.611
811.649	5.404
815.492	1.535
819.333	8.544
823.173	2.332
827.011	6.176
830.847	13.973
834.681	0.268
838.514	0.439
842.345	2.881
846.174	1.772
850.001	29.389
853.827	4.989
857.651	11.571
861.473	29.143
865.293	21.705
869.112	25.259
872.928	108.806
876.744	88.762
880.557	93.881
884.369	25.411
888.178	35.849
891.987	10.459
895.793	10.967
899.598	21.448
903.401	6.922
907.202	1.392
911.001	16.854
914.799	4.025
918.595	14.493
922.389	14.962
926.182	3.427
929.972	22.357
933.761	12.417
937.549	8.478
941.334	9.901
945.118	3.794
948.9	3.363
952.681	24.965
956.459	17.365
960.236	21.552
964.012	30.552
967.785	33.335
971.557	17.565
975.327	22.731
979.095	42.878
982.862	54.837
986.627	51.019
990.39	49.489
994.152	50.85
997.912	74.902
1001.67	71.926
1005.43	101.647
1009.18	102.141
1012.93	145.989
1016.68	160.842
1020.43	151.778
1024.18	179.743
1027.93	240.752
1031.67	268.795
1035.42	308.879
1039.16	361.997
1042.9	423.149
1046.63	447.099
1050.37	474.033
1054.11	604.308
1057.84	724.444
1061.57	919.811
1065.3	1218.21
1069.03	1646.63
1072.75	2221.11
1076.47	2832.24
1080.2	4298.8
1083.92	8496.41
1087.64	19103.8
1091.36	46200.5
1095.07	64886.1
1098.79	26187.9
1102.5	7432.7
1106.21	2949.58
1109.92	1569.49
1113.62	1023.44
1117.33	717.568
1121.04	600.832
1124.74	424.908
1128.44	360.109
1132.14	296.401
1135.83	275.607
1139.53	225.863
1143.22	224.493
1146.92	188.81
1150.61	160.712
1154.3	141.152
1157.98	113.905
1161.67	113.339
1165.35	111.762
1169.04	87.477
1172.72	60.126
1176.4	65.841
1180.07	51.532
1183.75	57.325
1187.42	49.438
1191.1	42.436
1194.77	20.462
1198.44	44.442
1202.1	39.709
1205.77	33.346
1209.43	36.182
1213.1	36.689
1216.76	36.048
1220.42	25.878
1224.07	12.571
1227.73	35.242
1231.38	23.151
1235.04	19.858
1238.69	3.577
1242.34	25.333
1245.99	21.096
1249.63	0.947
1253.28	9.76
1256.92	17.471
1260.56	1.827
1264.2	2.875
1267.84	14.563
1271.48	10.221
1275.11	3.167
1278.74	3.421
1282.38	13.971
1286.01	11.498
1289.63	25.98
1293.26	29.407
1296.89	1.216
1300.51	11.099
1304.13	6.624
1307.75	9.404
1311.37	2.766
1314.99	9.898
1318.6	23.989
1322.22	9.035
1325.83	1.035
1329.44	0.99
1333.05	18.902
1336.66	7.773
1340.26	9.599
1343.87	3.619
1347.47	6.877
1351.07	5.818
1354.67	28.473
1358.27	5.206
1361.86	17.794
1365.46	13.368
1369.05	21.931
1372.64	3.474
1376.23	13.962
1379.82	18.727
1383.41	15.199
1386.99	17.629
1390.57	27.043
1394.16	34.138
1397.74	39.357
1401.32	39.42
1404.89	42.697
1408.47	42.513
1412.04	77.189
1415.61	118.205
1419.18	133.771
1422.75	150.127
1426.32	212.646
1429.89	335.545
1433.45	523.275
1437.01	850.069
1440.58	904.432
1444.13	598.977
1447.69	413.432
1451.25	293.829
1454.81	205.241
1458.36	150.917
1461.91	96.93
1465.46	83.732
1469.01	51.488
1472.56	50.25
1476.1	61.995
1479.64	33.913
1483.19	61.031
1486.73	70.278
1490.27	28.532
1493.81	25.872
1497.34	17.37
1500.88	12.096
1504.41	14.994
1507.94	1.346
1511.47	20.382
1515	15.921
1518.53	0.046
