Measurement: Raman, 514 nm, ccw, Raman Data Processed
Mineral: Dolomite
Rruff sample: R050370
Ideal chemistry: CaMg(CO_3_)_2_
Locality: Morro Velho mine, Nova Lima, Minas Gerais, Brazil
Source: Eugene Schlepp
Description: Colorless bladed crystals associated with pyrrhotite and albite
Measured chemistry: (Ca_0.84_Fe_0.16_)_Σ=1_(Mg_0.98_Mn_0.02_)_Σ=1_(CO_3_)_2_ ; CO_2_ estimated by difference
Pin_id: L01076
Orientation: Laser parallel to a* (1 0 0). Fiducial mark perpendicular to laser is parallel to c [0 0 1]
Raman shift (cm-1)	intensity
118.134	0
123.058	30.0964
127.979	24.2176
132.898	72.3685
137.814	89.2236
142.728	125.618
147.639	186.675
152.549	261.385
157.455	511.468
162.359	1060.58
167.261	1742.23
172.161	2127.26
177.058	1440.95
181.952	596.866
186.845	222.234
191.734	118.746
196.622	89.2766
201.507	66.0342
206.389	45.0414
211.269	23.2592
216.147	9.61462
221.022	21.0452
225.895	16.501
230.765	3.97192
235.633	0.53833
240.498	30.9065
245.361	55.55
250.222	91.7225
255.08	53.0424
259.936	140.388
264.789	191.608
269.64	235.946
274.488	349.023
279.334	554.052
284.178	890.276
289.019	1046.36
293.857	1055.73
298.693	810.422
303.527	456.966
308.358	273.775
313.187	145.167
318.013	136.05
322.837	181.738
327.659	244.364
332.478	254.013
337.294	260.68
342.108	221.363
346.92	175.061
351.729	107.553
356.535	40.743
361.34	48.3026
366.141	14.9269
370.94	5.255
375.737	6.83167
380.531	8.29871
385.323	39.0093
390.113	56.8572
394.9	34.8969
399.684	27.0164
404.466	15.6764
409.245	42.3424
414.022	7.03101
418.797	12.2703
423.569	13.6278
428.338	34.9552
433.105	27.488
437.87	48.98
442.632	0.421753
447.391	1.56018
452.149	60.1847
456.903	7.53772
461.655	16.24
466.405	25.1985
471.152	49.5308
475.897	28.8668
480.639	14.2079
485.378	40.5609
490.116	72.9359
494.85	91.3651
499.582	61.7743
504.312	62.1088
509.039	40.5347
513.764	42.9988
518.486	84.6676
523.206	104.465
527.923	85.9742
532.638	59.515
537.35	72.3807
542.059	97.0184
546.766	52.6749
551.471	83.3383
556.173	129.007
560.873	109.375
565.57	130.085
570.264	45.8866
574.957	46.7483
579.646	83.8251
584.333	61.2889
589.018	46.1919
593.7	87.9232
598.379	29.9351
603.056	89.4937
607.73	61.2636
612.402	52.1299
617.072	69.0179
621.739	127.019
626.403	87.365
631.065	3.01172
635.724	65.3701
640.381	89.3971
645.035	50.55
649.687	25.4458
654.336	45.5209
658.983	37.5353
663.627	71.5792
668.268	78.9813
672.907	6.10474
677.544	71.3144
682.178	135.221
686.809	70.305
691.438	150.374
696.065	158.45
700.688	219.893
705.31	282.888
709.929	504.043
714.545	960.005
719.158	1640.41
723.77	1717.62
728.378	1015.45
732.984	447.978
737.588	226.215
742.189	123.454
746.787	102.686
751.383	25.9888
755.976	48.6724
760.567	4.25647
765.155	46.4165
769.741	22.4971
774.324	41.1934
778.904	78.6953
783.482	9.96899
788.058	13.0215
792.631	62.9976
797.201	56.7886
801.769	2.09131
806.334	51.8196
810.897	24.3735
815.457	40.8508
820.014	15.3613
824.569	56.9934
829.122	57.6797
833.671	24.8215
838.219	9.39697
842.763	21.0232
847.306	38.523
851.845	16.0134
856.382	48.4944
860.917	72.967
865.448	0.584473
869.978	56.8396
874.505	66.2585
879.029	100.674
883.55	146.085
888.069	2.50513
892.586	29.8838
897.1	59.0869
901.611	21.1177
906.12	25.5566
910.626	15.666
915.129	18.9253
919.63	26.1377
924.129	18.4761
928.625	23.7607
933.118	35.1773
937.609	44.1736
942.097	48.7214
946.582	21.5725
951.065	14.3494
955.546	22.5195
960.023	25.273
964.499	99.2891
968.971	28.8762
973.441	102.635
977.909	70.918
982.374	65.6081
986.836	16.3413
991.295	69.1196
995.753	44.9448
1000.21	102.939
1004.66	29.9072
1009.11	99.9522
1013.55	95.3523
1018	159.202
1022.44	190.084
1026.88	231.12
1031.32	254.058
1035.75	279.458
1040.18	288.334
1044.61	353.869
1049.04	476.086
1053.46	589.914
1057.88	686.079
1062.3	893.634
1066.71	1319.31
1071.13	1872.33
1075.54	2488.43
1079.94	3835.52
1084.35	8265.3
1088.75	25227.6
1093.15	52012
1097.55	40461.6
1101.94	11380.7
1106.34	3154.39
1110.73	1248.08
1115.11	757.952
1119.5	501.922
1123.88	351.978
1128.26	219.093
1132.63	227.91
1137.01	136.582
1141.38	120.872
1145.75	34.2114
1150.12	79.7214
1154.48	106.193
1158.84	65.7288
1163.2	35.314
1167.55	22.9509
1171.91	18.0142
1176.26	0.310059
1180.61	12.0789
1184.95	19.937
1189.29	17.2375
1193.63	57.6301
1197.97	13.5552
1202.31	28.4421
1206.64	4.73486
1210.97	39.093
1215.29	21.3616
1219.62	73.3528
1223.94	14.6074
1228.26	15.635
1232.57	36.3984
1236.89	31.3008
1241.2	9.38208
1245.51	23.2776
1249.81	41.4873
1254.12	28.4275
1258.42	32.387
1262.72	56.2422
1267.01	37.9983
1271.3	46.7153
1275.59	3.41357
1279.88	91.2974
1284.17	58.5774
1288.45	77.2061
1292.73	29.8081
1297.01	16.2402
1301.28	59.9197
1305.55	44.4128
1309.82	12.2754
1314.09	39.877
1318.35	82.1008
1322.61	8.09106
1326.87	11.8301
1331.13	48.9895
1335.38	87.9636
1339.63	40.3042
1343.88	48.3196
1348.12	79.2764
1352.37	4.88306
1356.61	57.8835
1360.85	86.5962
1365.08	70.2495
1369.31	15.79
1373.54	50.3076
1377.77	69.7654
1381.99	55.4707
1386.22	47.7532
1390.43	75.3557
1394.65	100.609
1398.87	98.7554
1403.08	116.747
1407.29	33.1802
1411.49	57.0608
1415.69	141.021
1419.89	91.9001
1424.09	183.659
1428.29	235.407
1432.48	339.08
1436.67	547.285
1440.86	663.663
1445.04	396.266
1449.23	304.216
1453.4	166.572
1457.58	153.96
1461.76	155.663
1465.93	129.165
1470.1	145.273
1474.26	108.356
1478.43	38.084
1482.59	98.594
1486.75	37.262
1490.9	61.6013
1495.06	62.9104
1499.21	68.1338
1503.35	45.2751
1507.5	39.4853
1511.64	85.7151
1515.78	46.8401
1519.92	53.8381
1524.05	32.9683
1528.18	84.4275
1532.31	3.88452
1536.44	39.6006
1540.56	17.0862
1544.69	54.4009
1548.8	1.77393
1552.92	41.0874
1557.03	0.940918
1561.14	61.3318
1565.25	63.5093
1569.36	51.1685
