Measurement: Raman, 514 nm, ccw, Raman Data Processed
Mineral: Dolomite
Rruff sample: R050129
Ideal chemistry: CaMg(CO_3_)_2_
Locality: Black Cloud mine, Leadville, Lake County, Colorado, USA
Source: Dave Bunk Minerals
Description: Aggregate of colorless to white rhombohedra
Measured chemistry: Ca(Mg_0.62_Fe^2+^_0.33_Mn_0.05_)_Î£=1_(CO_3_)_2_ ; CO_2_ estimated by difference
Pin_id: M00233
Orientation: Laser parallel to -c* (0 0 -1). Fiducial mark perpendicular to laser is parallel to [1 1 0]
Raman shift (cm-1)	intensity
94.188	0
98.37	10.042
102.55	34.828
106.729	135.249
110.905	192.032
115.079	173.125
119.251	86.453
123.422	45.034
127.59	61.939
131.756	60.142
135.92	71.716
140.082	92.887
144.242	80.876
148.4	123.75
152.556	192.107
156.71	235.78
160.862	451.167
165.012	906.179
169.16	2198.25
173.306	4166.33
177.449	2382.98
181.591	860.923
185.731	424.837
189.869	205.87
194.005	184.049
198.139	134.112
202.271	21.914
206.4	57.342
210.528	13.771
214.654	0.492
218.778	33.475
222.9	22.962
227.019	25.477
231.137	8.305
235.253	6.174
239.367	3.724
243.479	26.276
247.589	32.764
251.697	35.31
255.803	53.989
259.906	93.688
264.008	155.329
268.108	246.584
272.206	370.617
276.302	540.268
280.396	940.565
284.488	1428.13
288.578	2229.24
292.666	3279.99
296.753	3831.35
300.837	2602.97
304.919	1397.48
308.999	818.129
313.077	574.663
317.154	399.583
321.228	293.135
325.3	300.318
329.371	325.277
333.439	409.339
337.506	447.86
341.57	350.82
345.633	306.938
349.693	206.146
353.752	174.315
357.809	166.42
361.863	176.658
365.916	141.734
369.967	154.337
374.016	129.975
378.063	140.654
382.108	125.569
386.151	126.584
390.192	61.391
394.231	107.944
398.269	49.303
402.304	75.411
406.337	28.838
410.369	77.844
414.398	42.067
418.426	85.738
422.452	35.001
426.475	3.24
430.497	47.139
434.517	30.43
438.535	67.685
442.551	41.588
446.565	74.039
450.577	87.69
454.588	80.085
458.596	40.624
462.602	48.104
466.607	72.239
470.61	43.056
474.61	52.932
478.609	59.344
482.606	107.268
486.601	86.05
490.594	70.698
494.585	71.029
498.575	48.461
502.562	105.674
506.548	62.902
510.531	55.642
514.513	91.795
518.493	74.918
522.47	108.682
526.446	34.374
530.421	97.147
534.393	68.54
538.363	91.436
542.331	89.104
546.298	46.711
550.263	95.046
554.225	82.783
558.186	65.356
562.145	54.973
566.103	100.616
570.058	82.383
574.011	85.802
577.963	93.197
581.912	76.779
585.86	67.858
589.806	41.471
593.75	23.057
597.692	14.982
601.632	18.317
605.571	41.938
609.507	42.722
613.442	15.095
617.375	7.865
621.306	68.682
625.235	22.503
629.162	43.268
633.087	2.888
637.011	35.733
640.932	2.814
644.852	28.064
648.77	47.69
652.686	4.155
656.6	10.164
660.513	56.202
664.423	36.261
668.332	21.528
672.239	76.762
676.144	46.136
680.047	49.18
683.948	26.324
687.848	55.449
691.746	90.664
695.641	144.265
699.535	147.712
703.427	164.785
707.318	284.862
711.206	409.039
715.093	921.911
718.978	1805.04
722.861	2470.18
726.742	1496.14
730.621	689.269
734.499	335.404
738.374	172.917
742.248	143.421
746.12	95.48
749.99	4.543
753.859	15.498
757.725	24.546
761.59	18.673
765.453	13.199
769.314	23.615
773.174	0.979
777.031	7.883
780.887	46.765
784.741	33.744
788.593	15.134
792.443	17.835
796.291	35.227
800.138	31.734
803.983	11.313
807.826	14.515
811.667	14.278
815.507	44.116
819.344	2.292
823.18	37.795
827.014	0.566
830.847	11.709
834.677	16.026
838.506	21.628
842.333	32.285
846.158	27.935
849.981	15.458
853.803	56.107
857.623	2.675
861.441	12.248
865.257	54.828
869.071	29.404
872.884	94.985
876.695	85.576
880.504	150.182
884.311	66.802
888.117	22.436
891.92	3.129
895.722	29.727
899.523	5.402
903.321	23.029
907.118	21.743
910.913	18.724
914.706	53.232
918.497	0.016
922.287	8.908
926.075	15.691
929.861	28.556
933.645	40.455
937.428	36.184
941.208	9.228
944.987	2.232
948.765	21.333
952.54	33.349
956.314	49.755
960.086	55.188
963.856	50.008
967.625	39.202
971.392	15.003
975.157	35.239
978.92	58.265
982.682	77.455
986.441	84.762
990.199	71.128
993.956	71.643
997.71	45.055
1001.46	61.188
1005.21	43.587
1008.96	161.278
1012.71	134.184
1016.46	127.158
1020.2	121.506
1023.94	116.671
1027.68	209.892
1031.42	268.165
1035.16	260.493
1038.9	317.874
1042.63	319.891
1046.36	376.348
1050.09	474.93
1053.82	588.579
1057.55	725.286
1061.27	840.023
1065	1085.9
1068.72	1311.83
1072.44	1828.48
1076.16	2391.53
1079.87	3382.66
1083.59	5755.88
1087.3	11838.2
1091.01	30891.4
1094.72	52265.4
1098.43	25230
1102.14	7584.97
1105.84	3029.63
1109.55	1598.09
1113.25	992.896
1116.94	630.754
1120.64	482.662
1124.34	402.639
1128.03	306.673
1131.73	325.783
1135.42	251.949
1139.11	215.224
1142.8	150.9
1146.48	176.842
1150.16	150.253
1153.85	118.074
1157.53	109.991
1161.21	122.188
1164.88	64.676
1168.56	62.813
1172.23	90.485
1175.91	70.055
1179.58	21.642
1183.25	84.285
1186.91	109.9
1190.58	74.733
1194.24	91.574
1197.91	72.014
1201.57	88.518
1205.23	25.427
1208.88	52.635
1212.54	46.015
1216.19	116.676
1219.85	88.317
1223.5	78.96
1227.14	95.612
1230.79	38.915
1234.44	35.218
1238.08	46.044
1241.72	41.062
1245.37	45.76
1249	67.451
1252.64	73.134
1256.28	98.815
1259.91	56.487
1263.54	37.16
1267.17	61.792
1270.8	87.273
1274.43	14.662
1278.06	28
1281.68	72.325
1285.3	67.618
1288.92	63.85
1292.54	55.013
1296.16	11.931
1299.78	15.966
1303.39	32.115
1307	5.507
1310.61	36.992
1314.22	50.415
1317.83	32.762
1321.44	65.648
1325.04	38.273
1328.64	57.441
1332.24	8.449
1335.85	8.596
1339.44	0.716
1343.04	2.815
1346.63	16.036
1350.23	53.84
1353.82	106.585
1357.41	46.295
1360.99	60.002
1364.58	57.729
1368.17	21.494
1371.75	47.65
1375.33	31.398
1378.91	15.866
1382.49	92.124
1386.07	83.901
1389.64	116.181
1393.21	115.254
1396.79	94.284
1400.36	122.28
1403.92	114.097
1407.49	65.706
1411.06	105.285
1414.62	48.15
1418.18	105.106
1421.74	244.102
1425.3	212.013
1428.86	366.193
1432.42	457.368
1435.97	689.364
1439.52	869.699
1443.07	595.886
1446.62	381.977
1450.17	209.622
1453.72	155.707
1457.26	187.125
1460.81	151.129
1464.35	153.648
1467.89	126.58
1471.42	170.723
1474.96	116.56
1478.49	69.531
1482.03	93.722
1485.56	12.899
1489.09	17.595
1492.62	87.706
1496.15	31.45
1499.67	41.131
1503.2	42.138
1506.72	96.815
1510.24	87.087
1513.76	81.677
1517.28	82.461
