Measurement: Raman, 514 nm, ccw, Raman Data Processed
Mineral: Dravite
Rruff sample: R060286
Ideal chemistry: NaMg_3_Al_6_(Si_6_O_18_)(BO_3_)_3_(OH)_3_OH
Locality: Badakshan Province, Afghanistan
Source: Herb Obodda
Description: Brown prismatic tourmaline crystal
Measured chemistry: (Na_0.48_Ca_0.38_[box]_0.14_)_Σ=1_(Mg_2.90_Ti_0.10_)_Σ=3_Al_6.00_(B_1.00_O_3_)_3_(Si_5.56_B_0.44_)_Σ=6_O_18_(OH)_4_; (OH) assumed from stoichiometry; B estimated by difference and charge balance
Pin_id: L01259
Orientation: Laser parallel to c* (0 0 1). Fiducial mark perpendicular to laser is parallel to a [1 0 0]
Raman shift (cm-1)	intensity
118.134	0
123.058	1098.02
127.979	1844.45
132.898	2880.82
137.814	2793.91
142.728	2935.4
147.639	2911.7
152.549	2038.31
157.455	705.777
162.359	83.0977
167.261	127.783
172.161	71.4268
177.058	306.221
181.952	275.433
186.845	1696.78
191.734	2904.05
196.622	4262.83
201.507	6792.24
206.389	11178.6
211.269	18122.3
216.147	19438.2
221.022	14080.6
225.895	9265.93
230.765	8321.06
235.633	10123
240.498	12338.6
245.361	10532.8
250.222	5510.41
255.08	1848.5
259.936	1146.1
264.789	952.287
269.64	2212.56
274.488	3107.48
279.334	2516.26
284.178	1160.5
289.019	464.461
293.857	599.84
298.693	617.373
303.527	76.9199
308.358	546.648
313.187	20.4902
318.013	1174.96
322.837	3116.35
327.659	6121.87
332.478	9686.1
337.294	12434
342.108	12843.6
346.92	11683.7
351.729	12544.4
356.535	16344.6
361.34	22877.2
366.141	31815.9
370.94	38404.2
375.737	34880.1
380.531	24113.4
385.323	15594.2
390.113	10667.3
394.9	8165.72
399.684	6704.36
404.466	5908.18
409.245	5032.11
414.022	3255.35
418.797	2035.89
423.569	1300.74
428.338	1031.92
433.105	1102.47
437.87	1395.42
442.632	1639.12
447.391	1893.05
452.149	1625.56
456.903	1607.63
461.655	2066.24
466.405	3527.74
471.152	5949.62
475.897	8951.59
480.639	10644.4
485.378	10821.9
490.116	10450
494.85	9710.86
499.582	8913.26
504.312	7142.2
509.039	5152.65
513.764	3856.53
518.486	3669.79
523.206	4854.37
527.923	6370.2
532.638	7286.24
537.35	6866.41
542.059	5722.66
546.766	5182.92
551.471	4695.15
556.173	3905.25
560.873	3032.19
565.57	1968.88
570.264	1541.26
574.957	628.287
579.646	154.617
584.333	468.541
589.018	570.215
593.7	526.688
598.379	474.566
603.056	213.57
607.73	100.834
612.402	471.703
617.072	674.977
621.739	1475.34
626.403	2535.58
631.065	3082.53
635.724	2654.09
640.381	1796.16
645.035	1977.69
649.687	2591.58
654.336	4097.78
658.983	5737.2
663.627	7427.78
668.268	8510.45
672.907	8238.13
677.544	7519.75
682.178	6791.25
686.809	6836.56
691.438	7776.6
696.065	9591.33
700.688	12380.7
705.31	16593.5
709.929	21799.9
714.545	29676
719.158	37705.4
723.77	40160.7
728.378	33092.2
732.984	24987.6
737.588	19975.9
742.189	18967.5
746.787	20969.1
751.383	23771.2
755.976	27481.8
760.567	29952.4
765.155	29572
769.741	27716.4
774.324	26436.1
778.904	24662.1
783.482	23855.4
788.058	24166
792.631	24860.8
797.201	24133.9
801.769	22047.2
806.334	20282.7
810.897	20281.5
815.457	20565.4
820.014	19739.5
824.569	16658.8
829.122	12051.1
833.671	8007.58
838.219	4933.12
842.763	2560.73
847.306	1142.4
851.845	209.975
856.382	136.027
860.917	488.338
865.448	519.963
869.978	436.484
874.505	280.504
879.029	157.537
883.55	73.0859
888.069	225.109
892.586	631.332
897.1	842.256
901.611	1294.15
906.12	1669.33
910.626	2074.93
915.129	2231.45
919.63	2905.28
924.129	3325.27
928.625	3460.52
933.118	3712.34
937.609	4261.65
942.097	4897
946.582	5320.06
951.065	5812.6
955.546	6360.62
960.023	6943.15
964.499	7881.2
968.971	8585.81
973.441	9424.01
977.909	10320.8
982.374	10784.3
986.836	10201.2
991.295	9183.13
995.753	7962.67
1000.21	6981.34
1004.66	6512.49
1009.11	6703.75
1013.55	7485.27
1018	8774.02
1022.44	10396.5
1026.88	11929.9
1031.32	13931.9
1035.75	15739
1040.18	18431.7
1044.61	20515.4
1049.04	21748.1
1053.46	22256.4
1057.88	23576.7
1062.3	25480
1066.71	27557.2
1071.13	27709.7
1075.54	24531
1079.94	20611.7
1084.35	16338.8
1088.75	12744.1
1093.15	9904.47
1097.55	7642.57
1101.94	6499.47
1106.34	5626.18
1110.73	4794.73
1115.11	4840.12
1119.5	5365.54
1123.88	5835.02
1128.26	5831.89
1132.63	5006.9
1137.01	3710.01
1141.38	2107.79
1145.75	1058.84
1150.12	644.301
1154.48	335.434
1158.84	217.863
1163.2	113.346
1167.55	123.26
1171.91	63.2852
1176.26	103.043
1180.61	228.406
1184.95	231.611
1189.29	277.318
1193.63	120.863
1197.97	181.846
1202.31	5.87695
1206.64	34.5586
1210.97	282.373
1215.29	653.143
1219.62	1153.75
1223.94	1436.2
1228.26	1610.5
1232.57	1801.64
1236.89	1873.63
1241.2	2163.47
1245.51	2232.16
1249.81	2516.7
1254.12	2301.06
1258.42	2105.74
1262.72	2253.06
1267.01	2305.55
1271.3	2257.62
1275.59	2132.23
1279.88	1885.35
1284.17	1657.94
1288.45	1759
1292.73	1707.58
1297.01	1662.54
1301.28	1346.37
1305.55	1364.32
1309.82	1579.48
1314.09	1298.2
1318.35	1363.92
1322.61	1325.44
1326.87	1028.24
1331.13	772.652
1335.38	767.209
1339.63	691.398
1343.88	602.086
1348.12	638.691
1352.37	770.229
1356.61	635.699
1360.85	703.123
1365.08	708.51
1369.31	930.881
1373.54	888.26
1377.77	976.51
1381.99	1235.25
1386.22	927.516
1390.43	713.115
1394.65	781.625
1398.87	602.025
1403.08	482.322
1407.29	246.484
1411.49	182.482
1415.69	222.002
1419.89	304.963
1424.09	64.2148
1428.29	4.79883
1432.48	159.4
1436.67	44.127
1440.86	99.9375
1445.04	159.287
1449.23	195.205
1453.4	164.004
1457.58	246.779
1461.76	52.832
1465.93	59.3203
1470.1	167.467
1474.26	381.115
1478.43	372.047
1482.59	479.434
1486.75	615.488
1490.9	914.34
1495.06	1015.65
1499.21	788.332
1503.35	1061.25
1507.5	1120.18
1511.64	1104.42
1515.78	1048.5
1519.92	1390.38
1524.05	1213.53
1528.18	1061.16
1532.31	1084.59
1536.44	923.766
1540.56	920.504
1544.69	624.537
1548.8	422.381
1552.92	389.141
1557.03	428.699
1561.14	400.045
1565.25	112.561
1569.36	151.865
