Measurement: Raman, 514 nm, ccw, Raman Data Processed
Mineral: Dravite
Rruff sample: R040088
Ideal chemistry: NaMg_3_Al_6_(Si_6_O_18_)(BO_3_)_3_(OH)_3_OH
Locality: Yinnietharra Station, Pilbara, Western Australia, Australia
Source: University of Arizona Mineral Museum
Description: Brown short prismatic crystal
Measured chemistry: (Na_0.88_Ca_0.06_[box]_0.06_)(Mg_0.88_Al_0.10_Ti_0.04_Fe_0.02_)_3_Al_6.00_(B_1_O_3_)_3_Si_6.00_O_18_((OH)_0.98_F_0.02_)_4_
Pin_id: M00003
Orientation: Laser parallel to c* (0 0 1). Fiducial mark perpendicular to laser is parallel to a [1 0 0]
Raman shift (cm-1)	intensity
178.664	0
182.803	14.706
186.94	302.575
191.076	412.852
195.209	409.256
199.34	535.814
203.47	861.605
207.597	1595.84
211.722	2644.73
215.846	3661.6
219.967	3725.17
224.087	2749.36
228.204	2047.85
232.32	1808.59
236.434	2095.04
240.545	2478.38
244.655	2604.6
248.763	2211.31
252.869	1486.65
256.973	922.532
261.075	595.268
265.175	599.098
269.273	713.33
273.369	951.576
277.463	945.443
281.556	626.562
285.646	327.588
289.734	124.294
293.821	20.445
297.905	288.658
301.988	287.707
306.069	93.43
310.147	298.552
314.224	341.524
318.299	145.002
322.372	44.033
326.443	300.015
330.512	785.42
334.579	1100.3
338.645	1503.06
342.708	1870.53
346.769	1936.59
350.829	2056.75
354.887	2361.71
358.942	3059.1
362.996	3630.69
367.048	4649.31
371.098	6287
375.146	8003.68
379.192	7618.98
383.236	5832.87
387.279	4415.55
391.319	3617.41
395.358	3013.63
399.394	2366.51
403.429	1784.32
407.462	1623.39
411.493	1345.98
415.522	1207.86
419.549	881.129
423.575	862.12
427.598	754.159
431.619	842.098
435.639	815.145
439.657	721.983
443.673	650.219
447.687	735.726
451.699	613.968
455.709	524.776
459.717	370.515
463.724	414.792
467.728	481.397
471.731	458.693
475.732	508.554
479.731	707.055
483.728	836.468
487.723	1257.49
491.716	1473.28
495.708	1498.74
499.697	1557.66
503.685	1334.2
507.671	1060.13
511.655	699.405
515.637	535.026
519.617	507.004
523.596	742.351
527.572	1029.09
531.547	1565.22
535.52	1933.78
539.491	1924.78
543.46	1633.25
547.427	1695.23
551.393	1804.92
555.356	1815.69
559.318	1515.7
563.278	1217.01
567.236	891.66
571.192	703.703
575.147	475.044
579.099	204.617
583.05	109.337
586.999	197.961
590.946	55.357
594.891	34.434
598.834	136.841
602.776	0.565
606.715	10.329
610.653	63.954
614.589	218.42
618.523	186.654
622.456	243.509
626.386	415.089
630.315	555.954
634.242	525.43
638.167	296.338
642.09	25.287
646.012	111.142
649.931	61.255
653.849	113.005
657.765	594.72
661.679	928.887
665.592	1119.49
669.502	942.532
673.411	816.989
677.318	650.855
681.223	636.12
685.126	627.771
689.028	626.798
692.927	882.189
696.825	1002.93
700.721	1389.34
704.616	1968.75
708.508	2807.47
712.399	3881.73
716.288	5033.08
720.175	7017.12
724.06	9949.73
727.944	11447.7
731.825	8982.8
735.705	6331.9
739.584	5251.8
743.46	4891.1
747.334	5275.12
751.207	5856.15
755.078	6483.99
758.947	7611.31
762.815	8749.36
766.68	9597.28
770.544	10035
774.406	10232.6
778.267	11969.9
782.125	14677.1
785.982	17644
789.837	20070.6
793.69	19556.9
797.542	17042.9
801.391	14533.6
805.239	13192.7
809.085	14147.2
812.93	15551.8
816.772	15886
820.613	13869.8
824.452	10303.2
828.29	7056.15
832.125	5158.68
835.959	4197.75
839.791	3326.36
843.621	2557.49
847.45	1527.14
851.277	758.763
855.102	255.92
858.925	25.092
862.746	170.292
866.566	113.349
870.384	180.34
874.2	218.431
878.015	156.683
881.828	144.934
885.639	60.015
889.448	20.771
893.256	133.095
897.061	201.047
900.865	291.229
904.668	437.759
908.468	635.756
912.267	811.31
916.064	888.472
919.86	974.233
923.653	1042.56
927.445	1187.38
931.236	1425.65
935.024	1576.34
938.811	1811.45
942.596	2004.97
946.379	2140.92
950.161	2309.29
953.94	2541.13
957.719	2545.5
961.495	2737.33
965.27	2733.61
969.043	2766.32
972.814	2868.49
976.583	2992.1
980.351	2902.17
984.117	3097.71
987.882	3032.71
991.644	2995.19
995.405	2920.02
999.165	2881.59
1002.92	2821.53
1006.68	2926.59
1010.43	2913.78
1014.18	2910.81
1017.93	2951.84
1021.68	3196.89
1025.43	3514.92
1029.18	3729.47
1032.92	3972.44
1036.66	4384.7
1040.4	4729.91
1044.14	5190.52
1047.88	5804.63
1051.62	6092.99
1055.35	6439.22
1059.08	6568.64
1062.81	6751.41
1066.54	7198.58
1070.27	7402.67
1073.99	6822.74
1077.72	5617.25
1081.44	4668.88
1085.16	3800.37
1088.88	3011.75
1092.59	2465.02
1096.31	2175.2
1100.02	1965.29
1103.73	1758.3
1107.44	1718.24
1111.15	1689.11
1114.86	1516.92
1118.57	1392.68
1122.27	1506.4
1125.97	983.093
1129.67	662.765
1133.37	498.425
1137.07	382.087
1140.76	372.771
1144.45	135.517
1148.15	225.366
1151.84	182.281
1155.53	204.319
1159.21	191.61
1162.9	222.509
1166.58	245.289
1170.26	284.942
1173.94	258.51
1177.62	261.036
1181.3	108.354
1184.97	162.395
1188.65	50.071
1192.32	5.704
1195.99	73.374
1199.66	66.777
1203.33	52.796
1206.99	64.476
1210.65	127.349
1214.32	98.575
1217.98	83.097
1221.64	30.164
1225.29	106.333
1228.95	166.504
1232.6	97.694
1236.26	194.896
1239.91	247.104
1243.56	305.305
1247.2	330.492
1250.85	500.675
1254.49	526.959
1258.13	447.984
1261.78	601.71
1265.41	504.046
1269.05	451.766
1272.69	577.8
1276.32	591.347
1279.95	608.858
1283.59	491.362
1287.21	452.451
1290.84	430.453
1294.47	364.538
1298.09	237.475
1301.72	282.589
1305.34	241.241
1308.96	171.176
1312.58	238.969
1316.19	152.818
1319.81	205.601
1323.42	212.104
1327.03	355.089
1330.64	313.401
1334.25	263.725
1337.86	261.65
1341.46	302.955
1345.07	265.512
1348.67	309.693
1352.27	354.127
1355.87	412.963
1359.46	392.797
1363.06	304.761
1366.65	310.067
1370.25	218.312
1373.84	237.242
1377.43	317.516
1381.02	307.191
1384.6	404.893
1388.18	349.853
1391.77	554.154
1395.35	449.38
1398.93	451.243
1402.51	365.152
1406.08	281.09
1409.66	213.029
1413.23	146.863
1416.8	110.374
1420.37	239.487
1423.94	191.957
1427.51	198.759
1431.08	159.977
1434.64	164.71
1438.2	87.135
1441.76	20.364
1445.32	16.08
1448.88	108.458
1452.43	72.876
1455.99	54.2
1459.54	3.816
1463.09	73.206
1466.64	110.3
1470.19	153.403
1473.74	225.044
1477.28	192.641
1480.83	533.077
1484.37	442.695
1487.91	156.485
1491.45	169.161
1494.98	145.912
1498.52	125.368
1502.05	134.913
1505.59	227.494
1509.12	129.98
1512.65	207.179
1516.17	65.57
1519.7	196.841
1523.23	73.027
1526.75	76.243
1530.27	2.572
1533.79	0
