Measurement: Raman, 514 nm, ccw, Raman Data Processed
Mineral: Dravite
Rruff sample: R060280
Ideal chemistry: NaMg_3_Al_6_(Si_6_O_18_)(BO_3_)_3_(OH)_3_OH
Locality: near Merelani, Tanzania
Source: Herb Obodda
Description: Green fragment
Measured chemistry: (Na_0.45_Ca_0.40_[box]_0.15_)(Mg_0.89_Al_0.07_Ti_0.04_)_3_Al_6_(BO_3_)_3_(Si_0.93_B_0.07_)_6_O_18_((OH)_0.95_O_0.05_)_4_
Pin_id: L00930
Orientation: Laser parallel to c* (0 0 1). Fiducial mark perpendicular to laser is parallel to -b [0 -1 0]
Raman shift (cm-1)	intensity
168.486	0
173.385	393.152
178.282	7.19336
183.176	140.969
188.067	803.102
192.956	1706.91
197.843	2710.96
202.727	4912.18
207.609	6387.83
212.489	9267.33
217.366	9517.34
222.24	6711.68
227.112	4298.93
231.982	4589.17
236.849	5347.18
241.714	6282.21
246.577	4913
251.437	2352.46
256.294	1036.89
261.149	870.643
266.002	1051.82
270.852	1985.58
275.7	2221.97
280.545	1457.85
285.388	411.867
290.229	82.4824
295.067	324.32
299.902	279.935
304.735	12.2598
309.566	376.502
314.394	224.666
319.22	968.773
324.043	2456.77
328.864	4340.69
333.682	6813.68
338.498	8512.22
343.311	7926.86
348.122	6813.32
352.931	7630.22
357.737	11295.3
362.54	17212.2
367.341	23169.4
372.14	25951.9
376.936	22136.3
381.73	15045.7
386.521	9970.95
391.31	7072.27
396.096	5163.66
400.88	4188.1
405.661	3361.56
410.44	2633.99
415.216	1626.36
419.99	987.609
424.761	1294.71
429.53	1988.62
434.297	2872.77
439.061	2596.64
443.822	2878.73
448.581	2170.82
453.337	1715.79
458.091	1102.18
462.843	497.941
467.592	312.656
472.338	1024.47
477.082	2089.81
481.824	2568.19
486.563	3473.52
491.3	4078.76
496.034	5114.88
500.765	6243.94
505.494	6832.91
510.221	5477.11
514.945	4290.18
519.666	4131.85
524.385	5429.08
529.102	8130.85
533.816	10132.2
538.527	10587
543.236	8752.35
547.943	7370.11
552.647	6049.28
557.348	5292.81
562.047	4797.66
566.744	4292.81
571.438	3484.2
576.129	2423.82
580.818	1115.64
585.504	340.617
590.188	263.637
594.87	256.641
599.549	192.391
604.225	238.441
608.899	58.7812
613.57	151.266
618.239	679.551
622.905	961.863
627.569	1617.91
632.23	1594.61
636.889	602.871
641.545	248.656
646.198	220.383
650.849	541.176
655.498	1469.87
660.144	2440.86
664.787	2620.08
669.428	2486.5
674.067	1906.04
678.703	1297.67
683.336	1167.32
687.967	1680.95
692.595	2136.5
697.221	3334.91
701.844	5236.15
706.465	7698.14
711.083	10957.9
715.698	15753.2
720.311	22200.2
724.922	27501.2
729.53	25965.1
734.135	19447.8
738.738	14433.5
743.338	12992.8
747.936	13746.7
752.531	16002.4
757.124	18277.8
761.714	19260.3
766.302	18346.4
770.887	16899.5
775.469	16235.1
780.049	15872.3
784.626	16204.1
789.201	17101.7
793.773	18049.4
798.343	15621
802.91	15053.2
807.475	17270.9
812.037	21369
816.596	24829.7
821.153	24857.8
825.707	21337.3
830.259	16172.2
834.808	11571.4
839.355	7888
843.899	4629.86
848.441	2760
852.98	1434.39
857.516	602
862.05	264.752
866.581	26.4238
871.11	227.285
875.636	287.164
880.159	160.678
884.68	243.088
889.199	42.2656
893.714	365.103
898.228	529.82
902.738	824.893
907.246	949.41
911.752	1403.09
916.255	1623.18
920.755	1683.01
925.253	1715
929.748	1875.69
934.241	1977.04
938.731	2162.09
943.218	2428.78
947.703	2694.38
952.186	2974.31
956.665	3251.95
961.142	4052.75
965.617	4202.69
970.089	4441.8
974.558	4740.06
979.025	5116.49
983.489	5097.11
987.951	4670.91
992.41	4371.9
996.866	4573.03
1001.32	4981.83
1005.77	4929.5
1010.22	4800.78
1014.67	5829.69
1019.11	6702.82
1023.55	8349.02
1027.99	9473.82
1032.42	10542.6
1036.86	11821.9
1041.29	13628.4
1045.72	15329.7
1050.14	16484.7
1054.56	17266.1
1058.98	18280.7
1063.4	19960
1067.82	21632.9
1072.23	21471.2
1076.64	19681
1081.05	16984.1
1085.45	13910.5
1089.85	11242
1094.25	9000.19
1098.65	7193.01
1103.04	6062.49
1107.43	5165.66
1111.82	4725.5
1116.21	4548.61
1120.59	3811.31
1124.97	3054.29
1129.35	2124.05
1133.73	1277.94
1138.1	953.135
1142.47	424.81
1146.84	360.129
1151.21	64.0078
1155.57	8.20703
1159.93	7.49414
1164.29	2.2832
1168.64	5.89062
1172.99	86.4531
1177.34	13.9395
1181.69	85.7285
1186.04	25.623
1190.38	157.412
1194.72	154.566
1199.05	90.0898
1203.39	101.959
1207.72	107.916
1212.05	137.129
1216.37	382.902
1220.7	386.277
1225.02	558.43
1229.34	853.365
1233.65	1107.24
1237.97	1481.98
1242.28	1316.55
1246.59	1455.1
1250.89	1578.91
1255.19	1349.66
1259.49	1461.68
1263.79	1553.52
1268.09	1977.17
1272.38	1895.62
1276.67	1719.82
1280.95	1535.72
1285.24	1656.96
1289.52	1551.97
1293.8	1504.02
1298.08	1430.57
1302.35	1221.35
1306.62	1184.94
1310.89	1145.32
1315.15	1133.42
1319.42	1108.94
1323.68	914.691
1327.94	1050.38
1332.19	480.801
1336.44	560.039
1340.69	627.102
1344.94	568.344
1349.19	409.551
1353.43	690.781
1357.67	329.316
1361.9	506.191
1366.14	437.523
1370.37	767
1374.6	563.211
1378.83	926.742
1383.05	636.391
1387.27	703.172
1391.49	568.113
1395.7	406.227
1399.92	580.539
1404.13	336.957
1408.34	258.144
1412.54	227.012
1416.74	237.055
1420.94	95.4492
1425.14	38.6406
1429.34	193.449
1433.53	1114.76
1437.72	1279.61
1441.9	646.523
1446.09	532.125
1450.27	1501.8
1454.45	836.086
1458.63	891.117
1462.8	665.918
1466.97	426.027
1471.14	222.156
1475.31	44.293
1479.47	196.758
1483.63	444.719
1487.79	37.7891
1491.94	12.7148
1496.09	66.0703
1500.24	69.668
1504.39	161.668
1508.54	347.434
1512.68	168.031
1516.82	315.688
1520.95	547.375
1525.09	436.238
1529.22	455.519
1533.35	188.289
1537.47	241.211
1541.6	139.223
1545.72	60.5859
1549.83	186.973
1553.95	193.465
1558.06	91.6133
1562.17	14.1094
1566.28	238.223
1570.38	90.6484
