Measurement: Raman, 514 nm, ccw, Raman Data Processed
Mineral: Dravite
Rruff sample: R060534
Ideal chemistry: NaMg_3_Al_6_(Si_6_O_18_)(BO_3_)_3_(OH)_3_OH
Locality: Sri Lanka
Source: Gemological Institute of America
Description: Black trigonal prism
Measured chemistry: (Na_0.79_Ca_0.21_)(Mg_0.68_Fe^2+^_0.29_Ti_0.02_Al_0.01_)_3_Al_6.00_(BO_3_)_3_(Si_0.95_Al_005_)_6.00_O_18_(OH)_4_
Pin_id: L01264
Orientation: Laser parallel to a* (1 0 0). Fiducial mark perpendicular to laser is parallel to -c [0 0 -1]
Raman shift (cm-1)	intensity
168.486	0
173.385	12.8379
178.282	128.498
183.176	956.318
188.067	2840.89
192.956	4927.14
197.843	7260.09
202.727	12059.6
207.609	11920.2
212.489	18369.2
217.366	18357.3
222.24	14384.6
227.112	12487.2
231.982	15383.5
236.849	21800.4
241.714	26065
246.577	24747.1
251.437	16152.5
256.294	9456.85
261.149	6602.11
266.002	4661.98
270.852	3350.21
275.7	2739
280.545	1096.33
285.388	460.228
290.229	278.025
295.067	530.193
299.902	527.652
304.735	43.7852
309.566	1231.14
314.394	2827.14
319.22	3028.19
324.043	1954.11
328.864	2441.22
333.682	3188.91
338.498	4467.99
343.311	5766.41
348.122	7621.25
352.931	9821.82
357.737	14663.4
362.54	23721.1
367.341	35717.8
372.14	38858.1
376.936	29000.8
381.73	19463.6
386.521	14063.5
391.31	11035
396.096	9150.35
400.88	8454.19
405.661	7848.77
410.44	6778.79
415.216	5202.31
419.99	3896.35
424.761	2839.53
429.53	2039.51
434.297	1404.16
439.061	679.01
443.822	307.789
448.581	148.348
453.337	42.2031
458.091	50.1367
462.843	188.938
467.592	228.99
472.338	881.463
477.082	1296.39
481.824	1926.86
486.563	2500.95
491.3	3021.76
496.034	3606.41
500.765	3743.02
505.494	3083.68
510.221	2260.48
514.945	1229.5
519.666	663.477
524.385	400.894
529.102	707.791
533.816	1050.57
538.527	1233.25
543.236	1339.83
547.943	1000.31
552.647	814.707
557.348	280.06
562.047	201.627
566.744	163.596
571.438	216.285
576.129	28.5371
580.818	103.773
585.504	139.326
590.188	50.5762
594.87	70.2207
599.549	50.0859
604.225	72.5215
608.899	441.211
613.57	748.816
618.239	1189.22
622.905	2198.32
627.569	4104.06
632.23	6252.4
636.889	6383.28
641.545	6816.7
646.198	8365.59
650.849	8585.92
655.498	8250.62
660.144	8965.68
664.787	10688
669.428	12288.6
674.067	12313.3
678.703	10551.1
683.336	9002.95
687.967	8904.78
692.595	10353.6
697.221	13234.3
701.844	16783.8
706.465	15782.6
711.083	11430.8
715.698	8527.25
720.311	7830.01
724.922	7997.17
729.53	8246.76
734.135	8555.9
738.738	9047.97
743.338	9706.14
747.936	10620.9
752.531	11574
757.124	12160.8
761.714	11797.7
766.302	11779.1
770.887	11466.5
775.469	10802.3
780.049	10073
784.626	9701.27
789.201	8910.14
793.773	7675.55
798.343	6053.43
802.91	4486.76
807.475	3470.48
812.037	3384.55
816.596	2885.94
821.153	1984.61
825.707	1254.52
830.259	577.621
834.808	158.277
839.355	159.934
843.899	408.688
848.441	275.869
852.98	422.443
857.516	198.426
862.05	91.7949
866.581	89.4277
871.11	76.6074
875.636	115.328
880.159	382.221
884.68	386.555
889.199	608.551
893.714	908.572
898.228	1100.03
902.738	1197.19
907.246	1312.21
911.752	1805.37
916.255	1874.77
920.755	2332.61
925.253	2043.82
929.748	2388.43
934.241	2880.83
938.731	3441.28
943.218	3863.17
947.703	4154.94
952.186	4797.44
956.665	5298.51
961.142	5812.63
965.617	5979.23
970.089	6704.58
974.558	6886.86
979.025	7678.7
983.489	7056.08
987.951	7014.34
992.41	6947.06
996.866	6970.44
1001.32	6955.91
1005.77	7411.27
1010.22	8042.06
1014.67	9110.64
1019.11	10647.7
1023.55	11860.3
1027.99	12915.2
1032.42	13656.8
1036.86	14045.8
1041.29	14099.9
1045.72	13760.3
1050.14	13503.4
1054.56	12614
1058.98	11818.5
1063.4	10779.9
1067.82	10119
1072.23	9250.83
1076.64	8451.29
1081.05	7281.3
1085.45	6057.26
1089.85	5545.07
1094.25	4885
1098.65	4533.43
1103.04	4020.28
1107.43	3834.69
1111.82	3442.6
1116.21	2922.01
1120.59	2753.83
1124.97	2446.13
1129.35	2153.39
1133.73	1516.32
1138.1	1171.92
1142.47	1017.28
1146.84	613.492
1151.21	689.269
1155.57	400.664
1159.93	361.559
1164.29	169.428
1168.64	228.375
1172.99	216.781
1177.34	40.6875
1181.69	180.682
1186.04	42.6895
1190.38	54.6328
1194.72	161.428
1199.05	211.203
1203.39	73.9512
1207.72	72.0781
1212.05	78.5977
1216.37	25.6797
1220.7	0.503906
1225.02	90.8613
1229.34	259.562
1233.65	346.393
1237.97	583.826
1242.28	669.481
1246.59	577.373
1250.89	731.453
1255.19	403.18
1259.49	666.488
1263.79	463.848
1268.09	538.215
1272.38	836.564
1276.67	813.875
1280.95	386.361
1285.24	629.553
1289.52	483.518
1293.8	653.514
1298.08	527.557
1302.35	277.928
1306.62	113.047
1310.89	313.152
1315.15	559.213
1319.42	568.994
1323.68	670.59
1327.94	528.83
1332.19	429.947
1336.44	481.977
1340.69	460.873
1344.94	222.785
1349.19	281.891
1353.43	203.732
1357.67	263.547
1361.9	324.353
1366.14	60.1094
1370.37	306.803
1374.6	238.44
1378.83	11.1289
1383.05	398.074
1387.27	202.065
1391.49	250.338
1395.7	340.35
1399.92	142.969
1404.13	123.477
1408.34	205.857
1412.54	125.08
1416.74	177.102
1420.94	51.7656
1425.14	70.7519
1429.34	19.5215
1433.53	374.935
1437.72	210.277
1441.9	132.016
1446.09	42.6699
1450.27	40.2402
1454.45	134.908
1458.63	231.023
1462.8	33.0605
1466.97	34.6133
1471.14	220.047
1475.31	87.1836
1479.47	134.072
1483.63	343.262
1487.79	377.697
1491.94	435.119
1496.09	600.697
1500.24	489.557
1504.39	469.938
1508.54	525.572
1512.68	532.674
1516.82	699.434
1520.95	490.949
1525.09	469.266
1529.22	607.707
1533.35	180.59
1537.47	78.3809
1541.6	85.5117
1545.72	267.174
1549.83	268.863
1553.95	318.338
1558.06	86.8672
1562.17	283.504
1566.28	38.5312
1570.38	149.478
