Measurement: Raman, 514 nm, ccw, Raman Data Processed
Mineral: Dravite
Rruff sample: R050077
Ideal chemistry: NaMg_3_Al_6_(Si_6_O_18_)(BO_3_)_3_(OH)_3_OH
Locality: Yinnietharra Station, Western Australia, Australia
Source: Rock Currier
Description: Dark brown euhedral prismatic single crystal
Measured chemistry: (Na_0.783_Ca_0.217_)(Mg_0.771_Fe^2+^_0.221_Ti^4+^_0.008_)_3_(Al_0.956_Mg_0.044_)_6_(BO_3_)_3_[Si_6_O_18_]((OH)_0.914_F_0.086_)_4_
Pin_id: L00540
Orientation: Laser parallel to -a* (-1 0 0). Fiducial mark perpendicular to laser is parallel to c [0 0 1]
Raman shift (cm-1)	intensity
118.134	0
123.058	76.9102
127.979	727.797
132.898	3166.3
137.814	5753.95
142.728	7547.4
147.639	9345.17
152.549	10118.8
157.455	7910.07
162.359	7951.5
167.261	8201.4
172.161	8658.69
177.058	8345.62
181.952	8481.5
186.845	9234.01
191.734	9382.66
196.622	11031.3
201.507	14236.2
206.389	14295
211.269	15426.3
216.147	13206.7
221.022	10784.6
225.895	8524.4
230.765	7233.48
235.633	7044.25
240.498	5725.83
245.361	3392.72
250.222	2035.22
255.08	1554.56
259.936	820.025
264.789	793.998
269.64	632.721
274.488	515.348
279.334	259.842
284.178	299.467
289.019	647.773
293.857	1020.06
298.693	991.725
303.527	742.686
308.358	1.54102
313.187	813.611
318.013	1545.47
322.837	2540.45
327.659	4034.43
332.478	5445.73
337.294	6677.62
342.108	6722.57
346.92	7600.63
351.729	8911.17
356.535	10380.5
361.34	13485.5
366.141	16752.7
370.94	15735.8
375.737	12855.2
380.531	10899.9
385.323	9568.46
390.113	8502.54
394.9	7192.08
399.684	7043.9
404.466	7020.38
409.245	5078.46
414.022	4275
418.797	3744.2
423.569	3185.78
428.338	2572.8
433.105	1663.1
437.87	971.07
442.632	914.066
447.391	1072.48
452.149	1891.78
456.903	5843.23
461.655	10266.5
466.405	5329
471.152	2775.63
475.897	2501.37
480.639	2028.62
485.378	2341.64
490.116	2137.75
494.85	1946.5
499.582	1697.64
504.312	1368.88
509.039	541.812
513.764	485.297
518.486	780.652
523.206	1597.99
527.923	2171.42
532.638	2707.03
537.35	2770.16
542.059	2781.13
546.766	2746.26
551.471	2761.83
556.173	2785.07
560.873	1806.56
565.57	1425.38
570.264	1397.34
574.957	1335.5
579.646	1343.02
584.333	1093.98
589.018	1053.8
593.7	873.672
598.379	901.885
603.056	947.436
607.73	626.793
612.402	1054.09
617.072	1478.97
621.739	1734.25
626.403	1925.79
631.065	1047.52
635.724	242.172
640.381	867.463
645.035	506.424
649.687	452.193
654.336	2316.52
658.983	3791.58
663.627	4254.28
668.268	3671.54
672.907	2924.23
677.544	2547.27
682.178	2897.53
686.809	4596.89
691.438	6565.22
696.065	9745.39
700.688	12173.5
705.31	12555.3
709.929	13452.7
714.545	15526.9
719.158	18217.1
723.77	20553.9
728.378	21992.9
732.984	24882.2
737.588	27745.8
742.189	31041.5
746.787	33889.7
751.383	36009.8
755.976	36567.8
760.567	35423
765.155	34596.8
769.741	34013
774.324	32358.9
778.904	31909.4
783.482	30704.2
788.058	27660.5
792.631	22773.6
797.201	17562.4
801.769	14459
806.334	14088.1
810.897	13152.8
815.457	10417.9
820.014	7169.21
824.569	4502.74
829.122	2669.34
833.671	1309.92
838.219	223.291
842.763	352.092
847.306	321.125
851.845	552.742
856.382	592.047
860.917	557.811
865.448	208.762
869.978	5.85352
874.505	51.7227
879.029	428.713
883.55	744.246
888.069	1035.29
892.586	1437.22
897.1	1760.31
901.611	2085.75
906.12	2632.57
910.626	3195.82
915.129	3345.12
919.63	3620.94
924.129	3834.72
928.625	4138.34
933.118	4438.82
937.609	5058.4
942.097	5352.53
946.582	5941.34
951.065	6778.57
955.546	7138.11
960.023	7431.51
964.499	8331.81
968.971	8525.05
973.441	8583.06
977.909	8976.02
982.374	8719.4
986.836	8283.08
991.295	8075.33
995.753	7515.96
1000.21	6941.12
1004.66	6600.41
1009.11	6446.05
1013.55	6584.62
1018	6875.31
1022.44	6993.19
1026.88	7555.34
1031.32	7857.7
1035.75	8265.72
1040.18	9090.29
1044.61	9660.5
1049.04	9706.41
1053.46	9635.1
1057.88	9961.6
1062.3	9759.51
1066.71	9807.77
1071.13	9253.32
1075.54	8196.26
1079.94	7166.28
1084.35	6504.05
1088.75	5760.32
1093.15	5034.23
1097.55	5098.38
1101.94	4840.86
1106.34	4459.83
1110.73	3696.41
1115.11	3430.54
1119.5	3005.02
1123.88	2646.06
1128.26	1980.93
1132.63	1480.92
1137.01	1279.34
1141.38	979.609
1145.75	909.127
1150.12	808.318
1154.48	738.84
1158.84	812.545
1163.2	413.367
1167.55	249.109
1171.91	257.769
1176.26	242.781
1180.61	117.734
1184.95	156.031
1189.29	279.853
1193.63	128.449
1197.97	121.754
1202.31	143.373
1206.64	211.996
1210.97	200.57
1215.29	119.783
1219.62	240.435
1223.94	601.379
1228.26	538.188
1232.57	860.863
1236.89	1135.4
1241.2	1268.77
1245.51	1428.92
1249.81	1557.77
1254.12	1827.63
1258.42	1604.17
1262.72	1377.56
1267.01	1501.32
1271.3	1480.38
1275.59	1509.7
1279.88	1259.81
1284.17	1259.22
1288.45	1501.72
1292.73	1604.34
1297.01	1398.97
1301.28	1517.88
1305.55	1741.93
1309.82	1357.01
1314.09	1520.06
1318.35	1530.86
1322.61	1321.14
1326.87	1255.66
1331.13	1176.88
1335.38	945.938
1339.63	587.215
1343.88	473.408
1348.12	510.502
1352.37	585.898
1356.61	716.484
1360.85	552.252
1365.08	538.021
1369.31	503.475
1373.54	475.566
1377.77	645.1
1381.99	606.752
1386.22	565.053
1390.43	302.018
1394.65	278.832
1398.87	289.531
1403.08	169.932
1407.29	31.8555
1411.49	119.83
1415.69	111.848
1419.89	34.1836
1424.09	83.1641
1428.29	133.963
1432.48	102.066
1436.67	34.9141
1440.86	21.7539
1445.04	87.168
1449.23	238.67
1453.4	101.365
1457.58	252.44
1461.76	576.973
1465.93	111.758
1470.1	583.543
1474.26	454.359
1478.43	696.293
1482.59	583.568
1486.75	989.08
1490.9	1135.89
1495.06	725.908
1499.21	821.75
1503.35	681.881
1507.5	977.59
1511.64	823.402
1515.78	731.127
1519.92	650.074
1524.05	448.76
1528.18	693.557
1532.31	358.367
1536.44	453.846
1540.56	348.879
1544.69	675.365
1548.8	267.353
1552.92	336.893
1557.03	261.08
1561.14	557.932
1565.25	313.26
1569.36	261.154
