Measurement: Raman, 514 nm, ccw, Raman Data Processed
Mineral: Dravite
Rruff sample: R060280
Ideal chemistry: NaMg_3_Al_6_(Si_6_O_18_)(BO_3_)_3_(OH)_3_OH
Locality: near Merelani, Tanzania
Source: Herb Obodda
Description: Green fragment
Measured chemistry: (Na_0.45_Ca_0.40_[box]_0.15_)(Mg_0.89_Al_0.07_Ti_0.04_)_3_Al_6_(BO_3_)_3_(Si_0.93_B_0.07_)_6_O_18_((OH)_0.95_O_0.05_)_4_
Pin_id: L00930
Orientation: Laser parallel to c* (0 0 1). Fiducial mark perpendicular to laser is parallel to -b [0 -1 0]
Raman shift (cm-1)	intensity
168.486	0
173.385	346.508
178.282	81.2031
183.176	207.719
188.067	806.275
192.956	1331.75
197.843	2112.95
202.727	3866.62
207.609	4974.99
212.489	8241.55
217.366	8659.7
222.24	6001.72
227.112	4370.16
231.982	4018.21
236.849	4912.16
241.714	5881.53
246.577	4390.22
251.437	2077.26
256.294	793.363
261.149	542.051
266.002	661.484
270.852	1745.75
275.7	1701.83
280.545	1380.65
285.388	149.102
290.229	132.148
295.067	47.2773
299.902	137.75
304.735	58.1367
309.566	333.144
314.394	90.3945
319.22	652.926
324.043	2344.16
328.864	4666.27
333.682	7226.51
338.498	9020.26
343.311	9332.69
348.122	8191.41
352.931	8910.07
357.737	11639.4
362.54	16475.4
367.341	20934.8
372.14	23000.6
376.936	20223.5
381.73	13923.4
386.521	9089.73
391.31	6294.79
396.096	4697.79
400.88	3706.72
405.661	2897.51
410.44	2145.11
415.216	1339.47
419.99	787.519
424.761	566.512
429.53	1580.48
434.297	1896.08
439.061	2289.39
443.822	2237.06
448.581	1778.15
453.337	1271.57
458.091	695.887
462.843	711.703
467.592	750.594
472.338	1560.69
477.082	2328.09
481.824	3199.92
486.563	3938.64
491.3	4229.73
496.034	4845.15
500.765	5442.84
505.494	5765.97
510.221	4821.99
514.945	3810.16
519.666	3650.4
524.385	4690.95
529.102	6217.87
533.816	7945.03
538.527	8239.09
543.236	7325
547.943	5964.71
552.647	5008.17
557.348	4410.35
562.047	3856.46
566.744	3528.66
571.438	3250.71
576.129	1918.29
580.818	1080.38
585.504	253.992
590.188	82.7188
594.87	404.449
599.549	196.352
604.225	363.828
608.899	0.132813
613.57	169.461
618.239	79.1602
622.905	1107.61
627.569	1276.07
632.23	1373.46
636.889	642.742
641.545	253.856
646.198	308.617
650.849	791.992
655.498	1935.04
660.144	2799.74
664.787	3544.03
669.428	3530.87
674.067	2766.21
678.703	2259
683.336	2060.22
687.967	1962.8
692.595	3044.7
697.221	3951.89
701.844	5582.31
706.465	7677.93
711.083	10177.7
715.698	14583.6
720.311	19725.9
724.922	24338.5
729.53	23150.3
734.135	17097.6
738.738	12696.4
743.338	10894.5
747.936	11187.4
752.531	12900.3
757.124	14421.1
761.714	15366.1
766.302	14498.4
770.887	13438.2
775.469	12763.5
780.049	12916.3
784.626	13160.2
789.201	13615.9
793.773	13668
798.343	12928.4
802.91	12647.2
807.475	14557.4
812.037	17828.8
816.596	20700.6
821.153	21442.9
825.707	17814.9
830.259	13670.5
834.808	10006.3
839.355	6742.25
843.899	4053.43
848.441	2069.78
852.98	991.301
857.516	444.973
862.05	141.512
866.581	135.625
871.11	418.246
875.636	330.981
880.159	390.371
884.68	105.664
889.199	78.7539
893.714	388.203
898.228	795.109
902.738	1186.83
907.246	1285.44
911.752	1711.49
916.255	1825.37
920.755	2016.52
925.253	2107.01
929.748	2150.75
934.241	2409.7
938.731	2821.82
943.218	2996.12
947.703	3136.62
952.186	3440.33
956.665	4052.25
961.142	4354.38
965.617	4808.75
970.089	5360.35
974.558	5716.2
979.025	5793.31
983.489	5743.69
987.951	5501.35
992.41	4853.28
996.866	4980.12
1001.32	5272.58
1005.77	5269.28
1010.22	5317.54
1014.67	5549.12
1019.11	6726.44
1023.55	7927.45
1027.99	8731.27
1032.42	9864.73
1036.86	11077.7
1041.29	12450
1045.72	13929
1050.14	15104.6
1054.56	15518.5
1058.98	16695.2
1063.4	18012
1067.82	19772.1
1072.23	19746.9
1076.64	18417.4
1081.05	15786.7
1085.45	12829.8
1089.85	10447.6
1094.25	7958.25
1098.65	6519.67
1103.04	5259.9
1107.43	4558.96
1111.82	4056.86
1116.21	3806.6
1120.59	3275.41
1124.97	2470.7
1129.35	1653.31
1133.73	1095.4
1138.1	611.887
1142.47	332.055
1146.84	29.7344
1151.21	16.8047
1155.57	196.262
1159.93	91.707
1164.29	204.715
1168.64	188.109
1172.99	383.84
1177.34	69.6641
1181.69	189.902
1186.04	72.3555
1190.38	236.609
1194.72	337.137
1199.05	488.574
1203.39	317.805
1207.72	618.496
1212.05	405.578
1216.37	571.859
1220.7	656.367
1225.02	680.481
1229.34	912.981
1233.65	1103.14
1237.97	1630.34
1242.28	1938.69
1246.59	1477.31
1250.89	1885.09
1255.19	1732.94
1259.49	1522.87
1263.79	1530.86
1268.09	1752.93
1272.38	1602.02
1276.67	1537.27
1280.95	1411.19
1285.24	1464.92
1289.52	1509.83
1293.8	1307.61
1298.08	1085.89
1302.35	1127.68
1306.62	835.309
1310.89	1191.78
1315.15	903.926
1319.42	1020.16
1323.68	841.828
1327.94	400.113
1332.19	384.629
1336.44	275.383
1340.69	284.398
1344.94	318.668
1349.19	122.219
1353.43	339.047
1357.67	223.176
1361.9	338.606
1366.14	347.644
1370.37	606.731
1374.6	905.547
1378.83	724.539
1383.05	738.836
1387.27	555.473
1391.49	729.461
1395.7	292.856
1399.92	380.555
1404.13	253.691
1408.34	88.4141
1412.54	184.242
1416.74	206.859
1420.94	184.902
1425.14	118.613
1429.34	1.23438
1433.53	16.9492
1437.72	490.242
1441.9	789.641
1446.09	687.141
1450.27	1128.14
1454.45	1252.75
1458.63	1000.99
1462.8	830.902
1466.97	671.516
1471.14	381.793
1475.31	200.227
1479.47	179.203
1483.63	384.043
1487.79	139.812
1491.94	117.484
1496.09	15.4062
1500.24	260.738
1504.39	189.496
1508.54	377.973
1512.68	681.086
1516.82	560.965
1520.95	250.519
1525.09	197.707
1529.22	330.512
1533.35	337.824
1537.47	291.492
1541.6	188.894
1545.72	479.441
1549.83	389.16
1553.95	477.484
1558.06	616.242
1562.17	101.629
1566.28	272.07
1570.38	0.144531
