Measurement: Raman, 514 nm, ccw, Raman Data Processed
Mineral: Dravite
Rruff sample: R050077
Ideal chemistry: NaMg_3_Al_6_(Si_6_O_18_)(BO_3_)_3_(OH)_3_OH
Locality: Yinnietharra Station, Western Australia, Australia
Source: Rock Currier
Description: Dark brown euhedral prismatic single crystal
Measured chemistry: (Na_0.783_Ca_0.217_)(Mg_0.771_Fe^2+^_0.221_Ti^4+^_0.008_)_3_(Al_0.956_Mg_0.044_)_6_(BO_3_)_3_[Si_6_O_18_]((OH)_0.914_F_0.086_)_4_
Pin_id: L00540
Orientation: Laser parallel to -a* (-1 0 0). Fiducial mark perpendicular to laser is parallel to c [0 0 1]
Raman shift (cm-1)	intensity
118.134	0
123.058	151.481
127.979	174.869
132.898	555.393
137.814	1289.2
142.728	1532.83
147.639	1553.2
152.549	1185.77
157.455	314.17
162.359	27.3862
167.261	72.6719
172.161	85.356
177.058	347.596
181.952	1124.44
186.845	2387.31
191.734	4373.26
196.622	8099.66
201.507	15598.7
206.389	26792.7
211.269	33800.7
216.147	28802.4
221.022	22756.6
225.895	21138.7
230.765	25662.2
235.633	35080.9
240.498	39552.7
245.361	30560.5
250.222	18379.4
255.08	11346.3
259.936	7885.6
264.789	5746.98
269.64	3854.1
274.488	2389.47
279.334	1184.16
284.178	200.793
289.019	174.989
293.857	290.366
298.693	121.088
303.527	1083.52
308.358	3398.11
313.187	3996.29
318.013	1902.36
322.837	1112.1
327.659	1555.98
332.478	2374.94
337.294	3699.94
342.108	5449.94
346.92	8257.93
351.729	13274.4
356.535	23815.1
361.34	42374.7
366.141	57082.4
370.94	48541
375.737	30672.5
380.531	20335.9
385.323	13499.9
390.113	10521.2
394.9	9250.1
399.684	9173.68
404.466	8219.96
409.245	6053.92
414.022	3852.76
418.797	2273.42
423.569	1371.61
428.338	1049.22
433.105	687.472
437.87	454.242
442.632	361.662
447.391	369.668
452.149	585.946
456.903	1532.93
461.655	2956.93
466.405	2421.06
471.152	2677.94
475.897	3108.31
480.639	3822.14
485.378	4723.39
490.116	5508.05
494.85	5779.06
499.582	5137.44
504.312	4067.14
509.039	2994.63
513.764	2015.37
518.486	1287.84
523.206	1170.49
527.923	1591.3
532.638	1740.22
537.35	1705.23
542.059	1268.3
546.766	904.375
551.471	409.436
556.173	118.469
560.873	66.5288
565.57	215.178
570.264	188.086
574.957	305.15
579.646	216.353
584.333	160.531
589.018	113.085
593.7	242.597
598.379	422.894
603.056	693.352
607.73	1171
612.402	1766.56
617.072	2941.65
621.739	4988.2
626.403	8323.13
631.065	9776.4
635.724	9206.93
640.381	9913.71
645.035	12054.7
649.687	13083.8
654.336	12866
658.983	13112.4
663.627	15030.7
668.268	17876.1
672.907	17878.5
677.544	15249.8
682.178	13094.9
686.809	13208
691.438	15336.3
696.065	19486.1
700.688	20640.6
705.31	15032.6
709.929	8419.08
714.545	4615.75
719.158	2798.88
723.77	1809.43
728.378	1446.05
732.984	1283.82
737.588	1309.52
742.189	1544.3
746.787	1894.23
751.383	2303.81
755.976	2401.03
760.567	1970.48
765.155	1688.23
769.741	1472.8
774.324	1363.94
778.904	1332.31
783.482	1407.88
788.058	1246.64
792.631	1247.58
797.201	857.683
801.769	740.937
806.334	716.337
810.897	815.876
815.457	838.543
820.014	628.331
824.569	445.229
829.122	274.221
833.671	107.235
838.219	8.74902
842.763	56.1248
847.306	173.814
851.845	113.297
856.382	115.392
860.917	46.2835
865.448	72.019
869.978	69.9949
874.505	38.084
879.029	16.646
883.55	158.818
888.069	185.81
892.586	275.713
897.1	331.61
901.611	383.579
906.12	480.674
910.626	552.931
915.129	704.364
919.63	797.065
924.129	912.125
928.625	1112.43
933.118	1241.18
937.609	1438.43
942.097	1791.23
946.582	2320.49
951.065	2859.07
955.546	3389.98
960.023	3801.29
964.499	3979.29
968.971	3934.42
973.441	3716.57
977.909	3685.17
982.374	3396.59
986.836	3575.77
991.295	3674.55
995.753	4035.05
1000.21	4473.2
1004.66	5322.61
1009.11	6522.51
1013.55	7897.87
1018	9544.55
1022.44	10825.8
1026.88	12018
1031.32	12613.7
1035.75	12310.1
1040.18	12114.5
1044.61	11941
1049.04	11595.9
1053.46	10690.9
1057.88	9594.54
1062.3	8500.31
1066.71	7528.68
1071.13	6584.44
1075.54	5320.12
1079.94	4502.44
1084.35	3551.79
1088.75	2951.91
1093.15	2471.71
1097.55	2090.45
1101.94	1825.14
1106.34	1676.45
1110.73	1427.16
1115.11	1793.69
1119.5	2456.11
1123.88	2387.47
1128.26	1252.66
1132.63	515.561
1137.01	317.156
1141.38	234.197
1145.75	205.575
1150.12	147.195
1154.48	124.973
1158.84	91.8816
1163.2	6.8772
1167.55	42.9226
1171.91	7.96851
1176.26	2.99902
1180.61	47.969
1184.95	9.1831
1189.29	1.36792
1193.63	65.1773
1197.97	16.231
1202.31	101.732
1206.64	8.25073
1210.97	13.96
1215.29	1.32349
1219.62	43.3152
1223.94	0.833008
1228.26	52.2988
1232.57	165.747
1236.89	137.165
1241.2	157.619
1245.51	209.096
1249.81	174.582
1254.12	208.06
1258.42	188.515
1262.72	222.934
1267.01	624.302
1271.3	65.6074
1275.59	172.842
1279.88	164.999
1284.17	177.078
1288.45	229.076
1292.73	269.992
1297.01	191.909
1301.28	200.908
1305.55	225.059
1309.82	223.631
1314.09	287.813
1318.35	266.815
1322.61	287.51
1326.87	349.567
1331.13	278.873
1335.38	196.454
1339.63	346.267
1343.88	312.014
1348.12	228.026
1352.37	335.269
1356.61	271.697
1360.85	255.54
1365.08	179.962
1369.31	245.414
1373.54	245.9
1377.77	291.426
1381.99	295.998
1386.22	337.623
1390.43	389.215
1394.65	425.685
1398.87	477.06
1403.08	481.431
1407.29	458.846
1411.49	385.311
1415.69	329.825
1419.89	287.385
1424.09	273.17
1428.29	188.794
1432.48	171.735
1436.67	117.464
1440.86	108.084
1445.04	42.1733
1449.23	67.0298
1453.4	51.9277
1457.58	128.951
1461.76	17.062
1465.93	49.5303
1470.1	20.2676
1474.26	74.167
1478.43	43.2114
1482.59	40.4185
1486.75	163.82
1490.9	184.465
1495.06	197.383
1499.21	243.613
1503.35	293.185
1507.5	399.053
1511.64	356.225
1515.78	304
1519.92	235.467
1524.05	288.077
1528.18	327.897
1532.31	186.213
1536.44	255.446
1540.56	79.3936
1544.69	181.424
1548.8	139.766
1552.92	344.768
1557.03	33.2246
1561.14	57.5981
1565.25	80.0005
1569.36	43.4912
