Measurement: Raman, 514 nm, ccw, Raman Data Processed
Mineral: Dravite
Rruff sample: R050077
Ideal chemistry: NaMg_3_Al_6_(Si_6_O_18_)(BO_3_)_3_(OH)_3_OH
Locality: Yinnietharra Station, Western Australia, Australia
Source: Rock Currier
Description: Dark brown euhedral prismatic single crystal
Measured chemistry: (Na_0.783_Ca_0.217_)(Mg_0.771_Fe^2+^_0.221_Ti^4+^_0.008_)_3_(Al_0.956_Mg_0.044_)_6_(BO_3_)_3_[Si_6_O_18_]((OH)_0.914_F_0.086_)_4_
Pin_id: L01436
Orientation: Laser parallel to c* (0 0 1). Fiducial mark perpendicular to laser is parallel to a [1 0 0]
Raman shift (cm-1)	intensity
118.134	0
123.058	56.5508
127.979	400.367
132.898	3098.38
137.814	6200.93
142.728	7968.02
147.639	9394.2
152.549	9783.99
157.455	8647.47
162.359	8539.32
167.261	8457.35
172.161	8912.44
177.058	7965.72
181.952	7580.87
186.845	7647.44
191.734	7632.72
196.622	8548.76
201.507	8963.67
206.389	10508.2
211.269	12080
216.147	11576.7
221.022	8510.69
225.895	7129.81
230.765	5924.73
235.633	5632.43
240.498	4747.67
245.361	2913.2
250.222	1114.48
255.08	1196.85
259.936	885.188
264.789	1004.02
269.64	1111.08
274.488	949.334
279.334	440.875
284.178	8.25195
289.019	740.019
293.857	530.473
298.693	559.844
303.527	573.053
308.358	12.4258
313.187	638.381
318.013	1459.58
322.837	2711.16
327.659	3834.1
332.478	4995.18
337.294	5704.48
342.108	6051.4
346.92	6399.59
351.729	7159.21
356.535	8156.19
361.34	9916.94
366.141	12793.2
370.94	14318.8
375.737	13576.4
380.531	11168.3
385.323	9030.57
390.113	8014.81
394.9	6969.48
399.684	5806.12
404.466	5125.08
409.245	4815.72
414.022	4157.5
418.797	3624.2
423.569	2939.78
428.338	2482.98
433.105	1688.15
437.87	1224.86
442.632	604.297
447.391	402.695
452.149	41.8047
456.903	135.758
461.655	360.773
466.405	553.188
471.152	1142.77
475.897	1546.41
480.639	1814.14
485.378	2122.23
490.116	2365.93
494.85	2189.29
499.582	1878.96
504.312	1711.5
509.039	1369.09
513.764	1000
518.486	1242.13
523.206	2056.58
527.923	2759.45
532.638	3586.89
537.35	3703.46
542.059	4178.87
546.766	4092.21
551.471	3878.61
556.173	3167.11
560.873	2775.74
565.57	2599.49
570.264	2298.37
574.957	1807.4
579.646	1689.65
584.333	1538.26
589.018	1357.06
593.7	1114.94
598.379	916.117
603.056	626.16
607.73	775.309
612.402	1005.7
617.072	1210.07
621.739	1282.82
626.403	759.356
631.065	626.457
635.724	327.926
640.381	528.551
645.035	52.8555
649.687	316.609
654.336	1952.48
658.983	3156.56
663.627	3052.78
668.268	2595.05
672.907	1712.29
677.544	1520.41
682.178	1931.31
686.809	2637.87
691.438	3750.98
696.065	5228.84
700.688	7088.05
705.31	9239.23
709.929	12948.6
714.545	16946
719.158	22076.2
723.77	24621
728.378	23850.6
732.984	23322.8
737.588	24053.7
742.189	25834.9
746.787	26905
751.383	27384.7
755.976	27377.3
760.567	27226.1
765.155	27022.7
769.741	26628.2
774.324	24874.6
778.904	23538.1
783.482	22473.3
788.058	20326.5
792.631	16773.2
797.201	12827
801.769	10100.9
806.334	9416.71
810.897	8765.4
815.457	6675.87
820.014	5082.02
824.569	2956.75
829.122	1938.99
833.671	791.621
838.219	48.3242
842.763	151.707
847.306	213.738
851.845	584.648
856.382	453.559
860.917	257.652
865.448	331.793
869.978	17.2988
874.505	234.641
879.029	310.227
883.55	544.133
888.069	1190.3
892.586	1346.09
897.1	1519.6
901.611	2030.96
906.12	2055.22
910.626	2728.44
915.129	2932.08
919.63	3197.24
924.129	3349.57
928.625	3622.11
933.118	3872.22
937.609	4283.94
942.097	4927.51
946.582	5354.95
951.065	5595.05
955.546	6097.69
960.023	6681.61
964.499	6922.34
968.971	7308.4
973.441	7553.24
977.909	7553.67
982.374	7504.24
986.836	7311.98
991.295	7019.11
995.753	6697.17
1000.21	6132.66
1004.66	6218
1009.11	5774.34
1013.55	5854.27
1018	6348.15
1022.44	6637.62
1026.88	6784.32
1031.32	7056.02
1035.75	7418.95
1040.18	8386.65
1044.61	9014.88
1049.04	9004.86
1053.46	9130.75
1057.88	9062.53
1062.3	9257.22
1066.71	9109.12
1071.13	8573.09
1075.54	7840.81
1079.94	6856.4
1084.35	6188.55
1088.75	5479.38
1093.15	5158.4
1097.55	5020.65
1101.94	4664.21
1106.34	4182.38
1110.73	3863.19
1115.11	3862.87
1119.5	4389.23
1123.88	3186.57
1128.26	2380.56
1132.63	1299.14
1137.01	1284.79
1141.38	1141.67
1145.75	760.312
1150.12	1019.45
1154.48	613.678
1158.84	475.865
1163.2	612.186
1167.55	72.3652
1171.91	90.5117
1176.26	380.732
1180.61	35.1387
1184.95	53.748
1189.29	151.754
1193.63	434.033
1197.97	8.48438
1202.31	386.225
1206.64	204.824
1210.97	7.87305
1215.29	148.004
1219.62	237.299
1223.94	284.412
1228.26	412.342
1232.57	733.088
1236.89	637.455
1241.2	736.049
1245.51	1100.72
1249.81	1177.85
1254.12	1326.11
1258.42	1029.06
1262.72	1384.99
1267.01	1030.53
1271.3	1201.95
1275.59	1262.56
1279.88	1242.63
1284.17	1494.49
1288.45	1555.55
1292.73	1359.71
1297.01	1393.7
1301.28	1670.91
1305.55	1118.37
1309.82	1220.13
1314.09	1201.89
1318.35	1047.74
1322.61	1041.64
1326.87	1030.12
1331.13	874.992
1335.38	531.816
1339.63	562.18
1343.88	250.373
1348.12	493.301
1352.37	358.51
1356.61	480.986
1360.85	567.211
1365.08	497.428
1369.31	227.217
1373.54	504.764
1377.77	345.488
1381.99	264.039
1386.22	354.545
1390.43	354.111
1394.65	183.758
1398.87	87.4531
1403.08	71.8789
1407.29	52.3555
1411.49	57.9922
1415.69	19.7383
1419.89	189.391
1424.09	136.602
1428.29	162.789
1432.48	73.1055
1436.67	123.598
1440.86	211.414
1445.04	69.0312
1449.23	119.719
1453.4	315.207
1457.58	195.519
1461.76	254.664
1465.93	139.086
1470.1	559.695
1474.26	810.512
1478.43	675.629
1482.59	595.152
1486.75	770.152
1490.9	1038.62
1495.06	776.914
1499.21	995.309
1503.35	1075.44
1507.5	813.797
1511.64	813.828
1515.78	509.422
1519.92	604.106
1524.05	477.422
1528.18	406.906
1532.31	440.625
1536.44	407.746
1540.56	439.215
1544.69	314.773
1548.8	251.965
1552.92	7.91797
1557.03	286.141
1561.14	368.938
1565.25	58.6016
1569.36	328.246
