Measurement: Raman, 514 nm, ccw, Raman Data Processed
Mineral: Dravite
Rruff sample: R060286
Ideal chemistry: NaMg_3_Al_6_(Si_6_O_18_)(BO_3_)_3_(OH)_3_OH
Locality: Badakshan Province, Afghanistan
Source: Herb Obodda
Description: Brown prismatic tourmaline crystal
Measured chemistry: (Na_0.48_Ca_0.38_[box]_0.14_)_Σ=1_(Mg_2.90_Ti_0.10_)_Σ=3_Al_6.00_(B_1.00_O_3_)_3_(Si_5.56_B_0.44_)_Σ=6_O_18_(OH)_4_; (OH) assumed from stoichiometry; B estimated by difference and charge balance
Pin_id: L00909
Orientation: Laser parallel to a* (1 0 0). Fiducial mark perpendicular to laser is parallel to -c [0 0 -1]
Raman shift (cm-1)	intensity
118.134	0
123.058	479.406
127.979	585.725
132.898	2393.5
137.814	2793.37
142.728	2764.19
147.639	2830.85
152.549	2640.79
157.455	800.59
162.359	36.6445
167.261	27.7324
172.161	435.004
177.058	132.219
181.952	815.006
186.845	6983.97
191.734	10002.6
196.622	23178.3
201.507	11835.4
206.389	10973.3
211.269	17379
216.147	20695.1
221.022	14093.7
225.895	8122.54
230.765	6623.35
235.633	7505.99
240.498	9523.24
245.361	9808.82
250.222	5766.73
255.08	1884.04
259.936	1460.49
264.789	442.172
269.64	1161.47
274.488	1736.51
279.334	883.031
284.178	39.0117
289.019	38.0898
293.857	109.641
298.693	355.67
303.527	266.178
308.358	466.982
313.187	794.869
318.013	1258.18
322.837	2540.52
327.659	4648.82
332.478	7889.25
337.294	11448.2
342.108	13053.8
346.92	12680.9
351.729	13271.1
356.535	17527.1
361.34	28580.8
366.141	38461.1
370.94	42062.3
375.737	33814.5
380.531	21619.6
385.323	13657.6
390.113	9598.47
394.9	7348.25
399.684	5669.93
404.466	4980.47
409.245	3725.86
414.022	2257.13
418.797	1483.38
423.569	1095.54
428.338	1483.6
433.105	1873.33
437.87	1776.85
442.632	2139.57
447.391	2964.38
452.149	3235.74
456.903	3245.03
461.655	3527.71
466.405	4157.05
471.152	5318.55
475.897	6348.02
480.639	7356.48
485.378	7345.91
490.116	7379.31
494.85	8002.68
499.582	7894.81
504.312	7676.41
509.039	5734.83
513.764	4273.26
518.486	4041.7
523.206	5442.1
527.923	7378.48
532.638	8058.78
537.35	7797
542.059	6411.11
546.766	4839.09
551.471	3185.91
556.173	1900.55
560.873	1104.98
565.57	654.164
570.264	338.084
574.957	246.412
579.646	447.633
584.333	732.408
589.018	552.762
593.7	168.234
598.379	20.9062
603.056	251.559
607.73	568.615
612.402	1184.33
617.072	2005.85
621.739	2850.96
626.403	4105.46
631.065	5053.17
635.724	4215
640.381	2573.9
645.035	2630.81
649.687	3293.66
654.336	4684.4
658.983	6828.97
663.627	9391.31
668.268	12999.4
672.907	16613
677.544	17797.3
682.178	12999.1
686.809	10175.4
691.438	11329.1
696.065	15112.2
700.688	20980.5
705.31	26194.1
709.929	25997.8
714.545	19610.2
719.158	13405.8
723.77	10516
728.378	10839.3
732.984	11831.3
737.588	14049.6
742.189	17112.1
746.787	21932.8
751.383	29138.4
755.976	37948
760.567	43453.2
765.155	40669.4
769.741	35043.7
774.324	31092.7
778.904	27858.4
783.482	25499.7
788.058	24639.7
792.631	24891.2
797.201	25030.3
801.769	23616.9
806.334	21458
810.897	20138.7
815.457	20379.7
820.014	19591.2
824.569	17137
829.122	12512.2
833.671	8568.75
838.219	4886.55
842.763	2539.58
847.306	1108.85
851.845	58.4746
856.382	368.836
860.917	527.002
865.448	558.701
869.978	269.996
874.505	352.184
879.029	137.684
883.55	44.6348
888.069	399.408
892.586	425.795
897.1	846.809
901.611	1193.74
906.12	1437.95
910.626	1853.91
915.129	2169.87
919.63	2683.18
924.129	2734.45
928.625	2975.3
933.118	3478.56
937.609	3779.04
942.097	4569.44
946.582	5032.02
951.065	5476.7
955.546	6395.03
960.023	6968.78
964.499	8048
968.971	8754.69
973.441	9241.9
977.909	9354.64
982.374	9259.94
986.836	8741.73
991.295	8199.05
995.753	7447.29
1000.21	7371.19
1004.66	7015.99
1009.11	7506.07
1013.55	8270.29
1018	9471.88
1022.44	10826.7
1026.88	12557.9
1031.32	14559.4
1035.75	16903.6
1040.18	19386.9
1044.61	22358.6
1049.04	24805.4
1053.46	25975.1
1057.88	24803.2
1062.3	25057.1
1066.71	26428.8
1071.13	26996.8
1075.54	25671.2
1079.94	22209.7
1084.35	17974.7
1088.75	14363.5
1093.15	11149
1097.55	8713.42
1101.94	6898.64
1106.34	5956.72
1110.73	5115.68
1115.11	5089.56
1119.5	5477.53
1123.88	5767.45
1128.26	5587.66
1132.63	4988.3
1137.01	3858.41
1141.38	2239.5
1145.75	1124.07
1150.12	635.266
1154.48	446.277
1158.84	493.637
1163.2	26.1953
1167.55	124.227
1171.91	156.107
1176.26	195.414
1180.61	113.918
1184.95	283.769
1189.29	425.418
1193.63	226.506
1197.97	38.4316
1202.31	70.8066
1206.64	144.139
1210.97	132.498
1215.29	452.932
1219.62	864.389
1223.94	1026.81
1228.26	1270.17
1232.57	1361.47
1236.89	1565.73
1241.2	1656.93
1245.51	1574.07
1249.81	1748.17
1254.12	1604.2
1258.42	1508.13
1262.72	1648.9
1267.01	1747.57
1271.3	1632.62
1275.59	1720.44
1279.88	1541.86
1284.17	1473.84
1288.45	1471.37
1292.73	1503.01
1297.01	1401.08
1301.28	1529.49
1305.55	1065.42
1309.82	1199.13
1314.09	1458.47
1318.35	880.67
1322.61	1187.93
1326.87	959.793
1331.13	700.838
1335.38	919.594
1339.63	819.777
1343.88	911.986
1348.12	772.754
1352.37	813.809
1356.61	838.625
1360.85	900.896
1365.08	913.953
1369.31	1128.04
1373.54	968.18
1377.77	977.385
1381.99	1039.63
1386.22	1159.42
1390.43	929.201
1394.65	876.188
1398.87	977.914
1403.08	528.422
1407.29	576.854
1411.49	313.184
1415.69	255.357
1419.89	293.352
1424.09	354.4
1428.29	286.379
1432.48	317.035
1436.67	44.4414
1440.86	137.422
1445.04	78.6992
1449.23	135.137
1453.4	77.0547
1457.58	61.8145
1461.76	225.17
1465.93	88.6328
1470.1	47.3535
1474.26	154.369
1478.43	212.721
1482.59	170.484
1486.75	479.891
1490.9	601.127
1495.06	657.361
1499.21	841.508
1503.35	1019.93
1507.5	1207.84
1511.64	1796.12
1515.78	1102.34
1519.92	1218.16
1524.05	883.072
1528.18	838.842
1532.31	723.807
1536.44	625.041
1540.56	471.279
1544.69	601.785
1548.8	414.478
1552.92	766.965
1557.03	232.297
1561.14	11.9648
1565.25	204.83
1569.36	208.631
