Measurement: Raman, 514 nm, ccw, Raman Data Processed
Mineral: Dravite
Rruff sample: R050059
Ideal chemistry: NaMg_3_Al_6_(Si_6_O_18_)(BO_3_)_3_(OH)_3_OH
Locality: Nepal
Source: Rock Currier
Description: Dark brown single crystal
Measured chemistry: (Na_0.79_[box]_0.16_Ca_0.05_)_Σ=1_(Mg_2.44_Al_0.29_[box]_0.14_Fe^2+^_0.08_Ti_0.05_)_Σ=3_Al_6.00_(BO_3_)_3_Si_6.00_O_18_(OH)_4_ ; H_2_O assumed ideal from stoichiometry; B_2_O_3_ estimated by difference
Pin_id: L00432
Orientation: Laser parallel to -c* (0 0 -1). Fiducial mark perpendicular to laser is parallel to a [1 0 0]
Raman shift (cm-1)	intensity
129.653	0
133.821	163.187
137.987	377.58
142.152	537.356
146.314	611.631
150.474	811.942
154.633	602.191
158.789	410.958
162.943	215.464
167.095	39.82
171.246	25.528
175.394	93.128
179.54	268.068
183.684	456.891
187.826	630.757
191.967	748.33
196.105	778.827
200.241	913.121
204.375	1297.53
208.507	1983.32
212.638	2850.3
216.766	3371.35
220.892	3087.78
225.016	2688.05
229.139	2363.49
233.259	2348.94
237.377	2609.85
241.493	2748.16
245.608	2195.78
249.72	1580.64
253.83	885.689
257.939	556.836
262.045	536.872
266.15	737.725
270.252	742.445
274.353	922.079
278.451	748.671
282.548	357.264
286.642	211.897
290.735	17.594
294.826	7.592
298.914	91.941
303.001	84.13
307.086	242.246
311.168	316.156
315.249	250.496
319.328	16.614
323.405	206.684
327.48	446.724
331.553	939.62
335.624	1285.37
339.693	1642.69
343.76	1709.27
347.826	1991.43
351.889	1961.13
355.95	2945.45
360.01	3058.48
364.067	3654.28
368.123	4693.91
372.176	6225.38
376.228	7136.23
380.277	6086.58
384.325	4605.36
388.371	3622.43
392.415	2896.15
396.457	2367.1
400.497	1897.3
404.535	1618.76
408.571	1412.26
412.605	1132.52
416.638	927.834
420.668	836.458
424.697	667.399
428.723	724.67
432.748	789.279
436.77	820.236
440.791	757.547
444.81	697.22
448.827	627.502
452.842	558.553
456.855	484.408
460.867	395.543
464.876	295.61
468.883	402.436
472.889	387.293
476.892	625.991
480.894	686.062
484.894	954.609
488.892	1169.15
492.888	1367.74
496.882	1574.02
500.874	1414.08
504.865	1491.53
508.853	1204.35
512.84	926.563
516.824	774.179
520.807	862.206
524.788	996.649
528.767	1315.52
532.744	1771.82
536.719	1869.55
540.693	1900.74
544.664	1716.43
548.634	1622.81
552.601	1680.14
556.567	1643.77
560.531	1552.18
564.493	1342.02
568.453	1150.05
572.412	864.218
576.368	608.378
580.323	465.367
584.275	256.066
588.226	224.347
592.175	188.18
596.122	181.527
600.068	268.364
604.011	116.671
607.952	275.456
611.892	283.834
615.83	275.845
619.766	223.429
623.7	230.519
627.632	301.338
631.563	246.411
635.491	120.824
639.418	11.218
643.343	163.896
647.266	210.91
651.187	37.897
655.106	215.358
659.024	480.973
662.939	886.939
666.853	1028.25
670.765	921.889
674.675	699.852
678.583	683.125
682.49	619.698
686.394	585.561
690.297	734.702
694.198	967.108
698.097	1246.73
701.995	1800.94
705.89	2520.53
709.784	3390.47
713.675	4633.66
717.565	6060.59
721.453	7840.44
725.34	9702.81
729.224	9945.69
733.107	8506.67
736.988	6549.01
740.867	5729.86
744.744	5748.43
748.62	5894.81
752.493	6459.28
756.365	7172.87
760.235	7595.77
764.103	8438.51
767.969	9001.06
771.834	9233.43
775.697	10075.6
779.558	11587.5
783.417	13839.2
787.274	15280.7
791.13	15541.9
794.983	13892.7
798.835	12226.6
802.686	11052.6
806.534	11014.6
810.38	11634.1
814.225	11183.3
818.068	10042.3
821.909	7580.8
825.749	5078.97
829.586	3478.76
833.422	2620.16
837.256	2085.16
841.088	1501.75
844.919	999.912
848.748	492.649
852.575	200.934
856.4	39.641
860.223	65.631
864.045	124.341
867.864	173.725
871.682	188.006
875.499	63.18
879.313	57.124
883.126	68.715
886.937	57.335
890.746	102.321
894.553	192.498
898.359	248.032
902.163	363.974
905.965	382.415
909.765	534.344
913.564	642.866
917.361	827.062
921.156	957.968
924.949	1008.59
928.74	1144.84
932.53	1283.63
936.318	1441.98
940.104	1637.86
943.889	1861.26
947.672	1933.18
951.453	2099.7
955.232	2205.93
959.01	2270.85
962.785	2330.52
966.559	2405.37
970.332	2564.96
974.102	2329.1
977.871	2525.81
981.638	2679.07
985.404	2526.92
989.167	2544.33
992.929	2534.33
996.689	2540.92
1000.45	2430.84
1004.2	2453.99
1007.96	2496.42
1011.71	2476.45
1015.46	2635.6
1019.21	2785.95
1022.96	2902.66
1026.71	3022.04
1030.45	3272.32
1034.19	3586.83
1037.94	3977.04
1041.68	4258.97
1045.41	4678.53
1049.15	5138.88
1052.88	5303.79
1056.62	5647.43
1060.35	5694.24
1064.08	5910
1067.8	6138.69
1071.53	6035.31
1075.25	5513.99
1078.97	4619.9
1082.7	3750.05
1086.41	3136.21
1090.13	2597.3
1093.85	2253.34
1097.56	1980.34
1101.27	1677.31
1104.98	1661.24
1108.69	1552.14
1112.4	1597.03
1116.1	1479.9
1119.81	1400.78
1123.51	1355.01
1127.21	1229.53
1130.91	1220.43
1134.61	1390.36
1138.3	1150.33
1141.99	738.335
1145.68	569.398
1149.38	375.549
1153.06	321.855
1156.75	297.392
1160.43	248.417
1164.12	304.071
1167.8	263.495
1171.48	163.803
1175.16	290.937
1178.83	257.842
1182.51	128.423
1186.18	81.462
1189.85	0.102
1193.52	49.546
1197.19	14.187
1200.86	2.719
1204.52	13.279
1208.19	54.409
1211.85	90.804
1215.51	88.198
1219.17	172.905
1222.82	22.971
1226.48	66.898
1230.13	67.758
1233.78	99.603
1237.43	181.507
1241.08	156.53
1244.73	157.671
1248.37	280.934
1252.01	295.318
1255.66	393.825
1259.3	413.455
1262.93	367.208
1266.57	440.083
1270.21	394.088
1273.84	314.198
1277.47	238.779
1281.1	297.603
1284.73	327.315
1288.36	339.55
1291.98	319.252
1295.6	267.981
1299.23	291.681
1302.85	191.8
1306.46	206.188
1310.08	191.91
1313.7	160.645
1317.31	194.09
1320.92	269.585
1324.53	239.908
1328.14	340.175
1331.75	248.597
1335.35	284.818
1338.96	274.456
1342.56	186.191
1346.16	259.835
1349.76	261.387
1353.36	275.474
1356.95	318.445
1360.55	228.643
1364.14	287.937
1367.73	248.455
1371.32	220.166
1374.91	142.265
1378.49	144.511
1382.08	221.464
1385.66	218.499
1389.24	223.605
1392.82	395.778
1396.4	406.005
1399.97	311.274
1403.55	290.559
1407.12	230.824
1410.69	131.847
1414.26	110.497
1417.83	51.895
1421.4	66.791
1424.96	125.338
1428.53	60.597
1432.09	64.611
1435.65	47.567
1439.21	60.832
1442.76	73.447
1446.32	71.404
1449.87	60.156
1453.43	22.728
1456.98	68.538
1460.53	2.727
1464.07	16.074
1467.62	108.499
1471.16	112.531
1474.71	248.878
1478.25	307.34
1481.79	276.007
1485.32	201.572
1488.86	205.342
1492.39	148.833
1495.93	43.125
1499.46	92.787
1502.99	48.237
1506.52	89.688
1510.05	110.463
1513.57	163.484
1517.09	77.245
