Measurement: Raman, 514 nm, ccw, Raman Data Processed
Mineral: Dravite
Rruff sample: R060534
Ideal chemistry: NaMg_3_Al_6_(Si_6_O_18_)(BO_3_)_3_(OH)_3_OH
Locality: Sri Lanka
Source: Gemological Institute of America
Description: Black trigonal prism
Measured chemistry: (Na_0.79_Ca_0.21_)(Mg_0.68_Fe^2+^_0.29_Ti_0.02_Al_0.01_)_3_Al_6.00_(BO_3_)_3_(Si_0.95_Al_005_)_6.00_O_18_(OH)_4_
Pin_id: L01032
Orientation: Laser parallel to c* (0 0 1). Fiducial mark perpendicular to laser is parallel to a [1 0 0]
Raman shift (cm-1)	intensity
297.485	0
301.111	55.9727
304.735	75.7441
308.358	1.66211
311.98	148.869
315.601	241.481
319.22	688.197
322.837	1122.47
326.454	1726.96
330.068	2339.44
333.682	2776.84
337.294	2893.37
340.905	2791.45
344.514	2748.82
348.122	3127.57
351.729	3057.9
355.334	3525.95
358.938	4086.66
362.54	5064.98
366.141	6297.88
369.741	6912.98
373.339	6753.2
376.936	6635.09
380.531	5035.22
384.126	4470.34
387.718	3868.55
391.31	3204.87
394.9	2721.33
398.488	2139.17
402.075	2093.34
405.661	1779.09
409.245	1403.83
412.828	1238.12
416.41	1153.17
419.99	882.777
423.569	722.338
427.146	640.391
430.722	445.656
434.297	22.2266
437.87	174.772
441.442	41.0469
445.012	206.893
448.581	225.973
452.149	17.582
455.715	36.5996
459.28	36.5078
462.843	161.635
466.405	546.984
469.965	687.473
473.525	785.029
477.082	845.592
480.639	1254.07
484.194	1586.74
487.747	1778.62
491.3	1748.54
494.85	1965.68
498.4	1926.66
501.948	1690.45
505.494	1512.86
509.039	1545.48
512.583	1258.67
516.125	1323.25
519.666	1673.25
523.206	1731.9
526.744	2133.26
530.281	2163.3
533.816	2918.03
537.35	2607.42
540.882	2799.45
544.413	2986.11
547.943	2859.99
551.471	2792.78
554.998	2533.9
558.523	2403.25
562.047	2147.4
565.57	1823.3
569.091	1958.12
572.611	1891.08
576.129	1667.72
579.646	1523.77
583.162	1285.92
586.676	1274.09
590.188	1119.3
593.7	1133.09
597.209	1156.18
600.718	900.541
604.225	643.693
607.73	708.482
611.235	785.814
614.737	680.648
618.239	684.963
621.739	670.695
625.237	645.809
628.734	430.277
632.23	137.074
635.724	107.844
639.217	122.764
642.708	48
646.198	53.2891
649.687	299.402
653.174	480.283
656.66	758.361
660.144	1231.62
663.627	1542.06
667.108	1090.72
670.588	1049.34
674.067	791.158
677.544	595.064
681.02	748.043
684.494	993.152
687.967	1018.53
691.438	1577.66
694.908	1954.65
698.377	2505.67
701.844	3029.55
705.31	3927.79
708.774	4899.33
712.237	6305.46
715.698	7401.15
719.158	8425.81
722.617	8732.85
726.074	8897.45
729.53	9151.92
732.984	10141.2
736.437	11173.7
739.888	12542.9
743.338	13784.8
746.787	14613.3
750.234	14883.7
753.68	15442
757.124	16013.2
760.567	16931.7
764.008	17437.6
767.448	16984.4
770.887	16817.3
774.324	17762.7
777.759	18257.3
781.194	17325.9
784.626	14999.1
788.058	11558.5
791.488	8069.25
794.916	5398.34
798.343	3950.55
801.769	3047.35
805.193	2942.24
808.616	2560.38
812.037	2240.75
815.457	1368.35
818.875	976.881
822.292	406.197
825.707	164.338
829.122	219.525
832.534	71.6191
835.945	49.4531
839.355	45.2812
842.763	101.828
846.17	17.7793
849.576	154.148
852.98	63.2383
856.382	122.617
859.783	149.654
863.183	17.9453
866.581	183.963
869.978	105.379
873.373	11.7422
876.767	29.668
880.159	185.723
883.55	354.688
886.94	216.664
890.328	472.647
893.714	566.699
897.1	742.885
900.483	834.236
903.866	896.775
907.246	987.525
910.626	979.527
914.004	1071.96
917.38	1145.97
920.755	1518.47
924.129	1602.4
927.501	1740.84
930.872	1758.75
934.241	2167.11
937.609	2297.89
940.975	2487.29
944.34	2520.36
947.703	2782.36
951.065	2895.74
954.426	3042.98
957.785	3296.74
961.142	3332.91
964.499	3551.14
967.853	3255.34
971.207	3285.56
974.558	3637.85
977.909	3550.67
981.258	3688.48
984.605	3589.27
987.951	3839.13
991.295	3715.06
994.639	3774.11
997.98	3856.14
1001.32	3887.74
1004.66	3646.47
1008	3401.22
1011.33	3472.9
1014.67	3578.76
1018	3551.92
1021.33	3552.15
1024.66	3845.14
1027.99	3743.39
1031.32	3919.68
1034.64	3831.4
1037.97	4263.46
1041.29	4633.65
1044.61	4795.77
1047.93	5286.48
1051.25	5181.17
1054.56	5258.44
1057.88	5426.09
1061.19	5506.64
1064.51	5320.33
1067.82	5035.57
1071.13	4691.69
1074.43	4375.51
1077.74	3937.12
1081.05	3502.62
1084.35	3276.45
1087.65	2845.35
1090.95	2543.23
1094.25	2616.76
1097.55	2587.95
1100.85	2603.24
1104.14	2542.81
1107.43	2297.67
1110.73	2122.88
1114.02	1998.58
1117.31	2107.46
1120.59	2097.26
1123.88	1985.28
1127.16	1706.33
1130.45	1348.94
1133.73	1168.03
1137.01	946.602
1140.29	605.678
1143.57	439.144
1146.84	702.951
1150.12	409.984
1153.39	588.232
1156.66	326.799
1159.93	266.58
1163.2	348.514
1166.46	193.672
1169.73	146.99
1172.99	362.447
1176.26	56.0449
1179.52	324.76
1182.78	220.424
1186.04	115.941
1189.29	217.463
1192.55	3.58594
1195.8	44.5
1199.05	109.174
1202.31	15.1738
1205.55	1.45703
1208.8	61.7734
1212.05	72.8965
1215.29	57.418
1218.54	71.1543
1221.78	41.2734
1225.02	117.893
1228.26	156.428
1231.5	446.894
1234.73	346.506
1237.97	280.26
1241.2	705.15
1244.43	627.17
1247.66	926.311
1250.89	711.561
1254.12	837.906
1257.34	878.451
1260.57	642.971
1263.79	875.566
1267.01	1076.97
1270.23	951.705
1273.45	879.502
1276.67	955.266
1279.88	917.264
1283.1	1016.11
1286.31	886.311
1289.52	1139.38
1292.73	1079.94
1295.94	1830.67
1299.14	1417.71
1302.35	1305.99
1305.55	1358.32
1308.75	1381.62
1311.95	1208.88
1315.15	1173.65
1318.35	1137.65
1321.55	1172.49
1324.74	1057.57
1327.94	1285.5
1331.13	778.092
1334.32	1001.79
1337.51	882.973
1340.69	964.225
1343.88	812.955
1347.06	1023.97
1350.25	509.621
1353.43	645.486
1356.61	521.17
1359.79	575.943
1362.96	635.82
1366.14	491.81
1369.31	339.727
1372.49	365.676
1375.66	281.627
1378.83	635.686
1381.99	150.144
1385.16	388.055
1388.33	223.375
1391.49	55.1816
1394.65	57.3594
1397.81	74.0273
1400.97	298.83
1404.13	156.769
1407.29	33.1367
1410.44	32.0645
1413.59	17.373
1416.74	13.8672
1419.89	90.4277
1423.04	25.5469
1426.19	195.598
1429.34	408.209
1432.48	25.9766
1435.62	383.269
1438.77	295.111
1441.9	412.705
1445.04	521.121
1448.18	463.451
1451.32	383.894
1454.45	311.244
1457.58	461.203
1460.71	410.701
1463.84	573.887
1466.97	389.727
1470.1	435.815
1473.22	336.168
1476.35	454.812
1479.47	211.385
1482.59	374.35
1485.71	297.772
1488.83	332.277
1491.94	241.615
1495.06	425.16
1498.17	283.59
1501.28	350.881
1504.39	444.414
1507.5	481.481
1510.61	115.635
1513.71	457.846
1516.82	393.441
1519.92	515.361
1523.02	442.519
1526.12	339.981
1529.22	585.301
1532.31	80.1543
1535.41	424.955
1538.5	373.236
1541.6	294.603
1544.69	231.69
1547.78	53.1406
1550.86	60.9512
1553.95	156.959
1557.03	155.719
1560.12	300.197
1563.2	164.062
1566.28	253.465
1569.36	210.084
1572.43	0
