Measurement: Raman, 514 nm, ccw, Raman Data Processed
Mineral: Dravite
Rruff sample: R050059
Ideal chemistry: NaMg_3_Al_6_(Si_6_O_18_)(BO_3_)_3_(OH)_3_OH
Locality: Nepal
Source: Rock Currier
Description: Dark brown single crystal
Measured chemistry: (Na_0.79_[box]_0.16_Ca_0.05_)_Σ=1_(Mg_2.44_Al_0.29_[box]_0.14_Fe^2+^_0.08_Ti_0.05_)_Σ=3_Al_6.00_(BO_3_)_3_Si_6.00_O_18_(OH)_4_ ; H_2_O assumed ideal from stoichiometry; B_2_O_3_ estimated by difference
Pin_id: L00432
Orientation: Laser parallel to -c* (0 0 -1). Fiducial mark perpendicular to laser is parallel to a [1 0 0]
Raman shift (cm-1)	intensity
125.482	0
129.653	65.397
133.821	309.861
137.987	491.722
142.152	720.122
146.314	845.002
150.474	858.196
154.633	734.142
158.789	426.901
162.943	136.554
167.095	-1.627
171.246	12.083
175.394	86.492
179.54	286.838
183.684	528.138
187.826	732.042
191.967	822.783
196.105	790.254
200.241	1013.13
204.375	1332.97
208.507	2033.82
212.638	2796.45
216.766	3393.63
220.892	3195.55
225.016	2591.06
229.139	2296.69
233.259	2240.14
237.377	2697.95
241.493	2728.06
245.608	2225.42
249.72	1604.95
253.83	885.601
257.939	672.186
262.045	528.564
266.15	689.776
270.252	777.867
274.353	901.882
278.451	761.861
282.548	380.845
286.642	179.871
290.735	78.816
294.826	38.633
298.914	136.516
303.001	158.679
307.086	209.521
311.168	340.429
315.249	198.462
319.328	18.554
323.405	223.729
327.48	522.752
331.553	888.374
335.624	1199.95
339.693	1543.63
343.76	1556.19
347.826	1746.26
351.889	1906.92
355.95	2484.26
360.01	2972.33
364.067	3670.2
368.123	4693.91
372.176	6116.34
376.228	6938.16
380.277	5989.22
384.325	4537.58
388.371	3511.37
392.415	2917.24
396.457	2382.32
400.497	1925.82
404.535	1558.18
408.571	1361.98
412.605	1175.04
416.638	890.371
420.668	773.987
424.697	722.902
428.723	784.125
432.748	756.667
436.77	787.537
440.791	817.739
444.81	701.281
448.827	641.131
452.842	550.972
456.855	418.508
460.867	397.594
464.876	414.61
468.883	494.553
472.889	446.922
476.892	706.559
480.894	820.452
484.894	1139.71
488.892	1286.52
492.888	1545.09
496.882	1635.36
500.874	1557.86
504.865	1458.72
508.853	1246.93
512.84	1038.52
516.824	834.496
520.807	836.857
524.788	1056.62
528.767	1313.78
532.744	1802.35
536.719	1894.34
540.693	1926.76
544.664	1732.67
548.634	1658.28
552.601	1713.76
556.567	1526.37
560.531	1456.11
564.493	1164.96
568.453	1054.93
572.412	787.922
576.368	549.88
580.323	499.72
584.275	405.243
588.226	293.364
592.175	252.019
596.122	217.171
600.068	261.792
604.011	159.865
607.952	251.397
611.892	201.463
615.83	288.141
619.766	168.333
623.7	203.018
627.632	290.55
631.563	268.297
635.491	111.355
639.418	7.35
643.343	119.151
647.266	146.544
651.187	55.902
655.106	127.934
659.024	467.111
662.939	859.626
666.853	974.468
670.765	932.578
674.675	802.306
678.583	663.861
682.49	657.912
686.394	669.24
690.297	727.832
694.198	986.678
698.097	1269.73
701.995	1806.82
705.89	2453.17
709.784	3506.69
713.675	4545.67
717.565	6123.09
721.453	7746.15
725.34	9671.5
729.224	9809.57
733.107	8377.42
736.988	6540.8
740.867	5683.05
744.744	5632.14
748.62	5858.25
752.493	6422.38
756.365	7115.28
760.235	7657.54
764.103	8449.62
767.969	8921.52
771.834	9273.24
775.697	10024.7
779.558	11406
783.417	13847.1
787.274	15297.9
791.13	15198.4
794.983	13858.6
798.835	11880.5
802.686	11007.8
806.534	10957.5
810.38	11416.1
814.225	11044.7
818.068	9983
821.909	7380.92
825.749	5088.47
829.586	3531.64
833.422	2595.42
837.256	2114.81
841.088	1483.79
844.919	1003.36
848.748	550.499
852.575	162.197
856.4	9.317
860.223	42.989
864.045	136.766
867.864	136.76
871.682	202.46
875.499	119.905
879.313	63.01
883.126	149.597
886.937	26.62
890.746	76.199
894.553	91.222
898.359	184.54
902.163	271.268
905.965	446.48
909.765	526.278
913.564	654.671
917.361	660.725
921.156	849.504
924.949	948.931
928.74	1018
932.53	1162.66
936.318	1311.85
940.104	1586.57
943.889	1754.83
947.672	1916.64
951.453	1964.24
955.232	2132.22
959.01	2232.06
962.785	2259.49
966.559	2396.47
970.332	2532.02
974.102	2430.14
977.871	2494.82
981.638	2620.08
985.404	2564.92
989.167	2608.35
992.929	2586.36
996.689	2520.98
1000.45	2581.21
1004.2	2452.91
1007.96	2503.93
1011.71	2500.45
1015.46	2629.54
1019.21	2745.7
1022.96	2858.17
1026.71	2989.17
1030.45	3214.12
1034.19	3460.21
1037.94	3800.51
1041.68	4253.55
1045.41	4739.81
1049.15	5090.43
1052.88	5402.97
1056.62	5622.2
1060.35	5671.65
1064.08	5997.76
1067.8	6092.21
1071.53	5917.97
1075.25	5472.83
1078.97	4612.42
1082.7	3716.93
1086.41	3097.24
1090.13	2519.5
1093.85	2204.93
1097.56	1904.11
1101.27	1737.26
1104.98	1631.04
1108.69	1580.47
1112.4	1713.56
1116.1	1527.63
1119.81	1361.7
1123.51	1546.79
1127.21	1292.88
1130.91	1197.01
1134.61	1219.16
1138.3	1151.35
1141.99	760.6
1145.68	562.938
1149.38	316.345
1153.06	201.904
1156.75	269.703
1160.43	268.952
1164.12	255.898
1167.8	224.833
1171.48	173.201
1175.16	254.478
1178.83	135.451
1182.51	125.052
1186.18	57.191
1189.85	74.728
1193.52	99.513
1197.19	25.495
1200.86	20.383
1204.52	42.247
1208.19	37.191
1211.85	124.23
1215.51	166.545
1219.17	116.167
1222.82	69.973
1226.48	29.923
1230.13	93.11
1233.78	96.176
1237.43	72.425
1241.08	117.667
1244.73	182.025
1248.37	213.509
1252.01	202.117
1255.66	362.853
1259.3	343.713
1262.93	373.702
1266.57	413.814
1270.21	364.046
1273.84	308.613
1277.47	298.403
1281.1	339.353
1284.73	288.076
1288.36	311.247
1291.98	334.033
1295.6	252.552
1299.23	183.231
1302.85	243.591
1306.46	174.409
1310.08	178.256
1313.7	185.935
1317.31	243.956
1320.92	210.753
1324.53	228.396
1328.14	361.202
1331.75	295.857
1335.35	352.857
1338.96	296.083
1342.56	266.564
1346.16	206.264
1349.76	233.281
1353.36	238.092
1356.95	326.619
1360.55	288.11
1364.14	294.813
1367.73	267.284
1371.32	146.883
1374.91	114.985
1378.49	58.809
1382.08	240.895
1385.66	299.292
1389.24	235.77
1392.82	279.32
1396.4	350.934
1399.97	324.588
1403.55	239.257
1407.12	281.83
1410.69	144.178
1414.26	79.17
1417.83	63.696
1421.4	89.86
1424.96	74.73
1428.53	18.339
1432.09	156.695
1435.65	92.138
1439.21	70.22
1442.76	80.661
1446.32	2.285
1449.87	51.406
1453.43	16.979
1456.98	17.278
1460.53	46.51
1464.07	72.402
1467.62	191.866
1471.16	217.611
1474.71	256.8
1478.25	327.616
1481.79	306.889
1485.32	211.367
1488.86	209.363
1492.39	138.451
1495.93	116.742
1499.46	70.258
1502.99	113.867
1506.52	187.421
1510.05	145.124
1513.57	202.338
1517.09	25.283
