Measurement: Raman, 514 nm, ccw, Raman Data Processed
Mineral: Dravite
Rruff sample: R040088
Ideal chemistry: NaMg_3_Al_6_(Si_6_O_18_)(BO_3_)_3_(OH)_3_OH
Locality: Yinnietharra Station, Pilbara, Western Australia, Australia
Source: University of Arizona Mineral Museum
Description: Brown short prismatic crystal
Measured chemistry: (Na_0.88_Ca_0.06_[box]_0.06_)(Mg_0.88_Al_0.10_Ti_0.04_Fe_0.02_)_3_Al_6.00_(B_1_O_3_)_3_Si_6.00_O_18_((OH)_0.98_F_0.02_)_4_
Pin_id: M00003
Orientation: Laser parallel to c* (0 0 1). Fiducial mark perpendicular to laser is parallel to a [1 0 0]
Raman shift (cm-1)	intensity
174.523	0
178.664	1.307
182.803	8.658
186.94	290.396
191.076	508.012
195.209	547.974
199.34	625.688
203.47	831.071
207.597	1572.24
211.722	2620.04
215.846	3607.81
219.967	3600.06
224.087	2704.46
228.204	2099.86
232.32	1900.62
236.434	2173.81
240.545	2538.89
244.655	2784.08
248.763	2284.35
252.869	1405.28
256.973	854.389
261.075	631.215
265.175	625.83
269.273	710.836
273.369	904.944
277.463	931.156
281.556	625.177
285.646	291.812
289.734	84.868
293.821	87.059
297.905	246.117
301.988	243.059
306.069	54.02
310.147	300.981
314.224	276.987
318.299	107.624
322.372	48.25
326.443	356.91
330.512	776.814
334.579	1140.99
338.645	1592.05
342.708	1820.55
346.769	1770.34
350.829	1949.98
354.887	2373.1
358.942	2992.53
362.996	3624.14
367.048	4668.96
371.098	6152.94
375.146	7865.85
379.192	7527.52
383.236	5728.19
387.279	4408.1
391.319	3597.5
395.358	2944.13
399.394	2388.36
403.429	1879.97
407.462	1556.32
411.493	1324.6
415.522	1140.9
419.549	805.723
423.575	882.961
427.598	795.621
431.619	820.801
435.639	828.28
439.657	797.586
443.673	734.192
447.687	755.206
451.699	603.116
455.709	502.291
459.717	404.785
463.724	322.733
467.728	423.312
471.731	341.506
475.732	431.766
479.731	563.453
483.728	805.747
487.723	1207.14
491.716	1374.02
495.708	1574.94
499.697	1536.2
503.685	1453.46
507.671	1123.88
511.655	788.27
515.637	696.035
519.617	532.189
523.596	624.749
527.572	1043.73
531.547	1529.14
535.52	1927.01
539.491	1964.35
543.46	1614.19
547.427	1631.55
551.393	1667.67
555.356	1788.77
559.318	1582.1
563.278	1374.85
567.236	1051.97
571.192	863.434
575.147	529.161
579.099	327.092
583.05	205.079
586.999	120.936
590.946	103.589
594.891	4.07
598.834	58.092
602.776	16.468
606.715	112.615
610.653	131.491
614.589	173.208
618.523	217.677
622.456	199.76
626.386	435.525
630.315	542.509
634.242	439.07
638.167	323.999
642.09	42.166
646.012	44.82
649.931	47.103
653.849	76.98
657.765	432.504
661.679	1043.47
665.592	1033.88
669.502	956.712
673.411	779.957
677.318	644.605
681.223	903.683
685.126	754.068
689.028	627.858
692.927	912.004
696.825	901.495
700.721	1332.35
704.616	1819.15
708.508	2691.84
712.399	3753.89
716.288	5021.94
720.175	6890.71
724.06	9614.35
727.944	11360.1
731.825	9060.06
735.705	6383.17
739.584	5119.98
743.46	4870.25
747.334	5085.13
751.207	5614.98
755.078	6313.14
758.947	7248.99
762.815	8424.99
766.68	9351.58
770.544	9748
774.406	9954.23
778.267	11540.3
782.125	14236.1
785.982	17041.6
789.837	19556.9
793.69	18942
797.542	16416
801.391	14237
805.239	12936.1
809.085	13959
812.93	15272.3
816.772	15335.2
820.613	13377.8
824.452	10009.9
828.29	6881.57
832.125	5102.84
835.959	4108.66
839.791	3397.02
843.621	2511.92
847.45	1474.34
851.277	804.263
855.102	202.685
858.925	95.519
862.746	59.947
866.566	139.934
870.384	203.94
874.2	204.208
878.015	159.549
881.828	99.798
885.639	121.773
889.448	4.625
893.256	108.786
897.061	153.127
900.865	278.345
904.668	394.041
908.468	565.238
912.267	794.02
916.064	887.495
919.86	947.557
923.653	1109.25
927.445	1134.43
931.236	1419.04
935.024	1590.08
938.811	1745.54
942.596	1905.43
946.379	2130.75
950.161	2175.5
953.94	2338.74
957.719	2450.47
961.495	2749.68
965.27	2680.34
969.043	2737.44
972.814	2775
976.583	2811.01
980.351	2905.49
984.117	3060.43
987.882	3032.85
991.644	2916.75
995.405	2881.13
999.165	2827.01
1002.92	2819.38
1006.68	2822.02
1010.43	2819.14
1014.18	2966.73
1017.93	2967.55
1021.68	3108.25
1025.43	3483.09
1029.18	3706.74
1032.92	3928.05
1036.66	4393.89
1040.4	4588.73
1044.14	4986.62
1047.88	5647.27
1051.62	5913.85
1055.35	6299.94
1059.08	6439.88
1062.81	6501.46
1066.54	6945.74
1070.27	7144.39
1073.99	6712.89
1077.72	5764.87
1081.44	4655.83
1085.16	3756.66
1088.88	3077.38
1092.59	2501.97
1096.31	2131.47
1100.02	1877.86
1103.73	1789.17
1107.44	1648.39
1111.15	1669.53
1114.86	1649.61
1118.57	1488.62
1122.27	1482.59
1125.97	959.515
1129.67	646.412
1133.37	583.291
1137.07	465.164
1140.76	293.043
1144.45	183.955
1148.15	153.904
1151.84	138.919
1155.53	231.069
1159.21	238.494
1162.9	349.472
1166.58	301.227
1170.26	202.875
1173.94	244.756
1177.62	218.17
1181.3	97.379
1184.97	146.232
1188.65	35.641
1192.32	76.415
1195.99	0.551
1199.66	53.66
1203.33	109.13
1206.99	144.127
1210.65	142.465
1214.32	123.194
1217.98	96.244
1221.64	34.411
1225.29	205.039
1228.95	147.681
1232.6	191.344
1236.26	166.021
1239.91	220.704
1243.56	312.386
1247.2	342.057
1250.85	444.75
1254.49	489.549
1258.13	551.457
1261.78	529.473
1265.41	593.6
1269.05	462.836
1272.69	547.324
1276.32	501.478
1279.95	415.973
1283.59	523.102
1287.21	535.935
1290.84	553.107
1294.47	402.742
1298.09	315.364
1301.72	225.75
1305.34	204.765
1308.96	249.224
1312.58	219.001
1316.19	172.898
1319.81	263.05
1323.42	164.574
1327.03	262.599
1330.64	285.136
1334.25	274.653
1337.86	259.013
1341.46	226.6
1345.07	262.985
1348.67	258.533
1352.27	408.848
1355.87	391.315
1359.46	333.688
1363.06	247.388
1366.65	281.184
1370.25	328.724
1373.84	256.872
1377.43	289.363
1381.02	266.314
1384.6	320.502
1388.18	371.717
1391.77	397.154
1395.35	419.311
1398.93	458.513
1402.51	429.752
1406.08	286.006
1409.66	269.233
1413.23	144.359
1416.8	45.262
1420.37	115.629
1423.94	129.274
1427.51	213.075
1431.08	200.743
1434.64	147.013
1438.2	85.905
1441.76	48.675
1445.32	22.77
1448.88	77.943
1452.43	80.197
1455.99	104.848
1459.54	3.359
1463.09	185.11
1466.64	96.993
1470.19	191.895
1473.74	216.485
1477.28	262.924
1480.83	221.211
1484.37	294.593
1487.91	274.846
1491.45	372.646
1494.98	45.985
1498.52	109.763
1502.05	100.62
1505.59	224.993
1509.12	157.324
1512.65	199.432
1516.17	205.254
1519.7	249.468
1523.23	174.569
1526.75	122.227
1530.27	98.671
