Measurement: Raman, 514 nm, ccw, Raman Data Processed
Mineral: Dravite
Rruff sample: R050059
Ideal chemistry: NaMg_3_Al_6_(Si_6_O_18_)(BO_3_)_3_(OH)_3_OH
Locality: Nepal
Source: Rock Currier
Description: Dark brown single crystal
Measured chemistry: (Na_0.79_[box]_0.16_Ca_0.05_)_Σ=1_(Mg_2.44_Al_0.29_[box]_0.14_Fe^2+^_0.08_Ti_0.05_)_Σ=3_Al_6.00_(BO_3_)_3_Si_6.00_O_18_(OH)_4_ ; H_2_O assumed ideal from stoichiometry; B_2_O_3_ estimated by difference
Pin_id: L00191
Orientation: Laser parallel to -a* (-1 0 0). Fiducial mark perpendicular to laser is parallel to -c [0 0 -1]
Raman shift (cm-1)	intensity
103.206	0
107.387	227.993
111.566	232.882
115.744	446.192
119.919	170.317
124.092	430.468
128.263	358.818
132.432	426.123
136.599	626.7
140.764	833.748
144.927	684.221
149.088	622.759
153.247	493.734
157.404	351.467
161.559	149.938
165.711	33.028
169.862	16.707
174.011	4.34
178.158	6.636
182.303	29.62
186.446	186.861
190.587	230.217
194.726	320.716
198.862	420.39
202.997	432.512
207.13	776
211.261	1265.21
215.39	1677.43
219.517	1657.4
223.642	1270.12
227.765	1115.97
231.886	1087.46
236.005	1102.75
240.122	1234.8
244.237	1324.53
248.35	963.943
252.461	548.056
256.57	298.898
260.677	269.491
264.782	309.832
268.885	504.781
272.986	567.13
277.085	364.913
281.182	135.628
285.278	27.12
289.371	5.132
293.462	49.653
297.552	7.104
301.639	58.496
305.724	17.083
309.808	58.515
313.889	143.01
317.969	97.354
322.046	74.584
326.122	261.539
330.196	470.762
334.267	815.518
338.337	1028.14
342.405	1027.18
346.471	991.929
350.535	1162.43
354.597	1384.28
358.657	1816.87
362.715	2534.38
366.771	3905.34
370.825	4755.82
374.877	3898.94
378.928	2575.41
382.976	1953.77
387.023	1695.09
391.067	1381.36
395.11	1157.61
399.15	883.838
403.189	849.06
407.226	604.283
411.261	412.517
415.294	396.771
419.325	402.092
423.354	353.398
427.381	323.352
431.406	408.857
435.43	512.867
439.451	536.081
443.471	512.078
447.488	459.296
451.504	490.96
455.518	391.919
459.53	323.784
463.54	348.051
467.548	305.587
471.554	329.59
475.558	269.847
479.561	175.36
483.561	263.457
487.559	420.471
491.556	566.233
495.551	737.003
499.544	850.909
503.535	1049.03
507.524	1045.41
511.511	808.983
515.496	660.696
519.48	623.535
523.461	625.505
527.441	821.61
531.418	1017.86
535.394	1201.27
539.368	1250.85
543.34	1028.61
547.311	766.614
551.279	473.925
555.245	413.653
559.21	303.841
563.173	202.42
567.133	152.041
571.092	65.889
575.049	55.799
579.005	14.166
582.958	37.91
586.909	67.074
590.859	37.136
594.807	46.546
598.753	99.143
602.697	96.953
606.639	81.019
610.579	123.403
614.518	202.13
618.454	182.201
622.389	117.57
626.322	118.276
630.253	277.487
634.182	478.333
638.109	382.715
642.035	104.503
645.958	62.467
649.88	38.312
653.8	70.911
657.718	124.244
661.634	321.744
665.549	417.406
669.461	626.225
673.372	724.197
677.281	628.316
681.188	543.582
685.093	557.987
688.997	804.53
692.898	1101.2
696.798	1582.04
700.696	2273.7
704.592	2774.28
708.486	2653.72
712.378	1896.03
716.269	1297.34
720.158	1084.76
724.045	908.885
727.93	928.146
731.813	1170.82
735.694	1266.43
739.574	1442.51
743.452	1875.9
747.328	2521.05
751.202	3662.93
755.075	4721.92
758.945	5192.19
762.814	4574.56
766.681	3834.76
770.546	3642.89
774.409	3607.95
778.271	3885.93
782.131	4377.84
785.989	5055.65
789.845	5587.36
793.699	5327.96
797.552	4683.44
801.402	4038.51
805.251	3949.87
809.098	4352.5
812.944	4712.45
816.787	4307.26
820.629	3243.91
824.469	2230.42
828.307	1569.77
832.144	1273.96
835.978	995.981
839.811	826.833
843.642	511.508
847.472	282.005
851.299	116.317
855.125	52.417
858.949	67.146
862.771	82.588
866.591	80.082
870.41	19.29
874.227	19.103
878.042	16.636
881.855	49.885
885.667	65.877
889.476	25.588
893.284	50.22
897.09	83.714
900.895	120.258
904.698	162.008
908.499	224.838
912.298	201.514
916.095	288.032
919.891	344.392
923.685	419.617
927.477	514.701
931.267	543.639
935.056	523.387
938.843	621.921
942.628	681.243
946.411	858.355
950.193	867.26
953.973	890.963
957.751	898.503
961.527	940.888
965.302	1048.08
969.075	1112.08
972.846	1245.87
976.615	1256.45
980.383	1180.84
984.149	1194.04
987.913	1199.04
991.675	1242.84
995.436	1193.46
999.195	1213.88
1002.95	1145.78
1006.71	1104.74
1010.46	1134.19
1014.21	1232.97
1017.96	1404.53
1021.71	1488.68
1025.46	1569.87
1029.2	1602.43
1032.95	1729.57
1036.69	1850.32
1040.43	2194.36
1044.17	2442.72
1047.9	2768.86
1051.64	2663.42
1055.37	2736.92
1059.1	2879.24
1062.83	3084.91
1066.56	3389
1070.29	3654
1074.01	3429.11
1077.73	3173.07
1081.46	2612.77
1085.17	2025.03
1088.89	1635.24
1092.61	1487.46
1096.32	1149.73
1100.04	929.025
1103.75	803.083
1107.46	698.11
1111.16	602.11
1114.87	546.085
1118.57	570.038
1122.28	734.972
1125.98	681.89
1129.67	724.796
1133.37	743.692
1137.07	708.581
1140.76	509.468
1144.45	293.354
1148.14	280.244
1151.83	262.142
1155.52	224.218
1159.21	128.309
1162.89	92.634
1166.57	71.282
1170.25	91.189
1173.93	83.362
1177.61	169.835
1181.28	169.586
1184.96	133.66
1188.63	4.007
1192.3	34.449
1195.97	48.012
1199.64	60.48
1203.3	21.012
1206.97	29.496
1210.63	7.87
1214.29	2.797
1217.95	36.626
1221.6	78.592
1225.26	91.691
1228.91	62.078
1232.57	48.854
1236.21	121.637
1239.86	160.449
1243.51	111.291
1247.16	144.167
1250.8	113.081
1254.44	34.033
1258.08	82.025
1261.72	212.055
1265.36	212.125
1268.99	231.234
1272.63	229.379
1276.26	223.559
1279.89	123.773
1283.52	93.029
1287.15	83.391
1290.77	72.799
1294.4	130.402
1298.02	249.336
1301.64	207.49
1305.26	161.646
1308.88	94.191
1312.49	167.933
1316.11	66.02
1319.72	81.322
1323.33	63.127
1326.94	144.176
1330.55	200.342
1334.15	215.693
1337.76	224.329
1341.36	187.7
1344.96	125.582
1348.56	139.843
1352.16	72.329
1355.75	44.929
1359.35	172.971
1362.94	139.166
1366.53	163.904
1370.12	187.366
1373.71	220.017
1377.3	228.398
1380.88	177.06
1384.46	180.507
1388.05	151.321
1391.63	189.148
1395.2	184.987
1398.78	217.833
1402.36	250.682
1405.93	306.527
1409.5	253.357
1413.07	178.937
1416.64	194.494
1420.21	145.89
1423.78	57.15
1427.34	40.216
1430.9	47.151
1434.46	29.128
1438.02	80.275
1441.58	84.743
1445.13	116.896
1448.69	189.645
1452.24	142.62
1455.79	98.692
1459.34	34.835
1462.89	63.059
1466.44	30.386
1469.98	33.129
1473.53	57.555
1477.07	46.984
1480.61	128.851
1484.14	178.305
1487.68	183.545
1491.22	233.602
1494.75	159.77
1498.28	143.292
1501.81	104.899
1505.34	115.06
1508.87	7.822
1512.4	0.738
1515.92	34.269
1519.44	0
