Measurement: Raman, 514 nm, ccw, Raman Data Processed
Mineral: Dravite
Rruff sample: R060534
Ideal chemistry: NaMg_3_Al_6_(Si_6_O_18_)(BO_3_)_3_(OH)_3_OH
Locality: Sri Lanka
Source: Gemological Institute of America
Description: Black trigonal prism
Measured chemistry: (Na_0.79_Ca_0.21_)(Mg_0.68_Fe^2+^_0.29_Ti_0.02_Al_0.01_)_3_Al_6.00_(BO_3_)_3_(Si_0.95_Al_005_)_6.00_O_18_(OH)_4_
Pin_id: L01264
Orientation: Laser parallel to a* (1 0 0). Fiducial mark perpendicular to laser is parallel to -c [0 0 -1]
Raman shift (cm-1)	intensity
168.486	0
173.385	54.9922
178.282	194.824
183.176	665.738
188.067	2009.58
192.956	3862.87
197.843	6501.58
202.727	11629.1
207.609	16825.7
212.489	25310.4
217.366	24485.9
222.24	19580.9
227.112	17027.3
231.982	19773.8
236.849	27812.8
241.714	36662.1
246.577	33769.8
251.437	21323.8
256.294	12618.8
261.149	8446.35
266.002	5466.01
270.852	5081.37
275.7	2447.91
280.545	1021.73
285.388	233.502
290.229	183.453
295.067	642.417
299.902	458.522
304.735	162.091
309.566	1617.36
314.394	5122.64
319.22	3782.78
324.043	1720.7
328.864	1580.56
333.682	2383.22
338.498	3442.36
343.311	5095.44
348.122	7557.75
352.931	11640.2
357.737	18968.2
362.54	33018.9
367.341	49144.4
372.14	50386.8
376.936	36237.9
381.73	23140.3
386.521	16193.2
391.31	12507.2
396.096	10549
400.88	9449.71
405.661	9138.94
410.44	7675.59
415.216	5693.58
419.99	4423.71
424.761	2353.01
429.53	1592.91
434.297	1320.25
439.061	939.269
443.822	622.585
448.581	558.368
453.337	338.593
458.091	533.02
462.843	645.654
467.592	703.554
472.338	1284.52
477.082	1903.46
481.824	2464.39
486.563	3360.03
491.3	4069.51
496.034	5061.98
500.765	5127.2
505.494	4413.23
510.221	3355.06
514.945	2364.67
519.666	1666.04
524.385	1108.29
529.102	1050.45
533.816	1533.48
538.527	1513.35
543.236	1391.03
547.943	1029.71
552.647	671.699
557.348	147.708
562.047	19.6611
566.744	259.396
571.438	171.895
576.129	222.385
580.818	349.21
585.504	136.144
590.188	111.012
594.87	183.576
599.549	383.81
604.225	631.752
608.899	1202.23
613.57	1584.15
618.239	2383.41
622.905	3927.96
627.569	6748.78
632.23	9637.81
636.889	10382
641.545	10760.3
646.198	12775.8
650.849	12893.2
655.498	12200.8
660.144	12436.3
664.787	14365.9
669.428	16571.3
674.067	16588.7
678.703	13933
683.336	12067.1
687.967	11482.6
692.595	13428.2
697.221	16890.7
701.844	20602.1
706.465	17683.7
711.083	10279.6
715.698	5617.77
720.311	3296.04
724.922	2399.67
729.53	2108.54
734.135	1901.53
738.738	1852.12
743.338	2263.11
747.936	2491.73
752.531	3189.66
757.124	3345.73
761.714	3015.98
766.302	2680.93
770.887	2385.6
775.469	2152.34
780.049	1988.17
784.626	1865.11
789.201	1745.13
793.773	1569.21
798.343	1278.35
802.91	972.539
807.475	796.775
812.037	729.053
816.596	614.371
821.153	713.723
825.707	383.101
830.259	144.454
834.808	35.6152
839.355	147.958
843.899	131.04
848.441	55.6016
852.98	56.9541
857.516	128.69
862.05	201.994
866.581	48.418
871.11	167.307
875.636	97.4209
880.159	62.2598
884.68	262.718
889.199	279.106
893.714	293.479
898.228	345.893
902.738	437.361
907.246	605.952
911.752	621.694
916.255	820.635
920.755	864.811
925.253	998.194
929.748	1035.93
934.241	1221.1
938.731	1559.94
943.218	1936.31
947.703	2219.34
952.186	2852.04
956.665	3302.24
961.142	3929.14
965.617	4037.01
970.089	3950.83
974.558	3815.92
979.025	3693.39
983.489	3602.03
987.951	3632.47
992.41	3713.52
996.866	3943.24
1001.32	4385.14
1005.77	5053.66
1010.22	6328.78
1014.67	7861.14
1019.11	9445.87
1023.55	11274.8
1027.99	12387.9
1032.42	13351.8
1036.86	13406.4
1041.29	13198
1045.72	12807.6
1050.14	12253.1
1054.56	11256.8
1058.98	9885.87
1063.4	8724.75
1067.82	8006.72
1072.23	7116.29
1076.64	6116.98
1081.05	5122.25
1085.45	4311.52
1089.85	3520.27
1094.25	2851.11
1098.65	2442.24
1103.04	2055.36
1107.43	1839.91
1111.82	1575.51
1116.21	1398.9
1120.59	1230.93
1124.97	1052.19
1129.35	638.059
1133.73	591.251
1138.1	439.945
1142.47	346.421
1146.84	331.195
1151.21	225.128
1155.57	25.1592
1159.93	140.262
1164.29	179.421
1168.64	85.9277
1172.99	165.078
1177.34	27.3916
1181.69	33.7637
1186.04	108.863
1190.38	43.0859
1194.72	3.63769
1199.05	142.087
1203.39	11.4287
1207.72	156.705
1212.05	10.3242
1216.37	106.133
1220.7	43.0645
1225.02	38.3945
1229.34	18.0771
1233.65	104.424
1237.97	261.701
1242.28	119.519
1246.59	57.4668
1250.89	215.127
1255.19	246.85
1259.49	90.9385
1263.79	125.656
1268.09	271.233
1272.38	320.665
1276.67	230.941
1280.95	279.06
1285.24	349.016
1289.52	269.809
1293.8	321.441
1298.08	166.899
1302.35	168.2
1306.62	228.205
1310.89	218.862
1315.15	83.5928
1319.42	293.505
1323.68	363.086
1327.94	473.979
1332.19	427.116
1336.44	554.379
1340.69	328.47
1344.94	285.323
1349.19	292.014
1353.43	217.419
1357.67	286.772
1361.9	258.593
1366.14	331.266
1370.37	292.919
1374.6	391.746
1378.83	187.611
1383.05	721.494
1387.27	519.402
1391.49	412.346
1395.7	392.341
1399.92	399.35
1404.13	223.205
1408.34	398.071
1412.54	360.007
1416.74	275.021
1420.94	250.121
1425.14	174.712
1429.34	210.237
1433.53	80.1826
1437.72	229.647
1441.9	173.264
1446.09	231.462
1450.27	112.277
1454.45	54.5371
1458.63	76.1172
1462.8	58.7402
1466.97	179.983
1471.14	78.5019
1475.31	54.8184
1479.47	29.9746
1483.63	222.058
1487.79	147.298
1491.94	67.79
1496.09	246.574
1500.24	267.693
1504.39	540.151
1508.54	494.009
1512.68	460.153
1516.82	401.034
1520.95	339.529
1525.09	206.382
1529.22	355.744
1533.35	310.035
1537.47	146.665
1541.6	203.035
1545.72	154.598
1549.83	21.8223
1553.95	156.94
1558.06	197.688
1562.17	242.575
1566.28	70.167
1570.38	6.29981
