Measurement: Raman, 514 nm, ccw, Raman Data Processed
Mineral: Dravite
Rruff sample: R050059
Ideal chemistry: NaMg_3_Al_6_(Si_6_O_18_)(BO_3_)_3_(OH)_3_OH
Locality: Nepal
Source: Rock Currier
Description: Dark brown single crystal
Measured chemistry: (Na_0.79_[box]_0.16_Ca_0.05_)_Σ=1_(Mg_2.44_Al_0.29_[box]_0.14_Fe^2+^_0.08_Ti_0.05_)_Σ=3_Al_6.00_(BO_3_)_3_Si_6.00_O_18_(OH)_4_ ; H_2_O assumed ideal from stoichiometry; B_2_O_3_ estimated by difference
Pin_id: L00191
Orientation: Laser parallel to -a* (-1 0 0). Fiducial mark perpendicular to laser is parallel to -c [0 0 -1]
Raman shift (cm-1)	intensity
103.206	0
107.387	12.131
111.566	278.099
115.744	422.632
119.919	439.168
124.092	687.941
128.263	607.955
132.432	957.927
136.599	1465.35
140.764	1698.58
144.927	1386.87
149.088	984.6
153.247	730.013
157.404	310.91
161.559	69.951
165.711	40.375
169.862	46.352
174.011	92.578
178.158	23.419
182.303	47.831
186.446	203.22
190.587	531.707
194.726	1234.45
198.862	2622.93
202.997	4364.69
207.13	8329.24
211.261	16644.3
215.39	25719.9
219.517	25275.1
223.642	18739.1
227.765	15222.9
231.886	14707.5
236.005	15323.2
240.122	17940
244.237	19707.8
248.35	17516.7
252.461	13656.6
256.57	10627.7
260.677	8360.96
264.782	6827
268.885	5958.47
272.986	5183.96
277.085	3780.84
281.182	2309.51
285.278	1506.87
289.371	1182.5
293.462	805.757
297.552	673
301.639	825.691
305.724	1270.49
309.808	2743.13
313.889	4669.41
317.969	3123.54
322.046	1379.09
326.122	777.312
330.196	726.825
334.267	885.805
338.337	1331.24
342.405	1751.39
346.471	2573.91
350.535	4277
354.597	6855.78
358.657	10549.2
362.715	18243.3
366.771	32828
370.825	41463.2
374.877	30799.2
378.928	18255.6
382.976	11622.8
387.023	8420.5
391.067	6008.87
395.11	4816.88
399.15	4547.53
403.189	4724.48
407.226	4434.99
411.261	3586.98
415.294	2768.64
419.325	2130.4
423.354	1381
427.381	780.568
431.406	764.289
435.43	926.148
439.451	897.163
443.471	512.254
447.488	456.7
451.504	462.523
455.518	449.746
459.53	405.385
463.54	447.464
467.548	610.026
471.554	935.095
475.558	941.671
479.561	1050.74
483.561	1463.31
487.559	2115.42
491.556	2639.21
495.551	3091.79
499.544	3348.2
503.535	3870.34
507.524	3548.15
511.511	2959.53
515.496	2542.32
519.48	2078.51
523.461	1504.09
527.441	1127.06
531.418	1081.39
535.394	1269.09
539.368	1532.14
543.34	1287.59
547.311	855.474
551.279	501.918
555.245	312.909
559.21	151.441
563.173	150.454
567.133	231.05
571.092	242.621
575.049	158.533
579.005	156.869
582.958	227.735
586.909	199.09
590.859	33.675
594.807	191.791
598.753	273.407
602.697	294.233
606.639	467.259
610.579	746.473
614.518	1080.87
618.454	1139.43
622.389	1226.16
626.322	1660.04
630.253	2885.06
634.182	5246.22
638.109	6608.5
642.035	5752.9
645.958	5693.4
649.88	7079.99
653.8	8180.66
657.718	7721.4
661.634	7072.19
665.549	7793.02
669.461	9713.87
673.372	12264.7
677.281	12735.6
681.188	11416.5
685.093	10407.4
688.997	9998.23
692.898	10199.1
696.798	11602.5
700.696	13759.1
704.592	15184
708.486	12620.4
712.378	8117.49
716.269	4782.55
720.158	2970.34
724.045	2116.59
727.93	1759.5
731.813	1393.4
735.694	1123.43
739.574	932.473
743.452	928.121
747.328	1098.3
751.202	1396.89
755.075	1544.9
758.945	1451.29
762.814	1048.17
766.681	703.74
770.546	464.144
774.409	367.38
778.271	280.445
782.131	253.332
785.989	350.037
789.845	443.555
793.699	469.88
797.552	346.009
801.402	213.937
805.251	281.658
809.098	608.169
812.944	979.466
816.787	1100.55
820.629	990.402
824.469	813.033
828.307	644.436
832.144	601.606
835.978	637.541
839.811	552.238
843.642	322.695
847.472	132.908
851.299	86.842
855.125	35.402
858.949	14.569
862.771	70.27
866.591	99.689
870.41	84.846
874.227	69.764
878.042	9.424
881.855	8.49
885.667	54.878
889.476	6.543
893.284	22.016
897.09	78.373
900.895	153.651
904.698	164.765
908.499	165.669
912.298	208.356
916.095	335.828
919.891	431.08
923.685	535.102
927.477	593.897
931.267	573.479
935.056	649.884
938.843	810.063
942.628	948.002
946.411	1219.7
950.193	1442.17
953.973	1733.4
957.751	1902.41
961.527	2209.19
965.302	2540.73
969.075	2729.04
972.846	2782.12
976.615	2657.97
980.383	2485.6
984.149	2498.99
987.913	2521.16
991.675	2663.11
995.436	2794.85
999.195	2956.08
1002.95	3224.34
1006.71	3602.78
1010.46	4279.31
1014.21	5368.31
1017.96	6403.75
1021.71	7046.99
1025.46	7471.23
1029.2	7615.11
1032.95	7786.68
1036.69	7629.31
1040.43	7691.86
1044.17	7192.65
1047.9	6569.81
1051.64	5949.56
1055.37	5367.81
1059.1	4884.57
1062.83	4581.61
1066.56	4383.98
1070.29	4202.97
1074.01	3668.74
1077.73	3016.69
1081.46	2441.03
1085.17	1981.07
1088.89	1737.77
1092.61	1582.16
1096.32	1359.67
1100.04	1098.07
1103.75	871.846
1107.46	685.769
1111.16	570.517
1114.87	568.971
1118.57	548.35
1122.28	769.192
1125.98	578.257
1129.67	532.436
1133.37	432.526
1137.07	374.412
1140.76	275.566
1144.45	154.42
1148.14	157.058
1151.83	179.801
1155.52	105.821
1159.21	15.63
1162.89	18.542
1166.57	27.197
1170.25	12.81
1173.93	82.18
1177.61	37.65
1181.28	79.6
1184.96	21.721
1188.63	3.81
1192.3	56.365
1195.97	64.613
1199.64	15.833
1203.3	38.615
1206.97	69.857
1210.63	22.143
1214.29	64.554
1217.95	24.799
1221.6	12.01
1225.26	44.284
1228.91	49.871
1232.57	41.501
1236.21	81.611
1239.86	87.65
1243.51	51.609
1247.16	92.487
1250.8	24.293
1254.44	13.975
1258.08	144.86
1261.72	88.271
1265.36	117.78
1268.99	130.202
1272.63	167.537
1276.26	107.793
1279.89	79.963
1283.52	26.044
1287.15	5.968
1290.77	40.939
1294.4	62.774
1298.02	91.536
1301.64	122.132
1305.26	103.254
1308.88	86.422
1312.49	36.52
1316.11	0.117
1319.72	28.197
1323.33	12.284
1326.94	96.99
1330.55	94.218
1334.15	167.875
1337.76	114.64
1341.36	136.5
1344.96	153.033
1348.56	94.306
1352.16	19.604
1355.75	27.033
1359.35	42.993
1362.94	78.43
1366.53	162.167
1370.12	160.331
1373.71	129.255
1377.3	149.601
1380.88	109.249
1384.46	151.209
1388.05	105.744
1391.63	106.142
1395.2	169.972
1398.78	188.297
1402.36	288.337
1405.93	366.489
1409.5	374.76
1413.07	322.219
1416.64	273.042
1420.21	226.897
1423.78	145.096
1427.34	146.652
1430.9	142.459
1434.46	146.074
1438.02	110.936
1441.58	258.671
1445.13	218.535
1448.69	251.751
1452.24	214.417
1455.79	98.049
1459.34	10.602
1462.89	6.064
1466.44	28.611
1469.98	0.329
1473.53	55.311
1477.07	9.648
1480.61	89.202
1484.14	93.001
1487.68	179.576
1491.22	129.411
1494.75	107.258
1498.28	126.916
1501.81	77.171
1505.34	18.87
1508.87	74.642
1512.4	48.424
1515.92	0.497
1519.44	0
