Measurement: Raman, 514 nm, ccw, Raman Data Processed
Mineral: Dravite
Rruff sample: R050059
Ideal chemistry: NaMg_3_Al_6_(Si_6_O_18_)(BO_3_)_3_(OH)_3_OH
Locality: Nepal
Source: Rock Currier
Description: Dark brown single crystal
Measured chemistry: (Na_0.79_[box]_0.16_Ca_0.05_)_Σ=1_(Mg_2.44_Al_0.29_[box]_0.14_Fe^2+^_0.08_Ti_0.05_)_Σ=3_Al_6.00_(BO_3_)_3_Si_6.00_O_18_(OH)_4_ ; H_2_O assumed ideal from stoichiometry; B_2_O_3_ estimated by difference
Pin_id: L00432
Orientation: Laser parallel to -c* (0 0 -1). Fiducial mark perpendicular to laser is parallel to a [1 0 0]
Raman shift (cm-1)	intensity
128.263	0
132.432	217.213
136.599	382.123
140.764	639.084
144.927	760.332
149.088	809.251
153.247	785.839
157.404	531.116
161.559	228.22
165.711	19.57
169.862	61.817
174.011	96.44
178.158	271.713
182.303	391.385
186.446	638.53
190.587	714.92
194.726	835.85
198.862	984.254
202.997	1205.85
207.13	1830.01
211.261	2636.32
215.39	3269.92
219.517	3339.5
223.642	2813.91
227.765	2480.25
231.886	2451.05
236.005	2518.85
240.122	2699.01
244.237	2618.47
248.35	1739.14
252.461	1127.98
256.57	660.887
260.677	591.667
264.782	633.214
268.885	839.575
272.986	965.798
277.085	807.932
281.182	490.018
285.278	165.099
289.371	61.203
293.462	40.43
297.552	141.899
301.639	162.827
305.724	125.389
309.808	308.189
313.889	263.379
317.969	114.022
322.046	170.187
326.122	447.409
330.196	828.313
334.267	1260.32
338.337	1408.43
342.405	1522.63
346.471	1688.54
350.535	1918.91
354.597	2287.22
358.657	2862.44
362.715	3472.75
366.771	4407.84
370.825	5820.73
374.877	6822.93
378.928	6674.65
382.976	4995.11
387.023	3942.7
391.067	3078.3
395.11	2570.1
399.15	2145.05
403.189	1687.38
407.226	1472.89
411.261	1248.65
415.294	943.673
419.325	924.98
423.354	829.582
427.381	658.49
431.406	775.715
435.43	816.913
439.451	849.151
443.471	790.378
447.488	736.131
451.504	595.546
455.518	502.04
459.53	469.286
463.54	375.995
467.548	412.522
471.554	468.729
475.558	615.19
479.561	577.422
483.561	771.934
487.559	1095.54
491.556	1423.84
495.551	1533.14
499.544	1589.37
503.535	1616.96
507.524	1385.92
511.511	1114.25
515.496	873.96
519.48	768.063
523.461	907.567
527.441	1269.48
531.418	1756.8
535.394	2026.55
539.368	2083.73
543.34	2070.38
547.311	1863.65
551.279	1712.81
555.245	1717.96
559.21	1521.21
563.173	1248.57
567.133	1000.04
571.092	712.627
575.049	590.312
579.005	400.973
582.958	421.443
586.909	257.537
590.859	197.195
594.807	219.374
598.753	133.047
602.697	142.195
606.639	191.811
610.579	250.001
614.518	298.873
618.454	290.281
622.389	238.164
626.322	228.693
630.253	222.314
634.182	187.295
638.109	103.416
642.035	173.682
645.958	110.604
649.88	172.44
653.8	64.86
657.718	472.505
661.634	799.504
665.549	1004.85
669.461	940.522
673.372	959.521
677.281	659.832
681.188	702.445
685.093	669.349
688.997	694.533
692.898	828.986
696.798	1249.88
700.696	1564.22
704.592	2262.11
708.486	3146.11
712.378	4147.74
716.269	5415.38
720.158	7385.78
724.045	9276.18
727.93	10246.8
731.813	8810.71
735.694	6832.52
739.574	5897.95
743.452	5646.27
747.328	5765.88
751.202	6234.59
755.075	6925.88
758.945	7588.99
762.814	8191.94
766.681	8974.7
770.546	9297.28
774.409	9819.65
778.271	11121.8
782.131	13433.7
785.989	14945.4
789.845	15606.8
793.699	14998
797.552	12873.3
801.402	11532.7
805.251	11241.2
809.098	11680.2
812.944	11764.7
816.787	10728.8
820.629	8427.61
824.469	5906.01
828.307	3960.02
832.144	2949.64
835.978	2290.86
839.811	1897.66
843.642	1227.04
847.472	631.99
851.299	298.495
855.125	11.477
858.949	58.441
862.771	80.672
866.591	135.406
870.41	134.803
874.227	173.888
878.042	115.692
881.855	106.195
885.667	32.332
889.476	43.181
893.284	123.71
897.09	229.522
900.895	305.731
904.698	377.387
908.499	517.508
912.298	615.189
916.095	739.522
919.891	783.568
923.685	970.298
927.477	1060.64
931.267	1138.57
935.056	1282.05
938.843	1539.04
942.628	1749.55
946.411	1904.58
950.193	2099.19
953.973	2208.43
957.751	2306.45
961.527	2333.92
965.302	2390.02
969.075	2403.65
972.846	2538.84
976.615	2542.57
980.383	2638.86
984.149	2684.72
987.913	2582.14
991.675	2609.14
995.436	2611.72
999.195	2492.88
1002.95	2544.93
1006.71	2525.71
1010.46	2468.34
1014.21	2575.72
1017.96	2808.28
1021.71	2940.18
1025.46	3091.69
1029.2	3256.16
1032.95	3481.24
1036.69	3706.83
1040.43	4196.1
1044.17	4672.39
1047.9	5212.61
1051.64	5524.65
1055.37	5607.78
1059.1	5774.57
1062.83	5848.57
1066.56	6164.85
1070.29	6175.7
1074.01	5805.73
1077.73	5055.18
1081.46	4025.03
1085.17	3299.95
1088.89	2613.76
1092.61	2288.52
1096.32	1934.22
1100.04	1858.88
1103.75	1679.51
1107.46	1601.11
1111.16	1589.69
1114.87	1482.25
1118.57	1473.81
1122.28	1603.36
1125.98	1398.92
1129.67	1316.49
1133.37	1380.09
1137.07	1286.73
1140.76	827.416
1144.45	548.15
1148.14	380.983
1151.83	372.908
1155.52	341.011
1159.21	250.582
1162.89	240.781
1166.57	157.67
1170.25	224.305
1173.93	263.701
1177.61	246.816
1181.28	176.679
1184.96	136.18
1188.63	128.17
1192.3	86.444
1195.97	9.104
1199.64	20.54
1203.3	38.126
1206.97	2.129
1210.63	9.485
1214.29	119.083
1217.95	97.047
1221.6	84.138
1225.26	117.467
1228.91	1.074
1232.57	137.648
1236.21	93.267
1239.86	159.995
1243.51	153.846
1247.16	246.824
1250.8	238.928
1254.44	289.16
1258.08	304.52
1261.72	373.009
1265.36	425.626
1268.99	452.368
1272.63	402.243
1276.26	412.524
1279.89	371.059
1283.52	203.361
1287.15	161.197
1290.77	232.385
1294.4	180.267
1298.02	192.959
1301.64	282.564
1305.26	214.59
1308.88	179.559
1312.49	166.589
1316.11	254.491
1319.72	156.698
1323.33	158.687
1326.94	303.384
1330.55	347.727
1334.15	311.861
1337.76	311.008
1341.36	325.945
1344.96	286.402
1348.56	239.897
1352.16	306.573
1355.75	228.744
1359.35	165.302
1362.94	142.257
1366.53	317.326
1370.12	169.083
1373.71	185.756
1377.3	176.03
1380.88	256.114
1384.46	222.082
1388.05	189.139
1391.63	187.275
1395.2	205.484
1398.78	234.754
1402.36	240.057
1405.93	282.351
1409.5	259.494
1413.07	211.371
1416.64	83.746
1420.21	105.686
1423.78	55.271
1427.34	85.579
1430.9	43.672
1434.46	58.322
1438.02	20.777
1441.58	3.125
1445.13	119.399
1448.69	115.043
1452.24	75.25
1455.79	66.571
1459.34	80.983
1462.89	24.49
1466.44	124.12
1469.98	115.087
1473.53	145.564
1477.07	161.564
1480.61	187.25
1484.14	183.437
1487.68	134.351
1491.22	164.363
1494.75	202.816
1498.28	237.044
1501.81	144.209
1505.34	149.615
1508.87	61.876
1512.4	8.754
1515.92	87.655
1519.44	0
