Measurement: Raman, 514 nm, ccw, Raman Data Processed
Mineral: Dravite
Rruff sample: R050059
Ideal chemistry: NaMg_3_Al_6_(Si_6_O_18_)(BO_3_)_3_(OH)_3_OH
Locality: Nepal
Source: Rock Currier
Description: Dark brown single crystal
Measured chemistry: (Na_0.79_[box]_0.16_Ca_0.05_)_Σ=1_(Mg_2.44_Al_0.29_[box]_0.14_Fe^2+^_0.08_Ti_0.05_)_Σ=3_Al_6.00_(BO_3_)_3_Si_6.00_O_18_(OH)_4_ ; H_2_O assumed ideal from stoichiometry; B_2_O_3_ estimated by difference
Pin_id: L00191
Orientation: Laser parallel to -a* (-1 0 0). Fiducial mark perpendicular to laser is parallel to -c [0 0 -1]
Raman shift (cm-1)	intensity
103.206	0
107.387	227.955
111.566	272.303
115.744	556.905
119.919	461.662
124.092	601.557
128.263	493.146
132.432	730.35
136.599	915.294
140.764	1059.48
144.927	1115.71
149.088	705.529
153.247	597.162
157.404	329.446
161.559	142.061
165.711	46.565
169.862	61.574
174.011	31.918
178.158	112.879
182.303	102.264
186.446	44.126
190.587	292.464
194.726	677.764
198.862	990.455
202.997	1556.04
207.13	3003.02
211.261	5980.06
215.39	9309.96
219.517	9209.22
223.642	6827.42
227.765	5810.94
231.886	5452.33
236.005	5666.19
240.122	6604.52
244.237	7162.31
248.35	6080.55
252.461	4715.23
256.57	3536.47
260.677	2698.9
264.782	2178.63
268.885	1965.38
272.986	1789.03
277.085	1367.66
281.182	850.624
285.278	581.747
289.371	507.788
293.462	380.803
297.552	275.983
301.639	464.822
305.724	631.083
309.808	932.202
313.889	1530.92
317.969	1022.18
322.046	578.359
326.122	484.085
330.196	657.077
334.267	1017.66
338.337	1460.26
342.405	1743.82
346.471	1968.95
350.535	2405.18
354.597	3150.21
358.657	4397.04
362.715	7200.07
366.771	12605.3
370.825	15840.7
374.877	11746.4
378.928	7223.05
382.976	4443.2
387.023	3197.43
391.067	2243.89
395.11	1786.6
399.15	1644.55
403.189	1684.19
407.226	1516.18
411.261	1163.69
415.294	883.981
419.325	578.914
423.354	419.005
427.381	226.523
431.406	277.313
435.43	372.105
439.451	312.052
443.471	151.457
447.488	119.832
451.504	179.203
455.518	127.596
459.53	74.034
463.54	85.546
467.548	157.163
471.554	358.924
475.558	364.847
479.561	455.934
483.561	736.203
487.559	1094.7
491.556	1335.48
495.551	1433.6
499.544	1482.06
503.535	1624.97
507.524	1468.46
511.511	1181.36
515.496	1003.47
519.48	801.696
523.461	573.033
527.441	510.477
531.418	532.024
535.394	782.669
539.368	815.413
543.34	661.262
547.311	437.238
551.279	305.321
555.245	144.81
559.21	91.457
563.173	2.333
567.133	111.696
571.092	124.938
575.049	30.408
579.005	72.101
582.958	93.034
586.909	102.187
590.859	9.6
594.807	80.883
598.753	90.329
602.697	130.805
606.639	121.311
610.579	310.844
614.518	434.402
618.454	860.984
622.389	466.585
626.322	583.203
630.253	1125.83
634.182	1986.47
638.109	2501.12
642.035	2111.76
645.958	2125.4
649.88	2637.03
653.8	3027.64
657.718	2926.23
661.634	2846.79
665.549	3159.31
669.461	3944.78
673.372	4871.2
677.281	5131.56
681.188	4693.85
685.093	4393.08
688.997	4317.24
692.898	4346.33
696.798	5016.15
700.696	6141.12
704.592	6769.24
708.486	5663.07
712.378	3826.68
716.269	2438.64
720.158	1718.15
724.045	1396.06
727.93	1321.55
731.813	1141.58
735.694	1052.71
739.574	1028.01
743.452	1183.34
747.328	1455.3
751.202	1789.03
755.075	2143.46
758.945	2232.65
762.814	1960.65
766.681	1623.51
770.546	1404.23
774.409	1299.82
778.271	1391.28
782.131	1557.6
785.989	1796.77
789.845	2019.81
793.699	1923.7
797.552	1741.44
801.402	1458.04
805.251	1480.49
809.098	1700.78
812.944	1973.93
816.787	1902.91
820.629	1520.75
824.469	1154.42
828.307	853.944
832.144	700.304
835.978	645.505
839.811	470.545
843.642	300.424
847.472	141.141
851.299	66.685
855.125	41.024
858.949	23.082
862.771	66.266
866.591	47.126
870.41	66.495
874.227	25.829
878.042	13.678
881.855	23.182
885.667	31.034
889.476	51.134
893.284	21.533
897.09	81.149
900.895	121.792
904.698	128.384
908.499	213.865
912.298	229.225
916.095	297.479
919.891	381.656
923.685	413.496
927.477	435.688
931.267	503.539
935.056	510.251
938.843	604.818
942.628	676.241
946.411	891.52
950.193	937.657
953.973	1130.65
957.751	1229.51
961.527	1433.23
965.302	1588.81
969.075	1712.25
972.846	1874.56
976.615	1873.74
980.383	1824.78
984.149	1855.7
987.913	1801.48
991.675	1855.14
995.436	1819.68
999.195	1790.87
1002.95	1863.05
1006.71	1992.08
1010.46	2309.78
1014.21	2663.65
1017.96	3154.15
1021.71	3453.45
1025.46	3729.42
1029.2	3865.84
1032.95	4050.19
1036.69	3979.18
1040.43	4029.56
1044.17	3874.75
1047.9	3742.88
1051.64	3437.02
1055.37	3262.12
1059.1	3010.65
1062.83	3022.9
1066.56	2961.84
1070.29	3027.93
1074.01	2654
1077.73	2361.65
1081.46	1942.06
1085.17	1571.02
1088.89	1348.7
1092.61	1204.32
1096.32	989.881
1100.04	846.578
1103.75	702.035
1107.46	564.441
1111.16	489.797
1114.87	486.13
1118.57	473.391
1122.28	507.606
1125.98	460.778
1129.67	400.01
1133.37	448.096
1137.07	438.141
1140.76	271.147
1144.45	210.253
1148.14	145.184
1151.83	107.089
1155.52	100.163
1159.21	42.242
1162.89	17.514
1166.57	44.935
1170.25	34.923
1173.93	30.268
1177.61	17.144
1181.28	56.182
1184.96	15.254
1188.63	11.438
1192.3	59.377
1195.97	11.296
1199.64	34.307
1203.3	19.441
1206.97	49.11
1210.63	57.303
1214.29	2.866
1217.95	25.53
1221.6	47.379
1225.26	20.367
1228.91	39.545
1232.57	82.4
1236.21	141.204
1239.86	90.984
1243.51	98.742
1247.16	93.479
1250.8	287.195
1254.44	100.891
1258.08	126.564
1261.72	159.216
1265.36	192.844
1268.99	117.449
1272.63	169.023
1276.26	117.56
1279.89	111.047
1283.52	100.5
1287.15	33.921
1290.77	151.308
1294.4	91.669
1298.02	96.007
1301.64	102.676
1305.26	90.783
1308.88	30.942
1312.49	72.098
1316.11	10.253
1319.72	14.785
1323.33	39.858
1326.94	83.098
1330.55	150.925
1334.15	119.622
1337.76	140.655
1341.36	79.377
1344.96	120.285
1348.56	82.983
1352.16	88.349
1355.75	59.883
1359.35	45.558
1362.94	99.081
1366.53	131.26
1370.12	173.316
1373.71	126.897
1377.3	123.222
1380.88	148.398
1384.46	117.26
1388.05	124.248
1391.63	130.141
1395.2	142.992
1398.78	209.649
1402.36	267.349
1405.93	217.802
1409.5	216.34
1413.07	194.371
1416.64	142.121
1420.21	177.271
1423.78	115.531
1427.34	98.015
1430.9	150.63
1434.46	91.429
1438.02	249.501
1441.58	150.72
1445.13	115.442
1448.69	139.489
1452.24	96.689
1455.79	6.878
1459.34	51.052
1462.89	2.766
1466.44	35.547
1469.98	29.186
1473.53	83.503
1477.07	8.491
1480.61	108.784
1484.14	67.145
1487.68	121.531
1491.22	120.373
1494.75	47.936
1498.28	149.623
1501.81	59.25
1505.34	43.19
1508.87	63.036
1512.4	15.628
1515.92	2.952
1519.44	0
