Measurement: Raman, 514 nm, ccw, Raman Data Processed
Mineral: Dravite
Rruff sample: R060286
Ideal chemistry: NaMg_3_Al_6_(Si_6_O_18_)(BO_3_)_3_(OH)_3_OH
Locality: Badakshan Province, Afghanistan
Source: Herb Obodda
Description: Brown prismatic tourmaline crystal
Measured chemistry: (Na_0.48_Ca_0.38_[box]_0.14_)_Σ=1_(Mg_2.90_Ti_0.10_)_Σ=3_Al_6.00_(B_1.00_O_3_)_3_(Si_5.56_B_0.44_)_Σ=6_O_18_(OH)_4_; (OH) assumed from stoichiometry; B estimated by difference and charge balance
Pin_id: L01259
Orientation: Laser parallel to c* (0 0 1). Fiducial mark perpendicular to laser is parallel to a [1 0 0]
Raman shift (cm-1)	intensity
118.134	0
123.058	867.908
127.979	1615.02
132.898	2870.68
137.814	3527.4
142.728	4105.33
147.639	4185.78
152.549	3307.03
157.455	1464.12
162.359	323.219
167.261	221.981
172.161	338.458
177.058	101.144
181.952	1019.3
186.845	2793.29
191.734	4379.29
196.622	5870.14
201.507	8742.77
206.389	14328.6
211.269	23008.6
216.147	24311.4
221.022	17664
225.895	12250.9
230.765	11340.8
235.633	13336.7
240.498	15751.3
245.361	13504.6
250.222	7427.51
255.08	3083.89
259.936	1860.86
264.789	1863.69
269.64	3087.08
274.488	4318.43
279.334	3546.73
284.178	2202.11
289.019	1162.48
293.857	1061.64
298.693	856.58
303.527	162.057
308.358	505.111
313.187	74.2031
318.013	1474.81
322.837	3366.05
327.659	5898.14
332.478	8901.72
337.294	10595.7
342.108	10517
346.92	10258.5
351.729	12435.2
356.535	17277
361.34	25138
366.141	36477.9
370.94	44227.9
375.737	40589.1
380.531	28852.3
385.323	18462.5
390.113	12758.5
394.9	10094.3
399.684	8296.77
404.466	7562.88
409.245	6259.54
414.022	4318.83
418.797	2742.74
423.569	1918.29
428.338	1386.55
433.105	1377.09
437.87	1689.5
442.632	2063
447.391	2240.11
452.149	2517.68
456.903	2571.71
461.655	3525.01
466.405	5007.98
471.152	7999.75
475.897	11295.6
480.639	12985.5
485.378	13288.3
490.116	12812.1
494.85	11992.7
499.582	10432
504.312	8565.12
509.039	6411.86
513.764	4867.19
518.486	4398.05
523.206	5428.35
527.923	7350.03
532.638	8145.02
537.35	7579.24
542.059	6901.64
546.766	5755.12
551.471	4738.65
556.173	3494.13
560.873	2327.49
565.57	1082.67
570.264	433.584
574.957	357.342
579.646	564.443
584.333	675.055
589.018	675.537
593.7	409.795
598.379	56.9023
603.056	77.0469
607.73	503.765
612.402	937.637
617.072	1740.13
621.739	2216.83
626.403	3400.47
631.065	4096.85
635.724	3282.83
640.381	2102.35
645.035	2143.32
649.687	2776.67
654.336	4509.33
658.983	6702.22
663.627	8555.27
668.268	10097.4
672.907	10436.6
677.544	9675.67
682.178	8591.67
686.809	8479.48
691.438	9431.03
696.065	11591.3
700.688	15156.1
705.31	19870.5
709.929	26383.5
714.545	35238.7
719.158	43362.8
723.77	44381.1
728.378	36059.2
732.984	25995.8
737.588	20437
742.189	19088.9
746.787	20702.4
751.383	24193.7
755.976	27860.6
760.567	30259.6
765.155	29552.2
769.741	27539.5
774.324	25897
778.904	24373
783.482	23752.4
788.058	24517.4
792.631	25229.8
797.201	24631.6
801.769	22694.8
806.334	21212.4
810.897	20946.4
815.457	21684.8
820.014	20902.5
824.569	17254.5
829.122	12682.9
833.671	8448.51
838.219	5094.4
842.763	2755.56
847.306	1017.95
851.845	346.981
856.382	152.894
860.917	414.217
865.448	460.755
869.978	467.356
874.505	390.164
879.029	207.367
883.55	14.1787
888.069	61.9209
892.586	463.625
897.1	689.977
901.611	962.328
906.12	1285.05
910.626	1559.26
915.129	1777.19
919.63	2045.07
924.129	2230.12
928.625	2533.39
933.118	2830.99
937.609	3169.99
942.097	3794.07
946.582	4203.07
951.065	4998.34
955.546	5823.9
960.023	6771.66
964.499	7437.02
968.971	8389
973.441	9610.63
977.909	10862.9
982.374	11465
986.836	10609.7
991.295	9387.79
995.753	7984.08
1000.21	6943.61
1004.66	6388.61
1009.11	6355.52
1013.55	7045.69
1018	8271.32
1022.44	9935.37
1026.88	11475.9
1031.32	13439.8
1035.75	15879.2
1040.18	18569.1
1044.61	20511.2
1049.04	22107.7
1053.46	22926.2
1057.88	24172.3
1062.3	26849.5
1066.71	29048
1071.13	28558.2
1075.54	25312
1079.94	20740
1084.35	16402.8
1088.75	12506.1
1093.15	9652.17
1097.55	7640.02
1101.94	6201.7
1106.34	5338.21
1110.73	4525.58
1115.11	4745.83
1119.5	5275.06
1123.88	6015.98
1128.26	5655.95
1132.63	4969.52
1137.01	3668.97
1141.38	2070.37
1145.75	1052.22
1150.12	553.558
1154.48	213.766
1158.84	83.4932
1163.2	37.4258
1167.55	148.622
1171.91	2.10156
1176.26	162.944
1180.61	72.8144
1184.95	95.8877
1189.29	114.353
1193.63	189.326
1197.97	145.918
1202.31	2.17773
1206.64	117.489
1210.97	127.383
1215.29	418.103
1219.62	567.758
1223.94	1037.35
1228.26	1169.88
1232.57	1357.36
1236.89	1508.77
1241.2	1576.14
1245.51	1720.44
1249.81	1820.7
1254.12	1840.89
1258.42	1734.99
1262.72	1608.92
1267.01	1801.63
1271.3	1624.05
1275.59	1627.14
1279.88	1579.86
1284.17	1491.18
1288.45	1256
1292.73	1328.1
1297.01	1205.54
1301.28	1223.84
1305.55	1117.14
1309.82	1054.11
1314.09	925.213
1318.35	786.457
1322.61	975.295
1326.87	820.967
1331.13	728.481
1335.38	520.535
1339.63	696.689
1343.88	673.118
1348.12	515.606
1352.37	533.05
1356.61	549.459
1360.85	469.839
1365.08	502.208
1369.31	632.577
1373.54	800.966
1377.77	768.361
1381.99	798.643
1386.22	815.091
1390.43	617.606
1394.65	668.537
1398.87	567.455
1403.08	512.294
1407.29	278.036
1411.49	305.653
1415.69	187.1
1419.89	155.761
1424.09	171.82
1428.29	60.1465
1432.48	82.582
1436.67	126.497
1440.86	144.428
1445.04	155.133
1449.23	221.668
1453.4	104.198
1457.58	6.97266
1461.76	218.174
1465.93	140.53
1470.1	126.071
1474.26	313.826
1478.43	347.831
1482.59	447.195
1486.75	586.122
1490.9	601.747
1495.06	681.211
1499.21	786.961
1503.35	889.851
1507.5	1052.31
1511.64	1136.06
1515.78	830.403
1519.92	1090.38
1524.05	893.509
1528.18	831.066
1532.31	708.618
1536.44	659.539
1540.56	538.979
1544.69	416.11
1548.8	415.783
1552.92	573.57
1557.03	249.974
1561.14	390.115
1565.25	148.619
1569.36	176.227
