Measurement: Raman, 514 nm, ccw, Raman Data Processed
Mineral: Dravite
Rruff sample: R060534
Ideal chemistry: NaMg_3_Al_6_(Si_6_O_18_)(BO_3_)_3_(OH)_3_OH
Locality: Sri Lanka
Source: Gemological Institute of America
Description: Black trigonal prism
Measured chemistry: (Na_0.79_Ca_0.21_)(Mg_0.68_Fe^2+^_0.29_Ti_0.02_Al_0.01_)_3_Al_6.00_(BO_3_)_3_(Si_0.95_Al_005_)_6.00_O_18_(OH)_4_
Pin_id: L01032
Orientation: Laser parallel to c* (0 0 1). Fiducial mark perpendicular to laser is parallel to a [1 0 0]
Raman shift (cm-1)	intensity
297.485	0
301.111	259.174
304.735	32.9883
308.358	167.162
311.98	235.16
315.601	265.553
319.22	904.34
322.837	1470.58
326.454	2027.95
330.068	2529.69
333.682	3147.38
337.294	3124.09
340.905	3116.73
344.514	3228.41
348.122	3382.5
351.729	3546.58
355.334	3733.22
358.938	4477.39
362.54	5687.39
366.141	6626.22
369.741	7152.14
373.339	6940.5
376.936	6127.06
380.531	5438.61
384.126	4445.15
387.718	3897.03
391.31	3422.29
394.9	2903.94
398.488	2595.26
402.075	2402.8
405.661	1990.03
409.245	1512.51
412.828	1524.16
416.41	1094.98
419.99	608.986
423.569	437.164
427.146	295.508
430.722	103.027
434.297	49.7461
437.87	127.307
441.442	284.697
445.012	180.25
448.581	134.539
452.149	22.2227
455.715	30.1152
459.28	60.873
462.843	95.2519
466.405	311.09
469.965	452.283
473.525	794.738
477.082	960.377
480.639	1249.07
484.194	1388.75
487.747	1780.41
491.3	1895.02
494.85	1842.05
498.4	1976.49
501.948	1954.53
505.494	1767.15
509.039	1638.83
512.583	1393.19
516.125	1531.97
519.666	1805.88
523.206	1974.44
526.744	2263.43
530.281	2591.24
533.816	2937.87
537.35	2958.3
540.882	2944.51
544.413	3080.3
547.943	3329.7
551.471	2952.67
554.998	2784.97
558.523	2598.12
562.047	2184.41
565.57	2082.75
569.091	1797.11
572.611	1946.81
576.129	1663.95
579.646	1668.05
583.162	1372.94
586.676	1268.9
590.188	1258.03
593.7	1002.87
597.209	1022.61
600.718	953.283
604.225	651.197
607.73	788.531
611.235	686.531
614.737	905.182
618.239	727.404
621.739	621.143
625.237	788.361
628.734	306.023
632.23	63.1094
635.724	99.4629
639.217	262.943
642.708	98.4141
646.198	100.82
649.687	32.0645
653.174	512.943
656.66	1570.23
660.144	1395.78
663.627	1703.57
667.108	1430.58
670.588	963.797
674.067	756.188
677.544	447.734
681.02	866.412
684.494	965.668
687.967	1111.92
691.438	1561.77
694.908	2231.51
698.377	2750.2
701.844	3539.67
705.31	4613.57
708.774	5837.01
712.237	7237.55
715.698	8531
719.158	9644.09
722.617	10186.4
726.074	10412.6
729.53	10671.9
732.984	11768.8
736.437	13449.1
739.888	14897.5
743.338	16150.5
746.787	17217.9
750.234	17311
753.68	17727.6
757.124	18231.7
760.567	19180.9
764.008	19621.4
767.448	19496.9
770.887	19235.7
774.324	19949.2
777.759	20544.1
781.194	19204.4
784.626	16718.7
788.058	12757.4
791.488	9204.63
794.916	6240.11
798.343	4442.78
801.769	3881.64
805.193	3412.67
808.616	2930.86
812.037	2380.2
815.457	1738.88
818.875	911.268
822.292	370.029
825.707	481.801
829.122	376.516
832.534	100.082
835.945	115.916
839.355	69.4082
842.763	65.9785
846.17	268.295
849.576	206.191
852.98	190.727
856.382	133.83
859.783	30.625
863.183	64.8457
866.581	63.2285
869.978	51.418
873.373	38.0938
876.767	299.481
880.159	70.6231
883.55	298.537
886.94	332.31
890.328	588.959
893.714	655.594
897.1	751.266
900.483	915.008
903.866	861.848
907.246	1091.82
910.626	1325.07
914.004	1157.62
917.38	1796.64
920.755	1666.02
924.129	1724.66
927.501	1746.48
930.872	2132.48
934.241	2167.86
937.609	2553.55
940.975	2526.49
944.34	2875.77
947.703	3329.55
951.065	3250.8
954.426	3569.47
957.785	3908.73
961.142	3690.18
964.499	3678.64
967.853	3563.77
971.207	3765.98
974.558	3868.74
977.909	3906.78
981.258	3947.84
984.605	3914.99
987.951	3674.7
991.295	3965.94
994.639	3711.64
997.98	3556.08
1001.32	3818.94
1004.66	3640.27
1008	3918.76
1011.33	3661.63
1014.67	3506.23
1018	3745.92
1021.33	3735.28
1024.66	3682.89
1027.99	4246.05
1031.32	3902.48
1034.64	4350.58
1037.97	4498.78
1041.29	5160.45
1044.61	5262.51
1047.93	5418.06
1051.25	5463.11
1054.56	5961.33
1057.88	5836.75
1061.19	5571.63
1064.51	5559.2
1067.82	5660.11
1071.13	5077.23
1074.43	4453.31
1077.74	4100.3
1081.05	3804.57
1084.35	3515.77
1087.65	3100.78
1090.95	2926.21
1094.25	2967.97
1097.55	3054.28
1100.85	2491.8
1104.14	2660.77
1107.43	2733.26
1110.73	2643.19
1114.02	2067.82
1117.31	2008.41
1120.59	2069.97
1123.88	1856.42
1127.16	1680.71
1130.45	1306.78
1133.73	1314.3
1137.01	941.291
1140.29	935.871
1143.57	560.867
1146.84	686.146
1150.12	736.951
1153.39	477.545
1156.66	256.869
1159.93	383.49
1163.2	527.309
1166.46	515.359
1169.73	245.59
1172.99	158.785
1176.26	3.73047
1179.52	63.373
1182.78	17.4863
1186.04	63.6738
1189.29	84.4062
1192.55	3.24805
1195.8	218.803
1199.05	114.818
1202.31	47.5176
1205.55	18.7852
1208.8	296.156
1212.05	267.92
1215.29	183.824
1218.54	54.6797
1221.78	176.391
1225.02	184.188
1228.26	446.922
1231.5	438.549
1234.73	337.459
1237.97	336.516
1241.2	449.707
1244.43	514.027
1247.66	741.457
1250.89	636.986
1254.12	775.6
1257.34	1049.29
1260.57	831.021
1263.79	759.811
1267.01	807.641
1270.23	937.51
1273.45	922.406
1276.67	669.33
1279.88	686.277
1283.1	997.231
1286.31	990.373
1289.52	1033.35
1292.73	1258.4
1295.94	1277.92
1299.14	1181.98
1302.35	1098.42
1305.55	1184.28
1308.75	1273.84
1311.95	1196.84
1315.15	957.578
1318.35	1048.61
1321.55	882.619
1324.74	1220.87
1327.94	798.209
1331.13	947.111
1334.32	910.914
1337.51	882.869
1340.69	772.174
1343.88	583.277
1347.06	968.664
1350.25	783.9
1353.43	336.656
1356.61	342.254
1359.79	599.932
1362.96	471.69
1366.14	522.514
1369.31	427.978
1372.49	433.312
1375.66	403.582
1378.83	407.828
1381.99	292.844
1385.16	316.865
1388.33	504.385
1391.49	357.209
1394.65	275.066
1397.81	196.953
1400.97	216.867
1404.13	89.8027
1407.29	36.3438
1410.44	89.3945
1413.59	184.279
1416.74	138.975
1419.89	59.2461
1423.04	69.2559
1426.19	97.5957
1429.34	78.8144
1432.48	62.6953
1435.62	177.685
1438.77	95.3066
1441.9	220.527
1445.04	48.3203
1448.18	103.664
1451.32	13.4082
1454.45	361.654
1457.58	250.611
1460.71	93.4727
1463.84	191.916
1466.97	392.918
1470.1	442.059
1473.22	365.356
1476.35	404.846
1479.47	290.562
1482.59	585.555
1485.71	448.838
1488.83	375.459
1491.94	484.106
1495.06	722.291
1498.17	415.795
1501.28	285.207
1504.39	561.934
1507.5	641.531
1510.61	518.357
1513.71	631.019
1516.82	431.695
1519.92	765.117
1523.02	596.367
1526.12	454.031
1529.22	575.18
1532.31	504.478
1535.41	566.305
1538.5	328.176
1541.6	620.504
1544.69	363.65
1547.78	207.543
1550.86	443.998
1553.95	436.41
1557.03	442.447
1560.12	394.732
1563.2	346.732
1566.28	6.47852
1569.36	36.6719
1572.43	0
