Measurement: Raman, 514 nm, ccw, Raman Data Processed
Mineral: Dravite
Rruff sample: R050077
Ideal chemistry: NaMg_3_Al_6_(Si_6_O_18_)(BO_3_)_3_(OH)_3_OH
Locality: Yinnietharra Station, Western Australia, Australia
Source: Rock Currier
Description: Dark brown euhedral prismatic single crystal
Measured chemistry: (Na_0.783_Ca_0.217_)(Mg_0.771_Fe^2+^_0.221_Ti^4+^_0.008_)_3_(Al_0.956_Mg_0.044_)_6_(BO_3_)_3_[Si_6_O_18_]((OH)_0.914_F_0.086_)_4_
Pin_id: L00540
Orientation: Laser parallel to -a* (-1 0 0). Fiducial mark perpendicular to laser is parallel to c [0 0 1]
Raman shift (cm-1)	intensity
118.134	0
123.058	225.764
127.979	24.9355
132.898	749.686
137.814	2159.56
142.728	1812.68
147.639	2129.77
152.549	1701.23
157.455	505.357
162.359	581.693
167.261	619.584
172.161	1357.54
177.058	1317
181.952	2171.88
186.845	4089.12
191.734	6307.79
196.622	10224.4
201.507	17891.9
206.389	22776.2
211.269	24220.9
216.147	21057.6
221.022	17731.1
225.895	17558.7
230.765	21229.9
235.633	25965.6
240.498	24857.3
245.361	18168
250.222	11340.6
255.08	8041.8
259.936	5656.74
264.789	3592.95
269.64	2524.78
274.488	1351.31
279.334	411.293
284.178	102.936
289.019	653.549
293.857	484.147
298.693	76.2402
303.527	1111.03
308.358	2309.07
313.187	2065.61
318.013	1967.58
322.837	2035.4
327.659	3114.48
332.478	6038.11
337.294	6549.53
342.108	7745.93
346.92	9586.6
351.729	14077
356.535	23533.3
361.34	36875.1
366.141	40805.2
370.94	33622.6
375.737	23705.3
380.531	15583.3
385.323	11562.6
390.113	9589.93
394.9	8623.51
399.684	8012.81
404.466	6747.28
409.245	5162.91
414.022	3551.56
418.797	2798.13
423.569	1835.86
428.338	1222.61
433.105	426.035
437.87	229.856
442.632	140.797
447.391	740.914
452.149	2032.24
456.903	5985.49
461.655	8853.14
466.405	5365.61
471.152	3708.97
475.897	3706.26
480.639	4235.79
485.378	4735.85
490.116	5106.22
494.85	4788.8
499.582	4355.79
504.312	3205.27
509.039	2355.25
513.764	1716.74
518.486	1154.77
523.206	1197.32
527.923	1436.42
532.638	1865.07
537.35	1775.28
542.059	1446.05
546.766	1219.37
551.471	850.266
556.173	265.764
560.873	272.004
565.57	149.529
570.264	2.93164
574.957	111.363
579.646	264.715
584.333	231.672
589.018	56.9551
593.7	167.31
598.379	190.059
603.056	351.602
607.73	474.031
612.402	1184.1
617.072	2195.72
621.739	4050.79
626.403	6331.2
631.065	6690.9
635.724	6407.85
640.381	7413
645.035	8815.06
649.687	9633.69
654.336	10155.1
658.983	10789.6
663.627	12306
668.268	13992.3
672.907	13120.4
677.544	11625.3
682.178	10620
686.809	11264.3
691.438	13943.6
696.065	16945.6
700.688	16987.5
705.31	13144.4
709.929	9197.34
714.545	7237.59
719.158	6296.16
723.77	6024.75
728.378	6396.29
732.984	6656.57
737.588	7079.25
742.189	8028.31
746.787	8965.46
751.383	9215.64
755.976	9480.56
760.567	9002.65
765.155	8031.5
769.741	7916.23
774.324	7516.28
778.904	7411.1
783.482	6984.65
788.058	6030.88
792.631	4915.75
797.201	3908.22
801.769	3529.26
806.334	3508.82
810.897	3307.88
815.457	2402.41
820.014	1553.38
824.569	1155.76
829.122	543.508
833.671	274.465
838.219	1.75586
842.763	237.171
847.306	297.326
851.845	297.91
856.382	251.872
860.917	150.624
865.448	109.708
869.978	97.4756
874.505	15.7705
879.029	260.808
883.55	343.429
888.069	531.85
892.586	665.857
897.1	959.731
901.611	1204.71
906.12	1370.07
910.626	1390.48
915.129	1800.79
919.63	2024.68
924.129	2163.56
928.625	2373.04
933.118	2676.14
937.609	3053.06
942.097	3563.05
946.582	4175.16
951.065	4816.53
955.546	5361.58
960.023	5893.19
964.499	6708.01
968.971	6462.76
973.441	6764.4
977.909	6945.24
982.374	6519.14
986.836	6222.08
991.295	6147
995.753	5912.75
1000.21	6227.19
1004.66	6868.18
1009.11	7625.75
1013.55	8861.72
1018	10178.4
1022.44	11192
1026.88	12344.2
1031.32	12510.3
1035.75	12521.9
1040.18	12479.3
1044.61	12475.7
1049.04	12303.2
1053.46	11738.6
1057.88	10680.8
1062.3	9769.98
1066.71	9147.85
1071.13	7994.41
1075.54	6772.45
1079.94	5937.74
1084.35	5017.45
1088.75	4445.19
1093.15	3609.94
1097.55	3580.72
1101.94	3184.64
1106.34	2708
1110.73	2454.38
1115.11	2196.63
1119.5	1927.15
1123.88	1452.68
1128.26	1058.07
1132.63	868.154
1137.01	671.379
1141.38	544.453
1145.75	398.44
1150.12	485.87
1154.48	380.732
1158.84	340.93
1163.2	144.41
1167.55	103.127
1171.91	127.071
1176.26	3.98926
1180.61	43.8603
1184.95	161.969
1189.29	66.7461
1193.63	34.4844
1197.97	243.226
1202.31	163.511
1206.64	284.59
1210.97	132.728
1215.29	100.851
1219.62	197.878
1223.94	163.182
1228.26	358.724
1232.57	600.484
1236.89	617.459
1241.2	797.633
1245.51	766.981
1249.81	773.464
1254.12	706.046
1258.42	917.69
1262.72	617.368
1267.01	814.045
1271.3	596.701
1275.59	863.407
1279.88	692.584
1284.17	757.531
1288.45	816.66
1292.73	674.509
1297.01	804.839
1301.28	797.148
1305.55	646.474
1309.82	718.295
1314.09	680.06
1318.35	635.082
1322.61	554.855
1326.87	620.879
1331.13	543.931
1335.38	541.884
1339.63	458.021
1343.88	452.928
1348.12	475.461
1352.37	529.214
1356.61	549.309
1360.85	288.597
1365.08	681.959
1369.31	536.964
1373.54	431.999
1377.77	631.686
1381.99	512.432
1386.22	321.121
1390.43	513.735
1394.65	347.991
1398.87	391.674
1403.08	387.455
1407.29	303.783
1411.49	168.36
1415.69	395.915
1419.89	372.425
1424.09	154.921
1428.29	263.516
1432.48	165.301
1436.67	4.58398
1440.86	136.085
1445.04	20.4385
1449.23	34.249
1453.4	16.5107
1457.58	43.0332
1461.76	99.8076
1465.93	234.295
1470.1	244.818
1474.26	61.8379
1478.43	233.751
1482.59	279.069
1486.75	274.849
1490.9	381.566
1495.06	388.867
1499.21	457.853
1503.35	550.187
1507.5	486.194
1511.64	608.706
1515.78	350.631
1519.92	512.769
1524.05	501.666
1528.18	357.877
1532.31	415.074
1536.44	365.335
1540.56	291.457
1544.69	139.07
1548.8	206.048
1552.92	192.38
1557.03	190.264
1561.14	14.3682
1565.25	72.7588
1569.36	263.043
