Measurement: Raman, 514 nm, ccw, Raman Data Processed
Mineral: Dravite
Rruff sample: R040088
Ideal chemistry: NaMg_3_Al_6_(Si_6_O_18_)(BO_3_)_3_(OH)_3_OH
Locality: Yinnietharra Station, Pilbara, Western Australia, Australia
Source: University of Arizona Mineral Museum
Description: Brown short prismatic crystal
Measured chemistry: (Na_0.88_Ca_0.06_[box]_0.06_)(Mg_0.88_Al_0.10_Ti_0.04_Fe_0.02_)_3_Al_6.00_(B_1_O_3_)_3_Si_6.00_O_18_((OH)_0.98_F_0.02_)_4_
Pin_id: L00133
Orientation: Laser parallel to a [1 0 0]. Fiducial mark perpendicular to laser is parallel to c* (0 0 1)
Raman shift (cm-1)	intensity
174.605	0
178.757	87.26
182.907	56.948
187.054	477.183
191.2	1322.77
195.343	2115.62
199.485	3439.94
203.624	7227.51
207.762	15108.8
211.897	22893.2
216.03	23017.8
220.162	17350.6
224.291	13090.3
228.418	11816.3
232.543	12416.2
236.666	15297.7
240.787	18659.3
244.906	17773.4
249.023	13323.6
253.138	8575.18
257.25	5407.96
261.361	3753.48
265.47	2369.93
269.577	1749.59
273.681	871.738
277.784	366.361
281.885	423.359
285.983	202.626
290.08	255.915
294.174	212.336
298.267	56.496
302.357	16.891
306.446	476.981
310.532	1674.67
314.617	1814.65
318.699	723.93
322.78	625.31
326.858	1000.88
330.934	2002.32
335.009	3411.72
339.081	4595.54
343.152	5392.93
347.22	6343.31
351.286	7386.28
355.351	9831.47
359.413	15908.6
363.473	27747.5
367.532	39418.1
371.588	34650.3
375.643	22433.8
379.695	14208.6
383.745	9774.16
387.794	7160.69
391.84	5518.39
395.884	4797.16
399.927	4466.97
403.967	3827.8
408.006	3139.64
412.042	2252.43
416.077	1569.11
420.109	912.214
424.14	351.723
428.168	141.098
432.195	232.754
436.22	175.356
440.242	16.595
444.263	74.968
448.282	86.989
452.298	24.76
456.313	9.844
460.326	2.143
464.337	303.607
468.346	604.422
472.353	876.107
476.358	1418.68
480.361	2102
484.362	2995.99
488.361	3820.59
492.358	4025.75
496.353	3971.43
500.346	3967.57
504.337	3254.15
508.327	2241.15
512.314	1518.52
516.3	1076.24
520.283	864.295
524.265	832.649
528.244	1021.29
532.222	1330.2
536.198	1479.36
540.171	1268.76
544.143	854.354
548.113	469.143
552.081	419.102
556.047	111.211
560.011	74.406
563.974	179.553
567.934	158.277
571.892	38.075
575.849	51.894
579.803	142.733
583.756	165.476
587.706	81.931
591.655	7.229
595.602	161.042
599.547	213.6
603.49	328.32
607.431	871.834
611.37	1169.86
615.307	1427.12
619.243	1519.47
623.176	2168.84
627.108	3516.15
631.037	5783.37
634.965	6150.47
638.891	4727.42
642.815	4494.23
646.737	5300.87
650.657	6757.33
654.575	7383.6
658.491	7719.67
662.406	8665.52
666.318	11031.1
670.229	14146.5
674.138	15821.7
678.045	14206.6
681.95	12391.2
685.853	11415.5
689.754	11299.6
693.653	12483.3
697.551	15066.8
701.446	16986.3
705.34	15495.8
709.232	10675.3
713.122	6892.08
717.01	4822.18
720.896	3878.22
724.78	3286.65
728.663	2941.5
732.543	2650.49
736.422	2754.23
740.299	3222.01
744.174	3774.19
748.047	4786.67
751.918	6330.2
755.787	7649.44
759.655	7766.28
763.52	6547.48
767.384	5736.1
771.246	5533.09
775.106	5789.57
778.964	6635.55
782.821	8241.01
786.675	9615.96
790.528	9790.4
794.379	9104.31
798.228	7977.71
802.075	7440.6
805.92	8382.97
809.764	10114.8
813.605	11936.2
817.445	11507
821.283	9527.36
825.119	6897.17
828.953	5087.69
832.785	4165.23
836.616	3633.49
840.445	2735.27
844.272	1808.76
848.097	1025.2
851.92	408.707
855.741	148.167
859.561	28.464
863.378	92.68
867.194	257.825
871.008	154.624
874.821	250.267
878.631	240.37
882.44	106.896
886.247	107.253
890.052	23.951
893.855	81.245
897.656	363.779
901.456	479.685
905.253	638.076
909.049	724.045
912.843	904.574
916.636	1109.65
920.426	1248.3
924.215	1267.55
928.002	1382.44
931.787	1486.21
935.57	1667.94
939.352	1972.58
943.131	2383.98
946.909	2698.1
950.685	3144.82
954.46	3456.11
958.232	3867.96
962.003	4334.4
965.772	4550.41
969.539	4896.01
973.304	5051.2
977.068	5075.98
980.83	5090.36
984.589	5094.35
988.348	4927.19
992.104	4654.61
995.859	4442.65
999.612	4566.3
1003.36	4663.04
1007.11	5262.9
1010.86	5999.51
1014.61	6780.6
1018.35	7775.15
1022.09	8968.89
1025.83	10084.5
1029.57	11016.7
1033.31	11332.6
1037.04	11422.1
1040.78	11177.2
1044.51	10981.8
1048.24	10634.7
1051.96	9766.59
1055.69	9171.48
1059.42	8745.48
1063.14	8792.54
1066.86	8702.22
1070.58	8130.37
1074.3	7183.47
1078.01	5796.93
1081.73	4589.74
1085.44	3699.14
1089.15	3107.86
1092.86	2619.47
1096.56	2249.96
1100.27	2088.33
1103.97	1661.6
1107.67	1660.76
1111.38	1355.83
1115.07	1199.79
1118.77	1047.67
1122.46	878.458
1126.16	661.226
1129.85	443.115
1133.54	384.275
1137.23	163.038
1140.91	138.543
1144.6	232.872
1148.28	149.156
1151.96	93.201
1155.64	3.752
1159.32	3.451
1162.99	18.597
1166.67	11.755
1170.34	13.714
1174.01	18.294
1177.68	90.167
1181.35	102.944
1185.01	20.855
1188.67	0.646
1192.34	56.875
1196	139.385
1199.65	150.201
1203.31	73.704
1206.97	71.945
1210.62	28.29
1214.27	87.235
1217.92	215.096
1221.57	358.882
1225.22	533.595
1228.86	649.232
1232.5	718.873
1236.14	705.279
1239.79	682.671
1243.42	595.994
1247.06	567.223
1250.69	657.337
1254.33	682.326
1257.96	676.856
1261.59	587.862
1265.21	695.432
1268.84	673.896
1272.47	641.237
1276.09	495.439
1279.71	521.484
1283.33	402.885
1286.95	346.718
1290.56	348.52
1294.18	435.267
1297.79	319.89
1301.4	105.631
1305.01	65.24
1308.62	74.425
1312.22	121.526
1315.83	81.254
1319.43	134.176
1323.03	195.174
1326.63	131.539
1330.23	94.518
1333.82	99.332
1337.42	102.576
1341.01	119.04
1344.6	126.526
1348.19	128.859
1351.78	142.868
1355.36	179.019
1358.95	450.957
1362.53	297.442
1366.11	158.292
1369.69	200.59
1373.27	178.949
1376.84	284.74
1380.42	210.892
1383.99	323.749
1387.56	408.401
1391.13	426.508
1394.7	370.737
1398.26	403.561
1401.83	493.078
1405.39	404.316
1408.95	378.297
1412.51	280.999
1416.07	224.012
1419.62	223.823
1423.18	165.254
1426.73	210.632
1430.28	170.288
1433.83	225.021
1437.38	73.593
1440.93	117.034
1444.47	157.401
1448.02	33.726
1451.56	74.303
1455.1	3.647
1458.63	35.378
1462.17	0.132
1465.7	21.084
1469.24	38.794
1472.77	97.122
1476.3	114.689
1479.83	71.906
1483.35	152.451
1486.88	78.23
1490.4	124.198
1493.92	112.556
1497.44	19.222
1500.96	123.717
1504.48	127.085
1507.99	305.276
1511.51	142.629
1515.02	0.406
