Measurement: Raman, 514 nm, ccw, Raman Data Processed
Mineral: Dravite
Rruff sample: R060280
Ideal chemistry: NaMg_3_Al_6_(Si_6_O_18_)(BO_3_)_3_(OH)_3_OH
Locality: near Merelani, Tanzania
Source: Herb Obodda
Description: Green fragment
Measured chemistry: (Na_0.45_Ca_0.40_[box]_0.15_)(Mg_0.89_Al_0.07_Ti_0.04_)_3_Al_6_(BO_3_)_3_(Si_0.93_B_0.07_)_6_O_18_((OH)_0.95_O_0.05_)_4_
Pin_id: L00930
Orientation: Laser parallel to c* (0 0 1). Fiducial mark perpendicular to laser is parallel to -b [0 -1 0]
Raman shift (cm-1)	intensity
168.486	0
173.385	271.512
178.282	94.5352
183.176	357.127
188.067	1432.31
192.956	2683.83
197.843	3120.33
202.727	4267.75
207.609	6630.85
212.489	10995.2
217.366	12748.9
222.24	9476.58
227.112	6582.28
231.982	6575.74
236.849	7962.67
241.714	9030.66
246.577	7316.04
251.437	4168.24
256.294	1969.79
261.149	1447.15
266.002	1706.45
270.852	2814.7
275.7	3697.8
280.545	2800.55
285.388	1127.72
290.229	393.223
295.067	510.986
299.902	613.916
304.735	10.4141
309.566	393.731
314.394	113.842
319.22	601.168
324.043	1784.41
328.864	3763.86
333.682	5823.68
338.498	7180.82
343.311	6483.54
348.122	6532.36
352.931	8013.7
357.737	11519.1
362.54	17046.5
367.341	23824.8
372.14	27433.7
376.936	24446.2
381.73	17173.1
386.521	11232.5
391.31	7928.32
396.096	5913.48
400.88	4743.97
405.661	4634.69
410.44	3525.58
415.216	2563.57
419.99	1656.56
424.761	1462.49
429.53	1738.28
434.297	2532.65
439.061	2460.34
443.822	2345.83
448.581	2294.42
453.337	2115.09
458.091	2038.18
462.843	1701.25
467.592	1672.29
472.338	3113.21
477.082	4543.83
481.824	5753.07
486.563	6606.83
491.3	6981.05
496.034	7566.64
500.765	7968.55
505.494	7863.72
510.221	6587.09
514.945	5238.6
519.666	3925.21
524.385	4752.86
529.102	6875.51
533.816	9010.15
538.527	9402.73
543.236	8353.2
547.943	6945.5
552.647	5592.59
557.348	4071.4
562.047	2546.9
566.744	1583.03
571.438	384.746
576.129	377.18
580.818	582.418
585.504	787.91
590.188	333.43
594.87	235.848
599.549	172.352
604.225	458.07
608.899	536.133
613.57	689.406
618.239	941.836
622.905	1699.7
627.569	2135.69
632.23	2324.7
636.889	1587.65
641.545	893.5
646.198	770.195
650.849	1427.69
655.498	2253.94
660.144	3110.89
664.787	4150.51
669.428	4603.75
674.067	4529.55
678.703	4289.88
683.336	4056.7
687.967	3944.96
692.595	4733.62
697.221	5901.63
701.844	7851.96
706.465	10512.6
711.083	13705.4
715.698	18099.2
720.311	23613.7
724.922	28546.1
729.53	26682.6
734.135	21839.3
738.738	13053.7
743.338	10891.6
747.936	10890.6
752.531	12313.7
757.124	13869.6
761.714	14500.3
766.302	13823.9
770.887	12776.9
775.469	11987.5
780.049	11744.8
784.626	11707.7
789.201	12301.2
793.773	12771.2
798.343	12363.9
802.91	12423
807.475	14047.7
812.037	17711.9
816.596	20519.5
821.153	20526.7
825.707	18044.2
830.259	13387.2
834.808	9794.6
839.355	6976.36
843.899	4307.49
848.441	2214.96
852.98	901.023
857.516	277.137
862.05	172.031
866.581	124.945
871.11	205.269
875.636	414.332
880.159	489.348
884.68	258.512
889.199	90.0547
893.714	113.172
898.228	367.168
902.738	621.543
907.246	837.293
911.752	798.527
916.255	925.09
920.755	1014.13
925.253	1459.64
929.748	1192.61
934.241	1639.29
938.731	1728.53
943.218	1965.52
947.703	2553.93
952.186	3100.57
956.665	3161.45
961.142	3804.57
965.617	4488.92
970.089	5103.53
974.558	5728.4
979.025	6064.19
983.489	6367.94
987.951	5926.63
992.41	5430.43
996.866	4704.72
1001.32	4451.59
1005.77	4285.4
1010.22	4297.56
1014.67	4672.22
1019.11	5761.53
1023.55	6458.38
1027.99	7399.09
1032.42	8618.82
1036.86	9737.68
1041.29	11612.2
1045.72	12740.5
1050.14	13563.4
1054.56	14501.4
1058.98	15519.5
1063.4	17528.6
1067.82	19388.8
1072.23	19733.7
1076.64	17724.4
1081.05	15098.2
1085.45	12098.4
1089.85	9357.24
1094.25	7195.1
1098.65	5549.59
1103.04	4158.86
1107.43	3402.93
1111.82	2953.81
1116.21	2348.53
1120.59	1633.08
1124.97	1489.5
1129.35	1280.87
1133.73	832.668
1138.1	422.672
1142.47	488.688
1146.84	195.562
1151.21	157.543
1155.57	23.0469
1159.93	137.609
1164.29	116.133
1168.64	63.8672
1172.99	53.9375
1177.34	28.4141
1181.69	121.945
1186.04	87.0156
1190.38	59.3828
1194.72	139.898
1199.05	38.8398
1203.39	238.16
1207.72	15.6758
1212.05	441.328
1216.37	484.945
1220.7	613.535
1225.02	682.148
1229.34	926.762
1233.65	1072.36
1237.97	1350.98
1242.28	1354.81
1246.59	1106.76
1250.89	1204.73
1255.19	1216.56
1259.49	1077.74
1263.79	1239.78
1268.09	1058.82
1272.38	1319.84
1276.67	953.676
1280.95	936.566
1285.24	678.453
1289.52	958.203
1293.8	872.656
1298.08	992.871
1302.35	680.809
1306.62	859.383
1310.89	985.219
1315.15	918.34
1319.42	771.934
1323.68	777.043
1327.94	620.578
1332.19	301.164
1336.44	441.824
1340.69	281.172
1344.94	152.625
1349.19	160.379
1353.43	350.777
1357.67	490.566
1361.9	176.477
1366.14	230.984
1370.37	442.414
1374.6	661.754
1378.83	720.199
1383.05	520.738
1387.27	389.461
1391.49	585.375
1395.7	322.496
1399.92	439.199
1404.13	180.277
1408.34	277.852
1412.54	145.84
1416.74	35.1523
1420.94	238.961
1425.14	207.977
1429.34	37.1328
1433.53	226.527
1437.72	215.137
1441.9	522.871
1446.09	257.5
1450.27	455.336
1454.45	649.633
1458.63	186.441
1462.8	341.613
1466.97	300.07
1471.14	182.848
1475.31	104.332
1479.47	274.203
1483.63	230.516
1487.79	23.7031
1491.94	234.586
1496.09	179.184
1500.24	273.934
1504.39	326.293
1508.54	220.609
1512.68	313.727
1516.82	192.606
1520.95	257.109
1525.09	145.801
1529.22	421.117
1533.35	289.633
1537.47	250.832
1541.6	9.54688
1545.72	219.445
1549.83	402.738
1553.95	239.68
1558.06	211.559
1562.17	59.3594
1566.28	127.898
1570.38	126.125
