Measurement: Raman, 514 nm, ccw, Raman Data Processed
Mineral: Dravite
Rruff sample: R050077
Ideal chemistry: NaMg_3_Al_6_(Si_6_O_18_)(BO_3_)_3_(OH)_3_OH
Locality: Yinnietharra Station, Western Australia, Australia
Source: Rock Currier
Description: Dark brown euhedral prismatic single crystal
Measured chemistry: (Na_0.783_Ca_0.217_)(Mg_0.771_Fe^2+^_0.221_Ti^4+^_0.008_)_3_(Al_0.956_Mg_0.044_)_6_(BO_3_)_3_[Si_6_O_18_]((OH)_0.914_F_0.086_)_4_
Pin_id: L01436
Orientation: Laser parallel to c* (0 0 1). Fiducial mark perpendicular to laser is parallel to a [1 0 0]
Raman shift (cm-1)	intensity
118.134	0
123.058	737.769
127.979	407.371
132.898	3307.94
137.814	5706.59
142.728	7592.66
147.639	9036.63
152.549	10160
157.455	8319.68
162.359	8385.4
167.261	8467.52
172.161	8597.14
177.058	7655.18
181.952	7695.63
186.845	7433.4
191.734	7483.92
196.622	8144.77
201.507	8830.25
206.389	9792.65
211.269	11202.8
216.147	10846.8
221.022	8605.83
225.895	6746.21
230.765	5765.21
235.633	5801.81
240.498	4591.8
245.361	2446.09
250.222	1266.13
255.08	507.49
259.936	560.42
264.789	925.92
269.64	918.381
274.488	855.729
279.334	225.85
284.178	79.3691
289.019	589.658
293.857	587.67
298.693	472.305
303.527	374.412
308.358	158.525
313.187	743.658
318.013	1608.38
322.837	2527.75
327.659	3848.09
332.478	4920.81
337.294	5728.66
342.108	5812.8
346.92	6164.69
351.729	6948.61
356.535	8037.11
361.34	9820.12
366.141	12599.1
370.94	14219.5
375.737	13274
380.531	10982.6
385.323	9150.53
390.113	7976.81
394.9	6840.68
399.684	5993.52
404.466	5188.38
409.245	4550.9
414.022	4079.19
418.797	3396.22
423.569	2952.77
428.338	2360.67
433.105	1551.4
437.87	1062.58
442.632	559.916
447.391	322.41
452.149	66.3281
456.903	23.3555
461.655	339.647
466.405	363.408
471.152	1104.13
475.897	1627.92
480.639	1927.74
485.378	2068.86
490.116	2017.55
494.85	1711.15
499.582	1799.99
504.312	1716.97
509.039	826.76
513.764	861.338
518.486	1332.03
523.206	1701.95
527.923	2612.2
532.638	3395.95
537.35	3452.75
542.059	3584.23
546.766	4072.29
551.471	3609.18
556.173	3171.18
560.873	2601.27
565.57	2322.28
570.264	2198.38
574.957	1946.86
579.646	2588.22
584.333	1897.83
589.018	2008.55
593.7	1098.35
598.379	922.496
603.056	809.744
607.73	796.924
612.402	923.111
617.072	1346.03
621.739	1301.56
626.403	1010.61
631.065	683.109
635.724	43.9746
640.381	486.082
645.035	193.107
649.687	513.244
654.336	1973.95
658.983	2964.27
663.627	3188.86
668.268	2471.42
672.907	1734.84
677.544	1565.05
682.178	1982.94
686.809	2692.61
691.438	3923.29
696.065	5108.2
700.688	7120.07
705.31	9261.4
709.929	12565.5
714.545	17010.5
719.158	21958.7
723.77	24568.5
728.378	23834
732.984	23117.4
737.588	23891.6
742.189	25505.3
746.787	26880
751.383	27293.2
755.976	27759.1
760.567	28659.7
765.155	26899.1
769.741	26500.2
774.324	24741.4
778.904	23459.5
783.482	22169.2
788.058	20063.5
792.631	16759.8
797.201	12424.3
801.769	9874.91
806.334	9163.47
810.897	8583.92
815.457	7102.17
820.014	4958.15
824.569	2958.74
829.122	1741.87
833.671	670.441
838.219	351.144
842.763	309.91
847.306	523.939
851.845	407.299
856.382	304.838
860.917	222.158
865.448	300.719
869.978	146.816
874.505	39.207
879.029	296.094
883.55	538.924
888.069	1043.56
892.586	1113.59
897.1	1519.79
901.611	1846.91
906.12	2315.99
910.626	2526.05
915.129	2743.44
919.63	3161.54
924.129	3255.07
928.625	3504.97
933.118	3677.46
937.609	4079.71
942.097	4522.85
946.582	5036.92
951.065	5688.73
955.546	6031.85
960.023	6251.67
964.499	6807.69
968.971	7145.17
973.441	7410.06
977.909	7724.98
982.374	7351.82
986.836	7115.08
991.295	6760.78
995.753	6668.11
1000.21	6092.7
1004.66	5860.96
1009.11	5735.55
1013.55	5811.21
1018	5926.84
1022.44	6353.07
1026.88	6787.18
1031.32	7072.97
1035.75	7476.15
1040.18	8005
1044.61	8599.54
1049.04	8665.1
1053.46	8925.95
1057.88	8702
1062.3	8867.04
1066.71	9117.09
1071.13	8513.33
1075.54	7703.95
1079.94	6411.52
1084.35	5851.94
1088.75	5600.78
1093.15	5191.76
1097.55	4815.94
1101.94	4890.38
1106.34	4188.29
1110.73	3937.12
1115.11	3794.12
1119.5	3687.85
1123.88	3085.2
1128.26	2426.86
1132.63	1490.73
1137.01	1300.37
1141.38	1052.1
1145.75	794.842
1150.12	978.768
1154.48	375.82
1158.84	433.744
1163.2	290.629
1167.55	386.471
1171.91	357.119
1176.26	118.482
1180.61	1.38086
1184.95	25.4297
1189.29	61.8184
1193.63	66.7031
1197.97	215.471
1202.31	330.742
1206.64	155.894
1210.97	211.527
1215.29	48.6328
1219.62	333.348
1223.94	214.807
1228.26	607.006
1232.57	751.943
1236.89	1025.62
1241.2	1018
1245.51	1358.03
1249.81	1250.64
1254.12	1145.76
1258.42	1604.33
1262.72	1418.3
1267.01	1516.59
1271.3	1523.49
1275.59	1058.84
1279.88	1232.67
1284.17	1062.83
1288.45	1447.35
1292.73	1312.79
1297.01	1153.75
1301.28	1214.68
1305.55	1286.76
1309.82	1339.32
1314.09	1123.97
1318.35	1031.63
1322.61	945.773
1326.87	934.047
1331.13	588.557
1335.38	604.156
1339.63	746.332
1343.88	532.961
1348.12	452.731
1352.37	564.75
1356.61	336.008
1360.85	426.498
1365.08	282.926
1369.31	512.123
1373.54	665.356
1377.77	211.926
1381.99	363.682
1386.22	500.615
1390.43	60.0879
1394.65	180.664
1398.87	53.7109
1403.08	126.807
1407.29	230.215
1411.49	53.457
1415.69	179.236
1419.89	120.584
1424.09	62.5449
1428.29	58.377
1432.48	150.143
1436.67	82.1426
1440.86	49.4277
1445.04	198.078
1449.23	68.5996
1453.4	73.9316
1457.58	370.062
1461.76	180.949
1465.93	503.084
1470.1	632.422
1474.26	497.008
1478.43	608.936
1482.59	601.281
1486.75	899.199
1490.9	592.578
1495.06	845.805
1499.21	726.375
1503.35	786.426
1507.5	620.162
1511.64	735.021
1515.78	827.787
1519.92	370.932
1524.05	422.065
1528.18	579.822
1532.31	525.025
1536.44	418.348
1540.56	465.162
1544.69	429.615
1548.8	129.666
1552.92	221.486
1557.03	195.248
1561.14	459.959
1565.25	197.283
1569.36	517.447
