Measurement: Raman, 514 nm, ccw, Raman Data Processed
Mineral: Dravite
Rruff sample: R060280
Ideal chemistry: NaMg_3_Al_6_(Si_6_O_18_)(BO_3_)_3_(OH)_3_OH
Locality: near Merelani, Tanzania
Source: Herb Obodda
Description: Green fragment
Measured chemistry: (Na_0.45_Ca_0.40_[box]_0.15_)(Mg_0.89_Al_0.07_Ti_0.04_)_3_Al_6_(BO_3_)_3_(Si_0.93_B_0.07_)_6_O_18_((OH)_0.95_O_0.05_)_4_
Pin_id: L01324
Orientation: Laser parallel to a* (1 0 0). Fiducial mark perpendicular to laser is parallel to c [0 0 1]
Raman shift (cm-1)	intensity
168.486	0
173.385	445.943
178.282	191.242
183.176	202.379
188.067	926.473
192.956	2118.7
197.843	3434.12
202.727	5933.69
207.609	8336.44
212.489	11751.2
217.366	11625.4
222.24	7930.57
227.112	5792.82
231.982	5425.86
236.849	6730.95
241.714	7677.2
246.577	5998.4
251.437	3616.31
256.294	1756.29
261.149	1668.7
266.002	2205.53
270.852	2882.79
275.7	2709.44
280.545	1614.2
285.388	555.912
290.229	88.6172
295.067	104.346
299.902	48.5371
304.735	245.092
309.566	455.908
314.394	284.932
319.22	1345.29
324.043	3190.53
328.864	5886.37
333.682	8813.86
338.498	10629.5
343.311	10382.9
348.122	9479.82
352.931	10876.7
357.737	16498.3
362.54	26489
367.341	35398.8
372.14	34283.4
376.936	24227.8
381.73	15284.3
386.521	10355.4
391.31	7514.94
396.096	5812.39
400.88	4513.95
405.661	3720.42
410.44	2243.82
415.216	1226.11
419.99	714.266
424.761	1322.25
429.53	2271.83
434.297	2956.08
439.061	3435.56
443.822	4098.6
448.581	3851.2
453.337	3324.52
458.091	2507.71
462.843	2080.23
467.592	1328.34
472.338	1492.82
477.082	1745.33
481.824	2292.79
486.563	3280.16
491.3	3982.43
496.034	6093.57
500.765	7774.57
505.494	8515.71
510.221	7398.63
514.945	5402.04
519.666	4958.21
524.385	6036.12
529.102	8968.8
533.816	11167.2
538.527	11185.5
543.236	8963.4
547.943	6245.03
552.647	3572.33
557.348	1779.28
562.047	516.836
566.744	20.0176
571.438	437.08
576.129	700.066
580.818	445.719
585.504	158.445
590.188	75.8984
594.87	602.894
599.549	1228.57
604.225	1399.82
608.899	1980.47
613.57	2685.84
618.239	3545.32
622.905	5264.18
627.569	6483.56
632.23	4403.52
636.889	1337.55
641.545	12.4199
646.198	11.9473
650.849	613.002
655.498	2072.79
660.144	2916.37
664.787	4207.69
669.428	4306.71
674.067	3943.36
678.703	3686.59
683.336	3879.35
687.967	5236.57
692.595	8020.2
697.221	13346.2
701.844	19173.5
706.465	22304.8
711.083	19255
715.698	12097.1
720.311	6853.22
724.922	4850.99
729.53	4609.33
734.135	5422.55
738.738	7296.64
743.338	11166.4
747.936	17324.4
752.531	25086.3
757.124	32805.2
761.714	33148.8
766.302	27281.2
770.887	21740.2
775.469	18887.2
780.049	17272.8
784.626	17011.2
789.201	16820.7
793.773	17161.9
798.343	16647
802.91	17353.7
807.475	20080
812.037	25304
816.596	29675.5
821.153	29304.5
825.707	25103
830.259	19030.9
834.808	13774.1
839.355	9539.66
843.899	5825.48
848.441	3443.13
852.98	1399.39
857.516	915.994
862.05	558.262
866.581	108.812
871.11	371.086
875.636	587.867
880.159	319.227
884.68	215.426
889.199	58.2734
893.714	199.685
898.228	425.859
902.738	967.938
907.246	1215.29
911.752	1321.87
916.255	1712.61
920.755	1592.09
925.253	1910.13
929.748	2025.4
934.241	2254.22
938.731	2488.24
943.218	2695.11
947.703	3071.7
952.186	3579.01
956.665	3850
961.142	4457.68
965.617	5088.03
970.089	5575.06
974.558	6026.76
979.025	6188.13
983.489	5949.16
987.951	5700.84
992.41	5339.12
996.866	5144.91
1001.32	6244.76
1005.77	5989.35
1010.22	5530.84
1014.67	6494.16
1019.11	7668.02
1023.55	9070.59
1027.99	10260.7
1032.42	11781.3
1036.86	13692.7
1041.29	15727.8
1045.72	17871.7
1050.14	19210.4
1054.56	19355.8
1058.98	20457
1063.4	22119.3
1067.82	24155.9
1072.23	25988
1076.64	24932.3
1081.05	21812
1085.45	18202.6
1089.85	13895.5
1094.25	10493.6
1098.65	8088.91
1103.04	6336.52
1107.43	4872.41
1111.82	4076.61
1116.21	2999.13
1120.59	2390.98
1124.97	1938.2
1129.35	1546.8
1133.73	1075.94
1138.1	651.107
1142.47	370.648
1146.84	96.8262
1151.21	44.1484
1155.57	1.89844
1159.93	236.928
1164.29	113.92
1168.64	33.3145
1172.99	102.144
1177.34	80.3047
1181.69	118.939
1186.04	111.812
1190.38	67.2246
1194.72	255.85
1199.05	2.47852
1203.39	70.6914
1207.72	94.291
1212.05	434.435
1216.37	861.189
1220.7	913.576
1225.02	1122.61
1229.34	1497.32
1233.65	2139.71
1237.97	2095.8
1242.28	2209.56
1246.59	2031.41
1250.89	2168.91
1255.19	1999.31
1259.49	2027.5
1263.79	2238.5
1268.09	2386.29
1272.38	2369.86
1276.67	2242.19
1280.95	2092.38
1285.24	1830.51
1289.52	1978.38
1293.8	1908.17
1298.08	1975.01
1302.35	1821.35
1306.62	1927.74
1310.89	1922.76
1315.15	1811.12
1319.42	1711.87
1323.68	1509.26
1327.94	1314.49
1332.19	957.127
1336.44	554.65
1340.69	775.449
1344.94	704.08
1349.19	451.857
1353.43	572.789
1357.67	716.902
1361.9	765.219
1366.14	755.914
1370.37	1154.64
1374.6	1202.61
1378.83	1314.72
1383.05	1203.48
1387.27	1102.52
1391.49	1176.92
1395.7	977.723
1399.92	913.939
1404.13	455.688
1408.34	483.93
1412.54	290.457
1416.74	166.174
1420.94	128.75
1425.14	143.754
1429.34	107.338
1433.53	228.971
1437.72	721.51
1441.9	1202.08
1446.09	1360.88
1450.27	1448.48
1454.45	1379.98
1458.63	1428.44
1462.8	869.635
1466.97	751.598
1471.14	469.342
1475.31	181.644
1479.47	223.455
1483.63	156.139
1487.79	122.818
1491.94	85.4492
1496.09	111.6
1500.24	36.2441
1504.39	1.70508
1508.54	227.353
1512.68	118.293
1516.82	216.627
1520.95	134.496
1525.09	210.014
1529.22	262.394
1533.35	279.965
1537.47	267.732
1541.6	340.832
1545.72	137.768
1549.83	290.758
1553.95	539.482
1558.06	169.537
1562.17	103.947
1566.28	305.5
1570.38	10.9648
