Measurement: Raman, 514 nm, ccw, Raman Data Processed
Mineral: Dravite
Rruff sample: R060286
Ideal chemistry: NaMg_3_Al_6_(Si_6_O_18_)(BO_3_)_3_(OH)_3_OH
Locality: Badakshan Province, Afghanistan
Source: Herb Obodda
Description: Brown prismatic tourmaline crystal
Measured chemistry: (Na_0.48_Ca_0.38_[box]_0.14_)_Σ=1_(Mg_2.90_Ti_0.10_)_Σ=3_Al_6.00_(B_1.00_O_3_)_3_(Si_5.56_B_0.44_)_Σ=6_O_18_(OH)_4_; (OH) assumed from stoichiometry; B estimated by difference and charge balance
Pin_id: L01259
Orientation: Laser parallel to c* (0 0 1). Fiducial mark perpendicular to laser is parallel to a [1 0 0]
Raman shift (cm-1)	intensity
118.134	0
123.058	913.256
127.979	1590.04
132.898	2607.86
137.814	3340.02
142.728	3864.69
147.639	4285.73
152.549	3145.45
157.455	1399.11
162.359	233.81
167.261	213.464
172.161	151.392
177.058	74.501
181.952	1135.73
186.845	2915.62
191.734	4424.32
196.622	5714.88
201.507	8720.79
206.389	14555.8
211.269	23046.5
216.147	24255
221.022	17413.1
225.895	12057.9
230.765	11210.8
235.633	13380.5
240.498	15656
245.361	13422.2
250.222	7627.88
255.08	3070.05
259.936	3030.62
264.789	1941.74
269.64	3327.14
274.488	4241.1
279.334	3485.23
284.178	1992.39
289.019	1211.44
293.857	1053.93
298.693	732.842
303.527	68.8848
308.358	476.523
313.187	140.44
318.013	1355.25
322.837	3273.41
327.659	6008.44
332.478	8921.96
337.294	10495.8
342.108	10458
346.92	10334.4
351.729	12306.9
356.535	17325.5
361.34	25261.1
366.141	36377.5
370.94	44510.1
375.737	40369.8
380.531	28418.5
385.323	18361.2
390.113	12879.6
394.9	10170.9
399.684	8383.82
404.466	7466.36
409.245	6150.45
414.022	4360.15
418.797	2672.44
423.569	2139.34
428.338	1570.91
433.105	1501.69
437.87	1629.24
442.632	2033.57
447.391	2068.94
452.149	2467.85
456.903	2839.26
461.655	3192.06
466.405	5026.73
471.152	8058.76
475.897	11465.9
480.639	13119
485.378	13112.1
490.116	12687.1
494.85	12069.9
499.582	10461.5
504.312	8442.76
509.039	6349.71
513.764	4994.63
518.486	4411.3
523.206	5542.81
527.923	7419.69
532.638	7962.87
537.35	7806.3
542.059	6641.89
546.766	5693.58
551.471	4725.3
556.173	3647.98
560.873	2245.54
565.57	819.926
570.264	310.045
574.957	312.504
579.646	556.07
584.333	721.82
589.018	683.326
593.7	402.385
598.379	29.7031
603.056	298.969
607.73	633.445
612.402	940.219
617.072	1467.45
621.739	2296.83
626.403	3384.28
631.065	3960.2
635.724	3161.86
640.381	2203.07
645.035	1988.73
649.687	2931.78
654.336	4524.14
658.983	6456.09
663.627	8634.5
668.268	10045.4
672.907	10376.2
677.544	9611.09
682.178	8703.08
686.809	8410.38
691.438	9422.68
696.065	11621.7
700.688	14907.3
705.31	19724.5
709.929	26311.2
714.545	35532.8
719.158	43745.9
723.77	44533.9
728.378	36100.9
732.984	25966.7
737.588	20408.8
742.189	19203.5
746.787	21010.1
751.383	24144.3
755.976	27845
760.567	30528.3
765.155	29450.9
769.741	27454.9
774.324	25798.9
778.904	24503.5
783.482	23803.6
788.058	24289.1
792.631	25234.1
797.201	24514.4
801.769	22739.2
806.334	21129.4
810.897	20965.9
815.457	21372.9
820.014	20536.1
824.569	17280.7
829.122	12600.6
833.671	8561.73
838.219	5121.15
842.763	2995.81
847.306	1243.71
851.845	231.161
856.382	233.429
860.917	378.934
865.448	524.941
869.978	362.385
874.505	348.565
879.029	133.069
883.55	11.8213
888.069	214.821
892.586	471.115
897.1	755.134
901.611	1017.2
906.12	1306.55
910.626	1587.42
915.129	1872.08
919.63	2255.81
924.129	2237.97
928.625	2665.68
933.118	2927.05
937.609	3170.7
942.097	3910.56
946.582	4307.39
951.065	4884.84
955.546	5805.75
960.023	6637.41
964.499	7448.57
968.971	8483.36
973.441	9788.79
977.909	10764.9
982.374	11595.7
986.836	10865.1
991.295	9395.43
995.753	8039.14
1000.21	7058.61
1004.66	6449.35
1009.11	6312.66
1013.55	6983.32
1018	8319.39
1022.44	10011.3
1026.88	11495.9
1031.32	13425
1035.75	15774.1
1040.18	18564.6
1044.61	20831.4
1049.04	22215.2
1053.46	23311
1057.88	24375.7
1062.3	26862.3
1066.71	28967.2
1071.13	28516.8
1075.54	25332.1
1079.94	20791.4
1084.35	16413.9
1088.75	12508.1
1093.15	9712.03
1097.55	7721.76
1101.94	6363.27
1106.34	5396.61
1110.73	4647.79
1115.11	4739.83
1119.5	5333.75
1123.88	6129.54
1128.26	5887.45
1132.63	5237.97
1137.01	3767.89
1141.38	2141.33
1145.75	926.227
1150.12	311.838
1154.48	363.205
1158.84	237.921
1163.2	16.6348
1167.55	132.538
1171.91	118.901
1176.26	41.9736
1180.61	111.025
1184.95	167.295
1189.29	198.996
1193.63	31.709
1197.97	60.0527
1202.31	196.968
1206.64	24.6592
1210.97	292.512
1215.29	331.148
1219.62	698.736
1223.94	1068.22
1228.26	1303.62
1232.57	1421.91
1236.89	1630.11
1241.2	1756.22
1245.51	1768.24
1249.81	1525.17
1254.12	1733
1258.42	1680.68
1262.72	1817.16
1267.01	1913.38
1271.3	1793.29
1275.59	1587.83
1279.88	1450.97
1284.17	1521.68
1288.45	1502.96
1292.73	1461.88
1297.01	1343.7
1301.28	1095.56
1305.55	1170.58
1309.82	1542.3
1314.09	1118.31
1318.35	903.122
1322.61	913.595
1326.87	856.124
1331.13	662.325
1335.38	475.971
1339.63	525.258
1343.88	561.574
1348.12	572.163
1352.37	490.694
1356.61	537.176
1360.85	517.619
1365.08	678.034
1369.31	605.438
1373.54	818.852
1377.77	751.807
1381.99	730.051
1386.22	665.418
1390.43	638.501
1394.65	586.212
1398.87	485.812
1403.08	372.315
1407.29	330.769
1411.49	223.159
1415.69	76.4648
1419.89	296.774
1424.09	125.23
1428.29	77.9365
1432.48	63.8506
1436.67	12.0459
1440.86	83.041
1445.04	29.1006
1449.23	1.18945
1453.4	58.1602
1457.58	99.9668
1461.76	152.006
1465.93	65.0879
1470.1	77.9111
1474.26	256.967
1478.43	291.303
1482.59	329.04
1486.75	453.315
1490.9	651.252
1495.06	570.981
1499.21	690.651
1503.35	769.96
1507.5	992.342
1511.64	1060.29
1515.78	1085.79
1519.92	1084.8
1524.05	1077.59
1528.18	1125.23
1532.31	757.721
1536.44	532.433
1540.56	457.789
1544.69	533.237
1548.8	299.702
1552.92	425.826
1557.03	148.837
1561.14	147.464
1565.25	52.1865
1569.36	207.118
