Measurement: Raman, 514 nm, ccw, Raman Data Processed
Mineral: Dravite
Rruff sample: R040088
Ideal chemistry: NaMg_3_Al_6_(Si_6_O_18_)(BO_3_)_3_(OH)_3_OH
Locality: Yinnietharra Station, Pilbara, Western Australia, Australia
Source: University of Arizona Mineral Museum
Description: Brown short prismatic crystal
Measured chemistry: (Na_0.88_Ca_0.06_[box]_0.06_)(Mg_0.88_Al_0.10_Ti_0.04_Fe_0.02_)_3_Al_6.00_(B_1_O_3_)_3_Si_6.00_O_18_((OH)_0.98_F_0.02_)_4_
Pin_id: L00133
Orientation: Laser parallel to a [1 0 0]. Fiducial mark perpendicular to laser is parallel to c* (0 0 1)
Raman shift (cm-1)	intensity
173.221	0
177.373	0.487
181.524	124.46
185.672	429.384
189.818	906.439
193.963	1723.98
198.105	3188.07
202.245	5875.07
206.383	11693.6
210.519	20399.4
214.653	24456.3
218.785	19014
222.915	13482.3
227.042	11861.4
231.168	12301
235.292	13961.1
239.413	17691.8
243.533	19512.9
247.651	16434.5
251.766	11146.2
255.88	7827.99
259.991	5996.99
264.101	4608.23
268.208	3334.71
272.313	2644.44
276.417	1989.43
280.518	1483.69
284.617	1018.2
288.715	800.97
292.81	666.996
296.903	680.274
300.994	695.803
305.083	1172.58
309.17	2571.61
313.256	3425.87
317.339	2004.37
321.42	1214.83
325.499	1071.99
329.576	1181.91
333.651	1401.34
337.724	1972.18
341.795	2738.38
345.864	3630.9
349.931	5132.7
353.996	7769.76
358.059	12155.1
362.12	21580.6
366.179	32556.3
370.236	34922.3
374.291	24428.4
378.344	14614.7
382.395	9651.22
386.444	7307.9
390.491	6194.75
394.537	5239.77
398.58	4732.95
402.621	4734.29
406.66	4402.8
410.697	3438.46
414.732	2556.28
418.765	1963.27
422.797	1516.4
426.826	1191.69
430.853	943.127
434.878	979.713
438.902	923.444
442.923	753.317
446.942	651.333
450.96	689.489
454.975	671.783
458.989	734.214
463	783.779
467.01	954.485
471.017	1223.38
475.023	1594.45
479.026	1770.7
483.028	1999.13
487.028	2643.72
491.026	3287.47
495.021	3439.39
499.015	3237.46
503.007	2855.68
506.997	2536.06
510.985	1943.58
514.971	1508.26
518.956	1131.07
522.938	1046.03
526.918	1118.13
530.896	1157.37
534.873	1136.74
538.847	1152.24
542.82	1045.88
546.79	750.652
550.759	494.55
554.726	300.573
558.69	224.721
562.653	201.99
566.614	175.38
570.573	43.886
574.53	81.507
578.485	119.257
582.438	93.148
586.39	101.184
590.339	253.369
594.287	309.705
598.232	525.189
602.176	717.826
606.118	818.617
610.057	1050.55
613.995	1326.63
617.931	1610.83
621.865	1864.16
625.797	2557.59
629.728	4175.12
633.656	5587.73
637.582	4828.42
641.507	4094.18
645.43	4345.01
649.35	5617.9
653.269	6575.85
657.186	6751.86
661.101	6877.93
665.014	7884.05
668.926	10350.2
672.835	12776.4
676.743	12612.7
680.648	10279
684.552	8465.3
688.454	7941.66
692.354	9038.06
696.252	10814.5
700.148	12590.9
704.042	11677.4
707.935	8323.86
711.825	5112.35
715.714	3239.46
719.601	1953.93
723.486	1303.76
727.369	978.005
731.25	851.462
735.129	698.302
739.007	597.14
742.882	529.78
746.756	671.781
750.628	993.269
754.498	1289.74
758.366	1407.53
762.232	1034.83
766.096	663.845
769.959	523.065
773.82	535.605
777.679	469.682
781.536	479.715
785.391	529.669
789.244	673.558
793.095	784.379
796.945	836.131
800.793	867.811
804.639	1126.42
808.483	1870.94
812.325	2744.39
816.165	3460.76
820.004	3138.05
823.84	2428.25
827.675	1696.37
831.508	1312.39
835.339	1180.32
839.169	1027.16
842.996	650.907
846.822	316.553
850.646	9.898
854.468	143.459
858.288	122.169
862.106	119.047
865.923	202.104
869.737	273.358
873.55	224.815
877.361	292.472
881.17	240.353
884.978	173.449
888.783	195.737
892.587	177.22
896.389	183.888
900.189	90.728
903.988	6.712
907.784	26.183
911.579	16.959
915.372	0.625
919.163	78.182
922.952	182.626
926.74	314.962
930.525	362.196
934.309	447.318
938.091	488.331
941.872	593.24
945.65	835.046
949.427	1031.75
953.202	1380.34
956.975	1550.81
960.746	1734.16
964.516	1843.4
968.283	1911.51
972.049	2270.5
975.813	1953.36
979.576	1780.11
983.336	1651.72
987.095	1602.14
990.852	1603.3
994.607	1710.69
998.361	2030.53
1002.11	2345.43
1005.86	2646.05
1009.61	3093.72
1013.36	3723.94
1017.1	4410.82
1020.84	5365.79
1024.59	6251.78
1028.32	7156.7
1032.06	7512.76
1035.8	7080.38
1039.53	6718.52
1043.26	6280.34
1046.99	5884.78
1050.72	5559.33
1054.45	5040.44
1058.17	4572.59
1061.9	4244.31
1065.62	3896.54
1069.34	3548.41
1073.06	3111.65
1076.77	2610.13
1080.49	2126.37
1084.2	1627.16
1087.91	1355.47
1091.62	1046.33
1095.33	917.113
1099.04	851.631
1102.74	740.994
1106.44	686.258
1110.14	609.422
1113.84	504.494
1117.54	432.459
1121.23	301.327
1124.93	294.106
1128.62	241.815
1132.31	178.462
1136	79.05
1139.68	18.587
1143.37	26.926
1147.05	8.509
1150.73	37.958
1154.41	63.469
1158.09	65.918
1161.77	24.559
1165.44	98.108
1169.12	63.521
1172.79	115.426
1176.45	54.369
1180.12	81.749
1183.79	17.99
1187.45	1.059
1191.12	69.517
1194.78	93.786
1198.43	40.825
1202.09	66.514
1205.75	104.26
1209.4	132.124
1213.05	98.435
1216.7	46.381
1220.35	17.734
1224	55.656
1227.65	23.825
1231.29	5.971
1234.93	16.947
1238.57	48.794
1242.21	1.45
1245.85	65.241
1249.48	90.814
1253.12	49.296
1256.75	51.685
1260.38	4.981
1264.01	14.639
1267.63	54.294
1271.26	54.317
1274.88	38.128
1278.5	12.896
1282.12	32.228
1285.74	67.003
1289.36	1.713
1292.97	5.779
1296.59	65.742
1300.2	24.508
1303.81	94.816
1307.41	85.835
1311.02	18.116
1314.63	39.887
1318.23	5.598
1321.83	31.077
1325.43	46.799
1329.03	65.001
1332.62	20.617
1336.22	44.375
1339.81	27.265
1343.4	73.75
1346.99	58.403
1350.58	36.761
1354.17	9.509
1357.75	24.814
1361.34	12.159
1364.92	20.951
1368.5	15.86
1372.08	6.187
1375.65	69.798
1379.23	75.167
1382.8	60.248
1386.37	53.587
1389.94	113.71
1393.51	137.577
1397.08	167.652
1400.64	151.494
1404.2	245.944
1407.77	205.19
1411.33	183.618
1414.88	161.655
1418.44	130.637
1421.99	136.708
1425.55	122.418
1429.1	115.26
1432.65	90.238
1436.2	71.775
1439.74	107.282
1443.29	105.868
1446.83	102.551
1450.38	72.119
1453.92	52.65
1457.45	98.114
1460.99	6.516
1464.53	21.778
1468.06	17.933
1471.59	30.069
1475.12	8.755
1478.65	22.187
1482.18	43.234
1485.7	8.377
1489.23	10.032
1492.75	8.713
1496.27	3.384
1499.79	28.023
1503.31	14.593
1506.82	5.602
1510.34	77.813
1513.85	97.71
1517.36	53.986
1520.87	12.341
