Measurement: Raman, 514 nm, ccw, Raman Data Processed
Mineral: Dravite
Rruff sample: R060286
Ideal chemistry: NaMg_3_Al_6_(Si_6_O_18_)(BO_3_)_3_(OH)_3_OH
Locality: Badakshan Province, Afghanistan
Source: Herb Obodda
Description: Brown prismatic tourmaline crystal
Measured chemistry: (Na_0.48_Ca_0.38_[box]_0.14_)_Σ=1_(Mg_2.90_Ti_0.10_)_Σ=3_Al_6.00_(B_1.00_O_3_)_3_(Si_5.56_B_0.44_)_Σ=6_O_18_(OH)_4_; (OH) assumed from stoichiometry; B estimated by difference and charge balance
Pin_id: L00909
Orientation: Laser parallel to a* (1 0 0). Fiducial mark perpendicular to laser is parallel to -c [0 0 -1]
Raman shift (cm-1)	intensity
118.134	0
123.058	132.9
127.979	269.385
132.898	968.41
137.814	1468.82
142.728	1816.42
147.639	1871.62
152.549	1424.38
157.455	725.76
162.359	82.7588
167.261	142.721
172.161	119.707
177.058	160.302
181.952	731.251
186.845	4051.07
191.734	6316.65
196.622	10695.5
201.507	12327.8
206.389	19731.4
211.269	30975.1
216.147	31771.7
221.022	21336.3
225.895	14820.2
230.765	14840.9
235.633	18985.5
240.498	24192.8
245.361	24473.8
250.222	17095.6
255.08	9439.93
259.936	6597.8
264.789	4026.88
269.64	3296.32
274.488	2364.64
279.334	1337.65
284.178	715.434
289.019	181.288
293.857	139.851
298.693	109.935
303.527	617.377
308.358	1719.71
313.187	3151.71
318.013	3049.81
322.837	2129.49
327.659	2089.9
332.478	3042.83
337.294	3951.19
342.108	5422.9
346.92	7551.93
351.729	11691.2
356.535	20122.8
361.34	32716.5
366.141	45457.3
370.94	46132.4
375.737	32411.5
380.531	19404.7
385.323	12219.9
390.113	8911.97
394.9	7925.94
399.684	7295.71
404.466	7091.25
409.245	5747.5
414.022	3677.02
418.797	2152.15
423.569	1255.66
428.338	1111.01
433.105	1032.74
437.87	923.859
442.632	1106.12
447.391	911.326
452.149	909.707
456.903	888.739
461.655	1044.78
466.405	1368.42
471.152	2094.43
475.897	2830.71
480.639	3500.2
485.378	3854.86
490.116	4267.65
494.85	4361.52
499.582	4515.44
504.312	3778.36
509.039	3012.23
513.764	2262.01
518.486	1452.66
523.206	982.135
527.923	983.392
532.638	1168.39
537.35	1047.08
542.059	687.439
546.766	335.414
551.471	152.968
556.173	78.1357
560.873	360.94
565.57	357.931
570.264	381.515
574.957	295.881
579.646	131.886
584.333	8.5625
589.018	202.38
593.7	554.065
598.379	777.977
603.056	1100.97
607.73	1301.51
612.402	1905.56
617.072	2650.97
621.739	3854.59
626.403	5292.26
631.065	6299.94
635.724	5896.58
640.381	5958.13
645.035	8000.55
649.687	10455.8
654.336	12213.9
658.983	13788.8
663.627	16097.5
668.268	18750.9
672.907	18621
677.544	15934.8
682.178	12786.3
686.809	11602.5
691.438	12278.3
696.065	15035.1
700.688	18155.4
705.31	17860
709.929	13253.3
714.545	7769.35
719.158	4593.15
723.77	2944.72
728.378	2164.95
732.984	1805.53
737.588	1638.44
742.189	1758.53
746.787	2313.35
751.383	2810.36
755.976	3745.46
760.567	4072.21
765.155	3511.22
769.741	3125.74
774.324	2936.46
778.904	3091.18
783.482	3144.35
788.058	3560.97
792.631	4177.03
797.201	4444.54
801.769	4362.5
806.334	3827.9
810.897	3557.75
815.457	3529.04
820.014	3473.77
824.569	2894.94
829.122	2046.55
833.671	1201.79
838.219	682.236
842.763	184.542
847.306	37.7637
851.845	8.37598
856.382	90.9834
860.917	4.14453
865.448	177.435
869.978	120.122
874.505	59.5215
879.029	129.902
883.55	65.9668
888.069	47.251
892.586	31.333
897.1	171.06
901.611	128.235
906.12	211.932
910.626	431.219
915.129	411.178
919.63	613.717
924.129	701.87
928.625	713.901
933.118	1059.9
937.609	1307.36
942.097	1547.55
946.582	1763.41
951.065	2356.82
955.546	2800.76
960.023	3164.22
964.499	3494.22
968.971	3626.76
973.441	3602.83
977.909	3484.13
982.374	3081.99
986.836	3009.72
991.295	2962.7
995.753	3025
1000.21	2996.73
1004.66	3565.9
1009.11	4104.38
1013.55	5214.67
1018	6309.38
1022.44	7470.24
1026.88	8901.63
1031.32	9822.74
1035.75	11106.6
1040.18	11893.7
1044.61	12562.8
1049.04	12784.2
1053.46	12187.6
1057.88	10864.7
1062.3	9549.98
1066.71	8620.77
1071.13	7663.77
1075.54	6517.85
1079.94	5766.61
1084.35	4769.25
1088.75	4043.68
1093.15	3632.97
1097.55	3241.68
1101.94	2911.15
1106.34	2957.05
1110.73	2694.83
1115.11	2690.55
1119.5	2510.44
1123.88	2086.75
1128.26	1464.65
1132.63	925.158
1137.01	573.375
1141.38	388.626
1145.75	240.468
1150.12	92.5957
1154.48	122.575
1158.84	29.6582
1163.2	69.6191
1167.55	45.2715
1171.91	14.2441
1176.26	33.6348
1180.61	13.5088
1184.95	59.3935
1189.29	165.202
1193.63	72.8311
1197.97	63.291
1202.31	98.2647
1206.64	42.9053
1210.97	40.1611
1215.29	207.183
1219.62	206.275
1223.94	174.052
1228.26	458.035
1232.57	360.995
1236.89	385.935
1241.2	349.856
1245.51	219.762
1249.81	330.654
1254.12	350.526
1258.42	305.373
1262.72	258.181
1267.01	206.936
1271.3	309.621
1275.59	182.221
1279.88	242.73
1284.17	73.1426
1288.45	239.331
1292.73	160.208
1297.01	174.084
1301.28	159.809
1305.55	151.489
1309.82	172.105
1314.09	83.5606
1318.35	95.0352
1322.61	196.883
1326.87	166.385
1331.13	67.3535
1335.38	56.7842
1339.63	162.19
1343.88	167.293
1348.12	0.676758
1352.37	130.475
1356.61	105.736
1360.85	117.067
1365.08	49.4785
1369.31	49.9766
1373.54	67.5723
1377.77	183.277
1381.99	130.098
1386.22	283.043
1390.43	140.015
1394.65	228.654
1398.87	243.37
1403.08	148.096
1407.29	271.913
1411.49	293.851
1415.69	96.9062
1419.89	212.047
1424.09	154.567
1428.29	82.4502
1432.48	161.815
1436.67	113.704
1440.86	150.169
1445.04	94.2178
1449.23	57.6387
1453.4	144.94
1457.58	93.2783
1461.76	2.76856
1465.93	99.9941
1470.1	9.58203
1474.26	31.8857
1478.43	124.105
1482.59	59.4082
1486.75	49.083
1490.9	183.191
1495.06	230.785
1499.21	106.928
1503.35	351.624
1507.5	500.687
1511.64	347.228
1515.78	396.579
1519.92	443.587
1524.05	426.933
1528.18	473.214
1532.31	320.524
1536.44	101.791
1540.56	480.711
1544.69	117.943
1548.8	159.341
1552.92	237.526
1557.03	97.7002
1561.14	202.556
1565.25	127.846
1569.36	113.336
