Measurement: Raman, 514 nm, ccw, Raman Data Processed
Mineral: Dravite
Rruff sample: R060534
Ideal chemistry: NaMg_3_Al_6_(Si_6_O_18_)(BO_3_)_3_(OH)_3_OH
Locality: Sri Lanka
Source: Gemological Institute of America
Description: Black trigonal prism
Measured chemistry: (Na_0.79_Ca_0.21_)(Mg_0.68_Fe^2+^_0.29_Ti_0.02_Al_0.01_)_3_Al_6.00_(BO_3_)_3_(Si_0.95_Al_005_)_6.00_O_18_(OH)_4_
Pin_id: L01032
Orientation: Laser parallel to c* (0 0 1). Fiducial mark perpendicular to laser is parallel to a [1 0 0]
Raman shift (cm-1)	intensity
297.485	0
301.111	139.543
304.735	31.9824
308.358	30.9805
311.98	84.2461
315.601	495.199
319.22	767.572
322.837	1349.92
326.454	2244.95
330.068	2450.91
333.682	2999.31
337.294	3065.64
340.905	3439.59
344.514	3244.52
348.122	3452.54
351.729	3655.95
355.334	4196.93
358.938	5100.5
362.54	6411.65
366.141	7452.35
369.741	8087.57
373.339	7550.14
376.936	6888.49
380.531	5826.1
384.126	5107.41
387.718	4290.95
391.31	3921.76
394.9	3074.86
398.488	2725.44
402.075	2402.34
405.661	2120.17
409.245	1786.5
412.828	1388.68
416.41	1064.97
419.99	899.961
423.569	624.979
427.146	421.018
430.722	143.086
434.297	180.195
437.87	75.375
441.442	74.3144
445.012	94.6738
448.581	32.3711
452.149	122.43
455.715	169.721
459.28	104.09
462.843	93.9688
466.405	410.369
469.965	736.002
473.525	1040.78
477.082	1220.46
480.639	1369.48
484.194	1579.2
487.747	1842.78
491.3	1923.2
494.85	2022.62
498.4	2013.96
501.948	1890.13
505.494	1961.27
509.039	1590.56
512.583	1421.53
516.125	1656.74
519.666	1677.35
523.206	1947.31
526.744	2141.45
530.281	2334.44
533.816	2638.61
537.35	3049.5
540.882	3154.09
544.413	3174.35
547.943	2921.26
551.471	3009.84
554.998	3125.14
558.523	2891.2
562.047	2630.09
565.57	2341.89
569.091	2385.67
572.611	2035.4
576.129	1980.01
579.646	1910.38
583.162	1610.21
586.676	1427.45
590.188	1338.45
593.7	1325.01
597.209	1013.53
600.718	1053.93
604.225	899.764
607.73	693.375
611.235	780.732
614.737	934.662
618.239	1096.1
621.739	695.014
625.237	684.361
628.734	287.096
632.23	117.189
635.724	88.0879
639.217	126.922
642.708	208.014
646.198	90.3867
649.687	207.697
653.174	681.025
656.66	1022.58
660.144	1360.34
663.627	1925.3
667.108	1645.43
670.588	1011.72
674.067	761.141
677.544	721.68
681.02	689.314
684.494	1049.11
687.967	1205.15
691.438	1722.58
694.908	2077.18
698.377	2976.01
701.844	3824.62
705.31	4640.33
708.774	6005.4
712.237	7427.14
715.698	8499.3
719.158	9714.75
722.617	10062.8
726.074	10225.6
729.53	10415.2
732.984	11372.3
736.437	12813.8
739.888	14565.2
743.338	15346
746.787	15957.9
750.234	16559
753.68	16704.1
757.124	17496.7
760.567	18049.4
764.008	18434
767.448	18191.7
770.887	18317.6
774.324	18743
777.759	19527.8
781.194	18426.9
784.626	15662.2
788.058	11608.5
791.488	8538.1
794.916	5628.9
798.343	4117.92
801.769	3539.16
805.193	3082.59
808.616	2693.2
812.037	2032
815.457	1415.96
818.875	967.086
822.292	613.365
825.707	319.76
829.122	129.17
832.534	122.484
835.945	188.457
839.355	22.9238
842.763	85.3848
846.17	1.8457
849.576	56.2695
852.98	4.10547
856.382	148.785
859.783	1.1543
863.183	223.084
866.581	220.256
869.978	207.84
873.373	95.8984
876.767	94.9805
880.159	19.2441
883.55	261.824
886.94	107.664
890.328	492.404
893.714	398.152
897.1	679.9
900.483	704.742
903.866	871.711
907.246	751.822
910.626	1237.13
914.004	1426.77
917.38	1339.85
920.755	1514.38
924.129	1352.17
927.501	1793.35
930.872	1921.92
934.241	2124.13
937.609	2336.76
940.975	2443.06
944.34	2945.9
947.703	3060.31
951.065	3190.08
954.426	3390.45
957.785	3416.15
961.142	3473.92
964.499	3748.95
967.853	3827.78
971.207	3858.53
974.558	3719.88
977.909	4047.16
981.258	3846.59
984.605	4078.93
987.951	3878.89
991.295	4012.54
994.639	4155.44
997.98	4059.76
1001.32	3806.89
1004.66	3646.67
1008	3582.58
1011.33	3535.43
1014.67	3487.4
1018	3815.7
1021.33	3904.33
1024.66	3777.4
1027.99	3824.66
1031.32	4178.54
1034.64	4551.88
1037.97	4547.15
1041.29	5043.41
1044.61	5173.64
1047.93	5467.77
1051.25	5781.23
1054.56	5767.45
1057.88	5566.95
1061.19	5863.91
1064.51	5700.22
1067.82	5148.57
1071.13	5180.14
1074.43	4854.23
1077.74	3919.54
1081.05	4080.58
1084.35	3320.35
1087.65	3147.74
1090.95	2902.65
1094.25	2971.87
1097.55	2659.3
1100.85	2433.75
1104.14	2580.63
1107.43	2430.87
1110.73	2318.67
1114.02	2226.09
1117.31	1956.02
1120.59	1992.42
1123.88	1613.43
1127.16	1505.14
1130.45	1322.17
1133.73	1077.16
1137.01	844.752
1140.29	739.008
1143.57	644.252
1146.84	594.768
1150.12	493.836
1153.39	341.201
1156.66	691.977
1159.93	263.014
1163.2	232.475
1166.46	248.338
1169.73	402.434
1172.99	223.797
1176.26	109.5
1179.52	10.5215
1182.78	67.5625
1186.04	108.201
1189.29	319.072
1192.55	120.478
1195.8	94.1875
1199.05	75.8633
1202.31	408.232
1205.55	243.527
1208.8	74.1816
1212.05	113.209
1215.29	208.656
1218.54	59.4648
1221.78	39.3535
1225.02	21.7305
1228.26	341.844
1231.5	239.75
1234.73	367.496
1237.97	347.508
1241.2	362.147
1244.43	485.144
1247.66	413.002
1250.89	635.357
1254.12	660.894
1257.34	732.809
1260.57	615.248
1263.79	723.822
1267.01	540.393
1270.23	775.006
1273.45	883.496
1276.67	717.838
1279.88	745.252
1283.1	999.926
1286.31	918.66
1289.52	1028.29
1292.73	1000.48
1295.94	976.856
1299.14	972.289
1302.35	1282.31
1305.55	1198.43
1308.75	907.094
1311.95	1004.77
1315.15	849.502
1318.35	1131.98
1321.55	782.068
1324.74	778.051
1327.94	1054.94
1331.13	992.031
1334.32	1098.93
1337.51	515.094
1340.69	689.445
1343.88	585.457
1347.06	761.344
1350.25	599.9
1353.43	746.68
1356.61	780.365
1359.79	686.381
1362.96	486.514
1366.14	401.762
1369.31	553.104
1372.49	512.24
1375.66	152.287
1378.83	236.09
1381.99	709.688
1385.16	369.227
1388.33	520.488
1391.49	188.803
1394.65	241.168
1397.81	418.578
1400.97	305.027
1404.13	128.504
1407.29	219.992
1410.44	406.473
1413.59	28.0352
1416.74	197.539
1419.89	72.8359
1423.04	152.272
1426.19	281.863
1429.34	51.4219
1432.48	217.539
1435.62	275.508
1438.77	163.977
1441.9	72.0078
1445.04	333.338
1448.18	145.025
1451.32	230.56
1454.45	298.525
1457.58	152.644
1460.71	191.625
1463.84	316.641
1466.97	341.023
1470.1	506.56
1473.22	254.379
1476.35	617.793
1479.47	576.252
1482.59	680.973
1485.71	434.994
1488.83	563.342
1491.94	734.104
1495.06	909.891
1498.17	538.492
1501.28	815.834
1504.39	870.381
1507.5	779.125
1510.61	616.785
1513.71	604.689
1516.82	744.551
1519.92	807.144
1523.02	489.283
1526.12	582.834
1529.22	785.613
1532.31	444.357
1535.41	352.977
1538.5	508.94
1541.6	494.449
1544.69	749.17
1547.78	453.812
1550.86	259.635
1553.95	459.174
1557.03	416.086
1560.12	387.644
1563.2	307.918
1566.28	290.221
1569.36	433.414
1572.43	0
