Measurement: Raman, 514 nm, ccw, Raman Data Processed
Mineral: Dravite
Rruff sample: R040088
Ideal chemistry: NaMg_3_Al_6_(Si_6_O_18_)(BO_3_)_3_(OH)_3_OH
Locality: Yinnietharra Station, Pilbara, Western Australia, Australia
Source: University of Arizona Mineral Museum
Description: Brown short prismatic crystal
Measured chemistry: (Na_0.88_Ca_0.06_[box]_0.06_)(Mg_0.88_Al_0.10_Ti_0.04_Fe_0.02_)_3_Al_6.00_(B_1_O_3_)_3_Si_6.00_O_18_((OH)_0.98_F_0.02_)_4_
Pin_id: M00003
Orientation: Laser parallel to c* (0 0 1). Fiducial mark perpendicular to laser is parallel to a [1 0 0]
Raman shift (cm-1)	intensity
184.183	0
188.319	190.021
192.454	236.455
196.586	201.851
200.717	289.144
204.846	786.464
208.972	1662.46
213.097	2698.63
217.22	3501.3
221.341	3439.03
225.46	2563.48
229.577	1911.55
233.692	1960.98
237.805	2186.49
241.916	2628.02
246.025	2516.49
250.132	1954.25
254.237	1242.05
258.34	844.754
262.442	643.085
266.541	746.547
270.639	826.289
274.734	1032.79
278.828	944.54
282.919	527.035
287.009	211.821
291.097	99.497
295.183	192.781
299.266	329.355
303.348	209.767
307.428	235.2
311.507	279.407
315.583	224.556
319.657	115.155
323.729	139.146
327.8	515.937
331.868	826.51
335.935	1280.39
339.999	1874.6
344.062	2042.76
348.123	2066.19
352.182	2221.64
356.239	2630.81
360.294	3195.58
364.347	4089.32
368.398	5011.81
372.448	7312.91
376.495	8462.66
380.54	7340.93
384.584	5447.32
388.626	4211.88
392.666	3525.08
396.704	2727.37
400.74	2250.23
404.774	1969.11
408.806	1716.8
412.836	1429.13
416.865	1059.4
420.891	904.359
424.916	883.254
428.939	910.833
432.959	848.819
436.978	855.377
440.996	847.292
445.011	837.416
449.024	738.73
453.036	610.235
457.045	475.451
461.053	467.779
465.059	324.486
469.063	376.656
473.065	381.453
477.065	521.548
481.063	637.18
485.06	910.93
489.054	1101.98
493.047	1439.26
497.038	1574.84
501.027	1488.73
505.014	1428.29
508.999	1094.49
512.982	869.022
516.964	501.839
520.944	395.95
524.921	699.374
528.897	1316.13
532.871	1630.23
536.844	1884.71
540.814	1829.59
544.783	1844.9
548.749	1710.73
552.714	1807.37
556.677	1675.1
560.638	1674.04
564.597	1415.28
568.555	1046.94
572.511	824.949
576.464	643.28
580.416	352.776
584.366	293.357
588.315	85.834
592.261	22.9
596.206	84.934
600.148	75.359
604.089	10.191
608.028	47.682
611.965	51.381
615.901	138.005
619.834	203.384
623.766	349.424
627.696	346.357
631.624	465.778
635.551	435.778
639.475	229.111
643.398	28.632
647.318	113.847
651.237	18.263
655.155	301.784
659.07	644.769
662.984	1094.21
666.895	1199.08
670.805	1068.39
674.713	832.111
678.62	734.241
682.524	775.768
686.427	591.681
690.328	709.97
694.227	784.621
698.124	1120.62
702.02	1487.92
705.913	2325.24
709.805	3184.46
713.695	4336.57
717.584	5708.23
721.47	8201.94
725.355	11018.9
729.238	11120.9
733.119	8632.35
736.998	6338.62
740.876	5135.6
744.752	5182.52
748.626	5476.9
752.498	6006.24
756.368	7163.19
760.237	8010.3
764.104	8917.52
767.969	9974.57
771.832	10041.4
775.693	10728.1
779.553	12764.6
783.411	15840.8
787.267	18896.8
791.122	19852.4
794.974	18467.8
798.825	16522.5
802.674	13782.5
806.522	13181.8
810.367	14485.4
814.211	15608.9
818.053	15782.1
821.893	13084.8
825.732	9447.1
829.568	6328.95
833.403	4750.34
837.236	4081.27
841.068	3286.71
844.898	2390.66
848.726	1250.1
852.552	510.023
856.376	131.39
860.199	73.904
864.02	195.914
867.839	137.663
871.656	217.379
875.472	225.308
879.286	153.481
883.098	103.684
886.909	43.257
890.717	4.743
894.524	123.935
898.33	164.21
902.133	322.733
905.935	525.642
909.735	699.053
913.533	803.986
917.33	918.5
921.124	1051.57
924.918	1192.22
928.709	1381.3
932.499	1483.79
936.286	1693.67
940.073	1879.95
943.857	2116.63
947.64	2280.71
951.421	2545.19
955.2	2572.12
958.978	2668.55
962.753	2631.41
966.527	2791.68
970.3	2966.37
974.071	2958.49
977.84	2989.03
981.607	2909.01
985.372	2902.43
989.136	2909.3
992.898	2956.62
996.659	2929.53
1000.42	2998.63
1004.17	2936.33
1007.93	2837.27
1011.68	2819.1
1015.43	2893.6
1019.18	3226.82
1022.93	3451.68
1026.68	3646.85
1030.42	3853.65
1034.17	4073.76
1037.91	4470.16
1041.65	4970.5
1045.39	5647.34
1049.12	6270.75
1052.86	6473.1
1056.59	6427.12
1060.33	6817.47
1064.06	6882.3
1067.78	7279.95
1071.51	7548.15
1075.23	6829.76
1078.96	5720.57
1082.68	4540.06
1086.4	3748.97
1090.12	3527.76
1093.83	2368.42
1097.55	2154.97
1101.26	2035.42
1104.97	1961.78
1108.68	1767.04
1112.39	1681.22
1116.1	1492.33
1119.8	1365.38
1123.5	1468.37
1127.2	866.316
1130.9	646.238
1134.6	599.137
1138.3	348.029
1141.99	193.922
1145.69	195.832
1149.38	236.769
1153.07	151.773
1156.76	251.912
1160.44	252.375
1164.13	289.527
1167.81	206.535
1171.49	112.031
1175.17	187.239
1178.85	165.335
1182.52	143.169
1186.2	163.53
1189.87	117.382
1193.54	21.685
1197.21	85.82
1200.88	82.406
1204.55	160.04
1208.21	62.878
1211.88	33.917
1215.54	107.206
1219.2	4.864
1222.86	65.288
1226.51	6.573
1230.17	99.564
1233.82	118.72
1237.47	266.889
1241.12	308.062
1244.77	285.232
1248.42	489.389
1252.06	534.537
1255.71	445.742
1259.35	483.061
1262.99	427.495
1266.63	515.046
1270.26	542.215
1273.9	612.498
1277.53	538.825
1281.16	599.651
1284.8	562.741
1288.42	435.126
1292.05	370.256
1295.68	315.901
1299.3	298.748
1302.92	195.713
1306.55	356.83
1310.16	266.089
1313.78	99.153
1317.4	206.176
1321.01	69.078
1324.62	118.984
1328.24	165.582
1331.85	180.465
1335.45	286.291
1339.06	219.511
1342.66	356.765
1346.27	322.254
1349.87	366.836
1353.47	353.133
1357.07	370.274
1360.66	223.318
1364.26	426.27
1367.85	328.552
1371.44	202.998
1375.04	410.427
1378.62	432.018
1382.21	534.137
1385.8	440.162
1389.38	448.619
1392.96	445.407
1396.54	494.85
1400.12	319.698
1403.7	296.605
1407.28	296.543
1410.85	214.485
1414.42	272.394
1417.99	248.195
1421.56	288.672
1425.13	210.57
1428.7	221.664
1432.26	103.558
1435.83	80.527
1439.39	47.983
1442.95	40.516
1446.51	6.501
1450.06	54.421
1453.62	166.372
1457.17	151.748
1460.73	74.63
1464.28	186.235
1467.83	198.71
1471.37	107.423
1474.92	161.186
1478.46	123.764
1482.01	170.243
1485.55	283.877
1489.09	321.808
1492.63	298.782
1496.16	336.769
1499.7	451.739
1503.23	283.449
1506.76	225.838
1510.29	323.761
1513.82	216.766
1517.35	167.43
1520.88	76.406
1524.4	269.381
1527.92	85.215
1531.44	119.199
1534.96	184.789
