Measurement: Raman, 514 nm, ccw, Raman Data Processed
Mineral: Dravite
Rruff sample: R060286
Ideal chemistry: NaMg_3_Al_6_(Si_6_O_18_)(BO_3_)_3_(OH)_3_OH
Locality: Badakshan Province, Afghanistan
Source: Herb Obodda
Description: Brown prismatic tourmaline crystal
Measured chemistry: (Na_0.48_Ca_0.38_[box]_0.14_)_Σ=1_(Mg_2.90_Ti_0.10_)_Σ=3_Al_6.00_(B_1.00_O_3_)_3_(Si_5.56_B_0.44_)_Σ=6_O_18_(OH)_4_; (OH) assumed from stoichiometry; B estimated by difference and charge balance
Pin_id: L00909
Orientation: Laser parallel to a* (1 0 0). Fiducial mark perpendicular to laser is parallel to -c [0 0 -1]
Raman shift (cm-1)	intensity
118.134	0
123.058	409.742
127.979	165.285
132.898	993.911
137.814	1772.71
142.728	2478.83
147.639	2905.47
152.549	2452.83
157.455	874.233
162.359	103.818
167.261	151.636
172.161	22.4102
177.058	233.206
181.952	573.053
186.845	5324.41
191.734	13909.9
196.622	20085.8
201.507	15266.2
206.389	15195.7
211.269	23982.7
216.147	25498
221.022	16879.5
225.895	11839.5
230.765	11185.4
235.633	13486.3
240.498	17611.1
245.361	17719.7
250.222	11483
255.08	5823.98
259.936	3674.1
264.789	2719.49
269.64	2869.22
274.488	2886.93
279.334	2083.88
284.178	1543.79
289.019	1344.09
293.857	1254.79
298.693	954.461
303.527	824.922
308.358	1334.07
313.187	2457.49
318.013	3112.59
322.837	3270.7
327.659	5128.53
332.478	7348.41
337.294	9545.59
342.108	10425.9
346.92	10402.4
351.729	12167.8
356.535	18606.1
361.34	30503.1
366.141	41495
370.94	41902.7
375.737	30512.1
380.531	18751.2
385.323	11741.8
390.113	8244
394.9	6468.61
399.684	5788.58
404.466	5345.85
409.245	4389.33
414.022	2614.96
418.797	1363.71
423.569	721.055
428.338	920.254
433.105	893.439
437.87	907.916
442.632	739.051
447.391	1234.58
452.149	1463.89
456.903	1556.24
461.655	1735.22
466.405	2371.68
471.152	3487.34
475.897	4763.65
480.639	5665.56
485.378	6264.01
490.116	6092.94
494.85	5969.3
499.582	5411.01
504.312	4600.03
509.039	3677.3
513.764	2485.75
518.486	1842.32
523.206	1937.96
527.923	2376.6
532.638	2629.19
537.35	2767.66
542.059	1855.98
546.766	943.258
551.471	484.883
556.173	57.6318
560.873	25.1699
565.57	181.513
570.264	231.353
574.957	520.842
579.646	485.181
584.333	374.601
589.018	147.166
593.7	80.0644
598.379	203.339
603.056	579.893
607.73	808.269
612.402	1366.94
617.072	1996.81
621.739	3064.68
626.403	4247.43
631.065	4909
635.724	4497.33
640.381	4290.37
645.035	5600.07
649.687	7782.4
654.336	9768.32
658.983	11795.8
663.627	15026.7
668.268	19161.2
672.907	23536
677.544	22979.3
682.178	17190.9
686.809	13179.8
691.438	13414
696.065	15995.5
700.688	19781.4
705.31	22343.9
709.929	19613.7
714.545	13763.9
719.158	9077.1
723.77	6985.34
728.378	6276.46
732.984	6340.62
737.588	6582.29
742.189	7342.1
746.787	8940.96
751.383	11530.2
755.976	14708.4
760.567	16108.1
765.155	14253.7
769.741	12406.4
774.324	11190.1
778.904	10336.6
783.482	9819
788.058	10200.3
792.631	10402.5
797.201	10743.6
801.769	10319.7
806.334	9452.6
810.897	8690.46
815.457	8960.26
820.014	8402.98
824.569	7097.62
829.122	5175.2
833.671	3345.72
838.219	1980.64
842.763	976.191
847.306	242.839
851.845	139.079
856.382	201.491
860.917	183.31
865.448	328.635
869.978	232.838
874.505	34.1797
879.029	49.3379
883.55	84.6846
888.069	227.419
892.586	336.783
897.1	630.097
901.611	634.497
906.12	936.088
910.626	1886.24
915.129	1204.94
919.63	1551.49
924.129	1585.76
928.625	1855.65
933.118	2151.44
937.609	2508.95
942.097	2924.29
946.582	3456.07
951.065	4090.13
955.546	4717.48
960.023	5490.14
964.499	6469.12
968.971	7060.44
973.441	7213.12
977.909	7575.16
982.374	7232.78
986.836	6297.57
991.295	5444.56
995.753	5182.77
1000.21	4688.5
1004.66	4726.28
1009.11	5284.77
1013.55	6253.13
1018	7584.48
1022.44	8592.28
1026.88	9713.29
1031.32	11233
1035.75	12729.7
1040.18	14396.6
1044.61	16345.4
1049.04	18003.6
1053.46	18942.4
1057.88	17028.4
1062.3	16257.2
1066.71	15708.4
1071.13	14977.7
1075.54	13845.8
1079.94	11870.3
1084.35	9895.73
1088.75	7934
1093.15	6513.16
1097.55	5733.23
1101.94	5017.2
1106.34	4718.1
1110.73	4356.93
1115.11	4404.73
1119.5	4483.89
1123.88	4009.29
1128.26	3174.44
1132.63	2483.59
1137.01	1879.63
1141.38	885.139
1145.75	532.592
1150.12	296.422
1154.48	328.527
1158.84	127.717
1163.2	39.7285
1167.55	13.4414
1171.91	79.0527
1176.26	133.66
1180.61	70.334
1184.95	28.4473
1189.29	187.633
1193.63	166.818
1197.97	57.3359
1202.31	62.7246
1206.64	140.861
1210.97	363.273
1215.29	544.609
1219.62	828.852
1223.94	963.998
1228.26	1409.05
1232.57	1284
1236.89	1340.86
1241.2	1137.63
1245.51	1167.31
1249.81	1221.89
1254.12	1219.36
1258.42	1021.69
1262.72	1115.84
1267.01	943.773
1271.3	1049.44
1275.59	977.826
1279.88	835.912
1284.17	965.699
1288.45	660.934
1292.73	770.777
1297.01	743.644
1301.28	594.67
1305.55	734.332
1309.82	662.99
1314.09	627.479
1318.35	502.443
1322.61	319.438
1326.87	630.949
1331.13	529.537
1335.38	360.377
1339.63	429.816
1343.88	188.916
1348.12	405.435
1352.37	304.963
1356.61	370.508
1360.85	465.082
1365.08	497.746
1369.31	567.357
1373.54	752.09
1377.77	459.908
1381.99	656.766
1386.22	477.603
1390.43	876.894
1394.65	712.637
1398.87	710.258
1403.08	566.92
1407.29	319.611
1411.49	198.322
1415.69	428.033
1419.89	257.85
1424.09	216.797
1428.29	140.17
1432.48	163.215
1436.67	27.0645
1440.86	121.072
1445.04	289.877
1449.23	92.457
1453.4	55
1457.58	46.4961
1461.76	0.123047
1465.93	9.02344
1470.1	353.094
1474.26	73.5039
1478.43	84.2305
1482.59	137.328
1486.75	160.932
1490.9	200.156
1495.06	439.106
1499.21	600.891
1503.35	594.303
1507.5	643.953
1511.64	658.352
1515.78	511.41
1519.92	736.014
1524.05	619.436
1528.18	372.385
1532.31	671.543
1536.44	423.33
1540.56	371.086
1544.69	256.815
1548.8	186.697
1552.92	440.978
1557.03	189.418
1561.14	183.565
1565.25	88.1875
1569.36	132.523
