Measurement: Raman, 514 nm, ccw, Raman Data Processed
Mineral: Dravite
Rruff sample: R060280
Ideal chemistry: NaMg_3_Al_6_(Si_6_O_18_)(BO_3_)_3_(OH)_3_OH
Locality: near Merelani, Tanzania
Source: Herb Obodda
Description: Green fragment
Measured chemistry: (Na_0.45_Ca_0.40_[box]_0.15_)(Mg_0.89_Al_0.07_Ti_0.04_)_3_Al_6_(BO_3_)_3_(Si_0.93_B_0.07_)_6_O_18_((OH)_0.95_O_0.05_)_4_
Pin_id: L01324
Orientation: Laser parallel to a* (1 0 0). Fiducial mark perpendicular to laser is parallel to c [0 0 1]
Raman shift (cm-1)	intensity
168.486	0
173.385	144.406
178.282	30.2129
183.176	58.4609
188.067	883.481
192.956	2193.86
197.843	3644.6
202.727	6662.72
207.609	11439.9
212.489	18500.5
217.366	20926.4
222.24	15818.9
227.112	11849.2
231.982	11012.1
236.849	12353.1
241.714	14183.2
246.577	13267.8
251.437	9781.27
256.294	5977.24
261.149	4298.35
266.002	3625.86
270.852	3278.83
275.7	2704.21
280.545	1786.87
285.388	701.688
290.229	75.1543
295.067	134.695
299.902	180.672
304.735	529
309.566	1143.64
314.394	2085.86
319.22	2052.18
324.043	2290.54
328.864	3636.41
333.682	5843.86
338.498	7756.55
343.311	8428.77
348.122	8792.98
352.931	10756.7
357.737	16213.6
362.54	25082.5
367.341	33520
372.14	33409
376.936	23728.3
381.73	14892.4
386.521	9339.46
391.31	6885.24
396.096	5486.16
400.88	5088.52
405.661	4372.85
410.44	2950.62
415.216	1675.9
419.99	705.144
424.761	475.188
429.53	508.559
434.297	942.793
439.061	978.445
443.822	1236.64
448.581	1379.96
453.337	800.57
458.091	835.957
462.843	677.283
467.592	629.818
472.338	814.484
477.082	1292.09
481.824	1964.49
486.563	2739.61
491.3	3224.32
496.034	4251.57
500.765	5005.25
505.494	5342.31
510.221	4607.65
514.945	3343.23
519.666	2525.17
524.385	1919.83
529.102	2602.73
533.816	3527.63
538.527	3562.47
543.236	2665.19
547.943	2038.74
552.647	1007.06
557.348	362.103
562.047	2.76172
566.744	434.428
571.438	585.047
576.129	696.945
580.818	276.994
585.504	189.662
590.188	29.8027
594.87	323.982
599.549	645.945
604.225	886.199
608.899	1303.37
613.57	1756.77
618.239	2445.97
622.905	3504.68
627.569	4552.57
632.23	4592.56
636.889	3903.6
641.545	3696.68
646.198	4350.75
650.849	5258.78
655.498	6704.74
660.144	7990.64
664.787	9661.32
669.428	10987.9
674.067	11124.2
678.703	9929.41
683.336	9287.32
687.967	9617.97
692.595	11118.3
697.221	14176.4
701.844	18090.5
706.465	18921.9
711.083	15821.9
715.698	10056.5
720.311	6527.25
724.922	4092.79
729.53	3480.09
734.135	3343.99
738.738	3775.95
743.338	4449.16
747.936	5949.74
752.531	7815.72
757.124	9878.56
761.714	9694.68
766.302	8171.29
770.887	6817.5
775.469	5779.22
780.049	5758.41
784.626	5862.11
789.201	5911.3
793.773	6320.98
798.343	6282.15
802.91	6541.81
807.475	7182.97
812.037	9297.6
816.596	11015.7
821.153	10993.3
825.707	9447.36
830.259	6958.88
834.808	5388.85
839.355	3532.36
843.899	1961.45
848.441	1166.14
852.98	271.734
857.516	156.834
862.05	198.428
866.581	318.635
871.11	410.897
875.636	362.549
880.159	207.641
884.68	106.188
889.199	3.95117
893.714	119.768
898.228	441.549
902.738	738.859
907.246	877.861
911.752	813.438
916.255	1289.84
920.755	1165.33
925.253	1263.84
929.748	1483.11
934.241	1585.17
938.731	2269.99
943.218	2372.93
947.703	2793.33
952.186	3485.72
956.665	3591.56
961.142	4235.88
965.617	4895.66
970.089	5173.91
974.558	5236.65
979.025	5549.85
983.489	5030.5
987.951	4649.35
992.41	4412.84
996.866	4110.84
1001.32	4630.43
1005.77	4607.88
1010.22	5089.9
1014.67	5902.91
1019.11	6828.73
1023.55	7884.8
1027.99	8578.23
1032.42	9166.46
1036.86	10279.3
1041.29	11076.4
1045.72	11577.2
1050.14	12253.4
1054.56	12373
1058.98	12076.5
1063.4	12102
1067.82	12343.9
1072.23	11805.4
1076.64	11533.3
1081.05	9985.44
1085.45	8501.84
1089.85	6880.01
1094.25	5236.95
1098.65	4343.66
1103.04	3737.15
1107.43	3416.43
1111.82	2859.51
1116.21	2783.4
1120.59	2177.12
1124.97	1883.75
1129.35	1294.59
1133.73	866.926
1138.1	348.703
1142.47	276.281
1146.84	87.5977
1151.21	333.988
1155.57	6.17383
1159.93	28.6914
1164.29	8.36328
1168.64	93.4062
1172.99	7.91211
1177.34	122.807
1181.69	184.812
1186.04	37.3789
1190.38	64.0469
1194.72	83.2891
1199.05	62.4414
1203.39	51.7559
1207.72	42.2832
1212.05	259.477
1216.37	578.182
1220.7	746.842
1225.02	915.463
1229.34	1133.05
1233.65	1387.62
1237.97	1616.18
1242.28	1437.89
1246.59	1407.72
1250.89	1291.6
1255.19	1031.5
1259.49	971.42
1263.79	1495.36
1268.09	1172.31
1272.38	1138.25
1276.67	1169.15
1280.95	1132.95
1285.24	1024.93
1289.52	843.402
1293.8	903.16
1298.08	1047.64
1302.35	924.975
1306.62	810.25
1310.89	871.725
1315.15	843.211
1319.42	732.732
1323.68	916.75
1327.94	415.801
1332.19	602.664
1336.44	468.652
1340.69	248.338
1344.94	343.227
1349.19	374.322
1353.43	235.01
1357.67	291.168
1361.9	161.949
1366.14	380.682
1370.37	465.738
1374.6	498.611
1378.83	623.506
1383.05	605.713
1387.27	592.248
1391.49	430.129
1395.7	526.373
1399.92	200.008
1404.13	383.051
1408.34	97.5527
1412.54	192.777
1416.74	275.44
1420.94	209.592
1425.14	122.33
1429.34	235.037
1433.53	62.0391
1437.72	545.037
1441.9	610.246
1446.09	722.865
1450.27	797.748
1454.45	763.949
1458.63	810.037
1462.8	503.76
1466.97	416.123
1471.14	182.109
1475.31	118.154
1479.47	124.797
1483.63	105.16
1487.79	148.273
1491.94	72.8789
1496.09	132.629
1500.24	1.83789
1504.39	143.738
1508.54	395.994
1512.68	422.975
1516.82	148.031
1520.95	396.264
1525.09	175.756
1529.22	328.701
1533.35	255.701
1537.47	46.0781
1541.6	259.211
1545.72	148.156
1549.83	22.0117
1553.95	274.566
1558.06	55.0469
1562.17	116.203
1566.28	122.691
1570.38	89.8711
