Measurement: Raman, 514 nm, ccw, Raman Data Processed
Mineral: Dravite
Rruff sample: R060534
Ideal chemistry: NaMg_3_Al_6_(Si_6_O_18_)(BO_3_)_3_(OH)_3_OH
Locality: Sri Lanka
Source: Gemological Institute of America
Description: Black trigonal prism
Measured chemistry: (Na_0.79_Ca_0.21_)(Mg_0.68_Fe^2+^_0.29_Ti_0.02_Al_0.01_)_3_Al_6.00_(BO_3_)_3_(Si_0.95_Al_005_)_6.00_O_18_(OH)_4_
Pin_id: L01264
Orientation: Laser parallel to a* (1 0 0). Fiducial mark perpendicular to laser is parallel to -c [0 0 -1]
Raman shift (cm-1)	intensity
168.486	0
173.385	151.156
178.282	604.141
183.176	1281.79
188.067	2729.8
192.956	3903.2
197.843	5170.15
202.727	8483.09
207.609	5242.76
212.489	7143.41
217.366	6143.65
222.24	5219.69
227.112	4204.57
231.982	4117.78
236.849	4771.21
241.714	4810.19
246.577	3683.65
251.437	3515.63
256.294	2837.83
261.149	2556.02
266.002	2267.73
270.852	1647.73
275.7	1474.16
280.545	1067.09
285.388	422.701
290.229	217.098
295.067	427.074
299.902	789.947
304.735	384.371
309.566	101.906
314.394	118.09
319.22	428.551
324.043	1108.77
328.864	1746.45
333.682	2743.23
338.498	3602.25
343.311	4100.95
348.122	4912.14
352.931	5199.88
357.737	5570.97
362.54	6962.55
367.341	7813.12
372.14	9157.58
376.936	8589.68
381.73	7734.28
386.521	6871.68
391.31	6349
396.096	5876.82
400.88	4842.68
405.661	4494.9
410.44	4065.98
415.216	3896.9
419.99	4028.93
424.761	3442.6
429.53	3309.32
434.297	2259.49
439.061	1619.86
443.822	1095.27
448.581	785.449
453.337	464.777
458.091	575.84
462.843	603.039
467.592	687.953
472.338	448.703
477.082	797.731
481.824	654.32
486.563	645.914
491.3	709.832
496.034	843.273
500.765	814.242
505.494	813.238
510.221	593.773
514.945	530.09
519.666	688.566
524.385	512.668
529.102	1135.83
533.816	1499.54
538.527	2090
543.236	2370.48
547.943	2207.86
552.647	2298.31
557.348	2313
562.047	2523.47
566.744	2658.41
571.438	2367.48
576.129	2179.29
580.818	2532.66
585.504	2400.63
590.188	2435.18
594.87	2380.62
599.549	1940.04
604.225	1705.2
608.899	1641.89
613.57	1851.18
618.239	1496.59
622.905	1421.83
627.569	1349.81
632.23	1040.47
636.889	225.793
641.545	240.297
646.198	267.219
650.849	160.297
655.498	373.555
660.144	1478.75
664.787	2165.23
669.428	2223.91
674.067	1663.68
678.703	1397.44
683.336	1410.09
687.967	2192.49
692.595	3400.81
697.221	4739.8
701.844	6396.8
706.465	8428.57
711.083	9829.24
715.698	11547.6
720.311	14604
724.922	17215.7
729.53	19132.8
734.135	20479.7
738.738	21568.1
743.338	24012.2
747.936	25209.9
752.531	27105.8
757.124	27773.3
761.714	28009
766.302	28419
770.887	28146.2
775.469	26894
780.049	25185.7
784.626	23649.3
789.201	22162.5
793.773	19018.1
798.343	14870.2
802.91	11186.8
807.475	8870.46
812.037	8053.44
816.596	6708.07
821.153	4813.68
825.707	2959.62
830.259	1365.12
834.808	521
839.355	7.26953
843.899	551.438
848.441	544.625
852.98	352.981
857.516	762.394
862.05	461.672
866.581	223.758
871.11	45.6641
875.636	334.797
880.159	413.109
884.68	739.027
889.199	843.5
893.714	1195.23
898.228	1750.98
902.738	2027.67
907.246	2247.71
911.752	2807.93
916.255	2758.59
920.755	3481.51
925.253	3692.87
929.748	3869.98
934.241	4180.23
938.731	4327.51
943.218	4638.77
947.703	5336.91
952.186	6108.61
956.665	6432.88
961.142	6771.62
965.617	7150.89
970.089	7403.56
974.558	7579.93
979.025	7799.7
983.489	7774.43
987.951	7928.6
992.41	7424.09
996.866	7458.56
1001.32	7756.79
1005.77	6792.3
1010.22	6459.91
1014.67	6132.41
1019.11	6268.37
1023.55	6251.17
1027.99	6365.23
1032.42	6545.97
1036.86	6714.61
1041.29	6838.11
1045.72	7190.53
1050.14	7542.96
1054.56	7548.52
1058.98	8016.12
1063.4	7440.18
1067.82	7289.32
1072.23	7268.78
1076.64	6811.19
1081.05	6450.57
1085.45	6025.19
1089.85	5490.35
1094.25	5463.13
1098.65	5110.39
1103.04	5521.51
1107.43	4891.67
1111.82	4626.54
1116.21	4221.61
1120.59	3990.17
1124.97	3466.09
1129.35	2641.43
1133.73	2105.75
1138.1	1675.16
1142.47	1389.96
1146.84	1086.84
1151.21	1139.15
1155.57	1239.88
1159.93	790.117
1164.29	657.746
1168.64	563.633
1172.99	573.723
1177.34	214.785
1181.69	165.785
1186.04	109.75
1190.38	202.387
1194.72	366.191
1199.05	388.375
1203.39	198.918
1207.72	211.059
1212.05	38.5898
1216.37	29.6094
1220.7	272.18
1225.02	259.434
1229.34	570.055
1233.65	553.723
1237.97	754.203
1242.28	683.449
1246.59	1100.38
1250.89	908.883
1255.19	1087.88
1259.49	972.277
1263.79	877.441
1268.09	985.773
1272.38	906.91
1276.67	1062.79
1280.95	782.832
1285.24	948.016
1289.52	1164.71
1293.8	788.977
1298.08	1075.97
1302.35	961.527
1306.62	1127.34
1310.89	860.164
1315.15	984.629
1319.42	1090.11
1323.68	839.852
1327.94	1033.49
1332.19	909.152
1336.44	592.102
1340.69	758.785
1344.94	499.715
1349.19	639.57
1353.43	385.309
1357.67	158.062
1361.9	399.125
1366.14	705.113
1370.37	442.363
1374.6	427.18
1378.83	331.141
1383.05	425.914
1387.27	228.719
1391.49	228.047
1395.7	19.0547
1399.92	43.7266
1404.13	232.891
1408.34	84.3828
1412.54	133.332
1416.74	8.91016
1420.94	141.039
1425.14	335.168
1429.34	109.043
1433.53	161.824
1437.72	13.3438
1441.9	381.676
1446.09	506.457
1450.27	679.242
1454.45	302.672
1458.63	311.266
1462.8	482.519
1466.97	468.598
1471.14	492.617
1475.31	510.441
1479.47	811.246
1483.63	655
1487.79	902.008
1491.94	911.449
1496.09	977.762
1500.24	613.41
1504.39	880.84
1508.54	1371.13
1512.68	868.68
1516.82	902.406
1520.95	521.336
1525.09	512.812
1529.22	528.988
1533.35	677.723
1537.47	212.801
1541.6	324.168
1545.72	630.633
1549.83	315.777
1553.95	255.207
1558.06	120.746
1562.17	44.7109
1566.28	11.6797
1570.38	86.0195
