Measurement: Raman, 514 nm, ccw, Raman Data Processed
Mineral: Dravite
Rruff sample: R060280
Ideal chemistry: NaMg_3_Al_6_(Si_6_O_18_)(BO_3_)_3_(OH)_3_OH
Locality: near Merelani, Tanzania
Source: Herb Obodda
Description: Green fragment
Measured chemistry: (Na_0.45_Ca_0.40_[box]_0.15_)(Mg_0.89_Al_0.07_Ti_0.04_)_3_Al_6_(BO_3_)_3_(Si_0.93_B_0.07_)_6_O_18_((OH)_0.95_O_0.05_)_4_
Pin_id: L01324
Orientation: Laser parallel to a* (1 0 0). Fiducial mark perpendicular to laser is parallel to c [0 0 1]
Raman shift (cm-1)	intensity
168.486	0
173.385	108.367
178.282	11.7148
183.176	50.1914
188.067	774.753
192.956	1911.51
197.843	4364.01
202.727	8989.62
207.609	16917.2
212.489	26743.7
217.366	29463.8
222.24	22562.7
227.112	16305.2
231.982	15374.1
236.849	18083.4
241.714	21269.9
246.577	20345.8
251.437	15551.5
256.294	9773.24
261.149	7063.53
266.002	5386.44
270.852	4563.98
275.7	2927.01
280.545	1163.33
285.388	259.838
290.229	429.547
295.067	165.234
299.902	16.4795
304.735	609.848
309.566	1969.52
314.394	3041.25
319.22	2009.14
324.043	745.713
328.864	862.328
333.682	1518.54
338.498	2453.86
343.311	3787.66
348.122	6135.38
352.931	10765.5
357.737	18567.9
362.54	30466.4
367.341	41389.7
372.14	40554.9
376.936	29136.7
381.73	17769.1
386.521	11574
391.31	8942.34
396.096	7400.98
400.88	7115.9
405.661	6428.06
410.44	4991.36
415.216	2950.3
419.99	1997.26
424.761	1281.93
429.53	994.412
434.297	1123.44
439.061	1080.27
443.822	934.363
448.581	664.748
453.337	731.449
458.091	703.182
462.843	811.617
467.592	679.91
472.338	904.955
477.082	1323.59
481.824	1712.72
486.563	2334.27
491.3	3133.16
496.034	4145.32
500.765	4911.7
505.494	5253.25
510.221	4963.89
514.945	3455.59
519.666	2140.3
524.385	1326
529.102	1390.64
533.816	1851.17
538.527	1972.55
543.236	1593.73
547.943	986.68
552.647	473.342
557.348	54.3496
562.047	187.582
566.744	367.832
571.438	443.248
576.129	331.463
580.818	169.35
585.504	87.0879
590.188	349.559
594.87	650.543
599.549	1001.88
604.225	1042.75
608.899	1613.29
613.57	2146.89
618.239	2830.28
622.905	3785.06
627.569	5304.09
632.23	5391.34
636.889	5239.74
641.545	5205.26
646.198	6283.86
650.849	7647.52
655.498	8847.22
660.144	9838.91
664.787	11927.6
669.428	13440.2
674.067	13429.8
678.703	12176.2
683.336	10811.6
687.967	11057.8
692.595	12719.8
697.221	15833.6
701.844	18463
706.465	19019.2
711.083	15035.5
715.698	9281.48
720.311	5222.41
724.922	3127.54
729.53	2114.63
734.135	1649.46
738.738	1428.14
743.338	1467.69
747.936	1820.22
752.531	2402.98
757.124	2902.01
761.714	2540.59
766.302	2158.73
770.887	1794.53
775.469	1704.59
780.049	1951.15
784.626	2148.26
789.201	2328.01
793.773	2486.41
798.343	2511.44
802.91	2651.11
807.475	2933.4
812.037	4195.32
816.596	4859.85
821.153	5028.01
825.707	4218.78
830.259	3107.15
834.808	2038.18
839.355	1454.64
843.899	865.125
848.441	243.15
852.98	24.2734
857.516	57.9961
862.05	19.2148
866.581	55.6738
871.11	180.572
875.636	229.518
880.159	125.209
884.68	154.18
889.199	98.7871
893.714	153.721
898.228	290.883
902.738	309.01
907.246	229.705
911.752	224.959
916.255	424.867
920.755	502.41
925.253	629.756
929.748	651.9
934.241	842.684
938.731	1164.12
943.218	1220.41
947.703	1496.47
952.186	1927.13
956.665	2401.38
961.142	2688.22
965.617	3164.66
970.089	3380.7
974.558	3401.33
979.025	3222.54
983.489	3101.3
987.951	2933.74
992.41	2911.01
996.866	3216.38
1001.32	3521.15
1005.77	3942.44
1010.22	4343.44
1014.67	5353.86
1019.11	6064.68
1023.55	6709.55
1027.99	7350.11
1032.42	7806.78
1036.86	8368.42
1041.29	8663.65
1045.72	9172.87
1050.14	9089.19
1054.56	9283.47
1058.98	8805.06
1063.4	8515.37
1067.82	7703.44
1072.23	6900.31
1076.64	6153.9
1081.05	5322.75
1085.45	4482.4
1089.85	3737.9
1094.25	2908.29
1098.65	2818.58
1103.04	2445.78
1107.43	2609.9
1111.82	2232.95
1116.21	2465.93
1120.59	2186.89
1124.97	1852.03
1129.35	1237.5
1133.73	740.281
1138.1	375.85
1142.47	263.596
1146.84	216.394
1151.21	286.904
1155.57	197.828
1159.93	145.102
1164.29	52.2656
1168.64	65.4336
1172.99	7.94727
1177.34	9.44727
1181.69	83.084
1186.04	9.97852
1190.38	41.3145
1194.72	132.92
1199.05	45.1309
1203.39	29.9219
1207.72	14.5176
1212.05	100.746
1216.37	248.002
1220.7	286.309
1225.02	560.887
1229.34	235.389
1233.65	455.984
1237.97	454.721
1242.28	349.541
1246.59	520.453
1250.89	393.457
1255.19	528.555
1259.49	463.822
1263.79	320.102
1268.09	610.463
1272.38	285.891
1276.67	441.602
1280.95	495.56
1285.24	224.102
1289.52	165.744
1293.8	393.348
1298.08	246.648
1302.35	212.609
1306.62	394.635
1310.89	275.727
1315.15	293.268
1319.42	400.242
1323.68	255.131
1327.94	295.477
1332.19	54.8496
1336.44	201.639
1340.69	33.2695
1344.94	197.006
1349.19	203.935
1353.43	159.465
1357.67	90.7832
1361.9	192.07
1366.14	123.607
1370.37	78.3184
1374.6	270.209
1378.83	309.289
1383.05	4.45508
1387.27	159.992
1391.49	293.647
1395.7	148.522
1399.92	43.373
1404.13	267.836
1408.34	229.154
1412.54	145.897
1416.74	98.5469
1420.94	264.959
1425.14	103.74
1429.34	174.613
1433.53	21.6211
1437.72	134.32
1441.9	219.353
1446.09	350.701
1450.27	437.621
1454.45	285.746
1458.63	265.852
1462.8	149.231
1466.97	126.066
1471.14	166.113
1475.31	5.5
1479.47	15.1777
1483.63	18.6348
1487.79	3.19727
1491.94	1.18555
1496.09	35.2949
1500.24	90.7129
1504.39	58.6602
1508.54	150.328
1512.68	243.307
1516.82	194.977
1520.95	183.369
1525.09	178.481
1529.22	182.049
1533.35	126.369
1537.47	291.492
1541.6	320.336
1545.72	152.635
1549.83	89.2422
1553.95	204.35
1558.06	132.203
1562.17	6.95898
1566.28	175.336
1570.38	275.012
