Measurement: Raman, 514 nm, ccw, Raman Data Processed
Mineral: Dravite
Rruff sample: R040088
Ideal chemistry: NaMg_3_Al_6_(Si_6_O_18_)(BO_3_)_3_(OH)_3_OH
Locality: Yinnietharra Station, Pilbara, Western Australia, Australia
Source: University of Arizona Mineral Museum
Description: Brown short prismatic crystal
Measured chemistry: (Na_0.88_Ca_0.06_[box]_0.06_)(Mg_0.88_Al_0.10_Ti_0.04_Fe_0.02_)_3_Al_6.00_(B_1_O_3_)_3_Si_6.00_O_18_((OH)_0.98_F_0.02_)_4_
Pin_id: L00133
Orientation: Laser parallel to a [1 0 0]. Fiducial mark perpendicular to laser is parallel to c* (0 0 1)
Raman shift (cm-1)	intensity
174.605	0
178.757	48.783
182.907	67.29
187.054	443.677
191.2	550.183
195.343	680.866
199.485	943.786
203.624	1802.77
207.762	3008.85
211.897	3834.31
216.03	4030.74
220.162	3108.2
224.291	2303.92
228.418	2033.16
232.543	2160.54
236.666	2674.6
240.787	2915.41
244.906	3168.8
249.023	1750.15
253.138	1116.63
257.25	843.434
261.361	921.871
265.47	721.489
269.577	711.952
273.681	353.251
277.784	306.145
281.885	267.388
285.983	174.562
290.08	78.478
294.174	214.211
298.267	147.828
302.357	92.803
306.446	270.949
310.532	222.71
314.617	152.702
318.699	143.11
322.78	423.487
326.858	721.737
330.934	1344.74
335.009	1968
339.081	2394.87
343.152	2416.05
347.22	2494.38
351.286	2733.83
355.351	3468.33
359.413	4851.52
363.473	7753.56
367.532	10324.7
371.588	9244.94
375.643	6544.37
379.695	4932.65
383.745	3989.87
387.794	3234.84
391.84	2805.53
395.884	2321.88
399.927	1953.6
403.967	1425.72
408.006	1206.2
412.042	972.042
416.077	815.226
420.109	709.479
424.14	552.049
428.168	542.7
432.195	751.899
436.22	715.421
440.242	512.091
444.263	586.135
448.282	545.324
452.298	428.11
456.313	344.953
460.326	164.891
464.337	329.632
468.346	488.389
472.353	586.897
476.358	644.774
480.361	884.021
484.362	1254.65
488.361	1498.68
492.358	1639.14
496.353	1677.04
500.346	1809.4
504.337	1501.6
508.327	1028.93
512.314	722.845
516.3	544.311
520.283	715.353
524.265	1054.99
528.244	1449.26
532.222	1690.18
536.198	1924.83
540.171	1609.24
544.143	1114.41
548.113	895.365
552.081	683.088
556.047	657.585
560.011	579.856
563.974	458.911
567.934	370.798
571.892	313.515
575.849	338.112
579.803	96.811
583.756	72.966
587.706	1.267
591.655	18.779
595.602	64.925
599.547	94.002
603.49	138.683
607.431	52.341
611.37	314.606
615.307	310.866
619.243	275.978
623.176	555.879
627.108	887.5
631.037	1140.81
634.965	891.792
638.891	181.432
642.815	127.283
646.737	141.587
650.657	153.434
654.575	361.029
658.491	804.221
662.406	1238.99
666.318	1578.33
670.229	1669.22
674.138	1716.64
678.045	1419.59
681.95	1433.03
685.853	1685.95
689.754	2218.34
693.653	3169.18
697.551	4601.44
701.446	5874.11
705.34	5807.17
709.232	4280.59
713.122	2804.36
717.01	2007.38
720.896	1808.25
724.78	1814.58
728.663	2069.64
732.543	2416.91
736.422	3113.82
740.299	3792.38
744.174	4834.28
748.047	7049.78
751.918	9847.82
755.787	12395.2
759.655	12526.6
763.52	10663.4
767.384	9458.32
771.246	9572.03
775.106	10375.5
778.964	12100.8
782.821	15097.4
786.675	17217.8
790.528	17188.5
794.379	15480.2
798.228	13301.6
802.075	11822.5
805.92	12463
809.764	14123.1
813.605	15562.8
817.445	14062
821.283	11090.7
825.119	7588.94
828.953	5596.7
832.785	4493.94
836.616	3756.66
840.445	2841.84
844.272	1712.46
848.097	853.518
851.92	347.994
855.741	111.843
859.561	91.353
863.378	183.354
867.194	165.557
871.008	177.848
874.821	132.36
878.631	144.958
882.44	1.713
886.247	45.229
890.052	54.772
893.855	201.67
897.656	387.69
901.456	522.921
905.253	550.464
909.049	636.351
912.843	725.597
916.636	869.227
920.426	1084.27
924.215	1168.87
928.002	1275.07
931.787	1341.82
935.57	1498.14
939.352	1701.04
943.131	1908.6
946.909	2163.82
950.685	2333.64
954.46	2375.93
958.232	2453.64
962.003	2441.78
965.772	2683.36
969.539	2873.37
973.304	2960.84
977.068	2906.77
980.83	2962.16
984.589	3161.03
988.348	3068.07
992.104	2843.28
995.859	2810.58
999.612	2907.2
1003.36	2436.11
1007.11	2431.96
1010.86	2408.37
1014.61	2576.78
1018.35	2793.91
1022.09	3063.48
1025.83	3278.29
1029.57	3499.16
1033.31	3783.27
1037.04	4379.83
1040.78	4937.37
1044.51	5595.73
1048.24	5984.51
1051.96	6044.36
1055.69	6092.89
1059.42	6155.04
1063.14	6667.75
1066.86	7202.4
1070.58	7163.48
1074.3	6570.41
1078.01	5245.39
1081.73	4078.44
1085.44	3230.01
1089.15	2715.9
1092.86	2245.78
1096.56	1840.65
1100.27	1644.53
1103.97	1367.42
1107.67	1149.34
1111.38	1072.28
1115.07	839.274
1118.77	732.312
1122.46	596.409
1126.16	528.611
1129.85	450.227
1133.54	474.667
1137.23	234.93
1140.91	172.091
1144.6	162.211
1148.28	66.22
1151.96	280.095
1155.64	199.604
1159.32	300.558
1162.99	167.809
1166.67	121.273
1170.34	78.899
1174.01	131.659
1177.68	113.55
1181.35	119.592
1185.01	8.214
1188.67	170.087
1192.34	59.456
1196	46.132
1199.65	134.884
1203.31	132.858
1206.97	93.101
1210.62	65.695
1214.27	9.651
1217.92	69.224
1221.57	114.19
1225.22	201.278
1228.86	238.489
1232.5	278.809
1236.14	399.223
1239.79	416.718
1243.42	495.291
1247.06	527.927
1250.69	563.612
1254.33	425.335
1257.96	549.089
1261.59	550.86
1265.21	538.619
1268.84	548.377
1272.47	603.201
1276.09	501.074
1279.71	526.979
1283.33	463.02
1286.95	475.948
1290.56	304.222
1294.18	361.469
1297.79	178.344
1301.4	258.354
1305.01	175.245
1308.62	155.428
1312.22	186.824
1315.83	145.229
1319.43	181.05
1323.03	163.124
1326.63	225.695
1330.23	163.836
1333.82	282.436
1337.42	184.774
1341.01	225.107
1344.6	335.019
1348.19	227.327
1351.78	238.825
1355.36	206.812
1358.95	263.327
1362.53	312.84
1366.11	232.974
1369.69	298.295
1373.27	261.149
1376.84	329.923
1380.42	297.028
1383.99	331.307
1387.56	320.629
1391.13	423.354
1394.7	405.883
1398.26	387.605
1401.83	300.225
1405.39	269.727
1408.95	158.094
1412.51	236.312
1416.07	204.344
1419.62	179.98
1423.18	180.187
1426.73	213.294
1430.28	145.224
1433.83	50.989
1437.38	32.8
1440.93	67.267
1444.47	37.289
1448.02	14.58
1451.56	17.18
1455.1	36.693
1458.63	34.284
1462.17	50.343
1465.7	71.558
1469.24	93.722
1472.77	190.705
1476.3	123.417
1479.83	183.855
1483.35	90.061
1486.88	128.296
1490.4	56.896
1493.92	154.631
1497.44	58.047
1500.96	121.082
1504.48	124.209
1507.99	165.024
1511.51	132.254
1515.02	80.358
1518.53	69.436
