Measurement: Raman, 514 nm, ccw, Raman Data Processed
Mineral: Dravite
Rruff sample: R050077
Ideal chemistry: NaMg_3_Al_6_(Si_6_O_18_)(BO_3_)_3_(OH)_3_OH
Locality: Yinnietharra Station, Western Australia, Australia
Source: Rock Currier
Description: Dark brown euhedral prismatic single crystal
Measured chemistry: (Na_0.783_Ca_0.217_)(Mg_0.771_Fe^2+^_0.221_Ti^4+^_0.008_)_3_(Al_0.956_Mg_0.044_)_6_(BO_3_)_3_[Si_6_O_18_]((OH)_0.914_F_0.086_)_4_
Pin_id: L01436
Orientation: Laser parallel to c* (0 0 1). Fiducial mark perpendicular to laser is parallel to a [1 0 0]
Raman shift (cm-1)	intensity
118.134	0
123.058	976.531
127.979	725.328
132.898	2826.29
137.814	5915.7
142.728	7681.03
147.639	8777.18
152.549	9858.75
157.455	8334.02
162.359	8376.78
167.261	7893.95
172.161	8098.6
177.058	7735.43
181.952	7102.42
186.845	7210.06
191.734	7168.55
196.622	7971.18
201.507	10710.7
206.389	10136.2
211.269	11734.6
216.147	10811.5
221.022	8476.3
225.895	6751.38
230.765	5776.52
235.633	5481.55
240.498	4612.19
245.361	2617.07
250.222	1302.69
255.08	778.441
259.936	738.316
264.789	538.57
269.64	997.988
274.488	796.723
279.334	310.797
284.178	253.336
289.019	372.242
293.857	856.529
298.693	631.85
303.527	774.736
308.358	356.129
313.187	518.139
318.013	873.768
322.837	2311.78
327.659	3639.81
332.478	4393.23
337.294	5505.84
342.108	5553.25
346.92	5732.75
351.729	6317.43
356.535	7877.58
361.34	9608.88
366.141	11712.9
370.94	13449.4
375.737	12860.2
380.531	10399.6
385.323	8707.69
390.113	7377.99
394.9	6495.72
399.684	5698.28
404.466	5040.5
409.245	4207.06
414.022	4307.68
418.797	3643.36
423.569	3289.81
428.338	2627.9
433.105	1913.07
437.87	1748.68
442.632	1162.23
447.391	903.625
452.149	606.742
456.903	372.461
461.655	721.469
466.405	795.223
471.152	1769.39
475.897	2024.56
480.639	2407.88
485.378	3007.57
490.116	3047.9
494.85	3348.07
499.582	3522.02
504.312	3208.04
509.039	2763.2
513.764	2600.59
518.486	2681.12
523.206	3654.9
527.923	4629.01
532.638	5413.57
537.35	5998
542.059	6424.47
546.766	6629.56
551.471	6834.02
556.173	6497.23
560.873	6491.19
565.57	5828.01
570.264	5526.59
574.957	4401.13
579.646	3421.12
584.333	1875.43
589.018	1311.48
593.7	1052.87
598.379	628.055
603.056	984.039
607.73	333.684
612.402	671.332
617.072	897.594
621.739	1133.33
626.403	791.438
631.065	417.852
635.724	134.477
640.381	578.18
645.035	369.324
649.687	373.562
654.336	1844.61
658.983	2781.2
663.627	2900.88
668.268	2224.35
672.907	1606.54
677.544	1397.36
682.178	1640.71
686.809	2332.48
691.438	3317.55
696.065	5046.83
700.688	6480.15
705.31	8732.24
709.929	11855.4
714.545	16375.2
719.158	20938.6
723.77	23775.5
728.378	22649.1
732.984	21778.3
737.588	22568.9
742.189	24855.9
746.787	25283.1
751.383	25583.1
755.976	25689
760.567	25432.7
765.155	25415.9
769.741	24622.2
774.324	23266.5
778.904	22323.4
783.482	20950.8
788.058	19000.3
792.631	15880.5
797.201	11872.8
801.769	9677.1
806.334	8869.41
810.897	8196.76
815.457	6486.53
820.014	4698.18
824.569	3082.43
829.122	1786.19
833.671	748.379
838.219	66.5801
842.763	418.326
847.306	414.373
851.845	437.215
856.382	401.748
860.917	186.332
865.448	176.574
869.978	14.6836
874.505	285.125
879.029	353.644
883.55	457.023
888.069	879.098
892.586	913.959
897.1	1375.05
901.611	1746.11
906.12	2094.17
910.626	2643.28
915.129	3033.9
919.63	2973.39
924.129	3161.56
928.625	3419.34
933.118	3648.07
937.609	3893.94
942.097	4596.56
946.582	4957.94
951.065	5396.96
955.546	5850.35
960.023	6201.12
964.499	6575.33
968.971	6667.01
973.441	7010.31
977.909	7120.91
982.374	7122.53
986.836	6688.43
991.295	6617.89
995.753	6227.41
1000.21	5892.44
1004.66	5477.34
1009.11	5456.03
1013.55	5662.42
1018	6052.54
1022.44	6040
1026.88	6204.3
1031.32	6806.47
1035.75	7078.68
1040.18	8104.53
1044.61	8167.08
1049.04	8345.41
1053.46	8538.93
1057.88	8745.24
1062.3	8504.83
1066.71	8901.91
1071.13	7951.9
1075.54	7407
1079.94	6389.27
1084.35	5943.35
1088.75	5309.6
1093.15	4963.18
1097.55	4703.71
1101.94	4493.81
1106.34	3935.9
1110.73	3603.97
1115.11	3383.22
1119.5	3377.05
1123.88	2967.71
1128.26	2175.81
1132.63	1407.65
1137.01	1181.94
1141.38	879.404
1145.75	378.486
1150.12	891.113
1154.48	786.918
1158.84	458.734
1163.2	354.371
1167.55	480.695
1171.91	354.879
1176.26	379.885
1180.61	184.525
1184.95	127.012
1189.29	126.502
1193.63	262.269
1197.97	259.99
1202.31	102.631
1206.64	208.529
1210.97	114.631
1215.29	240.488
1219.62	187.35
1223.94	377.955
1228.26	628.303
1232.57	879.394
1236.89	899.223
1241.2	1045.75
1245.51	1245.92
1249.81	1179.67
1254.12	1151.93
1258.42	1279.63
1262.72	1071.72
1267.01	1317.15
1271.3	1449.52
1275.59	1007.65
1279.88	902.473
1284.17	965.047
1288.45	1361
1292.73	1156.46
1297.01	1314.75
1301.28	1182.35
1305.55	1459.17
1309.82	1229.01
1314.09	1236.5
1318.35	1058.48
1322.61	787.938
1326.87	894.402
1331.13	783.266
1335.38	550.418
1339.63	599.473
1343.88	532.438
1348.12	288.688
1352.37	376.207
1356.61	378.992
1360.85	121.977
1365.08	724.719
1369.31	420.93
1373.54	404.051
1377.77	347.125
1381.99	429.082
1386.22	442.156
1390.43	257.078
1394.65	89.0234
1398.87	21.0547
1403.08	77.6758
1407.29	10.8242
1411.49	68.4336
1415.69	47.3281
1419.89	188.629
1424.09	222.832
1428.29	161.902
1432.48	100.156
1436.67	186.293
1440.86	255.754
1445.04	350.402
1449.23	91.4805
1453.4	357.137
1457.58	359.84
1461.76	435.711
1465.93	386.809
1470.1	724.133
1474.26	493.75
1478.43	457.746
1482.59	781.191
1486.75	637.582
1490.9	878.012
1495.06	635.531
1499.21	666.731
1503.35	747.684
1507.5	782.019
1511.64	756.547
1515.78	624.875
1519.92	574.832
1524.05	451.508
1528.18	358.445
1532.31	494.641
1536.44	324.898
1540.56	297.531
1544.69	509.551
1548.8	73.5547
1552.92	246.961
1557.03	411.703
1561.14	68.0039
1565.25	418.16
1569.36	155.785
