Measurement: Raman, 514 nm, ccw, Raman Data Processed
Mineral: Edenite
Rruff sample: R050415
Ideal chemistry: NaCa_2_Mg_5_(Si_7_Al)O_22_(OH)_2_
Locality: Mogok, Burma
Source: Marcus Origlieri
Description: Transparent pale green water worn fragment
Measured chemistry: (Na_0.83_K_0.17_)(Ca_1.76_Na_0.24_)_=2_(Mg_4.54_Al_0.40_Fe^3+^_0.06_)_=5_(Si_6.74_Al_1.26_)O_22_((OH)_0.52_F_0.48_)_2_
Pin_id: L01094
Orientation: Laser parallel to b* (0 1 0). Fiducial mark perpendicular to laser is parallel to -c [0 0 -1]
Raman shift (cm-1)	intensity
93.48	0
98.416	422.426
103.349	1806.85
108.28	4609.04
113.208	6287.78
118.134	7707.1
123.058	7227.97
127.979	3277.42
132.898	813.239
137.814	31.7129
142.728	139.378
147.639	236.893
152.549	1103.73
157.455	4007.91
162.359	7267.38
167.261	12052.3
172.161	8104.56
177.058	5164.76
181.952	4853.93
186.845	4436.72
191.734	3335.68
196.622	2435.93
201.507	2460.74
206.389	3407.79
211.269	5286.36
216.147	8539.12
221.022	11046.6
225.895	12738.6
230.765	12482.6
235.633	10293.9
240.498	9616.67
245.361	8404.59
250.222	7181.52
255.08	5520.73
259.936	3914.51
264.789	1953.5
269.64	875.006
274.488	474.528
279.334	394.519
284.178	392.341
289.019	686.78
293.857	1150.81
298.693	1535.97
303.527	1891.15
308.358	2324.02
313.187	3334.37
318.013	4197.3
322.837	4431.58
327.659	3466.35
332.478	2750.47
337.294	2392.14
342.108	2207.95
346.92	2111.43
351.729	2518.66
356.535	2826.37
361.34	3236.98
366.141	4058
370.94	5232.24
375.737	6499.64
380.531	7313.16
385.323	8240.82
390.113	8362
394.9	8041.59
399.684	5926.52
404.466	3809.72
409.245	2926.17
414.022	2659.88
418.797	3013.85
423.569	3262.02
428.338	2930.42
433.105	2376.4
437.87	1447.34
442.632	659.691
447.391	134.412
452.149	56.2266
456.903	18.1934
461.655	93.625
466.405	108.502
471.152	173.775
475.897	818.081
480.639	413.132
485.378	47.7119
490.116	126.941
494.85	5.22754
499.582	85.3379
504.312	322.165
509.039	864.658
513.764	1144.86
518.486	1414.8
523.206	1228.39
527.923	1376.62
532.638	1291.46
537.35	1307.95
542.059	1205.11
546.766	782.981
551.471	562.708
556.173	477.121
560.873	399.132
565.57	272.769
570.264	411.132
574.957	169.906
579.646	400.978
584.333	460.401
589.018	239.026
593.7	389.583
598.379	351.857
603.056	492.972
607.73	681.825
612.402	964.306
617.072	1461.27
621.739	1695.06
626.403	2582.51
631.065	3509.41
635.724	4654.23
640.381	6466.56
645.035	8559.82
649.687	11721.7
654.336	15622.5
658.983	21356.4
663.627	30093.4
668.268	42175.7
672.907	51000.2
677.544	49219.2
682.178	36183.4
686.809	22463.6
691.438	14040.3
696.065	9301.13
700.688	6309.83
705.31	4318.78
709.929	3280.33
714.545	2564.43
719.158	2377.08
723.77	2507.09
728.378	2129.44
732.984	1880.97
737.588	1124.06
742.189	796.213
746.787	494.194
751.383	404.964
755.976	101.083
760.567	145.806
765.155	87.5166
769.741	38.3125
774.324	17.2812
778.904	113.257
783.482	190.719
788.058	36.2422
792.631	66.1846
797.201	21.2686
801.769	10.1143
806.334	47.543
810.897	65.5781
815.457	11.8291
820.014	93.0352
824.569	109.548
829.122	25.4932
833.671	67.4531
838.219	157.542
842.763	103.364
847.306	99.0283
851.845	86.0762
856.382	83.4951
860.917	87.2734
865.448	216.622
869.978	387.574
874.505	661.148
879.029	805.368
883.55	1444.25
888.069	2167.9
892.586	2844.6
897.1	3175.71
901.611	3276.61
906.12	4255.41
910.626	5261.04
915.129	6187.9
919.63	6944.19
924.129	6609.21
928.625	6001.07
933.118	5395.9
937.609	4389.04
942.097	3896.4
946.582	3688.59
951.065	3481.3
955.546	3145.51
960.023	2896.02
964.499	2670.72
968.971	2602.7
973.441	2643.12
977.909	2479.58
982.374	2484.04
986.836	2571.55
991.295	2877.76
995.753	3475.81
1000.21	4006.1
1004.66	4825.42
1009.11	5512.41
1013.55	6515.83
1018	6857.43
1022.44	6972.47
1026.88	7344.75
1031.32	7481.34
1035.75	7853.61
1040.18	8110.87
1044.61	8574.97
1049.04	8812.77
1053.46	9631.1
1057.88	10550.1
1062.3	11412.4
1066.71	11593.3
1071.13	9949.56
1075.54	7693.16
1079.94	5361.8
1084.35	3572.17
1088.75	2487.97
1093.15	1849.15
1097.55	1306.04
1101.94	1001.21
1106.34	909.307
1110.73	903.711
1115.11	809.121
1119.5	1018.89
1123.88	952.676
1128.26	589.232
1132.63	284.287
1137.01	317.389
1141.38	280.644
1145.75	223.24
1150.12	28.2871
1154.48	125.037
1158.84	56.293
1163.2	29.2188
1167.55	207.978
1171.91	0.458984
1176.26	76.8047
1180.61	49.9883
1184.95	21.8828
1189.29	40.6875
1193.63	20.8242
1197.97	1.71289
1202.31	70.0352
1206.64	66.5234
1210.97	181.754
1215.29	203.25
1219.62	255.492
1223.94	29.9648
1228.26	9
1232.57	260.416
1236.89	2.79492
1241.2	241.26
1245.51	389.682
1249.81	233.641
1254.12	261.873
1258.42	145.711
1262.72	421.926
1267.01	387.184
1271.3	353.801
1275.59	464.926
1279.88	374.838
1284.17	517.131
1288.45	493.555
1292.73	372.008
1297.01	458.297
1301.28	349.49
1305.55	412.984
1309.82	568.594
1314.09	395.531
1318.35	577.736
1322.61	461.164
1326.87	583.504
1331.13	593.404
1335.38	356.467
1339.63	634.871
1343.88	466.805
1348.12	376.611
1352.37	406.377
1356.61	205.723
1360.85	172.242
1365.08	405.344
1369.31	302.086
1373.54	294.644
1377.77	197.621
1381.99	391.504
1386.22	33.1816
1390.43	219.668
1394.65	73.9277
1398.87	154.285
1403.08	188.147
1407.29	126.535
1411.49	70.6504
1415.69	86.707
1419.89	87.3379
1424.09	247.889
1428.29	20.3066
1432.48	164.123
1436.67	61.166
1440.86	62.375
1445.04	220.082
1449.23	235.435
1453.4	261.248
1457.58	192.234
1461.76	269.193
1465.93	155.537
1470.1	287.482
1474.26	299.111
1478.43	112.051
1482.59	373.426
1486.75	414.91
1490.9	316.379
1495.06	440.391
1499.21	187.211
1503.35	174.242
1507.5	426.129
1511.64	182.449
1515.78	467.84
1519.92	339.664
1524.05	141.191
1528.18	350.289
1532.31	451.113
1536.44	354.188
1540.56	226.562
1544.69	304.203
1548.8	165.316
1552.92	459.519
1557.03	140.527
1561.14	162.715
1565.25	13.6914
1569.36	272.785
