Measurement: Raman, 514 nm, ccw, Raman Data Processed
Mineral: Edenite
Rruff sample: R050415
Ideal chemistry: NaCa_2_Mg_5_(Si_7_Al)O_22_(OH)_2_
Locality: Mogok, Burma
Source: Marcus Origlieri
Description: Transparent pale green water worn fragment
Measured chemistry: (Na_0.83_K_0.17_)(Ca_1.76_Na_0.24_)_=2_(Mg_4.54_Al_0.40_Fe^3+^_0.06_)_=5_(Si_6.74_Al_1.26_)O_22_((OH)_0.52_F_0.48_)_2_
Pin_id: L01355
Orientation: Laser parallel to -a* (-1 0 0). Fiducial mark perpendicular to laser is parallel to -b [0 -1 0]
Raman shift (cm-1)	intensity
93.48	0
98.416	1161.26
103.349	3414.26
108.28	6921.01
113.208	9284.99
118.134	9905.6
123.058	7048.9
127.979	3524.48
132.898	1317.94
137.814	490.012
142.728	40.7754
147.639	228.555
152.549	196.719
157.455	35.4551
162.359	357.299
167.261	652.674
172.161	834.135
177.058	1386.03
181.952	1736.84
186.845	1809.17
191.734	1213.96
196.622	364.59
201.507	525.588
206.389	353.016
211.269	839.662
216.147	1670.28
221.022	2387.53
225.895	3577.13
230.765	4825.08
235.633	5945.91
240.498	6142.69
245.361	5597.14
250.222	4352.42
255.08	3041.53
259.936	1766.22
264.789	724.982
269.64	284.773
274.488	388.133
279.334	175.99
284.178	214.496
289.019	642.277
293.857	1017.81
298.693	1056.18
303.527	1091.61
308.358	1048.44
313.187	1121.07
318.013	1323.96
322.837	1513.28
327.659	1199.53
332.478	753.004
337.294	509.346
342.108	289.76
346.92	456.815
351.729	453.24
356.535	669.457
361.34	1214.87
366.141	1724.58
370.94	2249.44
375.737	2581.39
380.531	3257.33
385.323	4392.57
390.113	5660.8
394.9	5158.61
399.684	4223.97
404.466	2731.63
409.245	2255.75
414.022	1939.78
418.797	2101.56
423.569	2153.58
428.338	1637.51
433.105	985.828
437.87	515.672
442.632	234.744
447.391	100.115
452.149	57.8379
456.903	96.6836
461.655	147.16
466.405	40.791
471.152	275.31
475.897	28.4473
480.639	105.484
485.378	156.422
490.116	323.107
494.85	265.463
499.582	171.471
504.312	115.394
509.039	91.6523
513.764	170.781
518.486	237.096
523.206	200.977
527.923	218.19
532.638	375.594
537.35	464.248
542.059	469.047
546.766	404.938
551.471	313.869
556.173	324.865
560.873	309.84
565.57	204.688
570.264	316.377
574.957	134.836
579.646	489.965
584.333	234.965
589.018	555.457
593.7	229.408
598.379	294.883
603.056	408.065
607.73	389.848
612.402	625.586
617.072	1119.87
621.739	1459.85
626.403	1613.43
631.065	2128.91
635.724	2321.32
640.381	3148.81
645.035	4594.76
649.687	5781.7
654.336	7384.96
658.983	10203.6
663.627	14781.1
668.268	21595.2
672.907	26209.2
677.544	24296.1
682.178	17946.5
686.809	11365.8
691.438	7514.31
696.065	5285.98
700.688	3746.53
705.31	2490.64
709.929	1997.25
714.545	1469.12
719.158	1237.32
723.77	1211.83
728.378	952.477
732.984	832.086
737.588	521.043
742.189	310.734
746.787	239.16
751.383	422.336
755.976	144.215
760.567	241.555
765.155	38.0352
769.741	129.09
774.324	219.16
778.904	117.191
783.482	9.17969
788.058	87.7539
792.631	65.5625
797.201	167.594
801.769	56.6016
806.334	87.0156
810.897	1.72266
815.457	44.5859
820.014	65.7695
824.569	79.3477
829.122	43.6094
833.671	63.1445
838.219	79.2148
842.763	390.769
847.306	359.957
851.845	518.887
856.382	719.519
860.917	655.828
865.448	310.848
869.978	334.801
874.505	467.555
879.029	576.094
883.55	656.777
888.069	936.535
892.586	832.516
897.1	925.918
901.611	790.223
906.12	1104.18
910.626	1325.88
915.129	1585.69
919.63	1464.1
924.129	1497.35
928.625	1220.55
933.118	890.848
937.609	1226.54
942.097	502.781
946.582	798.527
951.065	645.656
955.546	444.68
960.023	893.766
964.499	726.215
968.971	15.8906
973.441	148.926
977.909	357.09
982.374	328.246
986.836	552.641
991.295	859.484
995.753	1306.02
1000.21	1821.33
1004.66	2003.65
1009.11	1607.01
1013.55	1636.05
1018	1955.15
1022.44	1836.95
1026.88	1990.02
1031.32	2193.48
1035.75	2108.28
1040.18	2263.82
1044.61	2463.86
1049.04	2191.56
1053.46	1858.94
1057.88	1782.82
1062.3	1412.38
1066.71	1214.73
1071.13	1173.65
1075.54	1079.96
1079.94	935.117
1084.35	979.258
1088.75	636.602
1093.15	492.309
1097.55	561.957
1101.94	96.2969
1106.34	410.711
1110.73	268.875
1115.11	447.731
1119.5	689.488
1123.88	1044.56
1128.26	468.328
1132.63	5.23828
1137.01	301.012
1141.38	64.9961
1145.75	363.691
1150.12	80.6055
1154.48	189.406
1158.84	227.188
1163.2	8.09766
1167.55	328.152
1171.91	51
1176.26	604.391
1180.61	300.09
1184.95	26.6836
1189.29	23.0312
1193.63	334.199
1197.97	264.731
1202.31	374.262
1206.64	247.965
1210.97	76.4258
1215.29	449.641
1219.62	468.734
1223.94	73.3164
1228.26	395.527
1232.57	645.418
1236.89	462.027
1241.2	390.957
1245.51	456.519
1249.81	399.629
1254.12	635.172
1258.42	607.32
1262.72	751.238
1267.01	937.727
1271.3	930.41
1275.59	681.543
1279.88	597.199
1284.17	1109.18
1288.45	737.957
1292.73	427.09
1297.01	23.5039
1301.28	410.703
1305.55	645.309
1309.82	1335.76
1314.09	1133.12
1318.35	920.254
1322.61	1093.09
1326.87	954.484
1331.13	568.324
1335.38	585.793
1339.63	609.406
1343.88	351.602
1348.12	258.969
1352.37	637.391
1356.61	560.062
1360.85	211.121
1365.08	577.832
1369.31	480.012
1373.54	240.824
1377.77	650.066
1381.99	407.594
1386.22	217.652
1390.43	420.516
1394.65	459.367
1398.87	382.633
1403.08	304.945
1407.29	247.016
1411.49	126.285
1415.69	222.359
1419.89	366.91
1424.09	187.277
1428.29	154.922
1432.48	432.09
1436.67	362.918
1440.86	740.199
1445.04	1144.23
1449.23	1192.19
1453.4	700.59
1457.58	666.129
1461.76	441.438
1465.93	95.9297
