Measurement: Raman, 514 nm, ccw, Raman Data Processed
Mineral: Edenite
Rruff sample: R050415
Ideal chemistry: NaCa_2_Mg_5_(Si_7_Al)O_22_(OH)_2_
Locality: Mogok, Burma
Source: Marcus Origlieri
Description: Transparent pale green water worn fragment
Measured chemistry: (Na_0.83_K_0.17_)(Ca_1.76_Na_0.24_)_=2_(Mg_4.54_Al_0.40_Fe^3+^_0.06_)_=5_(Si_6.74_Al_1.26_)O_22_((OH)_0.52_F_0.48_)_2_
Pin_id: L01355
Orientation: Laser parallel to -a* (-1 0 0). Fiducial mark perpendicular to laser is parallel to -b [0 -1 0]
Raman shift (cm-1)	intensity
93.48	0
98.416	416.074
103.349	987.74
108.28	1948.27
113.208	1326.55
118.134	1321.44
123.058	841.537
127.979	625.238
132.898	267.07
137.814	252.816
142.728	167.289
147.639	6.43164
152.549	409.824
157.455	1854.89
162.359	2490.3
167.261	3180.48
172.161	2158.56
177.058	1405.66
181.952	779.922
186.845	789.146
191.734	190.264
196.622	550.686
201.507	705.121
206.389	1234.67
211.269	2310.81
216.147	3674.22
221.022	6017.46
225.895	9987.9
230.765	14502.8
235.633	17416.5
240.498	18441.2
245.361	14694.1
250.222	11092.8
255.08	7540.11
259.936	4906.48
264.789	2623.05
269.64	1388.56
274.488	776.191
279.334	499.762
284.178	82.1973
289.019	68.1074
293.857	130.906
298.693	297.672
303.527	526.822
308.358	841.314
313.187	1433.1
318.013	1956.36
322.837	1959.06
327.659	1281.62
332.478	875.32
337.294	504.51
342.108	1024.94
346.92	858.885
351.729	1034.47
356.535	1670.78
361.34	2192.81
366.141	2971.15
370.94	3552.96
375.737	4284.16
380.531	5053.7
385.323	6711.59
390.113	7462.32
394.9	7217.82
399.684	5557.95
404.466	3981.08
409.245	3474.82
414.022	3883.48
418.797	4435.27
423.569	4971.14
428.338	4518.99
433.105	3748.18
437.87	2300.88
442.632	1120.66
447.391	554.646
452.149	23.4004
456.903	44.4785
461.655	133.453
466.405	16.3789
471.152	7.01758
475.897	25.3359
480.639	36.9746
485.378	236.129
490.116	85.8594
494.85	90.8848
499.582	37.6406
504.312	342.867
509.039	844.113
513.764	1870.94
518.486	2537.07
523.206	2960.4
527.923	2628.91
532.638	1845.56
537.35	1320.3
542.059	646.098
546.766	334.922
551.471	74.6738
556.173	17.8926
560.873	128.057
565.57	124.121
570.264	95.6055
574.957	110.986
579.646	395.441
584.333	557.279
589.018	699.547
593.7	448.926
598.379	170.34
603.056	379.986
607.73	312.486
612.402	643.547
617.072	1333.52
621.739	2400.08
626.403	3299.45
631.065	2633.84
635.724	2818.72
640.381	4044.08
645.035	5564.13
649.687	7573.61
654.336	8991.97
658.983	11422.4
663.627	16162.5
668.268	22047.8
672.907	25496.2
677.544	23153.4
682.178	16507
686.809	9555.99
691.438	5689.7
696.065	3021.52
700.688	1942.44
705.31	1147.76
709.929	673.715
714.545	728.957
719.158	518.186
723.77	536.293
728.378	656.773
732.984	778.088
737.588	398.488
742.189	181.58
746.787	314.453
751.383	164.994
755.976	204.131
760.567	41.9727
765.155	136.242
769.741	31.9062
774.324	229.859
778.904	138.332
783.482	216.406
788.058	262.945
792.631	257.367
797.201	217.242
801.769	99.7109
806.334	69.7891
810.897	106.527
815.457	131.984
820.014	193.188
824.569	137.453
829.122	248.07
833.671	232.121
838.219	458.621
842.763	700.519
847.306	1089.76
851.845	928.816
856.382	1638.9
860.917	1799.08
865.448	1132.7
869.978	950.438
874.505	755.363
879.029	1073.58
883.55	693.598
888.069	1471.62
892.586	1293.36
897.1	1448.38
901.611	1897.31
906.12	1808.91
910.626	2259.1
915.129	2189.9
919.63	2354.89
924.129	2169.8
928.625	2432.88
933.118	1853.48
937.609	1528.89
942.097	1461.82
946.582	1575.31
951.065	1532.43
955.546	1624.41
960.023	1235.77
964.499	1406.74
968.971	1545.26
973.441	1210.32
977.909	1289.92
982.374	1851.03
986.836	2986.67
991.295	3279.79
995.753	3873.39
1000.21	6347.12
1004.66	6947.83
1009.11	5957.49
1013.55	6409.48
1018	6490.62
1022.44	6882.03
1026.88	7072.82
1031.32	7005.73
1035.75	7467.05
1040.18	7717
1044.61	7095.23
1049.04	6611
1053.46	5502.07
1057.88	4382.02
1062.3	4235.08
1066.71	3591.75
1071.13	3213.86
1075.54	2749.29
1079.94	2386.11
1084.35	1988.88
1088.75	1495.09
1093.15	1221.12
1097.55	855.75
1101.94	1091.29
1106.34	586.227
1110.73	503.836
1115.11	659.695
1119.5	1259.48
1123.88	970.777
1128.26	545.859
1132.63	322.109
1137.01	71.8086
1141.38	240.152
1145.75	80.8438
1150.12	121.957
1154.48	40.8945
1158.84	195.098
1163.2	317.969
1167.55	319.652
1171.91	189.305
1176.26	195.984
1180.61	331.441
1184.95	120.5
1189.29	202.43
1193.63	87.8164
1197.97	111.664
1202.31	380.762
1206.64	160.309
1210.97	93.2695
1215.29	263.266
1219.62	329.359
1223.94	429.211
1228.26	1616.78
1232.57	716.391
1236.89	964.664
1241.2	750.574
1245.51	696.106
1249.81	832.816
1254.12	1045.08
1258.42	818.477
1262.72	1181.42
1267.01	1371.52
1271.3	1608.75
1275.59	1596.39
1279.88	1148.18
1284.17	1267.29
1288.45	818
1292.73	1381.58
1297.01	1112.05
1301.28	1031.96
1305.55	1221.8
1309.82	1527.74
1314.09	1634.43
1318.35	1781.76
1322.61	1311.05
1326.87	896.781
1331.13	740.41
1335.38	355.945
1339.63	447.215
1343.88	581.84
1348.12	410.434
1352.37	449.273
1356.61	79.7695
1360.85	323.898
1365.08	106.977
1369.31	241.941
1373.54	670.059
1377.77	542.398
1381.99	624.902
1386.22	478.582
1390.43	352.211
1394.65	559.434
1398.87	121.777
1403.08	297.348
1407.29	133.508
1411.49	158.016
1415.69	104.43
1419.89	96.1094
1424.09	206.902
1428.29	424.789
1432.48	918.531
1436.67	1206.18
1440.86	1924.27
1445.04	2648.57
1449.23	2845.7
1453.4	2946.59
1457.58	2734.87
1461.76	2576.47
1465.93	1827.48
1470.1	1447.27
1474.26	1128.13
1478.43	1393.26
1482.59	1231.34
1486.75	916.688
1490.9	512.043
1495.06	420.606
1499.21	56.5039
1503.35	184.516
1507.5	226.144
1511.64	49.7969
1515.78	337.508
1519.92	321.207
1524.05	205.172
1528.18	435.078
1532.31	441.168
1536.44	305.965
1540.56	513.66
1544.69	251.531
1548.8	436.465
1552.92	343.418
1557.03	99.7344
1561.14	29.9492
1565.25	449.652
1569.36	3.88281
