Measurement: Raman, 514 nm, ccw, Raman Data Processed
Mineral: Edenite
Rruff sample: R060029
Ideal chemistry: NaCa_2_Mg_5_(Si_7_Al)O_22_(OH)_2_
Locality: Renfrew County, Ontario, Canada
Source: University of Arizona Mineral Museum
Description: Black prismatic
Measured chemistry: (Na_0.62_K_0.34_[box]_0.04_)(Ca_0.86_Na_0.14_)_2_(Mg_0.57_Fe^2+^_0.30_Fe^3+^_0.07_Al_0.05_Ti_0.01_Mn_0.01_)_5_(Si_6.61_Al_1.39_)O_22_((OH)_0.69_F_0.31_)_2_
Pin_id: M00136
Orientation: Laser parallel to b* (0 1 0). Fiducial mark perpendicular to laser is parallel to c [0 0 1]
Raman shift (cm-1)	intensity
261.149	0
264.789	131.713
268.427	109.381
272.064	28.8379
275.7	818.322
279.334	929.3
282.967	1031.27
286.598	1683.34
290.229	1798.36
293.857	1919.57
297.485	1833.18
301.111	1871.12
304.735	1570.81
308.358	1582.9
311.98	1296.44
315.601	1081.87
319.22	956.688
322.837	776.119
326.454	858.188
330.068	800.656
333.682	1138.45
337.294	1176.35
340.905	1303.46
344.514	1634.66
348.122	1937.71
351.729	2176.64
355.334	2170.64
358.938	2173.36
362.54	2062.66
366.141	2049.76
369.741	2120.46
373.339	2225.76
376.936	1905.62
380.531	1340.6
384.126	940.049
387.718	725.465
391.31	418.167
394.9	208.176
398.488	42.959
402.075	155.627
405.661	2.99707
409.245	18.8496
412.828	137.038
416.41	348.62
419.99	610.698
423.569	1107.13
427.146	1071.54
430.722	944.948
434.297	750.297
437.87	582.524
441.442	533.91
445.012	329.846
448.581	410.916
452.149	115.71
455.715	156.085
459.28	48.1963
462.843	11.6025
466.405	48.9023
469.965	56.334
473.525	60.8096
477.082	158.223
480.639	183.159
484.194	349.677
487.747	548.823
491.3	740.618
494.85	905.059
498.4	1154.13
501.948	1364.77
505.494	1706.77
509.039	1866.85
512.583	2179.89
516.125	2479.34
519.666	2969.36
523.206	3730.99
526.744	4480.24
530.281	4512.1
533.816	4382.63
537.35	4311.84
540.882	4020.52
544.413	3792.96
547.943	3383.63
551.471	3068.14
554.998	2587.1
558.523	2261.34
562.047	1914.51
565.57	1652.43
569.091	1443.97
572.611	1201.05
576.129	854.662
579.646	590.802
583.162	408.461
586.676	3.51172
590.188	235.246
593.7	216.188
597.209	97.1773
600.718	98.0391
604.225	9.27539
607.73	294.483
611.235	337.675
614.737	514.882
618.239	753.704
621.739	1123.59
625.237	1421.51
628.734	1900.71
632.23	2293.2
635.724	2808.26
639.217	3297.9
642.708	4088.11
646.198	4882.9
649.687	5948.28
653.174	8031.27
656.66	9498.86
660.144	11714.1
663.627	13444.9
667.108	13266.7
670.588	11472
674.067	9159.45
677.544	7050.61
681.02	5311.15
684.494	4139.41
687.967	3315.16
691.438	2629.14
694.908	2222.34
698.377	1922.71
701.844	1966.89
705.31	2052.76
708.774	2147.77
712.237	2373.32
715.698	2486.43
719.158	2461.1
722.617	2551.46
726.074	2372.91
729.53	2363.23
732.984	2125.67
736.437	1864.73
739.888	1573.18
743.338	1291.32
746.787	1119.68
750.234	999.477
753.68	826.574
757.124	599.692
760.567	798.486
764.008	704.053
767.448	662.133
770.887	827.401
774.324	774.317
777.759	829.046
781.194	722.583
784.626	792.939
788.058	580.126
791.488	409.16
794.916	651.707
798.343	229.806
801.769	179.44
805.193	61.9575
808.616	42.3457
812.037	111.507
815.457	105.108
818.875	20.4854
822.292	58.4707
825.707	184.103
829.122	184.739
832.534	124.16
835.945	154.429
839.355	124.283
842.763	44.5303
846.17	157.307
849.576	238.177
852.98	471.967
856.382	407.875
859.783	588.627
863.183	758.001
866.581	979.469
869.978	1136.41
873.373	1358.08
876.767	1538.36
880.159	1763.14
883.55	1985.22
886.94	2206.49
890.328	2512.93
893.714	2633.54
897.1	3018.33
900.483	3259.33
903.866	3648.58
907.246	3958.1
910.626	4417.59
914.004	4641.12
917.38	5118.68
920.755	5253.76
924.129	5085.41
927.501	5030.5
930.872	4843.06
934.241	4920.99
937.609	4732.36
940.975	4584.45
944.34	4595.37
947.703	4679.35
951.065	4511.09
954.426	4476.99
957.785	4361.99
961.142	4257.96
964.499	4206.23
967.853	4056.46
971.207	4067.25
974.558	3760.29
977.909	3603.72
981.258	3679.38
984.605	3655.66
987.951	3854.07
991.295	3960.11
994.639	4160.62
997.98	4428.63
1001.32	4595.14
1004.66	4641.12
1008	4743.59
1011.33	4851.52
1014.67	4867.89
1018	4848.68
1021.33	4775.92
1024.66	4843.37
1027.99	4917.64
1031.32	4738.9
1034.64	4791.94
1037.97	4718.73
1041.29	4601.36
1044.61	4516.6
1047.93	4501.47
1051.25	4435.47
1054.56	4391.34
1057.88	4089.46
1061.19	4050.97
1064.51	3584.2
1067.82	3227.78
1071.13	3126.29
1074.43	2708.04
1077.74	2664.06
1081.05	2293.43
1084.35	2236.11
1087.65	1946.07
1090.95	1899.23
1094.25	1782.74
1097.55	1607.85
1100.85	1617.07
1104.14	1340.42
1107.43	1198.11
1110.73	1123.45
1114.02	964.562
1117.31	904.903
1120.59	889.824
1123.88	820.936
1127.16	828.766
1130.45	618.338
1133.73	616.416
1137.01	444.229
1140.29	400.514
1143.57	329.586
1146.84	353.082
1150.12	238.823
1153.39	133.241
1156.66	70.8599
1159.93	152.439
1163.2	20.0669
1166.46	45.4111
1169.73	34.2051
1172.99	11.4907
1176.26	31.5098
1179.52	118.724
1182.78	128.79
1186.04	145.543
1189.29	5.81494
1192.55	31.7349
1195.8	52.8589
1199.05	108.488
1202.31	44.4951
1205.55	97.2783
1208.8	95.7407
1212.05	5.01318
1215.29	53.4707
1218.54	106.621
1221.78	134.518
1225.02	165.538
1228.26	165.171
1231.5	190.067
1234.73	192.012
1237.97	107.049
1241.2	115.569
1244.43	156.783
1247.66	114.314
1250.89	177.664
1254.12	135.402
1257.34	33.9565
1260.57	134.205
1263.79	152.144
1267.01	25.5386
1270.23	127.212
1273.45	150.801
1276.67	254.616
1279.88	167.845
1283.1	266.056
1286.31	287.144
1289.52	224.019
1292.73	251.809
1295.94	172.484
1299.14	349.097
1302.35	231.696
1305.55	157.646
1308.75	295.67
1311.95	289.823
1315.15	282.249
1318.35	259.278
1321.55	256.673
1324.74	236.418
1327.94	123.505
1331.13	116.709
1334.32	132.738
1337.51	144.23
1340.69	181.673
1343.88	14.794
1347.06	155.733
1350.25	120.503
1353.43	57.4707
1356.61	173.588
1359.79	20.8711
1362.96	75.3354
1366.14	14.877
1369.31	159.964
1372.49	98.166
1375.66	107.409
1378.83	92.1338
1381.99	164.542
1385.16	240.621
1388.33	148.15
1391.49	92.1426
1394.65	34.4438
1397.81	127.438
1400.97	150.442
1404.13	141.189
1407.29	26.1406
1410.44	37.0498
1413.59	154.98
1416.74	18.1592
1419.89	88.4126
1423.04	10.7578
1426.19	116.401
1429.34	141.016
1432.48	127.14
1435.62	24.7202
1438.77	83.4048
1441.9	27.2598
1445.04	71.043
1448.18	68.1875
1451.32	231.647
1454.45	5.54981
1457.58	162.19
1460.71	20.8774
1463.84	24.4219
1466.97	248.356
1470.1	166.046
1473.22	157.439
1476.35	146.189
1479.47	117.533
1482.59	202.539
1485.71	95.7036
1488.83	144.383
1491.94	120.717
1495.06	137.568
1498.17	39.2012
1501.28	27.3027
1504.39	87.9609
1507.5	159.503
1510.61	108.693
1513.71	8.71533
1516.82	125.404
1519.92	208.674
1523.02	63.0391
1526.12	13.1299
1529.22	67.6514
1532.31	27.853
1535.41	232.635
1538.5	64.4522
1541.6	81.4102
1544.69	149.731
1547.78	77.8447
1550.86	128.125
1553.95	96.0102
1557.03	86.1221
1560.12	125.253
1563.2	63.1279
1566.28	159.97
1569.36	0.391602
