Measurement: Raman, 514 nm, ccw, Raman Data Processed
Mineral: Edenite
Rruff sample: R060029
Ideal chemistry: NaCa_2_Mg_5_(Si_7_Al)O_22_(OH)_2_
Locality: Renfrew County, Ontario, Canada
Source: University of Arizona Mineral Museum
Description: Black prismatic
Measured chemistry: (Na_0.62_K_0.34_[box]_0.04_)(Ca_0.86_Na_0.14_)_2_(Mg_0.57_Fe^2+^_0.30_Fe^3+^_0.07_Al_0.05_Ti_0.01_Mn_0.01_)_5_(Si_6.61_Al_1.39_)O_22_((OH)_0.69_F_0.31_)_2_
Pin_id: L01054
Orientation: Laser parallel to -a* (-1 0 0). Fiducial mark perpendicular to laser is parallel to b [0 1 0]
Raman shift (cm-1)	intensity
192.956	0
197.843	213.636
202.727	142.476
207.609	24.8486
212.489	510.667
217.366	1290.29
222.24	2085.73
227.112	2530.36
231.982	2373.18
236.849	1591.67
241.714	886.04
246.577	333.754
251.437	56.2275
256.294	95.1543
261.149	8.31738
266.002	15.3574
270.852	80.1904
275.7	306.867
280.545	393.448
285.388	565.942
290.229	824.68
295.067	948.356
299.902	806.123
304.735	701.451
309.566	575.358
314.394	451.631
319.22	437.136
324.043	379.353
328.864	270.693
333.682	480.289
338.498	442.703
343.311	890.965
348.122	1005.14
352.931	1595.29
357.737	2044.31
362.54	2474.09
367.341	2673.22
372.14	2578.15
376.936	2100.21
381.73	1885.05
386.521	1936.3
391.31	1070.35
396.096	860.547
400.88	682.167
405.661	622.695
410.44	638.822
415.216	925.546
419.99	839.398
424.761	1328.05
429.53	1243.46
434.297	962.214
439.061	549.523
443.822	427.397
448.581	367.17
453.337	224.621
458.091	247.458
462.843	14.9199
467.592	39.1533
472.338	22.3506
477.082	19.4678
481.824	234.838
486.563	327.741
491.3	686.592
496.034	1013.59
500.765	1255.81
505.494	1707.22
510.221	2046.87
514.945	2475.8
519.666	2805.07
524.385	3410.73
529.102	4072.82
533.816	4273.33
538.527	4154.37
543.236	4001.06
547.943	3782.46
552.647	3403.89
557.348	3236.56
562.047	2862.54
566.744	2604.33
571.438	2040.89
576.129	1419.06
580.818	751.699
585.504	394.241
590.188	121.995
594.87	38.1426
599.549	1.72656
604.225	96.3525
608.899	187.076
613.57	137.673
618.239	249.409
622.905	449.656
627.569	543.025
632.23	875.848
636.889	1106.93
641.545	1683.63
646.198	2164.95
650.849	3119.92
655.498	4189.54
660.144	5750.83
664.787	7608.81
669.428	7906.48
674.067	6698.86
678.703	5263.96
683.336	4337.44
687.967	3817.65
692.595	4005.68
697.221	3435.53
701.844	3805.99
706.465	4245.59
711.083	4779.12
715.698	5295.31
720.311	5431.58
724.922	5525.86
729.53	5203.47
734.135	4901.94
738.738	4203.76
743.338	3663.68
747.936	2861.58
752.531	2239.18
757.124	1870.57
761.714	1544.72
766.302	1712.25
770.887	1365.85
775.469	1377.52
780.049	1372.25
784.626	1368.08
789.201	1220.01
793.773	987.066
798.343	791.271
802.91	611.109
807.475	378.606
812.037	375.921
816.596	175.859
821.153	114.004
825.707	80.7744
830.259	197.872
834.808	143.588
839.355	49.0723
843.899	98.0596
848.441	1.66797
852.98	39.8076
857.516	243.569
862.05	166.665
866.581	361.134
871.11	558.107
875.636	602.902
880.159	847.616
884.68	813.644
889.199	957.756
893.714	984.471
898.228	867.746
902.738	781.553
907.246	771.965
911.752	944.891
916.255	753.332
920.755	771.295
925.253	701.043
929.748	809.688
934.241	678.962
938.731	704.756
943.218	814.012
947.703	662.706
952.186	770.849
956.665	893.815
961.142	1060.1
965.617	1178.65
970.089	1301.94
974.558	1283.68
979.025	1293.21
983.489	1217.72
987.951	1048.39
992.41	1225.53
996.866	1579.16
1001.32	1742.1
1005.77	1952.3
1010.22	1665.84
1014.67	1727.93
1019.11	1475.55
1023.55	1635.6
1027.99	1563.21
1032.42	1725.13
1036.86	1790.99
1041.29	1637.24
1045.72	1648.22
1050.14	1734.74
1054.56	1702.89
1058.98	1715.06
1063.4	1834.03
1067.82	1616.38
1072.23	1530.39
1076.64	1356.21
1081.05	1499.16
1085.45	1212.33
1089.85	1096.03
1094.25	1099.46
1098.65	779.976
1103.04	828.531
1107.43	799.333
1111.82	626.869
1116.21	530.917
1120.59	302.718
1124.97	441.683
1129.35	433.699
1133.73	440.351
1138.1	164.801
1142.47	240.531
1146.84	17.9131
1151.21	33.7158
1155.57	95.1025
1159.93	61.542
1164.29	61.6934
1168.64	153.097
1172.99	30.2129
1177.34	56.4316
1181.69	5.70117
1186.04	39.8262
1190.38	107.748
1194.72	18.9072
1199.05	12.9443
1203.39	50.8926
1207.72	120.576
1212.05	69.8281
1216.37	36.3066
1220.7	117.536
1225.02	87.0879
1229.34	81.3525
1233.65	188.992
1237.97	73.5059
1242.28	254.164
1246.59	182.702
1250.89	184.669
1255.19	67.5029
1259.49	102.344
1263.79	400.8
1268.09	123.105
1272.38	63.1123
1276.67	200.391
1280.95	157.393
1285.24	174.768
1289.52	37.1973
1293.8	135.464
1298.08	216.582
1302.35	193.868
1306.62	238.987
1310.89	235.848
1315.15	167.874
1319.42	250.666
1323.68	137.477
1327.94	226.171
1332.19	142.024
1336.44	111.481
1340.69	153.625
1344.94	83.1182
1349.19	247.802
1353.43	169.219
1357.67	111.772
1361.9	0.995117
1366.14	109.581
1370.37	232.787
1374.6	59.1465
1378.83	40.5684
1383.05	122.612
1387.27	148.044
1391.49	242.852
1395.7	148.489
1399.92	145.53
1404.13	206.109
1408.34	183.215
1412.54	101.338
1416.74	258.923
1420.94	103.285
1425.14	118.412
1429.34	54.8418
1433.53	208.857
1437.72	181.509
1441.9	130.251
1446.09	195.605
1450.27	297.382
1454.45	288.53
1458.63	223.545
1462.8	124.18
1466.97	246.64
1471.14	312.688
1475.31	178.008
1479.47	96.0703
1483.63	246.232
1487.79	182.326
1491.94	288.5
1496.09	320.315
1500.24	82.6338
1504.39	247.727
1508.54	409.097
1512.68	212.169
1516.82	101.852
1520.95	185.318
1525.09	121.828
1529.22	247.746
1533.35	209.919
1537.47	262.585
1541.6	114.103
1545.72	227.68
1549.83	375.692
1553.95	71.4082
1558.06	169.807
1562.17	261.203
1566.28	175.133
1570.38	30.6357
