Measurement: Raman, 514 nm, ccw, Raman Data Processed
Mineral: Edenite
Rruff sample: R060029
Ideal chemistry: NaCa_2_Mg_5_(Si_7_Al)O_22_(OH)_2_
Locality: Renfrew County, Ontario, Canada
Source: University of Arizona Mineral Museum
Description: Black prismatic
Measured chemistry: (Na_0.62_K_0.34_[box]_0.04_)(Ca_0.86_Na_0.14_)_2_(Mg_0.57_Fe^2+^_0.30_Fe^3+^_0.07_Al_0.05_Ti_0.01_Mn_0.01_)_5_(Si_6.61_Al_1.39_)O_22_((OH)_0.69_F_0.31_)_2_
Pin_id: M00412
Orientation: Laser parallel to c* (0 0 1). Fiducial mark perpendicular to laser is parallel to a [1 0 0]
Raman shift (cm-1)	intensity
132.898	0
137.814	498.906
142.728	203.92
147.639	5506.18
152.549	18368.3
157.455	16842.7
162.359	5350.78
167.261	3121.62
172.161	2166.63
177.058	3246.07
181.952	3657.39
186.845	2724.62
191.734	1805.5
196.622	2033.39
201.507	2130.39
206.389	2660.68
211.269	7461.15
216.147	16657.1
221.022	25350.2
225.895	26202.3
230.765	21038.5
235.633	15744
240.498	11607.2
245.361	8529.71
250.222	6587.09
255.08	5245.69
259.936	5234.08
264.789	2366.81
269.64	2282.56
274.488	3314.84
279.334	4413.02
284.178	5606.69
289.019	7212.69
293.857	8143
298.693	8086.51
303.527	7453.81
308.358	6326.26
313.187	4798.25
318.013	3397.7
322.837	2386.1
327.659	2040.93
332.478	2337.46
337.294	2692.67
342.108	3629.22
346.92	5250.8
351.729	6565.87
356.535	8223.09
361.34	8097.48
366.141	6687.96
370.94	5355.45
375.737	4138.82
380.531	3316.92
385.323	2187.58
390.113	959.793
394.9	79.7031
399.684	232.385
404.466	720.199
409.245	828.336
414.022	440.975
418.797	943.361
423.569	866.174
428.338	2327.18
433.105	2702.25
437.87	2304.06
442.632	1858.75
447.391	1768.4
452.149	1907.25
456.903	2094.04
461.655	946.174
466.405	773.596
471.152	713.24
475.897	908.055
480.639	1114.25
485.378	1023.12
490.116	1209.85
494.85	1910.02
499.582	2825.84
504.312	3730.81
509.039	4646.86
513.764	5282.94
518.486	5956.98
523.206	7544.92
527.923	9235.71
532.638	10074.3
537.35	10105.3
542.059	9334.5
546.766	7950.27
551.471	7000.16
556.173	5654.29
560.873	4321.58
565.57	3706.52
570.264	2989.05
574.957	2624.53
579.646	1717.86
584.333	1053.88
589.018	56.1885
593.7	507.188
598.379	411.897
603.056	180.828
607.73	452.302
612.402	1218.45
617.072	1989.43
621.739	3587.76
626.403	5061.04
631.065	6664.18
635.724	8538.65
640.381	10799.4
645.035	13640.7
649.687	17159.7
654.336	22022.3
658.983	30426.6
663.627	41287.6
668.268	48303.3
672.907	43036.8
677.544	30929.1
682.178	19941.5
686.809	13281.5
691.438	8923.31
696.065	5830.39
700.688	4611.48
705.31	3472.66
709.929	3114.5
714.545	3135.31
719.158	3180.4
723.77	3728.86
728.378	3069.88
732.984	2612.6
737.588	2182.67
742.189	1612.95
746.787	953.875
751.383	636.218
755.976	263.906
760.567	248.043
765.155	290.89
769.741	365.789
774.324	627.898
778.904	910.883
783.482	848.155
788.058	988.562
792.631	958.289
797.201	746.769
801.769	408.958
806.334	406.927
810.897	380.748
815.457	87.4951
820.014	101.231
824.569	182.093
829.122	732.325
833.671	574
838.219	225.324
842.763	89.2871
847.306	97.3769
851.845	41.0527
856.382	296.562
860.917	575.244
865.448	702
869.978	1163.56
874.505	2088.46
879.029	2773.91
883.55	3835.36
888.069	5287.34
892.586	6669.99
897.1	8103.28
901.611	9204.28
906.12	10493
910.626	11339.1
915.129	12298.9
919.63	13417.5
924.129	13518
928.625	13914.6
933.118	13806.1
937.609	13026.3
942.097	12787
946.582	13099.5
951.065	13111.7
955.546	13193.3
960.023	13329.5
964.499	13117
968.971	13409.5
973.441	11968.5
977.909	11320
982.374	11247.2
986.836	11168.4
991.295	11609.6
995.753	12094
1000.21	13318.6
1004.66	14254.7
1009.11	14747.5
1013.55	15487.6
1018	16493.2
1022.44	16542.1
1026.88	16612.8
1031.32	16749.6
1035.75	16442.5
1040.18	16409.5
1044.61	16015.2
1049.04	15963.8
1053.46	15405.1
1057.88	15100.1
1062.3	13303.9
1066.71	12596.4
1071.13	10127.9
1075.54	8624.21
1079.94	7347.24
1084.35	6355.5
1088.75	5587.76
1093.15	5140.91
1097.55	4614.05
1101.94	3854.69
1106.34	3416.81
1110.73	2900.86
1115.11	2075.24
1119.5	1949.25
1123.88	1742.79
1128.26	1070.92
1132.63	713.294
1137.01	433.6
1141.38	337.9
1145.75	112.195
1150.12	71.6846
1154.48	48.0244
1158.84	81.2519
1163.2	142.901
1167.55	139.297
1171.91	175.068
1176.26	124.296
1180.61	94.5244
1184.95	47.9111
1189.29	158.983
1193.63	68.5947
1197.97	14.6807
1202.31	36.9639
1206.64	41.0176
1210.97	67.9531
1215.29	57.4287
1219.62	136.609
1223.94	189.107
1228.26	129.612
1232.57	198.96
1236.89	354.322
1241.2	410.608
1245.51	490.739
1249.81	506.107
1254.12	399.606
1258.42	334.256
1262.72	494.188
1267.01	374.97
1271.3	532.319
1275.59	540.629
1279.88	433.187
1284.17	377.797
1288.45	584.188
1292.73	451.056
1297.01	525.056
1301.28	512.242
1305.55	462.947
1309.82	358.165
1314.09	440.687
1318.35	334.188
1322.61	311.687
1326.87	320.286
1331.13	307.192
1335.38	334.716
1339.63	285.889
1343.88	241.94
1348.12	340.478
1352.37	153.556
1356.61	247.198
1360.85	245.059
1365.08	155.249
1369.31	129.45
1373.54	111.742
1377.77	181.916
1381.99	121.203
1386.22	49.96
1390.43	347.085
1394.65	70.8936
1398.87	185.52
1403.08	118.469
1407.29	106.231
1411.49	177.594
1415.69	170.186
1419.89	116.097
1424.09	262.03
1428.29	102.894
1432.48	209.397
1436.67	262.005
1440.86	236.245
1445.04	189.538
1449.23	304.283
1453.4	220.174
1457.58	270.044
1461.76	132.952
1465.93	224.238
1470.1	131.731
1474.26	259.759
1478.43	227.13
1482.59	236.386
1486.75	150.304
1490.9	201.94
1495.06	191.47
1499.21	5.36914
1503.35	260.03
1507.5	184.627
1511.64	200.276
1515.78	270.832
1519.92	239.867
1524.05	193.352
1528.18	37.0185
1532.31	128.644
1536.44	96.9277
1540.56	213.736
1544.69	73.7471
1548.8	139.909
1552.92	201.314
1557.03	89.6641
1561.14	215.848
1565.25	222.43
1569.36	2.64746
