Measurement: Raman, 514 nm, ccw, Raman Data Processed
Mineral: Edenite
Rruff sample: R050415
Ideal chemistry: NaCa_2_Mg_5_(Si_7_Al)O_22_(OH)_2_
Locality: Mogok, Burma
Source: Marcus Origlieri
Description: Transparent pale green water worn fragment
Measured chemistry: (Na_0.83_K_0.17_)(Ca_1.76_Na_0.24_)_=2_(Mg_4.54_Al_0.40_Fe^3+^_0.06_)_=5_(Si_6.74_Al_1.26_)O_22_((OH)_0.52_F_0.48_)_2_
Pin_id: L01128
Orientation: Laser parallel to -c* (0 0 -1). Fiducial mark perpendicular to laser is parallel to -a [-1 0 0]
Raman shift (cm-1)	intensity
100.883	0
105.815	653.271
110.744	1540.53
115.671	3566.4
120.596	4494.06
125.519	2455.61
130.439	668.36
135.356	77.8389
140.271	5.81104
145.184	78.4502
150.094	142.268
155.002	1469.78
159.908	4159.63
164.811	7441.8
169.711	6428.49
174.61	4905.68
179.505	5124.66
184.399	4815.16
189.29	3727.77
194.178	2636.72
199.064	2603.69
203.948	3377.06
208.829	5038.48
213.708	8505.66
218.585	13288.4
223.459	18446.9
228.33	18177.2
233.199	14047.8
238.066	10448.4
242.93	8000.94
247.792	5890.02
252.651	4285.16
257.508	3253.45
262.363	1688.37
267.215	712.791
272.064	393.126
276.912	412.907
281.756	441.272
286.598	717.696
291.438	1258.92
296.276	1447.27
301.111	1676.18
305.943	2092.91
310.773	2946.91
315.601	3924.96
320.426	4230.35
325.248	3498.49
330.068	2772.06
334.886	2490.56
339.701	2305.32
344.514	2441.72
349.324	2663.6
354.132	2953.82
358.938	3307.42
363.741	3710.27
368.541	4052.66
373.339	4406.39
378.135	3958.56
382.928	3774.51
387.718	3850.64
392.506	3625.22
397.292	2853.94
402.075	2022.11
406.856	1356.61
411.634	1030.36
416.41	1110.29
421.183	1130.06
425.954	980.48
430.722	835.436
435.488	543.21
440.251	280.464
445.012	79.0019
449.77	58.4326
454.526	63.0732
459.28	26.5488
464.03	139.6
468.779	181.44
473.525	171.168
478.268	167.611
483.009	9.05469
487.747	54.8086
492.483	174.947
497.217	400.301
501.948	858.035
506.676	1763.42
511.402	2316.08
516.125	2450.21
520.846	2316.47
525.565	2202.2
530.281	2037.42
534.994	1722.18
539.705	1435.66
544.413	832.691
549.119	650.15
553.822	392.962
558.523	325.116
563.222	240.649
567.917	141.517
572.611	166.482
577.302	255.705
581.99	188.055
586.676	323.472
591.359	338.019
596.04	336.472
600.718	408.373
605.394	746.504
610.067	776.752
614.737	1139.29
619.406	1659.81
624.071	2050.92
628.734	2920.63
633.395	4008.23
638.053	5676.63
642.708	7453.68
647.361	10104.5
652.012	13110.4
656.66	17162.6
661.305	23523
665.948	33589.2
670.588	43697.9
675.226	45540.3
679.861	35218.5
684.494	22184.7
689.124	12842.8
693.752	8004.08
698.377	5057.98
702.999	3183.02
707.619	2189.99
712.237	1671.75
716.852	1141.89
721.464	1111.17
726.074	945.453
730.681	843.213
735.286	553.281
739.888	402.22
744.488	266.035
749.085	399.021
753.68	179.717
758.272	3.07519
762.861	5.34961
767.448	35.1055
772.033	3.72852
776.614	112.043
781.194	67.5977
785.77	132.848
790.345	22.7285
794.916	108.331
799.485	97.8447
804.052	12.3213
808.616	18.252
813.177	69.1406
817.736	78.5303
822.292	37.1592
826.846	33.0352
831.397	116.602
835.945	125.057
840.491	121.594
845.035	109.339
849.576	112.1
854.114	44.998
858.65	6.27441
863.183	65.7227
867.713	147.417
872.241	141.514
876.767	422.084
881.29	916.326
885.81	1391.35
890.328	1832.37
894.843	2345.67
899.356	2440.36
903.866	3255.5
908.373	4068.06
912.878	4699.94
917.38	5418.59
921.88	5460.54
926.377	5170.53
930.872	4713.3
935.364	4328.25
939.853	4154.06
944.34	3956.27
948.824	3621.3
953.306	3646.19
957.785	3417.22
962.261	3017.77
966.735	3029.92
971.207	2966.02
975.675	2967.36
980.141	2923.21
984.605	3218.67
989.066	3503.51
993.524	4182.32
997.98	5000.01
1002.43	5931.26
1006.88	7000.22
1011.33	7694.76
1015.78	8257.79
1020.22	8453.84
1024.66	8612.43
1029.1	8606.34
1033.53	9096.34
1037.97	9717.58
1042.4	10334.8
1046.82	10620.9
1051.25	11043
1055.67	12030.8
1060.09	12973.8
1064.51	13732.5
1068.92	12951.8
1073.33	10401.6
1077.74	7506.66
1082.15	5117.58
1086.55	3256.36
1090.95	2351.46
1095.35	1862.07
1099.75	1348.62
1104.14	954.336
1108.53	731.238
1112.92	763.232
1117.31	755.91
1121.69	867.736
1126.07	661.762
1130.45	340.094
1134.82	347.435
1139.19	96.9922
1143.57	245.623
1147.93	176.394
1152.3	79.6367
1156.66	37.0996
1161.02	77.7344
1165.38	184.039
1169.73	43.2285
1174.08	19.8633
1178.43	59.2031
1182.78	9.49023
1187.12	56.4844
1191.46	143.75
1195.8	255.873
1200.14	17.9531
1204.47	77.7969
1208.8	83.416
1213.13	295.781
1217.46	34.9121
1221.78	20.8223
1226.1	93.4043
1230.42	5.04297
1234.73	259.922
1239.04	95.457
1243.35	186.475
1247.66	392.014
1251.97	407.812
1256.27	327.293
1260.57	366.822
1264.86	505.768
1269.16	376.203
1273.45	276.223
1277.74	520.568
1282.03	339.625
1286.31	540.68
1290.59	543.725
1294.87	492.836
1299.14	445.92
1303.42	668.85
1307.69	628.566
1311.95	393.701
1316.22	540.037
1320.48	672.182
1324.74	586.305
1329	631.963
1333.26	666.068
1337.51	393.826
1341.76	714.82
1346	354.961
1350.25	636.41
1354.49	359.885
1358.73	435.09
1362.96	462.238
1367.2	359.004
1371.43	281.148
1375.66	273.69
1379.88	452.205
1384.11	379.203
1388.33	307.469
1392.54	375.443
1396.76	198.42
1400.97	67.084
1405.18	156.356
1409.39	158.342
1413.59	92.043
1417.8	181.973
1421.99	23.8867
1426.19	13.9883
1430.38	176.535
1434.58	61.6289
1438.77	127.773
1442.95	182.441
1447.13	317.613
1451.32	32.9023
1455.49	380.867
1459.67	132.227
1463.84	287.481
1468.01	421.297
1472.18	290.801
1476.35	227.148
1480.51	493.332
1484.67	318.426
1488.83	323.648
1492.98	713.555
1497.13	235.641
1501.28	454.973
1505.43	323.629
1509.57	305.566
1513.71	384.531
1517.85	348.656
1521.99	209.059
1526.12	251.523
1530.25	165.394
1534.38	120.414
1538.5	567.148
1542.62	198.984
1546.74	184.269
1550.86	152.106
1554.98	236.918
1559.09	183.019
1563.2	200.484
1567.31	218.68
1571.41	1.55859
