Measurement: Raman, 514 nm, ccw, Raman Data Processed
Mineral: Edenite
Rruff sample: R060029
Ideal chemistry: NaCa_2_Mg_5_(Si_7_Al)O_22_(OH)_2_
Locality: Renfrew County, Ontario, Canada
Source: University of Arizona Mineral Museum
Description: Black prismatic
Measured chemistry: (Na_0.62_K_0.34_[box]_0.04_)(Ca_0.86_Na_0.14_)_2_(Mg_0.57_Fe^2+^_0.30_Fe^3+^_0.07_Al_0.05_Ti_0.01_Mn_0.01_)_5_(Si_6.61_Al_1.39_)O_22_((OH)_0.69_F_0.31_)_2_
Pin_id: M00136
Orientation: Laser parallel to b* (0 1 0). Fiducial mark perpendicular to laser is parallel to c [0 0 1]
Raman shift (cm-1)	intensity
261.149	0
264.789	73.5537
268.427	40.3057
272.064	54.5488
275.7	141.884
279.334	225.908
282.967	390.164
286.598	627.81
290.229	695.271
293.857	792.442
297.485	711.887
301.111	730.107
304.735	496.665
308.358	330.363
311.98	422.668
315.601	323.847
319.22	265.754
322.837	132.435
326.454	226.842
330.068	263.06
333.682	137.162
337.294	238.919
340.905	539.567
344.514	716.734
348.122	1021.49
351.729	1447.86
355.334	1752.65
358.938	1757.08
362.54	1847.38
366.141	1973.25
369.741	1789.95
373.339	1785.1
376.936	1674.24
380.531	1419.11
384.126	970.517
387.718	675.408
391.31	621.74
394.9	348.515
398.488	482.737
402.075	250.42
405.661	240.769
409.245	235.434
412.828	399.955
416.41	466.328
419.99	645.454
423.569	765.64
427.146	717.817
430.722	645.94
434.297	447.969
437.87	531.837
441.442	254.525
445.012	249.894
448.581	131.387
452.149	151.216
455.715	210.31
459.28	85.7178
462.843	49.044
466.405	96.6777
469.965	153.714
473.525	28.0137
477.082	46.3828
480.639	42.9443
484.194	186.543
487.747	374.766
491.3	704.64
494.85	959.174
498.4	943.365
501.948	1387.1
505.494	1668.83
509.039	1938.17
512.583	2140.28
516.125	2361.79
519.666	2819.91
523.206	3392.7
526.744	3701.18
530.281	3642.34
533.816	3687.18
537.35	3474.72
540.882	3349.96
544.413	3376.9
547.943	3150.65
551.471	2911.06
554.998	2913.64
558.523	2566.28
562.047	2542.99
565.57	2105.58
569.091	1901.89
572.611	1484.54
576.129	1085.77
579.646	698.208
583.162	389.266
586.676	98.9541
590.188	45.2744
593.7	48.0703
597.209	55.377
600.718	69.9619
604.225	66.1406
607.73	291.942
611.235	136.812
614.737	268.875
618.239	274.119
621.739	360.032
625.237	463.872
628.734	680.821
632.23	1084.84
635.724	1193.1
639.217	1384.07
642.708	1927.77
646.198	2416.25
649.687	2878.35
653.174	3783.26
656.66	4932.94
660.144	6465.38
663.627	7585.67
667.108	7751.59
670.588	7092.37
674.067	5894.94
677.544	4750.3
681.02	3787.93
684.494	3334.34
687.967	2664.95
691.438	2624.44
694.908	2510.63
698.377	2304.05
701.844	2512.28
705.31	2929.3
708.774	3207.6
712.237	3432.41
715.698	3667.68
719.158	3907.52
722.617	4014.15
726.074	3801.89
729.53	3790.08
732.984	3547.21
736.437	3227.34
739.888	2824.18
743.338	2270.89
746.787	1956.12
750.234	1623.37
753.68	1372.83
757.124	1107.42
760.567	1009.85
764.008	1069.56
767.448	983.761
770.887	1017.96
774.324	856.636
777.759	1003.08
781.194	933.984
784.626	658.673
788.058	826.38
791.488	738.117
794.916	471.89
798.343	613.709
801.769	436.583
805.193	342.519
808.616	201.528
812.037	97.6143
815.457	4.78809
818.875	164.034
822.292	44.3428
825.707	86.541
829.122	215.75
832.534	101.564
835.945	146.958
839.355	118.005
842.763	1.75
846.17	85.4609
849.576	2.79688
852.98	173.972
856.382	210.47
859.783	426.739
863.183	414.514
866.581	443.706
869.978	635.366
873.373	724.835
876.767	818.378
880.159	884.962
883.55	1139.5
886.94	1139.34
890.328	1084.5
893.714	1420.95
897.1	1451.64
900.483	1577.77
903.866	1642.83
907.246	1722.46
910.626	1847.35
914.004	2034
917.38	2153.66
920.755	2029.71
924.129	2147.11
927.501	2027.81
930.872	1983.04
934.241	1929.89
937.609	1676.73
940.975	1819.12
944.34	1680.96
947.703	1707.01
951.065	1926.64
954.426	1856.17
957.785	1749.39
961.142	1803.69
964.499	1825.86
967.853	1573.37
971.207	1601.92
974.558	1716.94
977.909	1697.41
981.258	1732.79
984.605	1796.37
987.951	1941.57
991.295	2122.39
994.639	2261.81
997.98	2460.05
1001.32	2539.32
1004.66	2652.87
1008	2749.44
1011.33	2713.05
1014.67	2677.75
1018	2699.82
1021.33	2823.25
1024.66	2897.05
1027.99	2720.66
1031.32	2750.55
1034.64	2655.77
1037.97	2656.61
1041.29	2609.32
1044.61	2615.62
1047.93	2738.96
1051.25	2794.79
1054.56	2634.97
1057.88	2570.54
1061.19	2600.02
1064.51	2301.28
1067.82	2136.05
1071.13	2053.9
1074.43	1926.78
1077.74	1945.92
1081.05	1743.18
1084.35	1675.16
1087.65	1668.92
1090.95	1503.44
1094.25	1429.73
1097.55	1374.6
1100.85	1315.75
1104.14	1002.85
1107.43	845.532
1110.73	839.746
1114.02	535.481
1117.31	530.656
1120.59	656.411
1123.88	620.672
1127.16	817.95
1130.45	342.226
1133.73	506.301
1137.01	156.799
1140.29	179.232
1143.57	153.174
1146.84	111.874
1150.12	32.2383
1153.39	163.843
1156.66	23.71
1159.93	88.3154
1163.2	26.3818
1166.46	83.4375
1169.73	142.094
1172.99	1.79297
1176.26	448.208
1179.52	3.26269
1182.78	79.165
1186.04	44.877
1189.29	9.01953
1192.55	154.269
1195.8	6.93066
1199.05	15.9209
1202.31	42.2324
1205.55	140.164
1208.8	4.50195
1212.05	58.6963
1215.29	11.4424
1218.54	3.52246
1221.78	93.0918
1225.02	54.4434
1228.26	30.4395
1231.5	67.6162
1234.73	34.1592
1237.97	25.9541
1241.2	188.879
1244.43	103.512
1247.66	125.939
1250.89	242.009
1254.12	21.2129
1257.34	167.156
1260.57	18.2461
1263.79	62.9863
1267.01	120.51
1270.23	124.715
1273.45	148.743
1276.67	168.428
1279.88	247.88
1283.1	139.015
1286.31	45.4736
1289.52	148.005
1292.73	268.528
1295.94	180.664
1299.14	213.902
1302.35	82.1523
1305.55	137.526
1308.75	187.185
1311.95	304.498
1315.15	198.672
1318.35	137.733
1321.55	206.971
1324.74	174.14
1327.94	323.818
1331.13	217.759
1334.32	283.575
1337.51	237.109
1340.69	205.31
1343.88	253.679
1347.06	168.708
1350.25	297.254
1353.43	284.372
1356.61	303.37
1359.79	182.047
1362.96	226.623
1366.14	61.3174
1369.31	201.457
1372.49	249.223
1375.66	92.5371
1378.83	80.8135
1381.99	230.23
1385.16	136.958
1388.33	178.167
1391.49	109.872
1394.65	52.707
1397.81	25.6963
1400.97	173.943
1404.13	30.9668
1407.29	64.6016
1410.44	282.916
1413.59	178.943
1416.74	165.606
1419.89	218.076
1423.04	70.1856
1426.19	103.672
1429.34	165.322
1432.48	14.7109
1435.62	0.53418
1438.77	121.45
1441.9	48.8633
1445.04	19.6016
1448.18	179.661
1451.32	2.89551
1454.45	191.08
1457.58	137.622
1460.71	69.1875
1463.84	195.236
1466.97	197.579
1470.1	194.182
1473.22	19.9443
1476.35	186.203
1479.47	130.053
1482.59	226.374
1485.71	245.328
1488.83	161.536
1491.94	59.5078
1495.06	112.61
1498.17	142.751
1501.28	103.763
1504.39	96.4736
1507.5	170.02
1510.61	156.972
1513.71	188.943
1516.82	85.2832
1519.92	231.841
1523.02	144.568
1526.12	27.5293
1529.22	44.332
1532.31	123.246
1535.41	129.251
1538.5	237.99
1541.6	43.8613
1544.69	140.577
1547.78	5.38184
1550.86	41.1406
1553.95	45.8926
1557.03	180.642
1560.12	129.959
1563.2	91.625
1566.28	117.092
1569.36	33.6602
