Measurement: Raman, 514 nm, ccw, Raman Data Processed
Mineral: Edenite
Rruff sample: R050415
Ideal chemistry: NaCa_2_Mg_5_(Si_7_Al)O_22_(OH)_2_
Locality: Mogok, Burma
Source: Marcus Origlieri
Description: Transparent pale green water worn fragment
Measured chemistry: (Na_0.83_K_0.17_)(Ca_1.76_Na_0.24_)_=2_(Mg_4.54_Al_0.40_Fe^3+^_0.06_)_=5_(Si_6.74_Al_1.26_)O_22_((OH)_0.52_F_0.48_)_2_
Pin_id: L01128
Orientation: Laser parallel to -c* (0 0 -1). Fiducial mark perpendicular to laser is parallel to -a [-1 0 0]
Raman shift (cm-1)	intensity
100.883	0
105.815	590.174
110.744	918.394
115.671	2346.12
120.596	5099.17
125.519	4411.1
130.439	1306.63
135.356	181.433
140.271	39.3672
145.184	139.747
150.094	79.2539
155.002	664.741
159.908	2274.15
164.811	6622.44
169.711	7614.8
174.61	4672.16
179.505	4114.4
184.399	4525.18
189.29	3676.29
194.178	2359.03
199.064	2028.28
203.948	2299.26
208.829	3329.2
213.708	5616.32
218.585	8760.23
223.459	13811.3
228.33	17327.4
233.199	14650
238.066	13006
242.93	11302.2
247.792	8463.57
252.651	6243
257.508	5012.7
262.363	2821.81
267.215	1344.1
272.064	646.137
276.912	413.104
281.756	355.87
286.598	501.114
291.438	758.468
296.276	1174.14
301.111	1350.53
305.943	1610.51
310.773	2263.46
315.601	3420.25
320.426	4330.34
325.248	3904.92
330.068	2868.27
334.886	2595.84
339.701	2474.47
344.514	2565.39
349.324	3013.28
354.132	3444.25
358.938	3799.55
363.741	4168.27
368.541	4687.27
373.339	5241.5
378.135	5079.91
382.928	4776.48
387.718	4799.17
392.506	4941
397.292	4502.5
402.075	3104.63
406.856	2170.27
411.634	1703.31
416.41	1820.69
421.183	1852.4
425.954	1900.87
430.722	1653.97
435.488	1236.91
440.251	594.966
445.012	314.324
449.77	29.3574
454.526	78.6533
459.28	86.6045
464.03	141.241
468.779	22.3477
473.525	221.164
478.268	136.648
483.009	42.6611
487.747	106.389
492.483	87.7344
497.217	323.763
501.948	1034.9
506.676	1489.65
511.402	2688.65
516.125	3295.29
520.846	2936.45
525.565	2561.22
530.281	2149.69
534.994	2226.95
539.705	1709.9
544.413	984.494
549.119	652.611
553.822	452.173
558.523	286.176
563.222	165.609
567.917	145.408
572.611	62.2803
577.302	187.953
581.99	356.659
586.676	331.748
591.359	218.697
596.04	322.504
600.718	181.98
605.394	444.448
610.067	625.136
614.737	902.79
619.406	1068.14
624.071	1682.53
628.734	2360.46
633.395	3157.87
638.053	4614.4
642.708	6219.24
647.361	8509.32
652.012	11311.3
656.66	15004.1
661.305	19857.9
665.948	28015.3
670.588	39213.7
675.226	46208.6
679.861	39336.7
684.494	25512.6
689.124	14653.7
693.752	9007.12
698.377	5575.44
702.999	3533.26
707.619	2380.5
712.237	1861.68
716.852	1450.12
721.464	1201.75
726.074	1036.5
730.681	878.61
735.286	659.062
739.888	663.227
744.488	437.201
749.085	369.634
753.68	191.258
758.272	87.9424
762.861	108.119
767.448	152.232
772.033	126.149
776.614	236.839
781.194	51.5234
785.77	51.9863
790.345	31.1572
794.916	102.191
799.485	85.2139
804.052	65.9375
808.616	11.3799
813.177	62.7197
817.736	39.3428
822.292	94.7529
826.846	39.6973
831.397	87.3398
835.945	82.4346
840.491	132.869
845.035	121.566
849.576	66.3086
854.114	152.411
858.65	74.5879
863.183	65.7217
867.713	152.913
872.241	247.566
876.767	218.699
881.29	807.369
885.81	988.688
890.328	1577.87
894.843	2046.85
899.356	3709.33
903.866	2864.54
908.373	3492.42
912.878	4359.61
917.38	5076.21
921.88	5373.08
926.377	5182.02
930.872	4728.35
935.364	4221.28
939.853	4019.81
944.34	3701.86
948.824	3768.99
953.306	3701.89
957.785	3361.69
962.261	3173.57
966.735	2955.63
971.207	2881
975.675	2981.53
980.141	2998.11
984.605	3181.32
989.066	3673.98
993.524	3996.66
997.98	5029.69
1002.43	6067.36
1006.88	7185
1011.33	7950.12
1015.78	8310.22
1020.22	8553.18
1024.66	8666.33
1029.1	8765.37
1033.53	9124.21
1037.97	9740.49
1042.4	10210
1046.82	10354.1
1051.25	10394.1
1055.67	10785.8
1060.09	11416
1064.51	12295.3
1068.92	11668.5
1073.33	9790.69
1077.74	7224.63
1082.15	5159.97
1086.55	3196.6
1090.95	2311.62
1095.35	1841.49
1099.75	1245.58
1104.14	1224.84
1108.53	567.422
1112.92	892.082
1117.31	544.078
1121.69	631.943
1126.07	597.908
1130.45	550.492
1134.82	281.482
1139.19	142.203
1143.57	164.033
1147.93	126.643
1152.3	176.742
1156.66	48.9688
1161.02	74.5137
1165.38	120.643
1169.73	25.0645
1174.08	3.9375
1178.43	56.7012
1182.78	86.7031
1187.12	26.7344
1191.46	84.6367
1195.8	136.148
1200.14	135.242
1204.47	41.3984
1208.8	37.7461
1213.13	49.2949
1217.46	221.711
1221.78	101.191
1226.1	140.1
1230.42	168.518
1234.73	256.728
1239.04	423.473
1243.35	428.92
1247.66	349.01
1251.97	506.758
1256.27	424.965
1260.57	395.066
1264.86	619.519
1269.16	383.69
1273.45	583.938
1277.74	557.365
1282.03	532.934
1286.31	545.678
1290.59	615.356
1294.87	521.666
1299.14	251.938
1303.42	518.981
1307.69	489.43
1311.95	263.762
1316.22	400.994
1320.48	824.693
1324.74	652.283
1329	601.244
1333.26	641.477
1337.51	632.086
1341.76	787.104
1346	447.512
1350.25	296.93
1354.49	205.725
1358.73	283.57
1362.96	536.475
1367.2	401.91
1371.43	293.875
1375.66	244.098
1379.88	169.418
1384.11	149.207
1388.33	212.68
1392.54	11.0859
1396.76	119.731
1400.97	158.527
1405.18	112.481
1409.39	3.5625
1413.59	309.356
1417.8	92.7109
1421.99	127.438
1426.19	223.223
1430.38	17.6875
1434.58	51.4883
1438.77	110.414
1442.95	100.742
1447.13	372.922
1451.32	13.4609
1455.49	450.332
1459.67	328.051
1463.84	421.43
1468.01	347.426
1472.18	334.039
1476.35	352.988
1480.51	400.305
1484.67	561.473
1488.83	598.723
1492.98	606.281
1497.13	558.262
1501.28	731.879
1505.43	576.902
1509.57	557.203
1513.71	670.176
1517.85	348.602
1521.99	725.305
1526.12	553.66
1530.25	554.227
1534.38	467.519
1538.5	430.801
1542.62	310.148
1546.74	539.18
1550.86	389.531
1554.98	572.836
1559.09	461.613
1563.2	466.406
1567.31	656.363
1571.41	5.84766
