Measurement: Raman, 514 nm, ccw, Raman Data Processed
Mineral: Edenite
Rruff sample: R050415
Ideal chemistry: NaCa_2_Mg_5_(Si_7_Al)O_22_(OH)_2_
Locality: Mogok, Burma
Source: Marcus Origlieri
Description: Transparent pale green water worn fragment
Measured chemistry: (Na_0.83_K_0.17_)(Ca_1.76_Na_0.24_)_=2_(Mg_4.54_Al_0.40_Fe^3+^_0.06_)_=5_(Si_6.74_Al_1.26_)O_22_((OH)_0.52_F_0.48_)_2_
Pin_id: L01355
Orientation: Laser parallel to -a* (-1 0 0). Fiducial mark perpendicular to laser is parallel to -b [0 -1 0]
Raman shift (cm-1)	intensity
93.48	0
98.416	626.278
103.349	1394.88
108.28	3836.95
113.208	4103.26
118.134	4223.8
123.058	3321.25
127.979	1409.01
132.898	277.758
137.814	104.715
142.728	250.803
147.639	344.222
152.549	1128.44
157.455	3153.12
162.359	5456.68
167.261	6180.77
172.161	3982.31
177.058	2704.99
181.952	2393.47
186.845	1997.56
191.734	1085.71
196.622	772.973
201.507	1558.05
206.389	2484.29
211.269	4477.59
216.147	6582.09
221.022	8362.78
225.895	12198.8
230.765	17856.9
235.633	22819.9
240.498	23246.5
245.361	18830.8
250.222	13947.9
255.08	9435.51
259.936	6223.1
264.789	3153.86
269.64	1667.75
274.488	875.241
279.334	595.933
284.178	431.108
289.019	515.503
293.857	765.809
298.693	824.098
303.527	1249.61
308.358	1833.51
313.187	2654.73
318.013	3212.57
322.837	3137.72
327.659	2502.14
332.478	1997.71
337.294	1725.1
342.108	1849.05
346.92	2036.77
351.729	2266.12
356.535	2690.17
361.34	3579.42
366.141	4749.88
370.94	5508.85
375.737	6355.3
380.531	7883.16
385.323	9446.4
390.113	10791.9
394.9	9966.66
399.684	7719.55
404.466	5475.68
409.245	4633.27
414.022	4978.56
418.797	5733.02
423.569	6335.55
428.338	5920.96
433.105	4446.61
437.87	2617.01
442.632	1145.82
447.391	347.604
452.149	36.125
456.903	158.397
461.655	23.5625
466.405	172.243
471.152	74.5986
475.897	28.7812
480.639	59.5273
485.378	45.3418
490.116	166.749
494.85	29.9551
499.582	160.589
504.312	1049.95
509.039	2093.12
513.764	3366.79
518.486	4156.88
523.206	3891.09
527.923	3194.34
532.638	2114.59
537.35	1440.88
542.059	606.368
546.766	331.819
551.471	45.0342
556.173	50.3037
560.873	31.0078
565.57	120.514
570.264	10.5469
574.957	171.108
579.646	77.2353
584.333	255.477
589.018	313.903
593.7	144.893
598.379	126.853
603.056	75.5527
607.73	268.242
612.402	422.969
617.072	859.467
621.739	1913.11
626.403	2726.61
631.065	2719.02
635.724	3341.9
640.381	5202.99
645.035	6866.09
649.687	9321.19
654.336	12556.1
658.983	17048.7
663.627	25104.8
668.268	34852.5
672.907	40763.7
677.544	37259.5
682.178	26364.2
686.809	16265.1
691.438	9747.42
696.065	6081.75
700.688	4158.48
705.31	2731.98
709.929	2305.44
714.545	1773.75
719.158	1962.79
723.77	1966.57
728.378	1725.16
732.984	1758.71
737.588	1283.02
742.189	1082.59
746.787	645.195
751.383	495.797
755.976	238.539
760.567	63.4199
765.155	21.3457
769.741	93.5762
774.324	28.7754
778.904	122.156
783.482	76.2109
788.058	69.6484
792.631	97.0527
797.201	166.736
801.769	54.2812
806.334	72.6231
810.897	20.7754
815.457	173.408
820.014	78.8965
824.569	30.2168
829.122	15.0898
833.671	53.5449
838.219	26.3477
842.763	366.412
847.306	614.318
851.845	650.299
856.382	1085.35
860.917	1149.07
865.448	806.4
869.978	812.455
874.505	643.488
879.029	883.643
883.55	1340.56
888.069	1705.93
892.586	1946.89
897.1	2312.89
901.611	2316.64
906.12	2807.03
910.626	3548.89
915.129	4126.97
919.63	4123.54
924.129	4139.2
928.625	3834.28
933.118	3330.79
937.609	3219.84
942.097	2819.33
946.582	2606.22
951.065	2625.3
955.546	2812.22
960.023	2558.7
964.499	2275.92
968.971	2132.3
973.441	2573.48
977.909	2589.16
982.374	3175.41
986.836	4033.75
991.295	4704.13
995.753	6403.54
1000.21	8254.06
1004.66	9145.57
1009.11	9167.16
1013.55	9356.27
1018	9625.78
1022.44	9851.84
1026.88	10055.8
1031.32	9963.75
1035.75	10706.9
1040.18	10987.4
1044.61	10360.6
1049.04	9071.79
1053.46	8044.41
1057.88	6742.5
1062.3	6036.45
1066.71	5359.37
1071.13	4506.61
1075.54	4042.71
1079.94	3540.33
1084.35	2916.03
1088.75	1954.49
1093.15	1648.12
1097.55	1248.32
1101.94	1121.02
1106.34	954.43
1110.73	882.098
1115.11	1037.35
1119.5	1831.38
1123.88	1704.41
1128.26	867.215
1132.63	68.7266
1137.01	58.3262
1141.38	125.768
1145.75	193.842
1150.12	129.781
1154.48	88.4258
1158.84	103.348
1163.2	63.2012
1167.55	142.137
1171.91	292.74
1176.26	174.184
1180.61	36.0176
1184.95	32.0762
1189.29	49.1855
1193.63	3.38281
1197.97	19.5371
1202.31	92.9023
1206.64	35.6797
1210.97	7.84375
1215.29	291.688
1219.62	451.375
1223.94	206.965
1228.26	283.148
1232.57	502.887
1236.89	761.59
1241.2	765.555
1245.51	749.215
1249.81	924.91
1254.12	894.992
1258.42	746.129
1262.72	1287.77
1267.01	1133.15
1271.3	1318.52
1275.59	1341.52
1279.88	1076.4
1284.17	996.148
1288.45	1182.94
1292.73	1130.47
1297.01	1309.91
1301.28	1259.73
1305.55	1268.7
1309.82	1400.24
1314.09	1561.09
1318.35	1521.07
1322.61	1197.84
1326.87	1218.31
1331.13	704.555
1335.38	509.531
1339.63	601.797
1343.88	497.07
1348.12	446.008
1352.37	690.398
1356.61	359
1360.85	39.8984
1365.08	244.453
1369.31	134.91
1373.54	369.09
1377.77	357.074
1381.99	410.863
1386.22	435.777
1390.43	460.898
1394.65	27.6172
1398.87	50.9766
1403.08	181.422
1407.29	13.7383
1411.49	55.3242
1415.69	91.1914
1419.89	12.6875
1424.09	433.981
1428.29	485.957
1432.48	942.148
1436.67	1265.96
1440.86	2119.14
1445.04	2440.48
1449.23	2798.96
1453.4	2972.78
1457.58	3135.71
1461.76	2200.86
1465.93	1651
1470.1	1405.83
1474.26	1079
1478.43	1003.88
1482.59	930.144
1486.75	1024.47
1490.9	317.594
1495.06	40.2188
1499.21	191.144
1503.35	68.6992
1507.5	183.527
1511.64	55.1992
1515.78	224.949
1519.92	390.578
1524.05	250.82
1528.18	469.75
1532.31	502.656
1536.44	498.305
1540.56	369.406
1544.69	404
1548.8	462.234
1552.92	413.086
1557.03	59.4961
1561.14	112.164
1565.25	267.441
1569.36	50.8203
