Measurement: Raman, 514 nm, ccw, Raman Data Processed
Mineral: Edenite
Rruff sample: R060029
Ideal chemistry: NaCa_2_Mg_5_(Si_7_Al)O_22_(OH)_2_
Locality: Renfrew County, Ontario, Canada
Source: University of Arizona Mineral Museum
Description: Black prismatic
Measured chemistry: (Na_0.62_K_0.34_[box]_0.04_)(Ca_0.86_Na_0.14_)_2_(Mg_0.57_Fe^2+^_0.30_Fe^3+^_0.07_Al_0.05_Ti_0.01_Mn_0.01_)_5_(Si_6.61_Al_1.39_)O_22_((OH)_0.69_F_0.31_)_2_
Pin_id: L01054
Orientation: Laser parallel to -a* (-1 0 0). Fiducial mark perpendicular to laser is parallel to b [0 1 0]
Raman shift (cm-1)	intensity
192.956	0
197.843	93.7676
202.727	189.82
207.609	130.936
212.489	1102.48
217.366	2217.24
222.24	3399.48
227.112	4275.16
231.982	4023.73
236.849	3039.52
241.714	1746.95
246.577	901.358
251.437	299.904
256.294	169.783
261.149	5.72559
266.002	66.3037
270.852	201.129
275.7	320.643
280.545	461.534
285.388	777.872
290.229	1169.86
295.067	1087.38
299.902	972.152
304.735	802.804
309.566	646.068
314.394	453.377
319.22	231.567
324.043	218.085
328.864	328.383
333.682	184.523
338.498	353.418
343.311	168.743
348.122	428.17
352.931	726.497
357.737	855.422
362.54	1104.32
367.341	1404.88
372.14	1695.12
376.936	1995.64
381.73	1657.76
386.521	1467.5
391.31	1106.8
396.096	865.009
400.88	996.918
405.661	1077.39
410.44	1190.23
415.216	1428
419.99	1854.48
424.761	2566.48
429.53	2897.72
434.297	2685.2
439.061	2434.89
443.822	1972.06
448.581	1466.17
453.337	1217.36
458.091	990.316
462.843	651.479
467.592	549.92
472.338	522.951
477.082	507.076
481.824	940.789
486.563	1131.95
491.3	1425.64
496.034	2180.36
500.765	2497.62
505.494	3100.45
510.221	3674.85
514.945	4161.84
519.666	4373.45
524.385	4511.76
529.102	4718.74
533.816	4749.37
538.527	4611.65
543.236	4398.57
547.943	3970.28
552.647	3671.5
557.348	3361.49
562.047	3195.16
566.744	2831.59
571.438	2383.78
576.129	1887.67
580.818	1200.15
585.504	509.103
590.188	6.55566
594.87	126.57
599.549	117.445
604.225	135.176
608.899	166.676
613.57	34.1289
618.239	147.178
622.905	454.453
627.569	802.675
632.23	1037.44
636.889	1455.57
641.545	1849.07
646.198	2575.93
650.849	3510.18
655.498	4860.8
660.144	6777.8
664.787	8770.18
669.428	8959.95
674.067	6969.11
678.703	4891.66
683.336	3304.62
687.967	2413.8
692.595	1915.71
697.221	1761.46
701.844	1839.24
706.465	2138.85
711.083	2546.95
715.698	2957.43
720.311	3290.87
724.922	3481.78
729.53	3301.75
734.135	3157.25
738.738	2927.31
743.338	2428.99
747.936	1961.17
752.531	1547.31
757.124	1415.03
761.714	1247.09
766.302	1199.98
770.887	1277.62
775.469	1306.05
780.049	1057.29
784.626	1017.35
789.201	976.252
793.773	953.157
798.343	681.695
802.91	579.277
807.475	309.795
812.037	183.269
816.596	189.722
821.153	1.82519
825.707	152.492
830.259	44.956
834.808	130.341
839.355	58.7715
843.899	152.458
848.441	13.6299
852.98	43.9815
857.516	160.637
862.05	134.423
866.581	373.558
871.11	633.475
875.636	499.877
880.159	625.669
884.68	684.815
889.199	691.291
893.714	794.532
898.228	807.247
902.738	741.346
907.246	968.961
911.752	835.101
916.255	1025.9
920.755	1306.34
925.253	1215.39
929.748	1257.13
934.241	1181.5
938.731	1329.48
943.218	1606.11
947.703	1776.28
952.186	1850.16
956.665	1841.85
961.142	1897.7
965.617	1923.53
970.089	1996.44
974.558	2034.02
979.025	2299.63
983.489	2416.73
987.951	2666.16
992.41	3090.4
996.866	3476.91
1001.32	3898.9
1005.77	4015.09
1010.22	4125.86
1014.67	4265.21
1019.11	4202.13
1023.55	4376.73
1027.99	4418
1032.42	4170.43
1036.86	4112.25
1041.29	3864.95
1045.72	3512.26
1050.14	3275.11
1054.56	3185.3
1058.98	2961.19
1063.4	2793.89
1067.82	2656.25
1072.23	2490.99
1076.64	2316.4
1081.05	2061.5
1085.45	1886.36
1089.85	1911.37
1094.25	1610.66
1098.65	1535.46
1103.04	1456.39
1107.43	1240.18
1111.82	919.187
1116.21	994.174
1120.59	734.006
1124.97	680.955
1129.35	409.869
1133.73	281.44
1138.1	360.8
1142.47	200.326
1146.84	224.108
1151.21	10.6787
1155.57	118.15
1159.93	58.4287
1164.29	62.4902
1168.64	94.9228
1172.99	24.7041
1177.34	50.8906
1181.69	49.2773
1186.04	8.3457
1190.38	75.9375
1194.72	121.866
1199.05	1.42285
1203.39	54.9824
1207.72	32.0566
1212.05	78.0283
1216.37	139.839
1220.7	201.852
1225.02	50.7666
1229.34	132.358
1233.65	206.346
1237.97	48.3281
1242.28	139.049
1246.59	96.5635
1250.89	228.501
1255.19	167.981
1259.49	209.862
1263.79	224.046
1268.09	204.35
1272.38	197.885
1276.67	131.73
1280.95	152.422
1285.24	297.152
1289.52	298.173
1293.8	166.044
1298.08	226.168
1302.35	169.539
1306.62	268.367
1310.89	134.288
1315.15	166.153
1319.42	117.715
1323.68	144.624
1327.94	136.295
1332.19	164.231
1336.44	101.848
1340.69	129.392
1344.94	111.238
1349.19	109.031
1353.43	108.839
1357.67	30.2412
1361.9	36.3945
1366.14	52.0244
1370.37	68.085
1374.6	80.1709
1378.83	187.851
1383.05	30.9102
1387.27	49.2217
1391.49	19.6543
1395.7	181.891
1399.92	104.801
1404.13	148.352
1408.34	92.1611
1412.54	124.242
1416.74	121.231
1420.94	169.291
1425.14	94.9863
1429.34	217.555
1433.53	261.103
1437.72	96.0098
1441.9	145.138
1446.09	357.095
1450.27	349.122
1454.45	274.356
1458.63	65.2647
1462.8	288.265
1466.97	255.456
1471.14	257.383
1475.31	170.46
1479.47	272.995
1483.63	290.175
1487.79	256.306
1491.94	171.673
1496.09	196.728
1500.24	72.3516
1504.39	252.69
1508.54	192.585
1512.68	127.136
1516.82	234.898
1520.95	66.8125
1525.09	145.968
1529.22	179.246
1533.35	111.974
1537.47	94.0459
1541.6	65.5644
1545.72	202.404
1549.83	35.2529
1553.95	86.8262
1558.06	135.143
1562.17	5.09961
1566.28	111.65
1570.38	50.293
