Measurement: Raman, 514 nm, ccw, Raman Data Processed
Mineral: Edenite
Rruff sample: R050415
Ideal chemistry: NaCa_2_Mg_5_(Si_7_Al)O_22_(OH)_2_
Locality: Mogok, Burma
Source: Marcus Origlieri
Description: Transparent pale green water worn fragment
Measured chemistry: (Na_0.83_K_0.17_)(Ca_1.76_Na_0.24_)_=2_(Mg_4.54_Al_0.40_Fe^3+^_0.06_)_=5_(Si_6.74_Al_1.26_)O_22_((OH)_0.52_F_0.48_)_2_
Pin_id: L01772
Orientation: Laser parallel to (-1 0 -1). Fiducial mark perpendicular to laser is parallel to b [0 1 0]
Raman shift (cm-1)	intensity
108.28	0
113.208	386.685
118.134	2367.96
123.058	2687.09
127.979	632.287
132.898	23.9658
137.814	20.4082
142.728	337.286
147.639	171.826
152.549	337.24
157.455	1287.44
162.359	4447.38
167.261	5723.63
172.161	2981.83
177.058	2010.52
181.952	1808.19
186.845	1495.15
191.734	971.77
196.622	770.153
201.507	1194.65
206.389	1736.68
211.269	2821.84
216.147	4552.97
221.022	6718.15
225.895	9970.64
230.765	14213.7
235.633	19517.1
240.498	19270
245.361	15512
250.222	12103.3
255.08	8102.11
259.936	5354.18
264.789	2948.54
269.64	1614.92
274.488	1025.64
279.334	624.393
284.178	516.398
289.019	473.28
293.857	480.906
298.693	658.612
303.527	875.042
308.358	1281.38
313.187	1946.63
318.013	2690.65
322.837	2635.29
327.659	2042.9
332.478	1741.25
337.294	1602.83
342.108	1864.38
346.92	2248.17
351.729	2631.17
356.535	3102.31
361.34	3866.54
366.141	4611.8
370.94	5276.01
375.737	5762.11
380.531	6130.06
385.323	7150.81
390.113	8339.31
394.9	7724.52
399.684	5627.43
404.466	4155.37
409.245	3480.35
414.022	3783.29
418.797	4545.58
423.569	5277.51
428.338	5042.75
433.105	4263.69
437.87	2616.7
442.632	1331.01
447.391	636.227
452.149	148.246
456.903	68.0625
461.655	39.9922
466.405	68.2031
471.152	291.746
475.897	27.998
480.639	50.6113
485.378	217.199
490.116	359.815
494.85	71.4805
499.582	476.092
504.312	1113.7
509.039	1902.29
513.764	3093.7
518.486	3670.03
523.206	3628.21
527.923	3292.22
532.638	2504.98
537.35	1601.48
542.059	1122.74
546.766	548.162
551.471	225.316
556.173	7
560.873	51.1074
565.57	40.875
570.264	99.8613
574.957	85.1523
579.646	165.586
584.333	135.234
589.018	345.842
593.7	143.613
598.379	135.334
603.056	16.1543
607.73	30.9551
612.402	425.197
617.072	530.777
621.739	821
626.403	1303.8
631.065	1707.99
635.724	2698.38
640.381	3879.04
645.035	5167.53
649.687	7362.59
654.336	9667.88
658.983	12984.2
663.627	18225.3
668.268	26453
672.907	32910.7
677.544	30449.6
682.178	21156.2
686.809	12692.1
691.438	7460.47
696.065	4590.52
700.688	3151.9
705.31	2095.33
709.929	1586.13
714.545	1047.38
719.158	1178.28
723.77	1210.69
728.378	1193.42
732.984	1050.22
737.588	877.969
742.189	734.846
746.787	415.133
751.383	346.566
755.976	420.797
760.567	309.123
765.155	246.449
769.741	69.6465
774.324	50.6914
778.904	26.3047
783.482	0.599609
788.058	234.947
792.631	54.4785
797.201	186.834
801.769	131.879
806.334	58.1797
810.897	89.2422
815.457	81.3047
820.014	178.955
824.569	28.793
829.122	17.4316
833.671	8.9668
838.219	95.7969
842.763	110.01
847.306	144.402
851.845	136.941
856.382	396.324
860.917	200.336
865.448	164.033
869.978	246.832
874.505	203.31
879.029	534.684
883.55	583.066
888.069	790.371
892.586	1198.36
897.1	1551.27
901.611	1806.56
906.12	2183.03
910.626	2675.14
915.129	3199.49
919.63	3552.55
924.129	3543.62
928.625	3554.91
933.118	3040.59
937.609	2880.94
942.097	2655.97
946.582	2497.23
951.065	2543.97
955.546	2270.19
960.023	2234.45
964.499	2438.44
968.971	2327.89
973.441	2210.64
977.909	2672.04
982.374	2773.27
986.836	3258.41
991.295	4453.52
995.753	5178.85
1000.21	6094.48
1004.66	7288.55
1009.11	7904.78
1013.55	8075.64
1018	8212.48
1022.44	8246.64
1026.88	8043.47
1031.32	8355.27
1035.75	8997.1
1040.18	9168.52
1044.61	8750.61
1049.04	8006.25
1053.46	7220.23
1057.88	6618.96
1062.3	5937.24
1066.71	5782.48
1071.13	5016.18
1075.54	4242.09
1079.94	3083.5
1084.35	2243.02
1088.75	1746.88
1093.15	1336.97
1097.55	899.584
1101.94	930.641
1106.34	491.748
1110.73	645.631
1115.11	799.527
1119.5	890.547
1123.88	1127.05
1128.26	541.611
1132.63	174.955
1137.01	119.988
1141.38	73.4316
1145.75	77.1211
1150.12	184
1154.48	55.3438
1158.84	148.156
1163.2	19.6445
1167.55	19.7773
1171.91	12.0508
1176.26	62.1172
1180.61	60.5
1184.95	117.809
1189.29	95.3594
1193.63	24.3984
1197.97	26.8555
1202.31	135.301
1206.64	220.106
1210.97	250.023
1215.29	143.918
1219.62	214.559
1223.94	179.445
1228.26	162.008
1232.57	108.922
1236.89	167.043
1241.2	399.465
1245.51	396.981
1249.81	232.535
1254.12	331.031
1258.42	301.324
1262.72	360.391
1267.01	422.629
1271.3	430.414
1275.59	320.883
1279.88	449.438
1284.17	427.109
1288.45	243.273
1292.73	138.019
1297.01	410.715
1301.28	441.527
1305.55	504.922
1309.82	636.707
1314.09	560.812
1318.35	297.246
1322.61	762.625
1326.87	722.801
1331.13	413.324
1335.38	362.07
1339.63	503.004
1343.88	517.07
1348.12	486.082
1352.37	644.871
1356.61	302.43
1360.85	209.641
1365.08	195.043
1369.31	532.293
1373.54	110.613
1377.77	472.848
1381.99	117.273
1386.22	386.356
1390.43	362.695
1394.65	324.242
1398.87	513.93
1403.08	130.109
1407.29	41.7734
1411.49	102.168
1415.69	90.2305
1419.89	296.219
1424.09	89.1523
1428.29	421.262
1432.48	105.473
1436.67	43.1562
1440.86	141.723
1445.04	163.91
1449.23	42.3047
1453.4	167.484
1457.58	342.262
1461.76	375.227
1465.93	280.043
1470.1	498.445
1474.26	309.82
1478.43	464.5
1482.59	471.582
1486.75	514.797
1490.9	186.031
1495.06	317.262
1499.21	126.797
1503.35	398.641
1507.5	332.391
1511.64	540.289
1515.78	378.269
1519.92	471.383
1524.05	552.019
1528.18	464.93
1532.31	145.828
1536.44	125.719
1540.56	548.949
1544.69	139.289
1548.8	5.08984
1552.92	164.035
1557.03	254.25
1561.14	292.93
1565.25	134.586
1569.36	277.582
