Measurement: Raman, 514 nm, ccw, Raman Data Processed
Mineral: Edenite
Rruff sample: R050415
Ideal chemistry: NaCa_2_Mg_5_(Si_7_Al)O_22_(OH)_2_
Locality: Mogok, Burma
Source: Marcus Origlieri
Description: Transparent pale green water worn fragment
Measured chemistry: (Na_0.83_K_0.17_)(Ca_1.76_Na_0.24_)_=2_(Mg_4.54_Al_0.40_Fe^3+^_0.06_)_=5_(Si_6.74_Al_1.26_)O_22_((OH)_0.52_F_0.48_)_2_
Pin_id: L01094
Orientation: Laser parallel to b* (0 1 0). Fiducial mark perpendicular to laser is parallel to -c [0 0 -1]
Raman shift (cm-1)	intensity
93.48	0
98.416	247.051
103.349	1168.62
108.28	3707.55
113.208	4932.85
118.134	5981.75
123.058	4340
127.979	1915.28
132.898	630.737
137.814	307.503
142.728	90.0244
147.639	74.5654
152.549	26.7461
157.455	14.2715
162.359	648.377
167.261	1197.82
172.161	1761.47
177.058	2534.16
181.952	3836.34
186.845	4100.97
191.734	2723.09
196.622	1805.79
201.507	1710.65
206.389	1801.07
211.269	2860.31
216.147	4611.93
221.022	7687.39
225.895	10495.6
230.765	10355.4
235.633	10067.5
240.498	9473.07
245.361	7614.5
250.222	5795.43
255.08	3903.94
259.936	2986.42
264.789	1402.41
269.64	1016.9
274.488	796.125
279.334	849.506
284.178	1167.81
289.019	1730.31
293.857	2441.07
298.693	2889.07
303.527	2862.8
308.358	2667.44
313.187	2857.37
318.013	3489.63
322.837	3485.08
327.659	3139.64
332.478	2894.52
337.294	2285.16
342.108	1874.24
346.92	1695.36
351.729	1609.65
356.535	2100.56
361.34	2976.97
366.141	4042.79
370.94	3979.75
375.737	3759.82
380.531	3628.97
385.323	4227.22
390.113	5021.01
394.9	5172.27
399.684	4347.89
404.466	3027.79
409.245	2235.91
414.022	1564.22
418.797	1601.69
423.569	1479.4
428.338	1160.66
433.105	703.601
437.87	296.892
442.632	139.859
447.391	151.816
452.149	78.7481
456.903	25.6191
461.655	116.713
466.405	75.8291
471.152	153.719
475.897	181.185
480.639	153.641
485.378	120.106
490.116	56.8203
494.85	106.198
499.582	3.15137
504.312	163.605
509.039	334.657
513.764	655.375
518.486	843.38
523.206	870.937
527.923	998.567
532.638	894.759
537.35	651.417
542.059	876.631
546.766	563.439
551.471	497.729
556.173	491.399
560.873	272.43
565.57	328.793
570.264	349.6
574.957	155.758
579.646	171.168
584.333	333.989
589.018	302.052
593.7	342.388
598.379	294.198
603.056	523.174
607.73	602.299
612.402	868.581
617.072	951.048
621.739	1238.3
626.403	1818.27
631.065	2531.32
635.724	3272.28
640.381	4458.31
645.035	5934.23
649.687	7931.26
654.336	10769.5
658.983	14600.9
663.627	21237.5
668.268	31568.8
672.907	40536.7
677.544	39377.9
682.178	28789.6
686.809	17999.4
691.438	11368.6
696.065	7602.43
700.688	4902.47
705.31	3477.45
709.929	2450.47
714.545	1530.37
719.158	1206.38
723.77	1043.05
728.378	823.707
732.984	662.619
737.588	472.785
742.189	287.801
746.787	284.433
751.383	159.786
755.976	53.958
760.567	54.0234
765.155	30.2646
769.741	76.2607
774.324	32.4863
778.904	39.5234
783.482	91.4228
788.058	6.38672
792.631	180.617
797.201	92.5098
801.769	92.5508
806.334	87.7519
810.897	49.1543
815.457	95.793
820.014	110.463
824.569	47.7598
829.122	172.164
833.671	142.49
838.219	130.191
842.763	130.258
847.306	33.4375
851.845	17.0371
856.382	100.221
860.917	44.6875
865.448	57.9453
869.978	53.6523
874.505	63.584
879.029	332.992
883.55	535.346
888.069	610.393
892.586	1276.79
897.1	1282.57
901.611	1358.8
906.12	1942.19
910.626	2175.31
915.129	2717.42
919.63	3113.02
924.129	3118.49
928.625	2831.85
933.118	2446.43
937.609	2378.38
942.097	2021.76
946.582	1746.52
951.065	1919.34
955.546	1785.43
960.023	1759.81
964.499	1851.2
968.971	1795.56
973.441	1690.74
977.909	1591.15
982.374	1839.54
986.836	1945.36
991.295	2474.21
995.753	3061.61
1000.21	3713.17
1004.66	4331.68
1009.11	4810.11
1013.55	4957.83
1018	4765.64
1022.44	4836.22
1026.88	4866.4
1031.32	5292.14
1035.75	5540.73
1040.18	6105.25
1044.61	6253.5
1049.04	5664.68
1053.46	5598.36
1057.88	5279.91
1062.3	5101.64
1066.71	5161.28
1071.13	4442.88
1075.54	3582.22
1079.94	2719.44
1084.35	2038.49
1088.75	1505.2
1093.15	1167.28
1097.55	880.731
1101.94	652.09
1106.34	536.051
1110.73	606.186
1115.11	639.727
1119.5	1410.55
1123.88	1271.5
1128.26	649.769
1132.63	439.324
1137.01	242.422
1141.38	160.312
1145.75	185.846
1150.12	219.963
1154.48	133.065
1158.84	21.5371
1163.2	8.55273
1167.55	96.9492
1171.91	13.8945
1176.26	26.8301
1180.61	7.44531
1184.95	78.1289
1189.29	148.887
1193.63	122.721
1197.97	76.2617
1202.31	40.2109
1206.64	227
1210.97	149.43
1215.29	62.4551
1219.62	54.4785
1223.94	203.01
1228.26	131.685
1232.57	358.859
1236.89	183.856
1241.2	217.566
1245.51	513.783
1249.81	290.193
1254.12	279.215
1258.42	221.596
1262.72	439.592
1267.01	289.824
1271.3	374.809
1275.59	599.217
1279.88	380.08
1284.17	528.752
1288.45	271.502
1292.73	451.279
1297.01	438.832
1301.28	182.106
1305.55	514.436
1309.82	415.367
1314.09	513.299
1318.35	490.379
1322.61	485.391
1326.87	409.32
1331.13	508.393
1335.38	240.062
1339.63	442.037
1343.88	242.016
1348.12	556.289
1352.37	374.357
1356.61	390.648
1360.85	218.812
1365.08	317.215
1369.31	342.844
1373.54	260.023
1377.77	322.496
1381.99	265.836
1386.22	222.519
1390.43	264.418
1394.65	131.785
1398.87	26.5234
1403.08	67.4648
1407.29	244.219
1411.49	34.4258
1415.69	79.4883
1419.89	78.0234
1424.09	75.9453
1428.29	89.543
1432.48	5.93359
1436.67	72.0625
1440.86	218.894
1445.04	280.594
1449.23	192.707
1453.4	330.062
1457.58	181.75
1461.76	209.731
1465.93	375.742
1470.1	301.234
1474.26	439.836
1478.43	459.586
1482.59	554.75
1486.75	438.219
1490.9	355.019
1495.06	181.668
1499.21	416.812
1503.35	71.2266
1507.5	491.715
1511.64	239.797
1515.78	406.004
1519.92	430.273
1524.05	258.922
1528.18	155.84
1532.31	337.129
1536.44	548.625
1540.56	325.805
1544.69	205.742
1548.8	87.2031
1552.92	272.762
1557.03	290.977
1561.14	153.07
1565.25	242.41
1569.36	159.691
