Measurement: Raman, 514 nm, ccw, Raman Data Processed
Mineral: Edenite
Rruff sample: R050415
Ideal chemistry: NaCa_2_Mg_5_(Si_7_Al)O_22_(OH)_2_
Locality: Mogok, Burma
Source: Marcus Origlieri
Description: Transparent pale green water worn fragment
Measured chemistry: (Na_0.83_K_0.17_)(Ca_1.76_Na_0.24_)_=2_(Mg_4.54_Al_0.40_Fe^3+^_0.06_)_=5_(Si_6.74_Al_1.26_)O_22_((OH)_0.52_F_0.48_)_2_
Pin_id: L01772
Orientation: Laser parallel to (-1 0 -1). Fiducial mark perpendicular to laser is parallel to b [0 1 0]
Raman shift (cm-1)	intensity
108.28	0
113.208	235.714
118.134	1042.89
123.058	1327.39
127.979	192.666
132.898	84.7051
137.814	456.303
142.728	1379.99
147.639	535.164
152.549	171.462
157.455	596.182
162.359	1638.73
167.261	2770.62
172.161	2582.54
177.058	2666.68
181.952	3307.12
186.845	2885.46
191.734	1968.31
196.622	1451.17
201.507	1658.62
206.389	2223.66
211.269	3632.81
216.147	6070.38
221.022	9629.16
225.895	12511.8
230.765	10584.7
235.633	7591.75
240.498	5899.47
245.361	4021.81
250.222	2715.7
255.08	1876.36
259.936	1541.26
264.789	481.209
269.64	1.01367
274.488	227.4
279.334	134.609
284.178	554.188
289.019	778.682
293.857	1227.79
298.693	1332.69
303.527	1589.81
308.358	1627.01
313.187	2238.14
318.013	2899.94
322.837	2949.91
327.659	2663.86
332.478	2123.96
337.294	2008.38
342.108	1554.83
346.92	1444.25
351.729	1620.51
356.535	1964.19
361.34	2425.9
366.141	2457.92
370.94	2653.84
375.737	2297.69
380.531	1909.44
385.323	1723.06
390.113	2098.53
394.9	2026.82
399.684	1492.98
404.466	962.422
409.245	686.627
414.022	354.883
418.797	341.352
423.569	220.721
428.338	358.26
433.105	144.004
437.87	7.30273
442.632	36.5098
447.391	67.4375
452.149	0.78125
456.903	88.6191
461.655	75.4141
466.405	62.2871
471.152	72.8809
475.897	156.986
480.639	132.09
485.378	21.8301
490.116	4.10156
494.85	241.066
499.582	470.58
504.312	631.881
509.039	1126.85
513.764	1675.58
518.486	1736.92
523.206	1568.76
527.923	1342.09
532.638	1125.9
537.35	1097.19
542.059	719.016
546.766	432.463
551.471	633.287
556.173	458.434
560.873	345.861
565.57	237.572
570.264	370.545
574.957	381.926
579.646	450.111
584.333	457.779
589.018	223.115
593.7	510.58
598.379	438.809
603.056	572.615
607.73	804.959
612.402	901.836
617.072	1275.96
621.739	1686.85
626.403	2086.86
631.065	2846.3
635.724	3847.77
640.381	4455.7
645.035	5794.39
649.687	7517.65
654.336	9445.62
658.983	12701.4
663.627	17863.4
668.268	25082.1
672.907	30284.4
677.544	28141.3
682.178	19710.8
686.809	12204.5
691.438	7323.98
696.065	4649.17
700.688	3154.48
705.31	1931.34
709.929	1502.22
714.545	926.09
719.158	701.207
723.77	702.744
728.378	640.877
732.984	403.59
737.588	440.557
742.189	361.147
746.787	329.455
751.383	91.8086
755.976	46.9629
760.567	2.79883
765.155	207.227
769.741	194.141
774.324	99.4102
778.904	71.2598
783.482	319.76
788.058	138.336
792.631	89.2598
797.201	50.9844
801.769	112.932
806.334	56.0938
810.897	1.54688
815.457	33.1035
820.014	280.721
824.569	143.389
829.122	251.481
833.671	34.041
838.219	6.07227
842.763	159.414
847.306	77.3633
851.845	85.8359
856.382	41.5215
860.917	36.5527
865.448	157.09
869.978	65.2227
874.505	207.633
879.029	162.809
883.55	467.4
888.069	1024.38
892.586	1134.55
897.1	1312.83
901.611	1573.25
906.12	1958.71
910.626	2430.06
915.129	2755.09
919.63	3174.38
924.129	2998.63
928.625	2877.28
933.118	2874.37
937.609	2329.65
942.097	2220.77
946.582	2161.05
951.065	1924.09
955.546	1936.18
960.023	1678.68
964.499	1602.62
968.971	1641.62
973.441	1565.52
977.909	1830.19
982.374	1768.91
986.836	1920.32
991.295	2250.3
995.753	2698.46
1000.21	3417.86
1004.66	4100.15
1009.11	4379.39
1013.55	4726.45
1018	4726.83
1022.44	4887.78
1026.88	5149.83
1031.32	5230.96
1035.75	5593.18
1040.18	5918.95
1044.61	5981.19
1049.04	6230.5
1053.46	6135.64
1057.88	6431.3
1062.3	7038.28
1066.71	6668.16
1071.13	6273.61
1075.54	4719
1079.94	3539.88
1084.35	2102.56
1088.75	1707.76
1093.15	1217.97
1097.55	825.422
1101.94	771.508
1106.34	468.574
1110.73	490.402
1115.11	645.801
1119.5	807.75
1123.88	1138.56
1128.26	621.992
1132.63	87.7422
1137.01	205.156
1141.38	73.1289
1145.75	34.6094
1150.12	165.516
1154.48	170.641
1158.84	91.8906
1163.2	40.2617
1167.55	24.5156
1171.91	13.6289
1176.26	65.3828
1180.61	14.7344
1184.95	124.555
1189.29	53.8789
1193.63	224.543
1197.97	59.543
1202.31	249.148
1206.64	196.356
1210.97	26
1215.29	322.859
1219.62	146.539
1223.94	130.246
1228.26	187.758
1232.57	126.941
1236.89	417.129
1241.2	311.504
1245.51	386.945
1249.81	324.609
1254.12	242.512
1258.42	281.199
1262.72	177.285
1267.01	354.664
1271.3	391.398
1275.59	355.156
1279.88	382.922
1284.17	574.543
1288.45	311.441
1292.73	40.957
1297.01	379.746
1301.28	495.777
1305.55	285.762
1309.82	167.891
1314.09	221.562
1318.35	353.691
1322.61	191.492
1326.87	437.496
1331.13	215.363
1335.38	446.484
1339.63	282.684
1343.88	305.477
1348.12	450.133
1352.37	137.828
1356.61	299.418
1360.85	8.25391
1365.08	405.606
1369.31	182.266
1373.54	261.887
1377.77	393.106
1381.99	191.231
1386.22	221.633
1390.43	175.379
1394.65	41.2109
1398.87	89.4844
1403.08	22.3789
1407.29	95.1172
1411.49	115.234
1415.69	148
1419.89	130.117
1424.09	8.07812
1428.29	122.113
1432.48	168.066
1436.67	107.121
1440.86	219.445
1445.04	145.551
1449.23	208.711
1453.4	158.613
1457.58	360.32
1461.76	342.91
1465.93	292.594
1470.1	282.602
1474.26	133.402
1478.43	250.238
1482.59	479.922
1486.75	480.066
1490.9	334.414
1495.06	221.231
1499.21	10.1953
1503.35	416.711
1507.5	331.867
1511.64	133.258
1515.78	234.148
1519.92	233.867
1524.05	513.883
1528.18	480.086
1532.31	103.648
1536.44	254.449
1540.56	180.91
1544.69	302.551
1548.8	252.754
1552.92	212.168
1557.03	254.781
1561.14	155.414
1565.25	71.625
1569.36	260.367
