Measurement: Raman, 514 nm, ccw, Raman Data Processed
Mineral: Edenite
Rruff sample: R050415
Ideal chemistry: NaCa_2_Mg_5_(Si_7_Al)O_22_(OH)_2_
Locality: Mogok, Burma
Source: Marcus Origlieri
Description: Transparent pale green water worn fragment
Measured chemistry: (Na_0.83_K_0.17_)(Ca_1.76_Na_0.24_)_=2_(Mg_4.54_Al_0.40_Fe^3+^_0.06_)_=5_(Si_6.74_Al_1.26_)O_22_((OH)_0.52_F_0.48_)_2_
Pin_id: L01772
Orientation: Laser parallel to (-1 0 -1). Fiducial mark perpendicular to laser is parallel to b [0 1 0]
Raman shift (cm-1)	intensity
108.28	0
113.208	434.22
118.134	2110.1
123.058	2531.07
127.979	498.072
132.898	150.163
137.814	278.816
142.728	1516.81
147.639	436.452
152.549	278.562
157.455	783.902
162.359	2272.34
167.261	3237.82
172.161	2703.98
177.058	2450.97
181.952	2776.94
186.845	2748.16
191.734	1738.34
196.622	1154.18
201.507	1460.12
206.389	1601.96
211.269	2906.04
216.147	5129.74
221.022	9096.52
225.895	12282
230.765	11605.4
235.633	9551.61
240.498	7946.52
245.361	5873.02
250.222	4216.05
255.08	2754.14
259.936	1703.72
264.789	489.547
269.64	232.738
274.488	10.9385
279.334	104.787
284.178	246.789
289.019	602.775
293.857	906.38
298.693	1302.41
303.527	1479.64
308.358	1594.51
313.187	2110.27
318.013	2942.55
322.837	2934
327.659	2793.91
332.478	2340
337.294	2207.31
342.108	2111.34
346.92	2208.54
351.729	2514.85
356.535	2899
361.34	3240.31
366.141	3695.66
370.94	3484
375.737	3068.25
380.531	2894.4
385.323	2949.42
390.113	2965.29
394.9	2792.99
399.684	2319.55
404.466	1547.28
409.245	1101.17
414.022	970.318
418.797	936.139
423.569	872.847
428.338	712.466
433.105	620.96
437.87	345.53
442.632	220.773
447.391	49.167
452.149	2.62695
456.903	129.197
461.655	83.6113
466.405	170.102
471.152	140.574
475.897	94.2314
480.639	16.1758
485.378	14.0898
490.116	163.279
494.85	204.07
499.582	681.539
504.312	1253.58
509.039	2272.23
513.764	2958.31
518.486	2743.8
523.206	2381.75
527.923	1881.38
532.638	1954.62
537.35	930.41
542.059	986.639
546.766	553.396
551.471	435.551
556.173	277.982
560.873	88.6269
565.57	76.375
570.264	171.031
574.957	151.746
579.646	185.449
584.333	374.238
589.018	265.074
593.7	276.727
598.379	490.41
603.056	375.254
607.73	646.594
612.402	914.477
617.072	1098.75
621.739	1458.58
626.403	2027.19
631.065	2609.69
635.724	3676.03
640.381	4773.43
645.035	6313.03
649.687	7863.99
654.336	10595
658.983	13229.2
663.627	18413.6
668.268	26188
672.907	32360.4
677.544	30311.9
682.178	21436.2
686.809	13079.6
691.438	7639.66
696.065	4889.64
700.688	3129.08
705.31	2222.56
709.929	1403.57
714.545	1249.64
719.158	956.029
723.77	983.162
728.378	758.133
732.984	751.125
737.588	511.434
742.189	358.346
746.787	433.269
751.383	238.93
755.976	195.053
760.567	47.3477
765.155	2.69336
769.741	27.7754
774.324	35.7051
778.904	128.445
783.482	44.2598
788.058	149.838
792.631	15.4629
797.201	43.9141
801.769	38.4766
806.334	145.594
810.897	4.11914
815.457	154.086
820.014	75.7871
824.569	11.998
829.122	29.8125
833.671	69.5957
838.219	9.03906
842.763	73.6211
847.306	71.0156
851.845	20.2168
856.382	42.7676
860.917	167.031
865.448	169.014
869.978	60.3047
874.505	148.75
879.029	236.299
883.55	528.299
888.069	930.082
892.586	1036.8
897.1	1602.87
901.611	1616.8
906.12	2281.37
910.626	2686.25
915.129	3087.85
919.63	3331.76
924.129	3367.11
928.625	3182.03
933.118	2968.3
937.609	2465.14
942.097	2404.92
946.582	2217.31
951.065	2288.57
955.546	1971.36
960.023	2021.23
964.499	1914.89
968.971	1774.41
973.441	1930.15
977.909	1979.4
982.374	2258.66
986.836	2447.78
991.295	2982.52
995.753	3213.35
1000.21	4185.87
1004.66	5091.35
1009.11	5507.24
1013.55	5774.74
1018	5719.16
1022.44	6179.13
1026.88	5982.9
1031.32	6168.96
1035.75	6639.84
1040.18	6656.74
1044.61	6850.04
1049.04	6779.7
1053.46	6763.36
1057.88	6906.11
1062.3	7304.1
1066.71	7197.57
1071.13	6383.68
1075.54	4873.41
1079.94	3621.82
1084.35	2490.98
1088.75	1779.69
1093.15	1337.78
1097.55	1197.39
1101.94	759.979
1106.34	613.76
1110.73	370.685
1115.11	472.139
1119.5	421.977
1123.88	445.777
1128.26	408.926
1132.63	306.285
1137.01	105.516
1141.38	4.70312
1145.75	57.8828
1150.12	208.59
1154.48	6.92969
1158.84	16.3242
1163.2	81.7344
1167.55	70.6914
1171.91	21.7812
1176.26	170.519
1180.61	25.6133
1184.95	86.9258
1189.29	131.793
1193.63	118.691
1197.97	26.6953
1202.31	101.973
1206.64	79.6914
1210.97	230.715
1215.29	256.777
1219.62	113.043
1223.94	203.164
1228.26	104.949
1232.57	247.211
1236.89	222.066
1241.2	231.144
1245.51	307.703
1249.81	351.949
1254.12	339.09
1258.42	429.715
1262.72	318.66
1267.01	499.066
1271.3	330.832
1275.59	438.184
1279.88	426.277
1284.17	631.535
1288.45	263.812
1292.73	354.281
1297.01	487.535
1301.28	234.914
1305.55	434.586
1309.82	395.277
1314.09	291.262
1318.35	459.508
1322.61	352.633
1326.87	369.207
1331.13	505.91
1335.38	214.106
1339.63	438.91
1343.88	303.711
1348.12	33.1641
1352.37	595.344
1356.61	484.613
1360.85	332.352
1365.08	286.602
1369.31	248.731
1373.54	382.43
1377.77	203.262
1381.99	290.652
1386.22	38.2461
1390.43	240.644
1394.65	245.637
1398.87	267.223
1403.08	213.805
1407.29	260.742
1411.49	17.6875
1415.69	103.406
1419.89	323.344
1424.09	227.387
1428.29	288.027
1432.48	237.438
1436.67	124.906
1440.86	50.3789
1445.04	307.059
1449.23	389.492
1453.4	311.793
1457.58	130.066
1461.76	284.773
1465.93	380.602
1470.1	169.734
1474.26	316.211
1478.43	220.231
1482.59	201.055
1486.75	224.519
1490.9	181.488
1495.06	379.801
1499.21	450.191
1503.35	485.566
1507.5	570.457
1511.64	222.031
1515.78	428.973
1519.92	313.516
1524.05	296.215
1528.18	417.117
1532.31	505.266
1536.44	459.281
1540.56	629.406
1544.69	227.172
1548.8	599.664
1552.92	60.1875
1557.03	42.5703
1561.14	291.406
1565.25	164.445
1569.36	136.043
