Measurement: Raman, 514 nm, ccw, Raman Data Processed
Mineral: Edenite
Rruff sample: R060029
Ideal chemistry: NaCa_2_Mg_5_(Si_7_Al)O_22_(OH)_2_
Locality: Renfrew County, Ontario, Canada
Source: University of Arizona Mineral Museum
Description: Black prismatic
Measured chemistry: (Na_0.62_K_0.34_[box]_0.04_)(Ca_0.86_Na_0.14_)_2_(Mg_0.57_Fe^2+^_0.30_Fe^3+^_0.07_Al_0.05_Ti_0.01_Mn_0.01_)_5_(Si_6.61_Al_1.39_)O_22_((OH)_0.69_F_0.31_)_2_
Pin_id: M00136
Orientation: Laser parallel to b* (0 1 0). Fiducial mark perpendicular to laser is parallel to c [0 0 1]
Raman shift (cm-1)	intensity
257.508	0
261.149	66.5752
264.789	213.152
268.427	37.7998
272.064	216.515
275.7	780.281
279.334	904.169
282.967	1062.88
286.598	1172.8
290.229	1401.75
293.857	1317.1
297.485	920.766
301.111	925.028
304.735	725.063
308.358	619.587
311.98	580.172
315.601	436.525
319.22	381.501
322.837	179.015
326.454	267.14
330.068	65.1572
333.682	210.467
337.294	348.859
340.905	554.496
344.514	842.398
348.122	1431.78
351.729	2051.59
355.334	2438.76
358.938	2501.05
362.54	2572.41
366.141	2449.18
369.741	2390.22
373.339	2255.26
376.936	1689.45
380.531	1549.2
384.126	1091.17
387.718	952.242
391.31	614.962
394.9	405.944
398.488	224.208
402.075	101.084
405.661	24.1768
409.245	94.5928
412.828	40.7197
416.41	516.248
419.99	343.373
423.569	465.537
427.146	483.661
430.722	468.683
434.297	311.534
437.87	284.166
441.442	283.022
445.012	254.293
448.581	227.234
452.149	74.3457
455.715	108.834
459.28	111.417
462.843	7.92188
466.405	109.692
469.965	17.2031
473.525	133.116
477.082	111.154
480.639	179.089
484.194	351.934
487.747	573.18
491.3	735.917
494.85	979.191
498.4	1224.71
501.948	1607.55
505.494	1720.47
509.039	2139.95
512.583	2584.39
516.125	2686.26
519.666	3221.68
523.206	3456.65
526.744	3739.16
530.281	3718.24
533.816	3769.88
537.35	3553.09
540.882	3301.87
544.413	3217.06
547.943	2978.31
551.471	2895.03
554.998	2795.95
558.523	2506.8
562.047	2199.96
565.57	2043.2
569.091	1576.22
572.611	1465.76
576.129	964.814
579.646	580.195
583.162	502.114
586.676	18.1475
590.188	87.126
593.7	78.4609
597.209	161.798
600.718	38.0898
604.225	54.8525
607.73	17.8252
611.235	93.2803
614.737	228.903
618.239	291.64
621.739	546.47
625.237	820.556
628.734	1012.87
632.23	1310.79
635.724	1709.01
639.217	2273.91
642.708	2766.44
646.198	3366.6
649.687	4313.41
653.174	5427.88
656.66	7050.03
660.144	8811.86
663.627	10360.4
667.108	10298.6
670.588	9099.53
674.067	7467.85
677.544	5884.52
681.02	4585.64
684.494	3772.68
687.967	3048.04
691.438	2746.7
694.908	2441.54
698.377	2366.97
701.844	2557.83
705.31	2609.76
708.774	2999.42
712.237	3290
715.698	3464.55
719.158	3536.85
722.617	3572.98
726.074	3515.98
729.53	3232.05
732.984	3171.32
736.437	2719.91
739.888	2413.83
743.338	1976.46
746.787	1492.64
750.234	1131.5
753.68	1003.18
757.124	862.948
760.567	777.271
764.008	748.399
767.448	672.617
770.887	909.51
774.324	803.044
777.759	736.273
781.194	847.526
784.626	922.816
788.058	743.622
791.488	538.474
794.916	595.023
798.343	449.878
801.769	436.932
805.193	339.027
808.616	261.063
812.037	245.464
815.457	117.673
818.875	159.357
822.292	87.8916
825.707	43.1172
829.122	160.764
832.534	172.861
835.945	181.549
839.355	276.913
842.763	78.8721
846.17	45.3975
849.576	95.4883
852.98	205.606
856.382	195.965
859.783	366.598
863.183	536.621
866.581	667.019
869.978	814.156
873.373	892.059
876.767	952.854
880.159	1125.21
883.55	1377.08
886.94	1499.37
890.328	1585.04
893.714	1668.07
897.1	1854.44
900.483	1879.15
903.866	2020.21
907.246	2104.68
910.626	2288.53
914.004	2453.84
917.38	2437.55
920.755	2569.7
924.129	2596.05
927.501	2339.33
930.872	2309.74
934.241	2149.73
937.609	2135.34
940.975	2098.44
944.34	2084.03
947.703	1931.12
951.065	1988.67
954.426	1950.04
957.785	1875.63
961.142	1941.58
964.499	1798.42
967.853	1708.73
971.207	1681.81
974.558	1760.75
977.909	1764
981.258	2032.88
984.605	2020.38
987.951	2087.65
991.295	2183.26
994.639	2567.17
997.98	2639.59
1001.32	2985.44
1004.66	2963.71
1008	3308.38
1011.33	3240.44
1014.67	3316.89
1018	3401.05
1021.33	3239.22
1024.66	3250.58
1027.99	3228.38
1031.32	3188.25
1034.64	3325.02
1037.97	3153.14
1041.29	3031.15
1044.61	3122.93
1047.93	2978.25
1051.25	3172.93
1054.56	3028.45
1057.88	2842.4
1061.19	3251.4
1064.51	2682.17
1067.82	2388.03
1071.13	2342.8
1074.43	2164.45
1077.74	1926.13
1081.05	1905.61
1084.35	1877.95
1087.65	1809.71
1090.95	1502.41
1094.25	1459.05
1097.55	1351.07
1100.85	1255.77
1104.14	1212.71
1107.43	964.624
1110.73	844.983
1114.02	789.424
1117.31	885.783
1120.59	939.674
1123.88	918.611
1127.16	616.514
1130.45	514.502
1133.73	294.891
1137.01	152.113
1140.29	305.618
1143.57	180.588
1146.84	49.1797
1150.12	151.99
1153.39	54.8018
1156.66	77.3008
1159.93	39.2695
1163.2	3.75781
1166.46	71.0518
1169.73	3.33398
1172.99	96.4981
1176.26	5.04199
1179.52	22.8115
1182.78	127.366
1186.04	9.65918
1189.29	78.8223
1192.55	18.833
1195.8	83.8828
1199.05	117.625
1202.31	2.04981
1205.55	37.4531
1208.8	73.1592
1212.05	30.8252
1215.29	60.8496
1218.54	174.319
1221.78	98.0518
1225.02	157.855
1228.26	118.7
1231.5	78.1025
1234.73	152.042
1237.97	41.877
1241.2	57.1924
1244.43	163.428
1247.66	91.3682
1250.89	226.331
1254.12	92.4541
1257.34	42.4492
1260.57	109.742
1263.79	123.698
1267.01	176.31
1270.23	220.895
1273.45	99.7197
1276.67	281.756
1279.88	147.436
1283.1	68.416
1286.31	215.374
1289.52	215.9
1292.73	197.634
1295.94	153.727
1299.14	197.825
1302.35	115.55
1305.55	208.358
1308.75	185.627
1311.95	131.718
1315.15	272.499
1318.35	180.974
1321.55	349.915
1324.74	193.938
1327.94	172.874
1331.13	113.133
1334.32	48.9668
1337.51	139.67
1340.69	85.8721
1343.88	141.767
1347.06	96.8691
1350.25	75.7324
1353.43	98.5342
1356.61	58.6699
1359.79	109.39
1362.96	72.2978
1366.14	187.414
1369.31	7.81641
1372.49	122.517
1375.66	7.2041
1378.83	105.769
1381.99	89.0273
1385.16	163.924
1388.33	178.475
1391.49	324.076
1394.65	156.837
1397.81	222.98
1400.97	89.5518
1404.13	102.393
1407.29	62.9424
1410.44	29.6367
1413.59	108.528
1416.74	166.102
1419.89	95.9365
1423.04	180.674
1426.19	129.531
1429.34	264.555
1432.48	239.059
1435.62	183.352
1438.77	231.276
1441.9	195.939
1445.04	13.2324
1448.18	139.315
1451.32	69.8662
1454.45	215.931
1457.58	236.795
1460.71	231.469
1463.84	151.968
1466.97	184.364
1470.1	197.481
1473.22	78.3066
1476.35	242.873
1479.47	151.998
1482.59	292.768
1485.71	157.702
1488.83	177.227
1491.94	178.304
1495.06	154.86
1498.17	141.206
1501.28	47.6035
1504.39	60.5762
1507.5	122.56
1510.61	126.231
1513.71	211.181
1516.82	56.2275
1519.92	131.434
1523.02	22.4736
1526.12	48.5498
1529.22	49.7451
1532.31	153.129
1535.41	108.672
1538.5	72.6973
1541.6	85.1318
1544.69	19.2852
1547.78	4.0293
1550.86	104.881
1553.95	75.7998
1557.03	198.477
1560.12	134.299
1563.2	1.74414
1566.28	84.7529
1569.36	6.77246
