Measurement: Raman, 514 nm, ccw, Raman Data Processed
Mineral: Edenite
Rruff sample: R060029
Ideal chemistry: NaCa_2_Mg_5_(Si_7_Al)O_22_(OH)_2_
Locality: Renfrew County, Ontario, Canada
Source: University of Arizona Mineral Museum
Description: Black prismatic
Measured chemistry: (Na_0.62_K_0.34_[box]_0.04_)(Ca_0.86_Na_0.14_)_2_(Mg_0.57_Fe^2+^_0.30_Fe^3+^_0.07_Al_0.05_Ti_0.01_Mn_0.01_)_5_(Si_6.61_Al_1.39_)O_22_((OH)_0.69_F_0.31_)_2_
Pin_id: L01054
Orientation: Laser parallel to -a* (-1 0 0). Fiducial mark perpendicular to laser is parallel to b [0 1 0]
Raman shift (cm-1)	intensity
192.956	0
197.843	84.5469
202.727	24.7881
207.609	57
212.489	179.33
217.366	711.083
222.24	1520.04
227.112	1968.91
231.982	1994.42
236.849	1347.62
241.714	878.49
246.577	452.835
251.437	163.019
256.294	80.6826
261.149	33.9512
266.002	41.9463
270.852	77.6436
275.7	253.836
280.545	227.705
285.388	397.348
290.229	536.137
295.067	722.943
299.902	518.19
304.735	642.525
309.566	395.703
314.394	390.231
319.22	231.242
324.043	249.067
328.864	297.275
333.682	293.437
338.498	296.47
343.311	326.659
348.122	478.769
352.931	559.764
357.737	691.682
362.54	839.956
367.341	896.629
372.14	934.133
376.936	952.965
381.73	812.794
386.521	694.769
391.31	516.019
396.096	526.931
400.88	403.101
405.661	474.306
410.44	260.85
415.216	613.16
419.99	878.24
424.761	1054.05
429.53	1092.51
434.297	1113.39
439.061	760.284
443.822	667.523
448.581	554.206
453.337	580.784
458.091	384.769
462.843	191.641
467.592	111.115
472.338	325.438
477.082	337.949
481.824	764.379
486.563	850.729
491.3	932.743
496.034	1504.45
500.765	1860.89
505.494	2225.09
510.221	2434.06
514.945	2591.84
519.666	2924.48
524.385	3208.01
529.102	3297.45
533.816	3354.78
538.527	3381.83
543.236	3358.28
547.943	3249.7
552.647	3143.32
557.348	2885.86
562.047	2743.55
566.744	2528.45
571.438	2306.57
576.129	1625.71
580.818	1057.73
585.504	368.655
590.188	10.3574
594.87	70.7119
599.549	22.0596
604.225	50.6543
608.899	182.032
613.57	205.414
618.239	115.262
622.905	264.551
627.569	484.6
632.23	546.417
636.889	699.006
641.545	1261.37
646.198	1689.51
650.849	1816.43
655.498	2821.14
660.144	3736.63
664.787	4782.91
669.428	4914.97
674.067	4011.83
678.703	2960.48
683.336	2250.11
687.967	1644.47
692.595	1563.91
697.221	1414.17
701.844	1580.88
706.465	1973.29
711.083	2068.16
715.698	2466.91
720.311	2509.2
724.922	2767.35
729.53	2667.34
734.135	2478.64
738.738	2157.54
743.338	1838.08
747.936	1682.44
752.531	1316.18
757.124	1208.59
761.714	964.021
766.302	1105.69
770.887	1029.3
775.469	1091.87
780.049	1021.4
784.626	866.914
789.201	979.413
793.773	727.906
798.343	592.405
802.91	423.916
807.475	293.457
812.037	102.033
816.596	181.658
821.153	2.30957
825.707	147.894
830.259	63.6514
834.808	9.50391
839.355	130.606
843.899	116.225
848.441	12.4531
852.98	42.168
857.516	30.7842
862.05	26.5771
866.581	159.224
871.11	283.579
875.636	270.538
880.159	363.493
884.68	597.18
889.199	494.613
893.714	572.598
898.228	664.992
902.738	576.649
907.246	730.602
911.752	690.977
916.255	653.688
920.755	762.709
925.253	746.005
929.748	849.595
934.241	868.618
938.731	837.05
943.218	866.933
947.703	949.206
952.186	899.819
956.665	1060.14
961.142	1077.66
965.617	1061.15
970.089	1060.2
974.558	1090.99
979.025	934.562
983.489	1271.31
987.951	1240.61
992.41	1504.51
996.866	1582.81
1001.32	1804.53
1005.77	1859.71
1010.22	1846.48
1014.67	1820.41
1019.11	1946.97
1023.55	1997.16
1027.99	1989.49
1032.42	1970.99
1036.86	1953.22
1041.29	1938.01
1045.72	1753.47
1050.14	1700.93
1054.56	1653.88
1058.98	1541.09
1063.4	1288.32
1067.82	1172.18
1072.23	1184.89
1076.64	1234.22
1081.05	1091.43
1085.45	982.474
1089.85	845.249
1094.25	853.82
1098.65	758.309
1103.04	698.995
1107.43	565.042
1111.82	534.845
1116.21	521.691
1120.59	455.394
1124.97	379.969
1129.35	375.03
1133.73	93.9756
1138.1	198.632
1142.47	109.549
1146.84	107.682
1151.21	41.1699
1155.57	19.9678
1159.93	42.1895
1164.29	43.6367
1168.64	75.0957
1172.99	55.8037
1177.34	35.1094
1181.69	76.1728
1186.04	138.108
1190.38	25.8486
1194.72	102.842
1199.05	25.4805
1203.39	38.5185
1207.72	63.2022
1212.05	7.88379
1216.37	132.685
1220.7	213.981
1225.02	31.7275
1229.34	60.9268
1233.65	62.793
1237.97	56.416
1242.28	50.0537
1246.59	200.862
1250.89	78.9961
1255.19	109.168
1259.49	104.533
1263.79	150.486
1268.09	108.144
1272.38	123.754
1276.67	202.965
1280.95	269.181
1285.24	200.758
1289.52	31.1514
1293.8	9.65137
1298.08	209.839
1302.35	111.001
1306.62	57.8877
1310.89	141.681
1315.15	220.981
1319.42	127.036
1323.68	118.695
1327.94	14.4375
1332.19	220.819
1336.44	163.891
1340.69	110.422
1344.94	160.369
1349.19	47.7988
1353.43	116.272
1357.67	136.204
1361.9	132.822
1366.14	148.074
1370.37	63.917
1374.6	63.7832
1378.83	158.821
1383.05	113.184
1387.27	3.70215
1391.49	77.5147
1395.7	109.733
1399.92	88.4062
1404.13	181.497
1408.34	308.147
1412.54	120.375
1416.74	64.917
1420.94	134.075
1425.14	294.444
1429.34	95.8897
1433.53	137.28
1437.72	129.902
1441.9	223.389
1446.09	158.457
1450.27	269.884
1454.45	189.514
1458.63	374.054
1462.8	318.252
1466.97	16.2158
1471.14	262.707
1475.31	212.667
1479.47	361.525
1483.63	225.56
1487.79	170.456
1491.94	189.151
1496.09	226.258
1500.24	155.868
1504.39	246.455
1508.54	114.064
1512.68	134.737
1516.82	211.31
1520.95	44.9707
1525.09	97.251
1529.22	210.758
1533.35	21.4512
1537.47	171.339
1541.6	96.083
1545.72	113.828
1549.83	124.877
1553.95	59.8545
1558.06	112.566
1562.17	108.243
1566.28	81.2373
1570.38	220.287
