Measurement: Raman, 514 nm, ccw, Raman Data Processed
Mineral: Edenite
Rruff sample: R060029
Ideal chemistry: NaCa_2_Mg_5_(Si_7_Al)O_22_(OH)_2_
Locality: Renfrew County, Ontario, Canada
Source: University of Arizona Mineral Museum
Description: Black prismatic
Measured chemistry: (Na_0.62_K_0.34_[box]_0.04_)(Ca_0.86_Na_0.14_)_2_(Mg_0.57_Fe^2+^_0.30_Fe^3+^_0.07_Al_0.05_Ti_0.01_Mn_0.01_)_5_(Si_6.61_Al_1.39_)O_22_((OH)_0.69_F_0.31_)_2_
Pin_id: M00412
Orientation: Laser parallel to c* (0 0 1). Fiducial mark perpendicular to laser is parallel to a [1 0 0]
Raman shift (cm-1)	intensity
132.898	0
137.814	123.849
142.728	458.556
147.639	4519.76
152.549	18751.1
157.455	22811.4
162.359	9074.8
167.261	4113.49
172.161	3476.2
177.058	4627.32
181.952	5875.79
186.845	4771.02
191.734	3394.86
196.622	3707.12
201.507	5560.19
206.389	7343.57
211.269	13163.7
216.147	24121.5
221.022	38157.9
225.895	39878.8
230.765	28962.3
235.633	20146.5
240.498	13991.9
245.361	9805.27
250.222	7226.8
255.08	5956.22
259.936	5632.84
264.789	3833.29
269.64	4431.53
274.488	5109.77
279.334	6655.49
284.178	8504.51
289.019	10380.8
293.857	11794.2
298.693	12253.7
303.527	10893.4
308.358	9112.14
313.187	7257.78
318.013	5500.1
322.837	4037.51
327.659	2916.09
332.478	2401.94
337.294	1953.72
342.108	2033.83
346.92	2135.48
351.729	2361.56
356.535	3000.58
361.34	3175.7
366.141	3285.88
370.94	3311.03
375.737	3285.06
380.531	2761.85
385.323	2012.27
390.113	1283.2
394.9	531.524
399.684	23.1357
404.466	497.38
409.245	724.376
414.022	785.482
418.797	599.769
423.569	177.575
428.338	1030.18
433.105	1431.21
437.87	1355.18
442.632	1429.79
447.391	1514.81
452.149	1442.95
456.903	1252.35
461.655	1112.98
466.405	1012.53
471.152	745.71
475.897	535.605
480.639	441.629
485.378	434.647
490.116	477.026
494.85	837.308
499.582	1097.58
504.312	1621.78
509.039	1862.88
513.764	2515.82
518.486	3289.56
523.206	5199.06
527.923	7442.29
532.638	8987
537.35	8740.78
542.059	7662.84
546.766	6708.48
551.471	5552.29
556.173	4101.4
560.873	3014.98
565.57	2319.44
570.264	1876.73
574.957	1667.42
579.646	1438.43
584.333	1087.81
589.018	478.543
593.7	258.248
598.379	394.574
603.056	51.5586
607.73	567.684
612.402	1286.68
617.072	2145.3
621.739	3725.13
626.403	5591.57
631.065	7438.51
635.724	9399.11
640.381	11728
645.035	14819.5
649.687	19175.7
654.336	24576.6
658.983	34097.2
663.627	46256.6
668.268	54776.7
672.907	50830.5
677.544	36837.2
682.178	24073.7
686.809	15852.6
691.438	10544.2
696.065	6890.65
700.688	4243.02
705.31	3060.43
709.929	2148.11
714.545	1744.59
719.158	1568.34
723.77	1360.17
728.378	1270.9
732.984	889.321
737.588	609.009
742.189	460.584
746.787	175.101
751.383	12.9683
755.976	152.037
760.567	122.514
765.155	71.6963
769.741	197.76
774.324	544.273
778.904	660.288
783.482	863.843
788.058	929.983
792.631	890.75
797.201	976.187
801.769	931.328
806.334	1086.22
810.897	1085.88
815.457	1084.37
820.014	1012.71
824.569	846.921
829.122	482.019
833.671	303.988
838.219	23.4409
842.763	101.673
847.306	162.028
851.845	101.359
856.382	172.392
860.917	86.5918
865.448	13.5215
869.978	150.892
874.505	290.321
879.029	674.908
883.55	1105.25
888.069	1785.5
892.586	2338.5
897.1	2772.22
901.611	3431.92
906.12	4225.93
910.626	5025.87
915.129	5593.78
919.63	5832.58
924.129	5779.38
928.625	5218.08
933.118	4689.62
937.609	4222.97
942.097	4098.02
946.582	3951.71
951.065	3802.99
955.546	3825.86
960.023	3743.31
964.499	3656.33
968.971	3709.92
973.441	3809.06
977.909	3775.98
982.374	4034.4
986.836	4354.98
991.295	4940.92
995.753	5863.05
1000.21	6867.65
1004.66	8296.07
1009.11	9746.29
1013.55	11097.1
1018	12251.6
1022.44	13277.1
1026.88	13560.7
1031.32	13764.5
1035.75	13956.8
1040.18	14413.6
1044.61	14486
1049.04	14549.6
1053.46	14917.2
1057.88	14108
1062.3	12954.5
1066.71	11004.5
1071.13	9206.94
1075.54	7451.99
1079.94	6157.94
1084.35	5157.25
1088.75	4501.7
1093.15	3911.42
1097.55	3420.64
1101.94	3004.53
1106.34	2576.95
1110.73	2089.14
1115.11	1820.76
1119.5	1448.68
1123.88	1104.22
1128.26	885.511
1132.63	497.836
1137.01	235.925
1141.38	131.006
1145.75	74.1042
1150.12	52.6128
1154.48	62.4778
1158.84	67.3572
1163.2	99.1877
1167.55	9.30054
1171.91	85.4421
1176.26	83.9919
1180.61	79.0679
1184.95	57.5938
1189.29	57.6985
1193.63	10.1555
1197.97	27.1582
1202.31	0.333984
1206.64	116.531
1210.97	70.9702
1215.29	111.778
1219.62	143.76
1223.94	107.001
1228.26	248.579
1232.57	194.56
1236.89	247.682
1241.2	248.164
1245.51	255.023
1249.81	320.424
1254.12	292.032
1258.42	303.852
1262.72	274.952
1267.01	368.092
1271.3	313.974
1275.59	364.905
1279.88	333.884
1284.17	344.912
1288.45	307.812
1292.73	333.063
1297.01	350.105
1301.28	316.521
1305.55	255.482
1309.82	271.795
1314.09	272.131
1318.35	258.728
1322.61	223.697
1326.87	212.597
1331.13	137.529
1335.38	614.836
1339.63	724.638
1343.88	114.619
1348.12	132.892
1352.37	104.134
1356.61	162.488
1360.85	149.501
1365.08	122.432
1369.31	103.797
1373.54	73.0933
1377.77	69.3376
1381.99	69.6121
1386.22	57.3962
1390.43	112.805
1394.65	18.7524
1398.87	88.2642
1403.08	62.3223
1407.29	26.6606
1411.49	25.3203
1415.69	48.2065
1419.89	101.488
1424.09	73.3308
1428.29	160.969
1432.48	65.0608
1436.67	25.3931
1440.86	84.9021
1445.04	69.856
1449.23	50.6262
1453.4	8.29639
1457.58	50.2715
1461.76	65.103
1465.93	93.0737
1470.1	46.9192
1474.26	32.6108
1478.43	120.969
1482.59	44.6919
1486.75	77.8557
1490.9	80.5098
1495.06	59.6773
1499.21	17.5261
1503.35	91.8882
1507.5	69.9211
1511.64	63.1172
1515.78	120.055
1519.92	17.4304
1524.05	40.979
1528.18	106.554
1532.31	38.1257
1536.44	51.5227
1540.56	34.5825
1544.69	5.57446
1548.8	114.373
1552.92	429.05
1557.03	229.807
1561.14	11.706
1565.25	36.1899
1569.36	29.2522
