Measurement: Raman, 514 nm, ccw, Raman Data Processed
Mineral: Edenite
Rruff sample: R060029
Ideal chemistry: NaCa_2_Mg_5_(Si_7_Al)O_22_(OH)_2_
Locality: Renfrew County, Ontario, Canada
Source: University of Arizona Mineral Museum
Description: Black prismatic
Measured chemistry: (Na_0.62_K_0.34_[box]_0.04_)(Ca_0.86_Na_0.14_)_2_(Mg_0.57_Fe^2+^_0.30_Fe^3+^_0.07_Al_0.05_Ti_0.01_Mn_0.01_)_5_(Si_6.61_Al_1.39_)O_22_((OH)_0.69_F_0.31_)_2_
Pin_id: M00412
Orientation: Laser parallel to c* (0 0 1). Fiducial mark perpendicular to laser is parallel to a [1 0 0]
Raman shift (cm-1)	intensity
129.209	0
134.127	45.9824
139.043	2622.15
143.956	1860.61
148.867	8968.44
153.775	19476.7
158.681	8050.4
163.585	4084.67
168.486	4780.52
173.385	3071.3
178.282	3790.42
183.176	2521.37
188.067	2642.09
192.956	1590.84
197.843	1432.54
202.727	1737.79
207.609	1664.3
212.489	5174.7
217.366	9450.07
222.24	13863.9
227.112	16891.6
231.982	16060.5
236.849	11809.1
241.714	6882.63
246.577	4211.57
251.437	2078.64
256.294	875.584
261.149	2132.12
266.002	634.992
270.852	347.848
275.7	482.602
280.545	1237.72
285.388	2532.81
290.229	3499.59
295.067	3531.85
299.902	3117.67
304.735	2426.05
309.566	1622.13
314.394	1063.57
319.22	469.76
324.043	36.6992
328.864	46.0098
333.682	127.967
338.498	1016.73
343.311	1087.27
348.122	1486.31
352.931	2516.69
357.737	3088.17
362.54	3442.62
367.341	4123.92
372.14	5251.9
376.936	6155.16
381.73	6060.77
386.521	4157.64
391.31	3293.62
396.096	2307.58
400.88	1722.18
405.661	2056.88
410.44	2524.97
415.216	3451.97
419.99	5001.26
424.761	7504.68
429.53	9342.53
434.297	8461.88
439.061	6673.12
443.822	5567.49
448.581	3933.16
453.337	2947.25
458.091	2000.24
462.843	1049.29
467.592	1096.93
472.338	466.572
477.082	708.451
481.824	1226.26
486.563	2046.61
491.3	2974.25
496.034	4756.28
500.765	6497.6
505.494	8379.1
510.221	10463.7
514.945	11922.2
519.666	12594.6
524.385	13207.1
529.102	13677.8
533.816	13932.3
538.527	13902.3
543.236	12723.8
547.943	11713.5
552.647	10530.3
557.348	9226.83
562.047	8044.34
566.744	7197.8
571.438	5973.31
576.129	4723.2
580.818	3173.92
585.504	2114.28
590.188	331.029
594.87	524.287
599.549	733.621
604.225	589.332
608.899	236.281
613.57	127.059
618.239	905.195
622.905	1696.67
627.569	2598.25
632.23	4001
636.889	5283.93
641.545	7185.01
646.198	9540.25
650.849	12821.6
655.498	17362.2
660.144	24457.9
664.787	32863.8
669.428	33927.8
674.067	28202
678.703	19290.5
683.336	12791.1
687.967	9022.1
692.595	6571.95
697.221	6018.61
701.844	6873.9
706.465	6709.06
711.083	8290.64
715.698	9320.57
720.311	10140.8
724.922	10509
729.53	10442
734.135	9866.03
738.738	8568.82
743.338	7316.49
747.936	5892.73
752.531	4667.74
757.124	3785.6
761.714	3317.28
766.302	3369.11
770.887	3289.74
775.469	3302.27
780.049	2997.44
784.626	2980.33
789.201	2587.08
793.773	2090.1
798.343	1686.47
802.91	1534.31
807.475	1078.7
812.037	659.738
816.596	538.506
821.153	18.0977
825.707	111.623
830.259	750.594
834.808	617.4
839.355	317.768
843.899	206.25
848.441	140.07
852.98	40.9844
857.516	548.973
862.05	1227.65
866.581	1722.06
871.11	2123.09
875.636	2707.16
880.159	3280.56
884.68	4004.59
889.199	4324.89
893.714	5196.78
898.228	5655.76
902.738	6040.23
907.246	6427.72
911.752	6688.78
916.255	8464.1
920.755	8621.15
925.253	8504.56
929.748	8745.45
934.241	8962.81
938.731	9414.81
943.218	9987.08
947.703	10446.7
952.186	10859.4
956.665	11358.6
961.142	11644.7
965.617	11363.2
970.089	11264.2
974.558	11243
979.025	11034.5
983.489	11378.2
987.951	12353.6
992.41	13187.5
996.866	14555.4
1001.32	15244.3
1005.77	16054
1010.22	16334
1014.67	16550
1019.11	16824.7
1023.55	16794
1027.99	16714.2
1032.42	16230.6
1036.86	15272.8
1041.29	14285.1
1045.72	13168
1050.14	12295.3
1054.56	11818.3
1058.98	11230.6
1063.4	10295.4
1067.82	9248.96
1072.23	8820.47
1076.64	8485.07
1081.05	7304.22
1085.45	6894.07
1089.85	6361.7
1094.25	5622.34
1098.65	5162.51
1103.04	4601.74
1107.43	3642.41
1111.82	2953.21
1116.21	2637.68
1120.59	1863.98
1124.97	1400.3
1129.35	1037.98
1133.73	444.522
1138.1	316.565
1142.47	551.824
1146.84	173.33
1151.21	332.086
1155.57	89.9785
1159.93	71.5156
1164.29	58.5898
1168.64	8.74023
1172.99	234.256
1177.34	227.678
1181.69	350.826
1186.04	128.394
1190.38	116.522
1194.72	286.018
1199.05	26.7383
1203.39	51.9688
1207.72	158.703
1212.05	64.3125
1216.37	199.943
1220.7	283.125
1225.02	407.527
1229.34	260.156
1233.65	298.654
1237.97	324.273
1242.28	475.822
1246.59	253.603
1250.89	520.834
1255.19	520.176
1259.49	430.045
1263.79	456.223
1268.09	474.541
1272.38	543.197
1276.67	291.135
1280.95	356.731
1285.24	331.213
1289.52	483.619
1293.8	472.269
1298.08	493.879
1302.35	805.916
1306.62	284.141
1310.89	458.207
1315.15	427.074
1319.42	279.762
1323.68	430.582
1327.94	356.943
1332.19	213.725
1336.44	318.719
1340.69	167
1344.94	191.264
1349.19	7.86133
1353.43	141.982
1357.67	187.057
1361.9	57.1875
1366.14	233.947
1370.37	62.918
1374.6	294.529
1378.83	54.0957
1383.05	151.547
1387.27	66.3789
1391.49	17.5957
1395.7	68.7285
1399.92	180.398
1404.13	210.098
1408.34	286.375
1412.54	276.984
1416.74	184.981
1420.94	257.588
1425.14	483.815
1429.34	337.154
1433.53	479.537
1437.72	377.869
1441.9	562.117
1446.09	490.762
1450.27	517.188
1454.45	387.389
1458.63	523.803
1462.8	441.223
1466.97	736.1
1471.14	458.953
1475.31	569.938
1479.47	670.004
1483.63	435.338
1487.79	649.898
1491.94	507.764
1496.09	363.221
1500.24	533.771
1504.39	503.766
1508.54	512.957
1512.68	371.514
1516.82	554.502
1520.95	630.871
1525.09	387.115
1529.22	430.006
1533.35	340.432
1537.47	268.512
1541.6	69.7266
1545.72	225.051
1549.83	244.023
1553.95	281.791
1558.06	19.375
1562.17	258.647
1566.28	37.2031
1570.38	153.953
