Measurement: Raman, 514 nm, ccw, Raman Data Processed
Mineral: Edenite
Rruff sample: R050415
Ideal chemistry: NaCa_2_Mg_5_(Si_7_Al)O_22_(OH)_2_
Locality: Mogok, Burma
Source: Marcus Origlieri
Description: Transparent pale green water worn fragment
Measured chemistry: (Na_0.83_K_0.17_)(Ca_1.76_Na_0.24_)_=2_(Mg_4.54_Al_0.40_Fe^3+^_0.06_)_=5_(Si_6.74_Al_1.26_)O_22_((OH)_0.52_F_0.48_)_2_
Pin_id: L01094
Orientation: Laser parallel to b* (0 1 0). Fiducial mark perpendicular to laser is parallel to -c [0 0 -1]
Raman shift (cm-1)	intensity
93.48	0
98.416	564.135
103.349	2050.9
108.28	4922.59
113.208	6420.66
118.134	6771.78
123.058	4888.11
127.979	2025.02
132.898	736.822
137.814	234.107
142.728	95.1777
147.639	276.178
152.549	117.183
157.455	282.582
162.359	1164.81
167.261	1483.5
172.161	1969.89
177.058	2775.89
181.952	3946.85
186.845	3933.55
191.734	2527.01
196.622	1676.64
201.507	1490.59
206.389	1957.56
211.269	3170.77
216.147	5487.11
221.022	8671.33
225.895	10783
230.765	10724.8
235.633	10536.8
240.498	9801.2
245.361	7577.23
250.222	5789.24
255.08	3945.1
259.936	2390.35
264.789	1324.8
269.64	843.035
274.488	863.953
279.334	856.337
284.178	1187.91
289.019	1940.58
293.857	2410.99
298.693	2878.2
303.527	2874.48
308.358	2784.52
313.187	3078.14
318.013	3567.69
322.837	3771.08
327.659	3353.64
332.478	2923.06
337.294	2415.58
342.108	2022.74
346.92	1687.62
351.729	1679.81
356.535	2308.81
361.34	3438.05
366.141	4036.26
370.94	4069.63
375.737	3885.11
380.531	3926.68
385.323	4683.34
390.113	5370.56
394.9	5271.25
399.684	4264.27
404.466	3031.56
409.245	2238.04
414.022	1820.69
418.797	1715.5
423.569	1568.73
428.338	1277.15
433.105	721.108
437.87	316.444
442.632	45.9023
447.391	63.2461
452.149	97.9639
456.903	50.6855
461.655	54.3105
466.405	123.967
471.152	211.615
475.897	239.241
480.639	47.9893
485.378	103.759
490.116	223.565
494.85	83.8125
499.582	119.463
504.312	263.586
509.039	488.34
513.764	724.735
518.486	1035.71
523.206	975.185
527.923	1062.22
532.638	870.859
537.35	820.043
542.059	659.671
546.766	410.687
551.471	432.054
556.173	420.75
560.873	209.74
565.57	407.089
570.264	368.732
574.957	388.14
579.646	329.845
584.333	324.322
589.018	430.109
593.7	480.975
598.379	448.366
603.056	475.069
607.73	559.521
612.402	747.611
617.072	1017.38
621.739	1532.3
626.403	1997.08
631.065	2466.51
635.724	3490.94
640.381	4849.69
645.035	6522.9
649.687	8486.91
654.336	11668.4
658.983	16087.5
663.627	23948.7
668.268	34572.2
672.907	41978.7
677.544	39389.9
682.178	27953
686.809	17479.8
691.438	11258.3
696.065	7424.18
700.688	4991.24
705.31	3470.19
709.929	2252.91
714.545	1644.69
719.158	1373.55
723.77	1042.33
728.378	864.717
732.984	732.643
737.588	377.476
742.189	251.523
746.787	134.168
751.383	31.5879
755.976	96.8828
760.567	2.97949
765.155	80.4863
769.741	18.1279
774.324	78.1426
778.904	38.6074
783.482	15.8203
788.058	118.089
792.631	77.3857
797.201	7.19824
801.769	120.378
806.334	140.047
810.897	90.6143
815.457	182.291
820.014	94.2051
824.569	77.416
829.122	79.9727
833.671	321.898
838.219	39.7734
842.763	114.652
847.306	15.4043
851.845	48.5254
856.382	38.9375
860.917	56.6465
865.448	63.6367
869.978	28.084
874.505	91.6328
879.029	463.846
883.55	760.168
888.069	780.707
892.586	1177.24
897.1	1426.81
901.611	1716.38
906.12	2014.21
910.626	2445.01
915.129	2869.12
919.63	3384.6
924.129	3301.5
928.625	3183.29
933.118	2748.51
937.609	2634.61
942.097	2269.07
946.582	2083.35
951.065	2171.41
955.546	2020.93
960.023	1825.05
964.499	1914.53
968.971	1929.41
973.441	1552.55
977.909	1779.26
982.374	1936.54
986.836	2258.7
991.295	2687.36
995.753	3219.41
1000.21	3968.2
1004.66	4644.57
1009.11	4993.27
1013.55	5284.16
1018	5236.53
1022.44	5362.05
1026.88	5344.76
1031.32	5504.88
1035.75	5841.28
1040.18	6232.31
1044.61	6446.85
1049.04	6101.32
1053.46	5753.17
1057.88	5662.53
1062.3	5608.78
1066.71	5363.08
1071.13	4637.98
1075.54	3820.62
1079.94	2536.41
1084.35	1837.8
1088.75	1360.33
1093.15	1021.24
1097.55	711.021
1101.94	482.959
1106.34	485.219
1110.73	424.293
1115.11	445.871
1119.5	766.943
1123.88	894.334
1128.26	380.717
1132.63	150.873
1137.01	113.92
1141.38	22.2441
1145.75	72.9961
1150.12	137.012
1154.48	65.1992
1158.84	102.494
1163.2	101.398
1167.55	107.863
1171.91	224.289
1176.26	52.0996
1180.61	20.7246
1184.95	124.275
1189.29	129.137
1193.63	166.488
1197.97	39.252
1202.31	116.5
1206.64	185.287
1210.97	90.6836
1215.29	52.9453
1219.62	377.615
1223.94	337.816
1228.26	370.81
1232.57	269.752
1236.89	371.664
1241.2	413.389
1245.51	301.641
1249.81	199.582
1254.12	274.449
1258.42	265.363
1262.72	474.002
1267.01	274.158
1271.3	246.623
1275.59	275.848
1279.88	351.727
1284.17	628.871
1288.45	409.707
1292.73	584.326
1297.01	339.701
1301.28	372.922
1305.55	199.322
1309.82	282.367
1314.09	463.316
1318.35	435.397
1322.61	386.85
1326.87	652.414
1331.13	412.978
1335.38	320.916
1339.63	264.008
1343.88	567.232
1348.12	223.07
1352.37	285.725
1356.61	439.481
1360.85	496.266
1365.08	234.4
1369.31	97.707
1373.54	336.144
1377.77	156.504
1381.99	262.312
1386.22	313.887
1390.43	476.332
1394.65	182.566
1398.87	155.691
1403.08	140.371
1407.29	160.781
1411.49	85.0742
1415.69	124.648
1419.89	87.0273
1424.09	80.3516
1428.29	140.91
1432.48	160.832
1436.67	186.434
1440.86	271.883
1445.04	71.9531
1449.23	203.242
1453.4	196.207
1457.58	381.469
1461.76	490.879
1465.93	103.414
1470.1	440.488
1474.26	362.445
1478.43	325.816
1482.59	598.965
1486.75	448.137
1490.9	612.918
1495.06	520.766
1499.21	487.934
1503.35	419.168
1507.5	482.469
1511.64	564.277
1515.78	333.977
1519.92	610.945
1524.05	330.344
1528.18	231.387
1532.31	300.949
1536.44	166.223
1540.56	225.762
1544.69	480.617
1548.8	130.328
1552.92	447.109
1557.03	291.371
1561.14	413.238
1565.25	127.91
1569.36	51.8203
