Measurement: Raman, 514 nm, ccw, Raman Data Processed
Mineral: Edenite
Rruff sample: R050415
Ideal chemistry: NaCa_2_Mg_5_(Si_7_Al)O_22_(OH)_2_
Locality: Mogok, Burma
Source: Marcus Origlieri
Description: Transparent pale green water worn fragment
Measured chemistry: (Na_0.83_K_0.17_)(Ca_1.76_Na_0.24_)_=2_(Mg_4.54_Al_0.40_Fe^3+^_0.06_)_=5_(Si_6.74_Al_1.26_)O_22_((OH)_0.52_F_0.48_)_2_
Pin_id: L01128
Orientation: Laser parallel to -c* (0 0 -1). Fiducial mark perpendicular to laser is parallel to -a [-1 0 0]
Raman shift (cm-1)	intensity
100.883	0
105.815	782.964
110.744	1222.21
115.671	3032.88
120.596	5404.69
125.519	3739.87
130.439	993.303
135.356	76.6084
140.271	23.4521
145.184	194.197
150.094	31.915
155.002	986.396
159.908	2917.59
164.811	6867.27
169.711	6562.93
174.61	3582.96
179.505	2826.95
184.399	2457.31
189.29	1956.36
194.178	1307.36
199.064	1236.83
203.948	1853.57
208.829	2827.01
213.708	4672.6
218.585	7461.25
223.459	11790
228.33	16805.7
233.199	21756.9
238.066	26518.8
242.93	23904.5
247.792	18452.6
252.651	13849.1
257.508	9580.41
262.363	5302.7
267.215	2890.21
272.064	1615.99
276.912	1034.09
281.756	701.3
286.598	675.563
291.438	691.096
296.276	936.937
301.111	1153.33
305.943	1349.08
310.773	2078.14
315.601	3263.53
320.426	3868.89
325.248	3372.24
330.068	2474.15
334.886	2031.26
339.701	2289.85
344.514	2660.38
349.324	3608.38
354.132	4161.91
358.938	4832.76
363.741	5831.88
368.541	6755.19
373.339	7554.6
378.135	7866.06
382.928	8378.51
387.718	9799.89
392.506	10472.2
397.292	9235.8
402.075	6489.74
406.856	4677
411.634	4397.19
416.41	5110.01
421.183	5900.48
425.954	6465.55
430.722	5970.38
435.488	4416.81
440.251	2684.18
445.012	1462.58
449.77	515.04
454.526	94.1836
459.28	81.085
464.03	182.144
468.779	63.1279
473.525	147.199
478.268	25.5977
483.009	220.489
487.747	327.338
492.483	289.178
497.217	346.973
501.948	1009.66
506.676	2184.15
511.402	3628.41
516.125	4839.41
520.846	5247.14
525.565	5176.49
530.281	4252.4
534.994	3030.83
539.705	1992.83
544.413	1068.52
549.119	559.06
553.822	91.1074
558.523	98.3818
563.222	126.408
567.917	88.7793
572.611	97.5928
577.302	45.0908
581.99	190.887
586.676	101.4
591.359	147.593
596.04	6.24902
600.718	130.945
605.394	103.053
610.067	289.87
614.737	530.746
619.406	728.507
624.071	1312.92
628.734	1964.88
633.395	2778.63
638.053	4290.59
642.708	6145.91
647.361	8513.55
652.012	11625.3
656.66	15271.4
661.305	21156.7
665.948	30376.5
670.588	41397.9
675.226	46428.4
679.861	38720.6
684.494	24992
689.124	14433.8
693.752	8843.44
698.377	5572.08
702.999	3690.64
707.619	2674.29
712.237	2179.73
716.852	1710.36
721.464	1691.48
726.074	2774.68
730.681	2410.96
735.286	1337.05
739.888	923.318
744.488	692.852
749.085	818.852
753.68	409.894
758.272	387.864
762.861	162.446
767.448	164.425
772.033	9.7793
776.614	103.446
781.194	127.555
785.77	213.153
790.345	13.7324
794.916	7.18359
799.485	214.807
804.052	226.41
808.616	22.6719
813.177	79.4443
817.736	87.1816
822.292	140.882
826.846	49.7188
831.397	9.78223
835.945	82.4951
840.491	12.9121
845.035	89.1914
849.576	2.15234
854.114	100.148
858.65	147.195
863.183	22.2539
867.713	12.5527
872.241	166.029
876.767	390.244
881.29	749.188
885.81	1009.8
890.328	1635.23
894.843	2015.61
899.356	2278.15
903.866	2910.91
908.373	3565.36
912.878	4214.28
917.38	4947.48
921.88	5358.48
926.377	5225.41
930.872	4732.28
935.364	4643.95
939.853	4067.05
944.34	3875.44
948.824	3972.39
953.306	3886.47
957.785	3620.61
962.261	3612.58
966.735	3489.78
971.207	3701.42
975.675	3740.16
980.141	4162.72
984.605	4558.57
989.066	5612.79
993.524	6593.01
997.98	7977.99
1002.43	9457.59
1006.88	10779.1
1011.33	11635.2
1015.78	11840.7
1020.22	12011.7
1024.66	11867.5
1029.1	12267.1
1033.53	12776.6
1037.97	13184
1042.4	13355.6
1046.82	12769.8
1051.25	11517.3
1055.67	10787.3
1060.09	10308.6
1064.51	10156.1
1068.92	9004.63
1073.33	7669.22
1077.74	5732.46
1082.15	4344.99
1086.55	3071.03
1090.95	2066.3
1095.35	1592.16
1099.75	1472
1104.14	981.598
1108.53	1122.74
1112.92	902.42
1117.31	1083.56
1121.69	1243.03
1126.07	714.244
1130.45	461.291
1134.82	177.566
1139.19	349.621
1143.57	216.531
1147.93	182.91
1152.3	39.9102
1156.66	187.43
1161.02	113.457
1165.38	25.2676
1169.73	81.5625
1174.08	70.7871
1178.43	54.8496
1182.78	29.0488
1187.12	162.853
1191.46	83.5898
1195.8	35.627
1200.14	105.348
1204.47	51.6523
1208.8	10.3477
1213.13	96.2891
1217.46	287.684
1221.78	220.115
1226.1	307.316
1230.42	32.3516
1234.73	190.19
1239.04	159.883
1243.35	626.01
1247.66	432.606
1251.97	614.746
1256.27	561.336
1260.57	625.195
1264.86	669.688
1269.16	494.975
1273.45	735.166
1277.74	640.191
1282.03	728.482
1286.31	450.643
1290.59	482.26
1294.87	561.986
1299.14	489.631
1303.42	593.09
1307.69	402.486
1311.95	801.6
1316.22	718.008
1320.48	646.559
1324.74	688.867
1329	632.359
1333.26	675.68
1337.51	460.356
1341.76	476.793
1346	671.934
1350.25	618.773
1354.49	682.394
1358.73	618.809
1362.96	507.055
1367.2	428.613
1371.43	591.199
1375.66	464.594
1379.88	547.391
1384.11	104.32
1388.33	98.0352
1392.54	227.207
1396.76	272.598
1400.97	87.8828
1405.18	274.773
1409.39	180.238
1413.59	37.0859
1417.8	106.195
1421.99	25.2188
1426.19	97.6133
1430.38	9.44922
1434.58	334.898
1438.77	6.00391
1442.95	126.656
1447.13	57.0781
1451.32	176.047
1455.49	318.262
1459.67	442.129
1463.84	228.406
1468.01	254.211
1472.18	517.785
1476.35	550.207
1480.51	727.848
1484.67	572.172
1488.83	452.688
1492.98	571.633
1497.13	719.231
1501.28	479.445
1505.43	388.594
1509.57	438.156
1513.71	638.957
1517.85	493.742
1521.99	706.68
1526.12	295.746
1530.25	415.699
1534.38	575.727
1538.5	394.25
1542.62	240.793
1546.74	243.883
1550.86	319.492
1554.98	261.426
1559.09	157.543
1563.2	240.144
1567.31	196.371
1571.41	199.262
