Measurement: Raman, 514 nm, ccw, Raman Data Processed
Mineral: Edingtonite
Rruff sample: R040003
Ideal chemistry: Ba(Si_3_Al_2_)O_10_4H_2_O
Locality: Bohl, Sweden
Source: University of Arizona Mineral Museum
Description: Colorless tetragonal prism
Measured chemistry: Ba_1.00_(Si_3.00_Al_2.00_)O_10_Â·4H_2_O; trace amounts of Na; H_2_O estimated by difference
Pin_id: m00038
Orientation: Laser parallel to b* (0 1 0). Fiducial mark perpendicular to laser is parallel to c [0 0 1]
Raman shift (cm-1)	intensity
84.311	0
88.496	68.973
92.678	447.461
96.858	1327.04
101.036	2902.26
105.212	4146.32
109.387	4949.12
113.559	5712.49
117.729	6842.44
121.897	7471.95
126.063	9380.64
130.228	13311.3
134.39	16857.1
138.55	15966.2
142.709	12983.1
146.865	11466
151.019	11557.5
155.171	12519.5
159.322	11253.3
163.47	7601.09
167.617	4622.59
171.761	3321.97
175.904	2645.26
180.044	1930.1
184.183	1735.01
188.319	1984.21
192.454	2025.16
196.586	2175.53
200.717	2203.77
204.846	2181.96
208.972	2098.54
213.097	1750.9
217.22	1609.46
221.341	1138.96
225.46	1158.31
229.577	3019.51
233.692	9595.93
237.805	12324.1
241.916	4334.78
246.025	976.864
250.132	55.406
254.237	422.034
258.34	543.609
262.442	361.161
266.541	223.635
270.639	0.095
274.734	61.752
278.828	106.854
282.919	109.091
287.009	181.629
291.097	18.063
295.183	319.879
299.266	417.583
303.348	474.858
307.428	831.043
311.507	1257.83
315.583	1441.05
319.657	1400.79
323.729	1375.06
327.8	1353.31
331.868	1593.62
335.935	2218.69
339.999	2474.19
344.062	2192.45
348.123	1998.35
352.182	2039.46
356.239	2778.83
360.294	3586.4
364.347	3299.39
368.398	2094.81
372.448	1295.64
376.495	819.885
380.54	522.505
384.584	433.477
388.626	454.79
392.666	627.459
396.704	836.477
400.74	1294.77
404.774	1940.39
408.806	1944.48
412.836	1832.03
416.865	1904.95
420.891	2228.67
424.916	2964.64
428.939	4059.54
432.959	4805.83
436.978	4802.44
440.996	3931
445.011	2643.25
449.024	1635.84
453.036	1007.68
457.045	630.206
461.053	403.801
465.059	142.74
469.063	22.779
473.065	40.719
477.065	55.989
481.063	70.261
485.06	26.049
489.054	59.875
493.047	447.241
497.038	678.198
501.027	927.805
505.014	1350.11
508.999	2037.19
512.982	3275.02
516.964	5551.65
520.944	10995.1
524.921	25108.3
528.897	46521.3
532.871	40254.2
536.844	20905.5
540.814	10312.7
544.783	5878.03
548.749	3559.79
552.714	2239.16
556.677	1454.75
560.638	1135.46
564.597	856.051
568.555	703.517
572.511	494.958
576.464	451.084
580.416	829.488
584.366	555.237
588.315	625.236
592.261	814.191
596.206	1140.88
600.148	1451.11
604.089	1463.81
608.028	998.213
611.965	580.403
615.901	342.959
619.834	233.169
623.766	179.467
627.696	112.09
631.624	137.431
635.551	196.808
639.475	406.808
643.398	703.073
647.318	1149.64
651.237	1989.24
655.155	2945.58
659.07	3152.43
662.984	2263.91
666.895	1305.81
670.805	868.238
674.713	583.359
678.62	412.25
682.524	378.845
686.427	425.577
690.328	448.387
694.227	612.446
698.124	877.426
702.02	1126.94
705.913	1654.84
709.805	2224.3
713.695	2703.76
717.584	2813.59
721.47	2252.22
725.355	1419.95
729.238	816.524
733.119	550.911
736.998	381.987
740.876	232.008
744.752	93.018
748.626	99.903
752.498	125.511
756.368	61.849
760.237	42.048
764.104	77.306
767.969	84.432
771.832	28.131
775.693	38.245
779.553	43.14
783.411	104.676
787.267	99.885
791.122	74.608
794.974	4.725
798.825	31.834
802.674	58.009
806.522	40.849
810.367	11.404
814.211	91.681
818.053	130.672
821.893	141.345
825.732	19.768
829.568	50.923
833.403	51.829
837.236	82.479
841.068	171.874
844.898	136.042
848.726	93.979
852.552	136.674
856.376	96.144
860.199	205.391
864.02	199.411
867.839	164.206
871.656	148.767
875.472	134.114
879.286	155.243
883.098	195.153
886.909	190.866
890.717	136.358
894.524	85.634
898.33	113.388
902.133	139.925
905.935	151.883
909.735	188.911
913.533	108.849
917.33	178.613
921.124	136.516
924.918	96.204
928.709	205.02
932.499	201.619
936.286	223.936
940.073	130.769
943.857	219.623
947.64	508.433
951.421	1085.91
955.2	1512.94
958.978	1329.7
962.753	872.099
966.527	562.194
970.3	422.9
974.071	375.937
977.84	478.369
981.607	439.391
985.372	501.207
989.136	474.918
992.898	658.82
996.659	657.012
1000.42	586.39
1004.17	579.771
1007.93	388.241
1011.68	263.714
1015.43	224.664
1019.18	325.332
1022.93	375.242
1026.68	488.227
1030.42	570.736
1034.17	679.664
1037.91	798.049
1041.65	1232.55
1045.39	1972.92
1049.12	3431.45
1052.86	5495.95
1056.59	6297.61
1060.33	4884.32
1064.06	3420.82
1067.78	2291.09
1071.51	1711.38
1075.23	1312.07
1078.96	1073.16
1082.68	775.208
1086.4	558.31
1090.12	440.767
1093.83	407.54
1097.55	354.221
1101.26	402.097
1104.97	369.199
1108.68	339.216
1112.39	383.331
1116.1	242.242
1119.8	248.461
1123.5	551.485
1127.2	242.708
1130.9	162.031
1134.6	164.255
1138.3	110.428
1141.99	57.269
1145.69	24.999
1149.38	16.159
1153.07	11.838
1156.76	98.637
1160.44	84.384
1164.13	87.331
1167.81	56.081
1171.49	65.179
1175.17	12.498
1178.85	41.886
1182.52	58.905
1186.2	93.005
1189.87	67.963
1193.54	101.859
1197.21	74.917
1200.88	18.764
1204.55	25.183
1208.21	84.085
1211.88	176.33
1215.54	131.876
1219.2	169.985
1222.86	150.129
1226.51	92.299
1230.17	100.38
1233.82	55.265
1237.47	78.066
1241.12	93.703
1244.77	197.255
1248.42	159.925
1252.06	241.307
1255.71	144.627
1259.35	98.666
1262.99	36.977
1266.63	96.101
1270.26	72.244
1273.9	99.426
1277.53	225.339
1281.16	202.147
1284.8	159.854
1288.42	138.259
1292.05	73.821
1295.68	110.692
1299.3	4.981
1302.92	55.421
1306.55	92.495
1310.16	204.067
1313.78	181.725
1317.4	83.577
1321.01	13.212
1324.62	19.747
1328.24	46.496
1331.85	23.669
1335.45	80.984
1339.06	18.391
1342.66	151.682
1346.27	101.67
1349.87	219.541
1353.47	162.527
1357.07	89.106
1360.66	12.411
1364.26	82.84
1367.85	52.869
1371.44	98.556
1375.04	211.604
1378.62	227.581
1382.21	253.612
1385.8	228.866
1389.38	235.83
1392.96	200.561
1396.54	137.839
1400.12	17.881
1403.7	71.087
1407.28	148.868
1410.85	190.541
1414.42	187.668
1417.99	256.722
1421.56	291.095
1425.13	189.249
1428.7	274.56
1432.26	188.865
1435.83	142.103
1439.39	39.944
1442.95	60.355
1446.51	157.065
1450.06	225.494
1453.62	239.167
1457.17	324.517
1460.73	289.957
1464.28	276.865
1467.83	255.068
1471.37	171.945
1474.92	128.169
1478.46	107.301
1482.01	107.335
1485.55	113.246
1489.09	89.185
1492.63	131.247
1496.16	231.433
1499.7	223.536
1503.23	209.79
1506.76	195.544
1510.29	169.256
1513.82	143.76
1517.35	45.275
1520.88	34.029
1524.4	6.267
1527.92	35.931
1531.44	69.508
