Measurement: Raman, 514 nm, ccw, Raman Data Processed
Mineral: Edingtonite
Rruff sample: R040110
Ideal chemistry: Ba(Si_3_Al_2_)O_10_4H_2_O
Locality: 2350 level, Brunswick 12 mine, Bathhurst, New Brunswick, Canada
Source: National Museums of Canada
Description: Colorless rectangular prism
Measured chemistry: Ba_1.00_(Si_3.00_Al_2.00_)O_10_Â·4H_2_O
Pin_id: L01449
Orientation: Laser parallel to b* (0 1 0). Fiducial mark perpendicular to laser is parallel to c [0 0 1]
Raman shift (cm-1)	intensity
91.012	0
95.948	786.864
100.883	3038.41
105.815	4852.77
110.744	6479.44
115.671	7870.05
120.596	9374.97
125.519	11388.5
130.439	14655.4
135.356	17146
140.271	15741.6
145.184	13763.5
150.094	14392.8
155.002	15315.2
159.908	12699
164.811	8108.82
169.711	4083.7
174.61	2503.13
179.505	1930.65
184.399	1721.54
189.29	1751.88
194.178	2231.67
199.064	2490.6
203.948	2398.26
208.829	1922.73
213.708	1803.81
218.585	1274.09
223.459	1451.17
228.33	3218.77
233.199	6344.88
238.066	8998.95
242.93	2161.85
247.792	268.94
252.651	779.356
257.508	509.915
262.363	681.754
267.215	230.527
272.064	35.2822
276.912	120.85
281.756	66.7812
286.598	112.105
291.438	245.475
296.276	606.515
301.111	813.904
305.943	1133.26
310.773	1351.4
315.601	1621.33
320.426	1648.91
325.248	1849.4
330.068	2374.83
334.886	3076.45
339.701	3702.08
344.514	3500.77
349.324	3108.66
354.132	3530.78
358.938	4038.18
363.741	3904.85
368.541	2658.81
373.339	1653.1
378.135	1145.76
382.928	999.778
387.718	1088.3
392.506	1058.31
397.292	1321.89
402.075	1735.8
406.856	1845.06
411.634	1643.8
416.41	1969.46
421.183	2681.6
425.954	3659.62
430.722	4781.83
435.488	4821.94
440.251	3773.83
445.012	2280.51
449.77	1366.54
454.526	725.947
459.28	358.793
464.03	65.1777
468.779	77.0952
473.525	88.437
478.268	89.3906
483.009	11.166
487.747	254.606
492.483	631.77
497.217	957.196
501.948	1682.55
506.676	2618.76
511.402	5032.79
516.125	10861.6
520.846	23907
525.565	42919.1
530.281	54629.2
534.994	33516.9
539.705	14628.1
544.413	7090.87
549.119	3861.58
553.822	2516.08
558.523	1633.09
563.222	1108.83
567.917	711.264
572.611	629.879
577.302	473.426
581.99	594.375
586.676	719.302
591.359	1036.19
596.04	1294.07
600.718	1258.91
605.394	1011.44
610.067	668.145
614.737	336.366
619.406	146.762
624.071	86.7642
628.734	8.73877
633.395	46.3364
638.053	339.341
642.708	739.969
647.361	1549.41
652.012	2499.29
656.66	3020.37
661.305	2591.87
665.948	1534.96
670.588	929.559
675.226	472.657
679.861	592.557
684.494	674.818
689.124	742.108
693.752	1013.47
698.377	1272.69
702.999	1857.78
707.619	2413.92
712.237	2948.61
716.852	2977.51
721.464	2232.28
726.074	1369.84
730.681	804.936
735.286	557.815
739.888	323.214
744.488	322.269
749.085	273.756
753.68	90.9287
758.272	15.6826
762.861	25.4629
767.448	16.4204
772.033	77.438
776.614	165.383
781.194	44.1099
785.77	23.2358
790.345	110.097
794.916	92.2046
799.485	14.5322
804.052	11.9531
808.616	13.2983
813.177	98.5752
817.736	37.8516
822.292	49.4331
826.846	160.377
831.397	43.7134
835.945	54.3374
840.491	119.349
845.035	88.7866
849.576	66.6528
854.114	200.944
858.65	171.728
863.183	255.014
867.713	236.807
872.241	185.117
876.767	84.9492
881.29	197.302
885.81	146.193
890.328	154.957
894.843	149.091
899.356	116.51
903.866	100.553
908.373	162.131
912.878	34.5044
917.38	72.2734
921.88	76.7847
926.377	1.07178
930.872	69.6182
935.364	51.7656
939.853	238.315
944.34	492.936
948.824	849.707
953.306	1469.79
957.785	1574.68
962.261	1200.83
966.735	750.694
971.207	555.919
975.675	632.18
980.141	661.674
984.605	855.335
989.066	1114.03
993.524	1088.94
997.98	915.841
1002.43	807.856
1006.88	590.752
1011.33	359.474
1015.78	313.418
1020.22	535.189
1024.66	477.681
1029.1	755.497
1033.53	950.714
1037.97	1459.47
1042.4	2216.09
1046.82	3818.28
1051.25	5937.7
1055.67	7056.57
1060.09	5760.34
1064.51	3642.93
1068.92	2630.29
1073.33	1749.34
1077.74	1357.11
1082.15	1218.1
1086.55	984.745
1090.95	907.886
1095.35	853.339
1099.75	840.972
1104.14	830.894
1108.53	651.97
1112.92	703.435
1117.31	495.819
1121.69	442.495
1126.07	421.159
1130.45	277.294
1134.82	280.498
1139.19	115.82
1143.57	137.936
1147.93	30.0356
1152.3	13.4395
1156.66	188.106
1161.02	185.167
1165.38	231.94
1169.73	38.0547
1174.08	189.114
1178.43	110.359
1182.78	91.0557
1187.12	35.6103
1191.46	65.0908
1195.8	12.9248
1200.14	99.1758
1204.47	60.1904
1208.8	46.1084
1213.13	102.992
1217.46	134.807
1221.78	37.4824
1226.1	145.165
1230.42	131.494
1234.73	98.8242
1239.04	28.9111
1243.35	58.1709
1247.66	91.1182
1251.97	171.932
1256.27	146.551
1260.57	4.02637
1264.86	29.8574
1269.16	30.0938
1273.45	37.8486
1277.74	86.7998
1282.03	176.068
1286.31	86.4981
1290.59	90.416
1294.87	200.569
1299.14	25.8271
1303.42	182.612
1307.69	134.778
1311.95	106.38
1316.22	186.876
1320.48	189.68
1324.74	155.186
1329	143.347
1333.26	133.278
1337.51	131.218
1341.76	238.017
1346	75.1885
1350.25	61.2617
1354.49	138.748
1358.73	125.182
1362.96	124.449
1367.2	175.148
1371.43	146.717
1375.66	151.878
1379.88	119.669
1384.11	101.221
1388.33	150.461
1392.54	117.308
1396.76	60.584
1400.97	207.176
1405.18	85.2539
1409.39	51.6865
1413.59	69.9238
1417.8	174.74
1421.99	183.088
1426.19	171.58
1430.38	141.56
1434.58	121.274
1438.77	278.455
1442.95	289.876
1447.13	234.56
1451.32	260.022
1455.49	276.603
1459.67	205.111
1463.84	196.52
1468.01	213.472
1472.18	142.765
1476.35	317.69
1480.51	82.5898
1484.67	123.141
1488.83	75.3682
1492.98	113.662
1497.13	176.647
1501.28	196.309
1505.43	134.559
1509.57	101.927
1513.71	31.5488
1517.85	150.3
1521.99	198.21
1526.12	61.6377
1530.25	83.7568
1534.38	1.69727
1538.5	160.975
1542.62	36.0371
1546.74	121.19
1550.86	323.199
1554.98	219.293
1559.09	109.769
1563.2	45.9815
1567.31	70.7598
1571.41	89.8252
