Measurement: Raman, 514 nm, ccw, Raman Data Processed
Mineral: Edingtonite
Rruff sample: R040003
Ideal chemistry: Ba(Si_3_Al_2_)O_10_4H_2_O
Locality: Bohl, Sweden
Source: University of Arizona Mineral Museum
Description: Colorless tetragonal prism
Measured chemistry: Ba_1.00_(Si_3.00_Al_2.00_)O_10_Â·4H_2_O; trace amounts of Na; H_2_O estimated by difference
Pin_id: m00029
Orientation: Laser parallel to c* (0 0 1). Fiducial mark perpendicular to laser is parallel to a [1 0 0]
Raman shift (cm-1)	intensity
89.89	0
94.071	120.788
98.251	357.689
102.428	1124.8
106.604	1966.44
110.777	1765.64
114.949	2432.42
119.119	3416.19
123.286	4513.5
127.452	6123.23
131.615	9709.48
135.777	12256.4
139.937	10712.7
144.094	8651.99
148.25	9383.43
152.403	12557.5
156.555	13692.6
160.705	10048.5
164.853	5818.67
168.998	3333.5
173.142	2285.09
177.284	1850.78
181.424	1826.91
185.562	1433.19
189.698	1206.11
193.831	1217.42
197.963	961.317
202.093	798.777
206.221	606.099
210.347	643.723
214.472	734.421
218.594	536.641
222.714	417.821
226.832	968.841
230.948	2692.61
235.063	5983.04
239.175	4337.14
243.286	1105.97
247.394	95.782
251.501	252.985
255.605	428.474
259.708	406.747
263.808	422.063
267.907	241.398
272.004	81.088
276.099	298.076
280.192	346.214
284.283	72.047
288.372	41.156
292.459	18.764
296.544	95.156
300.627	216.614
304.709	506.494
308.788	806.037
312.865	1088.45
316.941	1082.89
321.015	968.526
325.086	720.501
329.156	650.993
333.224	811.965
337.29	1081
341.354	1588.7
345.416	1934.78
349.476	2083.19
353.534	2116.33
357.591	2153.18
361.645	2196.68
365.698	2032.04
369.748	1737.85
373.797	1518.93
377.844	1774.13
381.889	2273.23
385.932	2568.75
389.973	2238.95
394.012	1936.13
398.049	2046.9
402.084	2416.26
406.118	2530.22
410.15	2362.74
414.179	2191.07
418.207	2344.76
422.233	2462.58
426.257	2913.41
430.279	3622.31
434.299	3986.34
438.318	3622.82
442.334	2927.05
446.349	2140.82
450.361	1691.18
454.372	1256.81
458.381	1089.86
462.388	968.127
466.394	1039.25
470.397	1201.11
474.398	1453.11
478.398	1626.49
482.396	2074.16
486.391	2602.59
490.385	3100.09
494.377	3532.18
498.368	3717.17
502.356	3776.25
506.342	3630.29
510.327	3914.29
514.31	5175.26
518.291	8358.38
522.27	16487.2
526.247	34415.4
530.222	48462.7
534.196	34119.9
538.167	17107
542.137	9174.19
546.105	5349.41
550.071	3331.65
554.035	2368.86
557.998	1726.07
561.958	1209.25
565.917	988.434
569.874	848.682
573.829	735.473
577.782	738.405
581.733	648.782
585.683	668.537
589.63	855.027
593.576	1030.57
597.52	1241.19
601.462	1284.8
605.402	1016.79
609.341	709.56
613.277	342.838
617.212	161.669
621.145	50.171
625.076	89.674
629.006	96.198
632.933	96.091
636.859	101.875
640.783	123.667
644.705	71.256
648.625	235.805
652.543	592.836
656.46	821.527
660.375	674.295
664.288	432.659
668.199	189.485
672.108	97.37
676.016	25.613
679.921	9.743
683.825	51.735
687.727	207.276
691.628	322.844
695.526	630.699
699.423	1013.97
703.318	1677.48
707.211	2404.9
711.102	2495.3
714.992	2012.8
718.879	1583.02
722.765	1273.97
726.649	823.797
730.532	477.244
734.412	300.23
738.291	189.161
742.168	132.701
746.043	119.522
749.916	61.285
753.788	100.834
757.658	65.133
761.526	143.26
765.392	303.124
769.257	363.838
773.119	304.316
776.98	188.414
780.839	83.564
784.697	52.423
788.552	44.743
792.406	38.079
796.258	38.842
800.108	21.155
803.957	137.001
807.804	26.126
811.649	1.298
815.492	20.16
819.333	40.449
823.173	33.51
827.011	51.017
830.847	38.434
834.681	56.689
838.514	12.288
842.345	27.007
846.174	2.575
850.001	56.504
853.827	57.905
857.651	64.831
861.473	56.119
865.293	4.162
869.112	73.928
872.928	74.451
876.744	118.713
880.557	70.755
884.369	89.543
888.178	86.095
891.987	119.417
895.793	86.436
899.598	123.683
903.401	129.233
907.202	139.181
911.001	118.763
914.799	146.442
918.595	196.296
922.389	216.963
926.182	276.439
929.972	225.742
933.761	273.347
937.549	352.115
941.334	523.152
945.118	740.797
948.9	1141.95
952.681	1887.38
956.459	2405.69
960.236	2021.8
964.012	1635.9
967.785	1459.02
971.557	1433.2
975.327	1671.73
979.095	2188.59
982.862	2969.89
986.627	3439.8
990.39	4038.14
994.152	4849.58
997.912	4963.11
1001.67	3475.19
1005.43	2061.17
1009.18	1339.85
1012.93	955.473
1016.68	821.92
1020.43	715.698
1024.18	739.222
1027.93	914.698
1031.67	1092.91
1035.42	1339.68
1039.16	1717.68
1042.9	2409.76
1046.63	3525.77
1050.37	5366.75
1054.11	7344.73
1057.84	7135.46
1061.57	5230.9
1065.3	3677.64
1069.03	2617.82
1072.75	1848.85
1076.47	1402.03
1080.2	1169.95
1083.92	1084.77
1087.64	1168.52
1091.36	1228.19
1095.07	1509.81
1098.79	2030.69
1102.5	2583.57
1106.21	2310.57
1109.92	1572.33
1113.62	1112.14
1117.33	737.893
1121.04	617.652
1124.74	662.354
1128.44	300.912
1132.14	214.614
1135.83	156.684
1139.53	133.234
1143.22	95.483
1146.92	139.56
1150.61	60.674
1154.3	54.93
1157.98	2.01
1161.67	5.454
1165.35	10.268
1169.04	34.816
1172.72	29.28
1176.4	65.743
1180.07	55.552
1183.75	3.011
1187.42	11.862
1191.1	9.023
1194.77	32.169
1198.44	36.046
1202.1	0.235
1205.77	45.189
1209.43	66.522
1213.1	5.3
1216.76	8.383
1220.42	30.264
1224.07	2.815
1227.73	6.327
1231.38	54.658
1235.04	89.149
1238.69	67.376
1242.34	44.694
1245.99	71.883
1249.63	4.944
1253.28	28.976
1256.92	4.935
1260.56	1.937
1264.2	71.764
1267.84	105.512
1271.48	60.185
1275.11	54.846
1278.74	55.413
1282.38	26.057
1286.01	12.355
1289.63	66.497
1293.26	82.474
1296.89	148.273
1300.51	86.859
1304.13	73.278
1307.75	69.537
1311.37	52.628
1314.99	28.166
1318.6	90.199
1322.22	2.731
1325.83	14.647
1329.44	110.404
1333.05	71.165
1336.66	56.09
1340.26	5.881
1343.87	1.719
1347.47	0.79
1351.07	17.745
1354.67	16.749
1358.27	20.818
1361.86	47.19
1365.46	59.239
1369.05	72.581
1372.64	147.696
1376.23	47.539
1379.82	130.261
1383.41	44.869
1386.99	62.332
1390.57	82.517
1394.16	99.448
1397.74	115.806
1401.32	138.801
1404.89	133.38
1408.47	115.415
1412.04	167.574
1415.61	110.485
1419.18	128
1422.75	46.863
1426.32	166.075
1429.89	54.989
1433.45	95.297
1437.01	195.331
1440.58	184.64
1444.13	175.812
1447.69	242.682
1451.25	247.836
1454.81	246.537
1458.36	188.957
1461.91	173.143
1465.46	174.495
1469.01	158.242
1472.56	111.896
1476.1	114.01
1479.64	142.264
1483.19	162.932
1486.73	123.169
1490.27	157.392
1493.81	131.961
1497.34	104.513
1500.88	52.071
1504.41	14.751
1507.94	52.817
1511.47	19.44
1515	51.838
1518.53	21.432
1522.05	88.26
1525.57	111.314
1529.1	98.998
1532.62	104.545
