Measurement: Raman, 514 nm, ccw, Raman Data Processed
Mineral: Edingtonite
Rruff sample: R040003
Ideal chemistry: Ba(Si_3_Al_2_)O_10_4H_2_O
Locality: Bohl, Sweden
Source: University of Arizona Mineral Museum
Description: Colorless tetragonal prism
Measured chemistry: Ba_1.00_(Si_3.00_Al_2.00_)O_10_Â·4H_2_O; trace amounts of Na; H_2_O estimated by difference
Pin_id: m00038
Orientation: Laser parallel to b* (0 1 0). Fiducial mark perpendicular to laser is parallel to c [0 0 1]
Raman shift (cm-1)	intensity
124.116	0
128.284	3513.34
132.45	11205.3
136.614	14363
140.775	9596.2
144.935	5579.01
149.093	3970.99
153.248	3715.37
157.402	3156.01
161.554	2236.28
165.703	1227.98
169.851	367.757
173.996	181.077
178.14	70.577
182.281	81.06
186.421	193.217
190.558	172.098
194.694	76.52
198.827	164.163
202.959	32.049
207.088	323.455
211.216	25.122
215.341	102.158
219.465	290.874
223.586	1077.94
227.706	3082.71
231.823	9630.81
235.939	22899
240.052	13240.3
244.164	3988.23
248.274	1372.96
252.381	480.5
256.487	48.161
260.59	123.844
264.692	6.861
268.791	142.739
272.889	79.829
276.985	72.634
281.078	160.092
285.17	264.879
289.26	248.025
293.348	149.839
297.433	229.567
301.517	680.061
305.599	1181.41
309.679	1704.42
313.757	2371.03
317.833	2415.93
321.907	2011.79
325.979	1611.14
330.049	1203.88
334.117	1100.95
338.183	1075.52
342.247	1054.58
346.31	1411.04
350.37	1639.99
354.428	2447.56
358.484	3639.77
362.539	4225.07
366.591	3126.64
370.642	1729.01
374.691	1228.65
378.737	627.294
382.782	454.947
386.825	411.705
390.865	707.62
394.904	982.771
398.941	1478.75
402.976	2412.88
407.009	2836.21
411.04	2567.15
415.07	2565.71
419.097	2785.31
423.122	3787.23
427.146	5482.24
431.167	6816.85
435.187	7399.48
439.204	6220.32
443.22	4511.74
447.234	3200.09
451.246	2044.88
455.256	1443.28
459.264	1060.85
463.27	797.731
467.274	634.099
471.277	300.07
475.277	325.336
479.275	288.489
483.272	330.809
487.267	354.736
491.26	540.357
495.25	826.479
499.239	1312.72
503.226	1539.02
507.212	2385.5
511.195	3422.08
515.176	5538.55
519.156	9894.82
523.133	20586.8
527.109	43495.1
531.083	51233.2
535.055	30562.5
539.025	14975.4
542.993	8041.08
546.959	4767.91
550.923	3213.58
554.886	2219.53
558.846	1655.21
562.805	1281.17
566.762	1117.38
570.717	1013.89
574.67	890.834
578.621	838.278
582.57	996.146
586.518	1284.31
590.463	1432.65
594.407	1921.05
598.349	2399.47
602.289	2558.13
606.227	2278.21
610.163	1439.78
614.097	890.248
618.03	735.703
621.961	920.222
625.889	1174.08
629.816	1211.85
633.741	790.979
637.664	732.69
641.586	1111.19
645.505	1757.7
649.423	2763.85
653.339	3723.35
657.253	4045.03
661.165	3236.09
665.075	2074.67
668.983	1063.22
672.89	581.741
676.795	330.462
680.697	258.487
684.598	86.739
688.498	184.499
692.395	102.145
696.29	489.673
700.184	837.369
704.076	1484.68
707.966	2341.88
711.854	2888.96
715.74	3225.9
719.625	2782.7
723.508	1979.35
727.388	1187.71
731.267	672.167
735.145	328.325
739.02	264.312
742.894	150.124
746.765	15.727
750.635	28.934
754.503	133.871
758.37	39.201
762.234	45.067
766.097	151.063
769.958	167.679
773.817	154.797
777.674	112.442
781.529	60.622
785.383	99.244
789.235	1.679
793.084	52.306
796.933	58.697
800.779	112.749
804.624	252.59
808.466	242.227
812.307	71.657
816.146	160.878
819.984	239.902
823.819	407.32
827.653	234.547
831.485	242.096
835.315	90.36
839.144	468.435
842.97	616.329
846.795	594.043
850.618	641.579
854.44	658.941
858.259	846.129
862.077	1223.14
865.893	1070.03
869.707	796.739
873.519	553.3
877.33	449.688
881.138	455.463
884.945	409.308
888.751	701.646
892.554	580.89
896.356	508.67
900.156	436.449
903.954	540.07
907.75	603.781
911.545	708.745
915.338	531.684
919.129	307.863
922.918	123.989
926.706	353.09
930.491	497.128
934.276	527.32
938.058	480.984
941.838	545.719
945.617	570.175
949.394	1054.23
953.169	1768.91
956.943	2043.81
960.715	1508.4
964.485	873.375
968.253	698.392
972.019	633.132
975.784	388.126
979.547	533.118
983.308	598.105
987.068	783.084
990.826	568.068
994.582	583.041
998.336	680.457
1002.09	1485.41
1005.84	1580.45
1009.59	897.486
1013.34	562.518
1017.08	689.153
1020.83	815.644
1024.57	1165.13
1028.31	1211.84
1032.05	1178.7
1035.78	1204.56
1039.52	1710.04
1043.25	1965.68
1046.98	3331.47
1050.71	5517.9
1054.44	7276.94
1058.17	6575.69
1061.89	4722.54
1065.62	3124.66
1069.34	2274.86
1073.06	1554.59
1076.78	1391.3
1080.49	1228.33
1084.21	1365.46
1087.92	902.24
1091.63	620.724
1095.34	418.105
1099.05	269.51
1102.76	327.318
1106.46	444.368
1110.16	510.789
1113.86	519.512
1117.56	346.312
1121.26	473.932
1124.95	630.196
1128.65	176.425
1132.34	342.56
1136.03	288.81
1139.72	214.785
1143.41	170.658
1147.1	43.561
1150.78	157.877
1154.46	12.334
1158.14	36.283
1161.82	209.533
1165.5	175.115
1169.17	270.127
1172.85	105.381
1176.52	210.484
1180.19	15.199
1183.86	10.207
1187.53	4.225
1191.19	208.455
1194.86	182.527
1198.52	196.359
1202.18	60.115
1205.84	173.896
1209.49	63.17
1213.15	23.76
1216.8	198.984
1220.45	121.945
1224.11	229.635
1227.75	93.115
1231.4	20.285
1235.05	13.004
1238.69	196.82
1242.33	50.967
1245.97	161.111
1249.61	374.148
1253.25	315.824
1256.88	396.74
1260.52	338.26
1264.15	433.229
1267.78	317.826
1271.41	338.381
1275.04	296.689
1278.66	255.875
1282.29	312.533
1285.91	241.145
1289.53	408.729
1293.15	438.182
1296.76	395.873
1300.38	334.488
1303.99	113.367
1307.61	221.963
1311.22	289.939
1314.83	607.393
1318.43	572.168
1322.04	768.506
1325.64	745.684
1329.24	397.441
1332.85	370.705
1336.44	124.834
1340.04	88.732
1343.64	32.711
1347.23	153.756
1350.83	89.949
1354.42	294.369
1358.01	89.578
1361.59	180.525
1365.18	285.381
1368.76	171.676
1372.35	47.574
1375.93	32.363
1379.51	158.391
1383.09	305.816
1386.66	202.848
1390.24	339.924
1393.81	436.852
1397.38	372.885
1400.95	238.408
1404.52	334.596
1408.09	80.662
1411.65	266.994
1415.21	303.373
1418.78	319.67
1422.34	455.377
1425.9	512.811
1429.45	750.09
1433.01	755.227
1436.56	1035.52
1440.12	1288.35
1443.67	1538.58
1447.21	1641.75
1450.76	1794.14
1454.31	1677
1457.85	1676.81
1461.39	1639.67
1464.94	1530.57
1468.47	1383.34
1472.01	1147.44
1475.55	1022.23
1479.08	687.613
1482.62	864.115
1486.15	682.412
1489.68	573.041
1493.21	406.854
1496.73	65.867
1500.26	74.229
1503.78	0
