Measurement: Raman, 514 nm, ccw, Raman Data Processed
Mineral: Edingtonite
Rruff sample: R040110
Ideal chemistry: Ba(Si_3_Al_2_)O_10_4H_2_O
Locality: 2350 level, Brunswick 12 mine, Bathhurst, New Brunswick, Canada
Source: National Museums of Canada
Description: Colorless rectangular prism
Measured chemistry: Ba_1.00_(Si_3.00_Al_2.00_)O_10_Â·4H_2_O
Pin_id: M00273
Orientation: Laser parallel to -a* (-1 0 0). Fiducial mark perpendicular to laser is parallel to b [0 1 0]
Raman shift (cm-1)	intensity
53.91	0
58.864	125.702
63.817	23.2251
68.767	168.607
73.714	666.446
78.659	1989.45
83.602	4035.02
88.542	6252.38
93.48	8921.51
98.416	10894.1
103.349	11459.9
108.28	10619.3
113.208	10363.6
118.134	11003.3
123.058	12077.4
127.979	13785.4
132.898	15103.6
137.814	15843.6
142.728	17753.6
147.639	21547.4
152.549	24377.4
157.455	20987.8
162.359	15883.5
167.261	11754.4
172.161	8792.37
177.058	7149.28
181.952	5886.17
186.845	5120.97
191.734	4309.97
196.622	4072.57
201.507	3620.55
206.389	2957.47
211.269	2474.87
216.147	2041.39
221.022	1561.51
225.895	1662.72
230.765	2129.96
235.633	2942.43
240.498	2627.52
245.361	1846.75
250.222	1177.74
255.08	902.201
259.936	744.867
264.789	434.505
269.64	480.894
274.488	888.793
279.334	896.068
284.178	913.708
289.019	944.661
293.857	915.881
298.693	669.356
303.527	377.728
308.358	261.841
313.187	139.423
318.013	45.2305
322.837	170.519
327.659	103.826
332.478	15.6426
337.294	28.1387
342.108	94.4775
346.92	77.1816
351.729	569.389
356.535	964.811
361.34	919.139
366.141	720.146
370.94	147.674
375.737	243.585
380.531	81.7588
385.323	120.09
390.113	205.48
394.9	431.835
399.684	833.072
404.466	825.11
409.245	508.871
414.022	424.281
418.797	1024.27
423.569	1600.77
428.338	2002.72
433.105	1935.09
437.87	1336.08
442.632	548.649
447.391	66.835
452.149	192.212
456.903	181.783
461.655	244.581
466.405	85.1514
471.152	75.8682
475.897	390.663
480.639	814.01
485.378	1246.2
490.116	1975.22
494.85	2423.76
499.582	2695.23
504.312	3154.14
509.039	4480.42
513.764	8370.03
518.486	19014.9
523.206	39340.1
527.923	50848.4
532.638	31862.8
537.35	13929.3
542.059	6488.91
546.766	3381.49
551.471	2098.03
556.173	1218.49
560.873	852.835
565.57	524.041
570.264	444.062
574.957	320.95
579.646	255.612
584.333	181.996
589.018	304.285
593.7	123.715
598.379	58.8154
603.056	74.708
607.73	32.9717
612.402	115.608
617.072	21.1025
621.739	148.32
626.403	123.221
631.065	210.026
635.724	382.644
640.381	296.086
645.035	576.264
649.687	916.128
654.336	1326.77
658.983	1132.19
663.627	932.685
668.268	725.941
672.907	722.577
677.544	746.007
682.178	908.723
686.809	1177.11
691.438	1402.66
696.065	1696.68
700.688	2258.22
705.31	2540.13
709.929	2370.24
714.545	2097.41
719.158	1535.64
723.77	1139.78
728.378	895.57
732.984	895.799
737.588	772.695
742.189	954.145
746.787	864.659
751.383	922.475
755.976	906.848
760.567	687.431
765.155	606.047
769.741	436.083
774.324	398.268
778.904	335.29
783.482	436.577
788.058	358.116
792.631	366.619
797.201	348.599
801.769	219.451
806.334	303.575
810.897	327.112
815.457	323.065
820.014	250.431
824.569	213.221
829.122	177.442
833.671	244.089
838.219	196.161
842.763	151.672
847.306	67.3936
851.845	104.707
856.382	187.144
860.917	3.87695
865.448	137.636
869.978	56.7539
874.505	112.397
879.029	15.831
883.55	101.597
888.069	24.6299
892.586	71.0908
897.1	105.283
901.611	65.5518
906.12	99.8643
910.626	91.0664
915.129	77.917
919.63	565.279
924.129	7.81836
928.625	4.50293
933.118	46.2617
937.609	272.935
942.097	362.592
946.582	976.169
951.065	1801.61
955.546	2016.3
960.023	1613.5
964.499	1352.81
968.971	1353.36
973.441	1637.26
977.909	2169.09
982.374	2916.12
986.836	4123.73
991.295	5195.18
995.753	5525.75
1000.21	3787.94
1004.66	2186.07
1009.11	1450.47
1013.55	1151.41
1018	695.481
1022.44	999.617
1026.88	817.296
1031.32	1241.01
1035.75	1532.64
1040.18	2237.82
1044.61	3435.53
1049.04	6137.13
1053.46	7752.58
1057.88	6142.81
1062.3	4334.86
1066.71	2803.21
1071.13	2030.35
1075.54	1594.99
1079.94	1387.03
1084.35	1249.44
1088.75	1143.19
1093.15	1129.32
1097.55	1292.84
1101.94	1020.71
1106.34	1091.91
1110.73	865.438
1115.11	819.372
1119.5	900.886
1123.88	1059.73
1128.26	664.304
1132.63	713.891
1137.01	564.979
1141.38	432.525
1145.75	484.298
1150.12	403.128
1154.48	594.42
1158.84	419.795
1163.2	517.348
1167.55	405.819
1171.91	352.187
1176.26	490.89
1180.61	296.767
1184.95	400.28
1189.29	355.71
1193.63	357.082
1197.97	311.844
1202.31	220.19
1206.64	259.102
1210.97	314.687
1215.29	265.103
1219.62	247.085
1223.94	282.041
1228.26	175.215
1232.57	185.003
1236.89	122.983
1241.2	259.867
1245.51	194.364
1249.81	12.3633
1254.12	28.6094
1258.42	102.058
1262.72	190.378
1267.01	146.501
1271.3	137.832
1275.59	18.333
1279.88	46.2324
1284.17	74.1475
1288.45	16.6865
1292.73	41.9551
1297.01	154.856
1301.28	6.5791
1305.55	21.5947
1309.82	56.874
1314.09	60.8145
1318.35	112.132
1322.61	53.126
1326.87	34.5078
1331.13	80.0137
1335.38	30.832
1339.63	0.134766
1343.88	136.971
1348.12	33.584
1352.37	2.63867
1356.61	76.8555
1360.85	236.949
1365.08	97.6602
1369.31	79.9785
1373.54	303.883
1377.77	153.315
1381.99	241.668
1386.22	173.94
1390.43	293.504
1394.65	266.133
1398.87	366.084
1403.08	373.781
1407.29	341.883
1411.49	369.836
1415.69	300.184
1419.89	304.637
1424.09	301.519
1428.29	507.316
1432.48	490.56
1436.67	475.69
1440.86	535.098
1445.04	402.891
1449.23	653.465
1453.4	608.973
1457.58	494.875
1461.76	592.816
1465.93	450.076
1470.1	425.889
1474.26	365.897
1478.43	424.322
1482.59	500.672
1486.75	364.861
1490.9	523.182
1495.06	386.545
1499.21	262.203
1503.35	567.836
1507.5	460.711
1511.64	238.674
1515.78	368.982
1519.92	425.42
1524.05	459.482
1528.18	204.217
1532.31	288.76
1536.44	334.375
1540.56	237.367
1544.69	233.193
1548.8	114.127
1552.92	282.727
1557.03	143.066
1561.14	34.3809
1565.25	356.359
1569.36	14.4668
