Measurement: Raman, 514 nm, ccw, Raman Data Processed
Mineral: Edingtonite
Rruff sample: R040110
Ideal chemistry: Ba(Si_3_Al_2_)O_10_4H_2_O
Locality: 2350 level, Brunswick 12 mine, Bathhurst, New Brunswick, Canada
Source: National Museums of Canada
Description: Colorless rectangular prism
Measured chemistry: Ba_1.00_(Si_3.00_Al_2.00_)O_10_Â·4H_2_O
Pin_id: M00390
Orientation: Laser parallel to -c* (0 0 -1). Fiducial mark perpendicular to laser is parallel to a [1 0 0]
Raman shift (cm-1)	intensity
53.91	0
58.864	186.4
63.817	11.7605
68.767	90.9408
73.714	418.853
78.659	1162.24
83.602	2252.56
88.542	3487.12
93.48	4706.42
98.416	5934.55
103.349	6757
108.28	6848
113.208	6446.43
118.134	7832.53
123.058	10039.3
127.979	13209.8
132.898	16087
137.814	17657.5
142.728	19669.6
147.639	23863.5
152.549	27183.6
157.455	22090
162.359	14180.7
167.261	9718.8
172.161	7259.25
177.058	5853.01
181.952	5040.38
186.845	4382.7
191.734	3913.76
196.622	3393.91
201.507	3298.1
206.389	2552.27
211.269	2252.59
216.147	1955.71
221.022	1949.4
225.895	2035.87
230.765	2243.69
235.633	2061.07
240.498	1157.85
245.361	909.719
250.222	733.484
255.08	806.976
259.936	1022.06
264.789	936.482
269.64	1403.5
274.488	1746.22
279.334	1299.76
284.178	850.017
289.019	432.365
293.857	269.778
298.693	159.225
303.527	65.6641
308.358	13.9165
313.187	128.413
318.013	2.37305
322.837	92.3115
327.659	137.488
332.478	117.01
337.294	134.15
342.108	179.448
346.92	2.92188
351.729	2.59082
356.535	75.7588
361.34	157.477
366.141	290.549
370.94	202.8
375.737	138.097
380.531	344.597
385.323	384.11
390.113	567.482
394.9	759.643
399.684	1279.55
404.466	1125.15
409.245	1044.38
414.022	937.232
418.797	1468.65
423.569	1958.62
428.338	2506.09
433.105	2342.04
437.87	1601.43
442.632	1177.23
447.391	605.644
452.149	497.063
456.903	490.112
461.655	666.081
466.405	721.13
471.152	1078.18
475.897	1745.8
480.639	2300.53
485.378	3044.65
490.116	3845.31
494.85	4262.27
499.582	4560.87
504.312	4678.28
509.039	5578.37
513.764	9106.37
518.486	20279
523.206	39692
527.923	51639.4
532.638	32659.5
537.35	14718.3
542.059	7018.63
546.766	3792.56
551.471	2162.98
556.173	1553.86
560.873	948.171
565.57	693.883
570.264	436.948
574.957	454.329
579.646	343.99
584.333	224.893
589.018	14.001
593.7	91.2256
598.379	185.719
603.056	135.133
607.73	18.7324
612.402	67.3018
617.072	8.23535
621.739	58.169
626.403	37.1416
631.065	61.6123
635.724	24.8564
640.381	31.7979
645.035	32.6904
649.687	51.6445
654.336	158.56
658.983	16.8193
663.627	71.8818
668.268	123.817
672.907	225.293
677.544	241.356
682.178	350.433
686.809	489.512
691.438	823.283
696.065	1423.11
700.688	2128.21
705.31	2462.06
709.929	1859.4
714.545	1339.12
719.158	951.225
723.77	613.828
728.378	426.286
732.984	312.653
737.588	242.277
742.189	200.706
746.787	247.724
751.383	20.3535
755.976	183.143
760.567	128.068
765.155	26.5615
769.741	90.4853
774.324	57.0615
778.904	11.9385
783.482	7.28418
788.058	43.4209
792.631	64.7139
797.201	21.1357
801.769	73.7139
806.334	41.7217
810.897	112.065
815.457	64.2217
820.014	14.0312
824.569	84.4522
829.122	132.549
833.671	16.3291
838.219	27.7754
842.763	30.9033
847.306	63.748
851.845	11.3223
856.382	198.638
860.917	80.7188
865.448	61.585
869.978	127.265
874.505	68.5537
879.029	20.6816
883.55	112.634
888.069	73.5147
892.586	146.111
897.1	40.8779
901.611	16.6221
906.12	150.36
910.626	54.2168
915.129	39.6699
919.63	62.5566
924.129	99.2168
928.625	229.651
933.118	168.611
937.609	420.009
942.097	539.434
946.582	1124.89
951.065	2085.91
955.546	2314.26
960.023	1824.47
964.499	1352.12
968.971	1332.08
973.441	1712.85
977.909	2535.53
982.374	3580.61
986.836	4750.64
991.295	6448.36
995.753	6599.05
1000.21	4359.11
1004.66	2305.45
1009.11	1164.59
1013.55	756.437
1018	492.589
1022.44	605.857
1026.88	759.092
1031.32	816.14
1035.75	1325.9
1040.18	1756.67
1044.61	3210.1
1049.04	5874.35
1053.46	7427.96
1057.88	5825.86
1062.3	3549.98
1066.71	2073.18
1071.13	1555.71
1075.54	1049.52
1079.94	674.795
1084.35	676.619
1088.75	456.103
1093.15	595.518
1097.55	615.653
1101.94	534.333
1106.34	374.925
1110.73	356.151
1115.11	199.816
1119.5	313.011
1123.88	221.307
1128.26	93.6963
1132.63	96.0996
1137.01	43.3281
1141.38	54.9121
1145.75	12.6904
1150.12	148.33
1154.48	55.4815
1158.84	79.8359
1163.2	106.158
1167.55	42.4932
1171.91	33.1865
1176.26	15.9453
1180.61	4.90723
1184.95	21.7861
1189.29	32.9775
1193.63	47.9365
1197.97	137.808
1202.31	36.6191
1206.64	7.41211
1210.97	109.134
1215.29	29.8154
1219.62	61.0469
1223.94	17.5801
1228.26	91.9082
1232.57	140.38
1236.89	32.8193
1241.2	121.684
1245.51	102.836
1249.81	46.9375
1254.12	129.985
1258.42	176.978
1262.72	71.8975
1267.01	40.0557
1271.3	5.30762
1275.59	32.8418
1279.88	155.985
1284.17	118.024
1288.45	116.456
1292.73	62.6504
1297.01	176.684
1301.28	95.7617
1305.55	26.3584
1309.82	95.8584
1314.09	5.25879
1318.35	226.744
1322.61	207.588
1326.87	123.395
1331.13	139.165
1335.38	32.6211
1339.63	117.053
1343.88	99.6904
1348.12	35.7139
1352.37	127.975
1356.61	123.716
1360.85	60.207
1365.08	122.925
1369.31	165.629
1373.54	254.083
1377.77	172.586
1381.99	247.065
1386.22	150.721
1390.43	119.269
1394.65	158.074
1398.87	259.507
1403.08	154.306
1407.29	43.9414
1411.49	108.261
1415.69	271.135
1419.89	79.2578
1424.09	172.272
1428.29	211.231
1432.48	103.561
1436.67	363.031
1440.86	326.87
1445.04	122.61
1449.23	290.853
1453.4	346.074
1457.58	240.359
1461.76	278.103
1465.93	255.451
1470.1	80.7715
1474.26	205.382
1478.43	157.94
1482.59	123.598
1486.75	320.575
1490.9	21.3018
1495.06	246.643
1499.21	212.475
1503.35	44.3242
1507.5	244.227
1511.64	21.3779
1515.78	44.8145
1519.92	232.667
1524.05	196.036
1528.18	94.9834
1532.31	178.968
1536.44	296.284
1540.56	230.718
1544.69	295.971
1548.8	165.733
1552.92	283.573
1557.03	227.065
1561.14	68.1455
1565.25	57.8818
1569.36	100.384
