Measurement: Raman, 514 nm, ccw, Raman Data Processed
Mineral: Edingtonite
Rruff sample: R040003
Ideal chemistry: Ba(Si_3_Al_2_)O_10_4H_2_O
Locality: Bohl, Sweden
Source: University of Arizona Mineral Museum
Description: Colorless tetragonal prism
Measured chemistry: Ba_1.00_(Si_3.00_Al_2.00_)O_10_Â·4H_2_O; trace amounts of Na; H_2_O estimated by difference
Pin_id: m00026
Orientation: Laser parallel to a* (1 0 0). Fiducial mark perpendicular to laser is parallel to c [0 0 1]
Raman shift (cm-1)	intensity
119.947	0
124.116	1107.35
128.284	1399.27
132.45	973.551
136.614	447.838
140.775	427.369
144.935	1420.88
149.093	3483.85
153.248	6570.92
157.402	6922.78
161.554	4400.06
165.703	2620.42
169.851	1714.34
173.996	1016.87
178.14	528.34
182.281	417.151
186.421	227.226
190.558	69.884
194.694	22.539
198.827	139.749
202.959	472.905
207.088	722.651
211.216	95.593
215.341	242.168
219.465	359.851
223.586	347.32
227.706	222.093
231.823	237.247
235.939	1338.24
240.052	946.617
244.164	441.038
248.274	270.788
252.381	159.067
256.487	534.584
260.59	328.004
264.692	459.697
268.791	318.381
272.889	369.204
276.985	274.822
281.078	334.625
285.17	248.405
289.26	215.862
293.348	317.292
297.433	592.558
301.517	641.04
305.599	814.777
309.679	1135.58
313.757	1393.59
317.833	1226.67
321.907	1051.32
325.979	1034.53
330.049	961.352
334.117	914.059
338.183	942.095
342.247	1066.27
346.31	1374.92
350.37	1556.12
354.428	2472.91
358.484	3439.5
362.539	3798.64
366.591	2738.82
370.642	1672.51
374.691	985.904
378.737	792.793
382.782	749.047
386.825	816.265
390.865	1045.44
394.904	878.268
398.941	834.4
402.976	823.505
407.009	878.445
411.04	752.51
415.07	856.358
419.097	1169.7
423.122	1640.95
427.146	2238.91
431.167	2433.65
435.187	2408.18
439.204	1621.98
443.22	1029.24
447.234	485.24
451.246	203.719
455.256	105.076
459.264	116.954
463.27	118.069
467.274	198.198
471.277	67.581
475.277	354.677
479.275	111.817
483.272	238.756
487.267	416.98
491.26	556.264
495.25	785.489
499.239	934.673
503.226	1423.74
507.212	2183.03
511.195	3532.67
515.176	5902.66
519.156	10803
523.133	22933.4
527.109	46472.2
531.083	47321.9
535.055	25731.6
539.025	12842
542.993	7133.25
546.959	4246.97
550.923	2770.36
554.886	2130.64
558.846	1459.62
562.805	1208.47
566.762	937.208
570.717	765.873
574.67	694.504
578.621	565.625
582.57	751.699
586.518	1030.24
590.463	828.53
594.407	823.611
598.349	1067.3
602.289	994.283
606.227	933.94
610.163	976.141
614.097	1182.09
618.03	1944.39
621.961	3118.77
625.889	4935.94
629.816	3566.1
633.741	2049.11
637.664	1968.97
641.586	2845.89
645.505	3976.93
649.423	4744.96
653.339	5391.29
657.253	4367.42
661.165	2723.36
665.075	1459.09
668.983	1594.64
672.89	809.986
676.795	435.135
680.697	60.066
684.598	65.253
688.498	90.88
692.395	103.154
696.29	326.943
700.184	560.512
704.076	643.876
707.966	677.038
711.854	1019.99
715.74	1232.74
719.625	985.29
723.508	457.626
727.388	279.755
731.267	199.262
735.145	183.402
739.02	5.022
742.894	143.661
746.765	27.34
750.635	287.9
754.503	42.012
758.37	142.253
762.234	12.96
766.097	93.949
769.958	125.23
773.817	66.857
777.674	168.936
781.529	108.411
785.383	4.575
789.235	242.176
793.084	508.742
796.933	445.139
800.779	571.371
804.624	477.44
808.466	515.94
812.307	469.105
816.146	644.709
819.984	838.457
823.819	880.746
827.653	801.023
831.485	1054.06
835.315	1237.95
839.144	1732.67
842.97	1767.34
846.795	1851.89
850.618	1786.32
854.44	2500.64
858.259	3874.85
862.077	4588.95
865.893	3172.95
869.707	2236.44
873.519	2030.02
877.33	1892.17
881.138	1968.52
884.945	1817.69
888.751	1772.96
892.554	1612.69
896.356	1556.83
900.156	1873.31
903.954	1862.93
907.75	1761.7
911.545	1520.77
915.338	1189.79
919.129	798.119
922.918	637.385
926.706	841.098
930.491	795.461
934.276	929.918
938.058	444.371
941.838	598.814
945.617	493.334
949.394	1097.97
953.169	1742.62
956.943	1517.3
960.715	1222
964.485	626.764
968.253	871.57
972.019	686.389
975.784	531.203
979.547	806.012
983.308	1080.81
987.068	1605.6
990.826	1620.38
994.582	1795.16
998.336	2889.92
1002.09	6074.67
1005.84	2174.09
1009.59	631.539
1013.34	694.102
1017.08	1026.6
1020.83	1754.84
1024.57	2309.76
1028.31	2036.78
1032.05	1452.1
1035.78	967.291
1039.52	1102.46
1043.25	1577.63
1046.98	2682.81
1050.71	4279.55
1054.44	4946.07
1058.17	3441.41
1061.89	2284.8
1065.62	1499.31
1069.34	1555.67
1073.06	1560.62
1076.78	1810.1
1080.49	1824.17
1084.21	2140.88
1087.92	1045.35
1091.63	710.832
1095.34	395.039
1099.05	419.123
1102.76	463.064
1106.46	696.875
1110.16	1130.56
1113.86	524.1
1117.56	687.529
1121.26	1060.81
1124.95	893.943
1128.65	426.922
1132.34	429.744
1136.03	192.408
1139.72	25.152
1143.41	513.023
1147.1	331.488
1150.78	340.535
1154.46	20.357
1158.14	269.264
1161.82	368.533
1165.5	167.598
1169.17	306.488
1172.85	165.203
1176.52	423.744
1180.19	132.109
1183.86	320.279
1187.53	348.219
1191.19	475.955
1194.86	213.359
1198.52	9.668
1202.18	186.998
1205.84	83.492
1209.49	20.229
1213.15	405.672
1216.8	701.242
1220.45	406.615
1224.11	131.814
1227.75	97.992
1231.4	522.906
1235.05	488.354
1238.69	1083.05
1242.33	699.197
1245.97	1215.67
1249.61	1170.14
1253.25	724.453
1256.88	678.602
1260.52	652.594
1264.15	1176.44
1267.78	1660.14
1271.41	2057.21
1275.04	2106.83
1278.66	1927.77
1282.29	1753.14
1285.91	1220.41
1289.53	1315.43
1293.15	1416.6
1296.76	1089.5
1300.38	1172.6
1303.99	915.688
1307.61	1908.75
1311.22	2491.78
1314.83	2583.29
1318.43	2805.11
1322.04	2048.15
1325.64	1633.11
1329.24	825.578
1332.85	468.791
1336.44	432.029
1340.04	499.5
1343.64	835.26
1347.23	907.018
1350.83	711.16
1354.42	244.496
1358.01	19.381
1361.59	244.783
1365.18	170.867
1368.76	122.125
1372.35	56.477
1375.93	286.812
1379.51	819.072
1383.09	761.23
1386.66	843.303
1390.24	845.561
1393.81	388.633
1397.38	102.879
1400.95	32.42
1404.52	117.578
1408.09	7.418
1411.65	542.674
1415.21	488.348
1418.78	604.883
1422.34	911.836
1425.9	1149.68
1429.45	1178.09
1433.01	1494.86
1436.56	2210.07
1440.12	3744.67
1443.67	4983.66
1447.21	5903.55
1450.76	6534.41
1454.31	7112.6
1457.85	6545.17
1461.39	6128.94
1464.94	4883.97
1468.47	4100.46
1472.01	3119.24
1475.55	2371.05
1479.08	1986.14
1482.62	2185.99
1486.15	1611.8
1489.68	1066.12
1493.21	573.17
1496.73	331.297
1500.26	631.604
