Measurement: Raman, 514 nm, ccw, Raman Data Processed
Mineral: Edingtonite
Rruff sample: R040110
Ideal chemistry: Ba(Si_3_Al_2_)O_10_4H_2_O
Locality: 2350 level, Brunswick 12 mine, Bathhurst, New Brunswick, Canada
Source: National Museums of Canada
Description: Colorless rectangular prism
Measured chemistry: Ba_1.00_(Si_3.00_Al_2.00_)O_10_Â·4H_2_O
Pin_id: M00390
Orientation: Laser parallel to -c* (0 0 -1). Fiducial mark perpendicular to laser is parallel to a [1 0 0]
Raman shift (cm-1)	intensity
53.91	0
58.864	208.251
63.817	5.18549
68.767	24.9474
73.714	498.823
78.659	1600.13
83.602	3016.85
88.542	4369.05
93.48	5741.26
98.416	7013.03
103.349	9086.57
108.28	11690.2
113.208	13052.6
118.134	15504.7
123.058	19284.3
127.979	25103.6
132.898	29035.5
137.814	23389.6
142.728	15888.1
147.639	11898.5
152.549	10088.3
157.455	8206.69
162.359	6222.47
167.261	5051.58
172.161	4352.83
177.058	4110.78
181.952	3634.27
186.845	3297.7
191.734	3017.77
196.622	2687.38
201.507	2536.48
206.389	2224.08
211.269	2038.12
216.147	2554.93
221.022	3752.47
225.895	8421.82
230.765	16195.2
235.633	21382.2
240.498	8922.46
245.361	3175.42
250.222	1626.63
255.08	1197.16
259.936	964.457
264.789	435.335
269.64	514.611
274.488	401.122
279.334	125.757
284.178	7.49902
289.019	32.6992
293.857	171.068
298.693	465.721
303.527	1087.17
308.358	1523.34
313.187	2047.15
318.013	1562.5
322.837	1137.09
327.659	573.949
332.478	393.088
337.294	332.262
342.108	790.008
346.92	1287.93
351.729	2388.72
356.535	3306.48
361.34	3248.15
366.141	1744.45
370.94	605.242
375.737	36.417
380.531	174.246
385.323	208.365
390.113	91.2393
394.9	545.644
399.684	1508.52
404.466	1921.35
409.245	1980.04
414.022	2006.55
418.797	3035.81
423.569	4555.78
428.338	5968.28
433.105	6832.07
437.87	5514.4
442.632	3642.64
447.391	2229.33
452.149	1188.41
456.903	599.837
461.655	87.9248
466.405	12.6787
471.152	146.7
475.897	212.37
480.639	118.584
485.378	83.2402
490.116	316.509
494.85	731.33
499.582	1170.57
504.312	2029.7
509.039	3585.93
513.764	7291.04
518.486	17751
523.206	35967.3
527.923	50762.6
532.638	33888.1
537.35	15076.9
542.059	6963.47
546.766	3888.44
551.471	2126.11
556.173	1570.94
560.873	962.159
565.57	765.052
570.264	533.675
574.957	633.918
579.646	541.437
584.333	748.174
589.018	1283.09
593.7	1674.15
598.379	2317.31
603.056	2252.97
607.73	1398.88
612.402	693.07
617.072	294.464
621.739	96.1963
626.403	116.847
631.065	57.377
635.724	350.818
640.381	615.438
645.035	1277.55
649.687	2435.06
654.336	3246.87
658.983	2928.87
663.627	1866.2
668.268	863.557
672.907	419.159
677.544	323.769
682.178	206.1
686.809	177.045
691.438	434.393
696.065	751.947
700.688	1515.25
705.31	2293.6
709.929	3138.88
714.545	3298.66
719.158	2466.15
723.77	1599.47
728.378	807.872
732.984	457.921
737.588	362.44
742.189	179.482
746.787	87.7656
751.383	106.361
755.976	95.7715
760.567	76.0205
765.155	39.6728
769.741	21.0791
774.324	75.916
778.904	144.934
783.482	49.4922
788.058	51.9492
792.631	12.2832
797.201	97.1553
801.769	124.62
806.334	119.849
810.897	140.426
815.457	192.352
820.014	185.392
824.569	222.903
829.122	178.314
833.671	280.985
838.219	135.263
842.763	186.026
847.306	316.297
851.845	263.076
856.382	190.394
860.917	326.245
865.448	183.654
869.978	196.632
874.505	196.202
879.029	105.974
883.55	324.089
888.069	237.077
892.586	219.226
897.1	140.513
901.611	167.423
906.12	122.875
910.626	118.681
915.129	20.9297
919.63	35.416
924.129	30.8496
928.625	77.4775
933.118	97.2129
937.609	135.023
942.097	261.498
946.582	630.967
951.065	1394.24
955.546	1374.83
960.023	1042.98
964.499	561.801
968.971	269.431
973.441	144.151
977.909	327.219
982.374	215.017
986.836	363.685
991.295	265.074
995.753	159.474
1000.21	324.117
1004.66	261.907
1009.11	190.658
1013.55	274.157
1018	284.644
1022.44	463.867
1026.88	298.321
1031.32	652.394
1035.75	1005.87
1040.18	1422.16
1044.61	2660.66
1049.04	4665.9
1053.46	6466.87
1057.88	5538.86
1062.3	3641.48
1066.71	2634.19
1071.13	1800.7
1075.54	1167.95
1079.94	980.47
1084.35	665.16
1088.75	540.005
1093.15	755.706
1097.55	703.843
1101.94	605.143
1106.34	583.565
1110.73	318.794
1115.11	353.575
1119.5	400.491
1123.88	219.535
1128.26	256.671
1132.63	176.186
1137.01	381.613
1141.38	40.1709
1145.75	18.1934
1150.12	11.5361
1154.48	23.6338
1158.84	46.6904
1163.2	128.602
1167.55	9.76953
1171.91	78.957
1176.26	114.47
1180.61	35.6016
1184.95	23.9824
1189.29	46.335
1193.63	82.2627
1197.97	159.412
1202.31	134.192
1206.64	93.4853
1210.97	119.818
1215.29	30.4453
1219.62	31.1543
1223.94	59.1895
1228.26	107.508
1232.57	200.855
1236.89	103.785
1241.2	220.622
1245.51	44.5098
1249.81	34.4062
1254.12	89.3262
1258.42	27.2285
1262.72	216.079
1267.01	203.682
1271.3	66.3818
1275.59	45.3975
1279.88	17.2383
1284.17	108.721
1288.45	10.1562
1292.73	148.582
1297.01	141.297
1301.28	50.0869
1305.55	134.441
1309.82	250.24
1314.09	99.4365
1318.35	99.2734
1322.61	161.668
1326.87	109.774
1331.13	67.6035
1335.38	51.3906
1339.63	29.8164
1343.88	217.943
1348.12	153.773
1352.37	94.6348
1356.61	14.3535
1360.85	63.0254
1365.08	282.988
1369.31	44.5938
1373.54	326.18
1377.77	194.424
1381.99	99.0801
1386.22	121.817
1390.43	171.341
1394.65	212.109
1398.87	149.714
1403.08	125.588
1407.29	51.3916
1411.49	114.422
1415.69	124.019
1419.89	155.946
1424.09	159.543
1428.29	225.973
1432.48	139.577
1436.67	90.2158
1440.86	234.692
1445.04	270.996
1449.23	271.335
1453.4	238.957
1457.58	380.194
1461.76	191.814
1465.93	218.6
1470.1	200.515
1474.26	90.6035
1478.43	108.083
1482.59	172.774
1486.75	181.235
1490.9	82.9932
1495.06	80.7481
1499.21	187.627
1503.35	97.5596
1507.5	226.529
1511.64	143.616
1515.78	309.937
1519.92	27.3662
1524.05	128.799
1528.18	295.458
1532.31	266.116
1536.44	174.636
1540.56	163.577
1544.69	17.8896
1548.8	314.852
1552.92	162.001
1557.03	255.49
1561.14	170.356
1565.25	112.16
1569.36	198.336
